REMARK SMILES CSCC[NH2+]CC(C)(C)C(=O)NCCCNC(=O)c1ccc(-c2c3nc(c(-c4c(F)c(F)c(F)c(F)c4F)c4ccc([nH]4)c(-c4c(F)c(F)c(F)c(F)c4F)c4nc(c(-c5c(F)c(F)c(F)c(F)c5F)c5ccc2[nH]5)C=C4)C=C3)cc1
REMARK SMILES IDX 10 1 11 2 12 3 7 5 8 6 9 7 6 8 5 9 4 12 3 13 2 14 1 15 13 16
REMARK SMILES IDX 14 17 15 18 16 19 17 20 18 22 19 23 20 24 81 25 21 26 80 27
REMARK SMILES IDX 22 28 23 29 24 30 74 31 25 32 79 33 73 34 75 35 26 36 78 37
REMARK SMILES IDX 72 38 71 39 27 41 59 42 39 43 58 44 40 45 43 46 57 47 76 48
REMARK SMILES IDX 41 49 42 50 56 52 77 53 44 54 28 55 29 56 37 57 30 58 31 59
REMARK SMILES IDX 35 60 38 61 32 62 33 63 36 64 34 65 60 66 61 67 69 68 62 69
REMARK SMILES IDX 63 70 67 71 70 72 64 73 65 74 68 75 66 76 45 77 46 78 54 79
REMARK SMILES IDX 47 80 48 81 52 82 55 83 49 84 50 85 53 86 51 87
REMARK H PARENT 12 4 5 10 5 11 16 21 75 40 43 51
REMARK Flexibility Score: inf
ROOT
ATOM      1  C   UNL     1      -1.803   4.272   0.182  1.00  0.00     0.231 C 
ATOM      2  O   UNL     1      -1.279   5.029  -0.642  1.00  0.00    -0.274 OA
ATOM      3  N   UNL     1      -3.100   3.965  -0.068  1.00  0.00    -0.355 N 
ATOM      4  H   UNL     1      -3.341   3.969  -1.022  1.00  0.00     0.163 HD
ENDROOT
BRANCH   1   5
ATOM      5  C   UNL     1      -1.041   3.745   1.411  1.00  0.00     0.092 C 
ATOM      6  C   UNL     1      -1.369   2.284   1.774  1.00  0.00     0.027 C 
ATOM      7  C   UNL     1      -1.372   4.670   2.597  1.00  0.00     0.027 C 
BRANCH   5   8
ATOM      8  C   UNL     1       0.501   3.853   1.128  1.00  0.00     0.276 C 
BRANCH   8   9
ATOM      9  N   UNL     1       1.129   2.797   0.309  1.00  0.00    -0.345 N 
ATOM     10  H   UNL     1       2.142   2.910   0.357  1.00  0.00     0.346 HD
ATOM     11  H   UNL     1       0.820   1.901   0.687  1.00  0.00     0.346 HD
BRANCH   9  12
ATOM     12  C   UNL     1       0.726   2.831  -1.102  1.00  0.00     0.271 C 
BRANCH  12  13
ATOM     13  C   UNL     1       1.327   1.695  -1.942  1.00  0.00     0.130 C 
BRANCH  13  14
ATOM     14  S   UNL     1       0.440   0.097  -1.780  1.00  0.00    -0.160 SA
ATOM     15  C   UNL     1       1.130  -0.518  -0.228  1.00  0.00     0.085 C 
ENDBRANCH  13  14
ENDBRANCH  12  13
ENDBRANCH   9  12
ENDBRANCH   8   9
ENDBRANCH   5   8
ENDBRANCH   1   5
BRANCH   3  16
ATOM     16  C   UNL     1      -4.192   3.633   0.823  1.00  0.00     0.117 C 
BRANCH  16  17
ATOM     17  C   UNL     1      -5.077   4.851   1.062  1.00  0.00     0.042 C 
BRANCH  17  18
ATOM     18  C   UNL     1      -5.734   5.388  -0.204  1.00  0.00     0.118 C 
BRANCH  18  19
ATOM     19  N   UNL     1      -6.645   4.426  -0.809  1.00  0.00    -0.352 N 
ATOM     20  C   UNL     1      -8.004   4.492  -0.981  1.00  0.00     0.251 C 
ATOM     21  H   UNL     1      -6.221   3.604  -1.147  1.00  0.00     0.163 HD
ATOM     22  O   UNL     1      -8.628   3.486  -1.315  1.00  0.00    -0.269 OA
BRANCH  20  23
ATOM     23  C   UNL     1      -8.724   5.759  -0.745  1.00  0.00     0.039 A 
ATOM     24  C   UNL     1      -9.948   5.725  -0.073  1.00  0.00     0.014 A 
ATOM     25  C   UNL     1      -8.204   6.978  -1.190  1.00  0.00     0.014 A 
ATOM     26  C   UNL     1     -10.612   6.918   0.214  1.00  0.00     0.010 A 
ATOM     27  C   UNL     1      -8.818   8.170  -0.822  1.00  0.00     0.010 A 
ATOM     28  C   UNL     1     -10.031   8.153  -0.119  1.00  0.00    -0.014 A 
BRANCH  28  29
ATOM     29  C   UNL     1     -10.678   9.432   0.269  1.00  0.00     0.031 A 
ATOM     30  C   UNL     1     -11.137  10.402  -0.785  1.00  0.00     0.074 A 
ATOM     31  C   UNL     1     -10.802   9.742   1.574  1.00  0.00     0.049 A 
ATOM     32  N   UNL     1     -11.679  11.586  -0.640  1.00  0.00    -0.248 NA
ATOM     33  C   UNL     1     -10.939  10.004  -2.188  1.00  0.00     0.031 C 
ATOM     34  C   UNL     1     -10.344   8.908   2.688  1.00  0.00     0.029 A 
ATOM     35  N   UNL     1     -11.344  10.844   2.188  1.00  0.00    -0.354 N 
ATOM     36  C   UNL     1     -11.880  12.070  -1.926  1.00  0.00     0.074 A 
ATOM     37  C   UNL     1     -11.345  11.084  -2.838  1.00  0.00     0.031 C 
ATOM     38  C   UNL     1     -10.649   9.514   3.846  1.00  0.00     0.029 A 
ATOM     39  C   UNL     1     -11.283  10.796   3.560  1.00  0.00     0.049 A 
ATOM     40  H   UNL     1     -11.739  11.597   1.692  1.00  0.00     0.167 HD
ATOM     41  C   UNL     1     -12.481  13.221  -2.311  1.00  0.00     0.037 A 
ATOM     42  C   UNL     1     -11.686  11.691   4.482  1.00  0.00     0.037 A 
ATOM     43  C   UNL     1     -13.027  14.193  -1.399  1.00  0.00     0.049 A 
ATOM     44  C   UNL     1     -12.338  12.968   4.024  1.00  0.00     0.074 A 
ATOM     45  C   UNL     1     -13.699  15.366  -1.690  1.00  0.00     0.029 A 
ATOM     46  N   UNL     1     -12.959  14.104  -0.016  1.00  0.00    -0.354 N 
ATOM     47  N   UNL     1     -12.589  13.380   2.804  1.00  0.00    -0.248 NA
ATOM     48  C   UNL     1     -12.773  13.901   5.072  1.00  0.00     0.031 C 
ATOM     49  C   UNL     1     -13.994  16.013  -0.486  1.00  0.00     0.029 A 
ATOM     50  C   UNL     1     -13.558  15.213   0.558  1.00  0.00     0.049 A 
ATOM     51  H   UNL     1     -12.547  13.362   0.483  1.00  0.00     0.167 HD
ATOM     52  C   UNL     1     -13.233  14.602   2.939  1.00  0.00     0.074 A 
ATOM     53  C   UNL     1     -13.357  14.853   4.360  1.00  0.00     0.031 C 
ATOM     54  C   UNL     1     -13.678  15.445   1.975  1.00  0.00     0.037 A 
BRANCH  41  55
ATOM     55  C   UNL     1     -12.594  13.491  -3.784  1.00  0.00     0.064 A 
ATOM     56  C   UNL     1     -13.448  12.739  -4.605  1.00  0.00     0.173 A 
ATOM     57  C   UNL     1     -11.885  14.550  -4.372  1.00  0.00     0.173 A 
ATOM     58  F   UNL     1     -14.140  11.709  -4.095  1.00  0.00    -0.203 F 
ATOM     59  C   UNL     1     -13.572  13.022  -5.963  1.00  0.00     0.198 A 
ATOM     60  C   UNL     1     -12.035  14.850  -5.724  1.00  0.00     0.198 A 
ATOM     61  F   UNL     1     -11.058  15.305  -3.633  1.00  0.00    -0.203 F 
ATOM     62  F   UNL     1     -14.361  12.262  -6.734  1.00  0.00    -0.200 F 
ATOM     63  C   UNL     1     -12.873  14.083  -6.519  1.00  0.00     0.200 A 
ATOM     64  F   UNL     1     -11.371  15.885  -6.257  1.00  0.00    -0.200 F 
ATOM     65  F   UNL     1     -13.005  14.363  -7.823  1.00  0.00    -0.200 F 
ENDBRANCH  41  55
BRANCH  42  66
ATOM     66  C   UNL     1     -11.496  11.411   5.930  1.00  0.00     0.064 A 
ATOM     67  C   UNL     1     -12.595  11.207   6.777  1.00  0.00     0.173 A 
ATOM     68  C   UNL     1     -10.217  11.368   6.503  1.00  0.00     0.173 A 
ATOM     69  F   UNL     1     -13.841  11.257   6.281  1.00  0.00    -0.203 F 
ATOM     70  C   UNL     1     -12.424  11.006   8.145  1.00  0.00     0.198 A 
ATOM     71  C   UNL     1     -10.045  11.132   7.866  1.00  0.00     0.198 A 
ATOM     72  F   UNL     1      -9.131  11.549   5.738  1.00  0.00    -0.203 F 
ATOM     73  F   UNL     1     -13.495  10.875   8.940  1.00  0.00    -0.200 F 
ATOM     74  C   UNL     1     -11.149  10.963   8.688  1.00  0.00     0.200 A 
ATOM     75  F   UNL     1      -8.810  11.074   8.383  1.00  0.00    -0.200 F 
ATOM     76  F   UNL     1     -10.984  10.771  10.003  1.00  0.00    -0.200 F 
ENDBRANCH  42  66
BRANCH  54  77
ATOM     77  C   UNL     1     -14.371  16.699   2.426  1.00  0.00     0.064 A 
ATOM     78  C   UNL     1     -13.673  17.744   3.049  1.00  0.00     0.173 A 
ATOM     79  C   UNL     1     -15.747  16.867   2.208  1.00  0.00     0.173 A 
ATOM     80  F   UNL     1     -12.358  17.627   3.294  1.00  0.00    -0.203 F 
ATOM     81  C   UNL     1     -14.333  18.895   3.470  1.00  0.00     0.198 A 
ATOM     82  C   UNL     1     -16.397  18.034   2.598  1.00  0.00     0.198 A 
ATOM     83  F   UNL     1     -16.460  15.902   1.609  1.00  0.00    -0.203 F 
ATOM     84  F   UNL     1     -13.657  19.854   4.117  1.00  0.00    -0.200 F 
ATOM     85  C   UNL     1     -15.693  19.042   3.238  1.00  0.00     0.200 A 
ATOM     86  F   UNL     1     -17.707  18.181   2.358  1.00  0.00    -0.200 F 
ATOM     87  F   UNL     1     -16.326  20.153   3.639  1.00  0.00    -0.200 F 
ENDBRANCH  54  77
ENDBRANCH  28  29
ENDBRANCH  20  23
ENDBRANCH  18  19
ENDBRANCH  17  18
ENDBRANCH  16  17
ENDBRANCH   3  16
TORSDOF 15
