REMARK SMILES O=C(NCCCNC(=O)c1ccc(N2C(=O)/C(=C/c3ccco3)SC2=S)cc1)c1ccc(-c2c3nc(c(-c4c(F)c(F)c(F)c(F)c4F)c4ccc([nH]4)c(-c4c(F)c(F)c(F)c(F)c4F)c4nc(c(-c5c(F)c(F)c(F)c(F)c5F)c5ccc2[nH]5)C=C4)C=C3)cc1
REMARK SMILES IDX 5 1 4 2 3 3 1 4 2 5 29 7 30 8 91 9 31 10 90 11 32 12 33 13
REMARK SMILES IDX 34 14 84 15 35 16 89 17 83 18 85 19 36 20 88 21 82 22 81 23
REMARK SMILES IDX 37 25 69 26 49 27 68 28 50 29 53 30 67 31 86 32 51 33 52 34
REMARK SMILES IDX 66 36 87 37 54 38 38 39 39 40 47 41 40 42 41 43 45 44 48 45
REMARK SMILES IDX 42 46 43 47 46 48 44 49 70 50 71 51 79 52 72 53 73 54 77 55
REMARK SMILES IDX 80 56 74 57 75 58 78 59 76 60 55 61 56 62 64 63 57 64 58 65
REMARK SMILES IDX 62 66 65 67 59 68 60 69 63 70 61 71 6 72 7 73 8 74 9 76
REMARK SMILES IDX 10 77 11 78 28 79 12 80 27 81 13 82 14 83 15 84 25 85 16 86
REMARK SMILES IDX 17 87 24 88 26 89 18 90 19 91 20 92 23 93 21 94 22 95
REMARK H PARENT 3 6 85 24 53 35 7 75
REMARK Flexibility Score: inf
ROOT
ATOM      1  C   UNL     1       4.829  -1.563   1.838  1.00  0.00     0.042 C 
ENDROOT
BRANCH   1   2
ATOM      2  C   UNL     1       4.479  -1.299   0.380  1.00  0.00     0.118 C 
BRANCH   2   3
ATOM      3  N   UNL     1       3.046  -1.159   0.161  1.00  0.00    -0.352 N 
ATOM      4  O   UNL     1       1.074  -0.120  -0.136  1.00  0.00    -0.269 OA
ATOM      5  C   UNL     1       2.299  -0.063  -0.190  1.00  0.00     0.251 C 
ATOM      6  H   UNL     1       2.528  -1.987   0.284  1.00  0.00     0.163 HD
BRANCH   5   7
ATOM      7  C   UNL     1       2.955   1.194  -0.611  1.00  0.00     0.039 A 
ATOM      8  C   UNL     1       4.065   1.184  -1.457  1.00  0.00     0.014 A 
ATOM      9  C   UNL     1       2.420   2.413  -0.179  1.00  0.00     0.014 A 
ATOM     10  C   UNL     1       4.734   2.369  -1.741  1.00  0.00     0.010 A 
ATOM     11  C   UNL     1       3.038   3.612  -0.543  1.00  0.00     0.010 A 
ATOM     12  C   UNL     1       4.221   3.598  -1.298  1.00  0.00    -0.014 A 
BRANCH  12  13
ATOM     13  C   UNL     1       4.907   4.860  -1.673  1.00  0.00     0.031 A 
ATOM     14  C   UNL     1       5.516   5.746  -0.625  1.00  0.00     0.074 A 
ATOM     15  C   UNL     1       4.981   5.200  -2.973  1.00  0.00     0.049 A 
ATOM     16  N   UNL     1       6.123   6.899  -0.768  1.00  0.00    -0.248 NA
ATOM     17  C   UNL     1       5.428   5.285   0.769  1.00  0.00     0.031 C 
ATOM     18  C   UNL     1       4.422   4.421  -4.080  1.00  0.00     0.029 A 
ATOM     19  N   UNL     1       5.558   6.282  -3.587  1.00  0.00    -0.354 N 
ATOM     20  C   UNL     1       6.466   7.310   0.513  1.00  0.00     0.074 A 
ATOM     21  C   UNL     1       5.978   6.297   1.425  1.00  0.00     0.031 C 
ATOM     22  C   UNL     1       4.709   5.033  -5.237  1.00  0.00     0.029 A 
ATOM     23  C   UNL     1       5.416   6.277  -4.952  1.00  0.00     0.049 A 
ATOM     24  H   UNL     1       6.029   6.994  -3.095  1.00  0.00     0.167 HD
ATOM     25  C   UNL     1       7.134   8.427   0.890  1.00  0.00     0.037 A 
ATOM     26  C   UNL     1       5.790   7.184  -5.872  1.00  0.00     0.037 A 
ATOM     27  C   UNL     1       7.630   9.423  -0.026  1.00  0.00     0.049 A 
ATOM     28  C   UNL     1       6.503   8.427  -5.426  1.00  0.00     0.074 A 
ATOM     29  C   UNL     1       8.350  10.572   0.254  1.00  0.00     0.029 A 
ATOM     30  N   UNL     1       7.451   9.391  -1.402  1.00  0.00    -0.354 N 
ATOM     31  N   UNL     1       6.848   8.791  -4.215  1.00  0.00    -0.248 NA
ATOM     32  C   UNL     1       6.876   9.387  -6.473  1.00  0.00     0.031 C 
ATOM     33  C   UNL     1       8.565  11.258  -0.946  1.00  0.00     0.029 A 
ATOM     34  C   UNL     1       8.027  10.511  -1.981  1.00  0.00     0.049 A 
ATOM     35  H   UNL     1       6.984   8.677  -1.894  1.00  0.00     0.167 HD
ATOM     36  C   UNL     1       7.497  10.009  -4.354  1.00  0.00     0.074 A 
ATOM     37  C   UNL     1       7.510  10.315  -5.770  1.00  0.00     0.031 C 
ATOM     38  C   UNL     1       8.035  10.800  -3.393  1.00  0.00     0.037 A 
BRANCH  25  39
ATOM     39  C   UNL     1       7.348   8.647   2.360  1.00  0.00     0.064 A 
ATOM     40  C   UNL     1       8.241   7.860   3.104  1.00  0.00     0.173 A 
ATOM     41  C   UNL     1       6.674   9.681   3.028  1.00  0.00     0.173 A 
ATOM     42  F   UNL     1       8.902   6.851   2.517  1.00  0.00    -0.203 F 
ATOM     43  C   UNL     1       8.428   8.082   4.467  1.00  0.00     0.198 A 
ATOM     44  C   UNL     1       6.886   9.919   4.384  1.00  0.00     0.198 A 
ATOM     45  F   UNL     1       5.815  10.469   2.364  1.00  0.00    -0.203 F 
ATOM     46  F   UNL     1       9.248   7.286   5.167  1.00  0.00    -0.200 F 
ATOM     47  C   UNL     1       7.755   9.114   5.104  1.00  0.00     0.200 A 
ATOM     48  F   UNL     1       6.245  10.925   4.995  1.00  0.00    -0.200 F 
ATOM     49  F   UNL     1       7.939   9.328   6.414  1.00  0.00    -0.200 F 
ENDBRANCH  25  39
BRANCH  26  50
ATOM     50  C   UNL     1       5.487   6.938  -7.305  1.00  0.00     0.064 A 
ATOM     51  C   UNL     1       6.509   6.644  -8.217  1.00  0.00     0.173 A 
ATOM     52  C   UNL     1       4.168   6.959  -7.783  1.00  0.00     0.173 A 
ATOM     53  F   UNL     1       7.787   6.629  -7.810  1.00  0.00    -0.203 F 
ATOM     54  C   UNL     1       6.223   6.388  -9.557  1.00  0.00     0.198 A 
ATOM     55  C   UNL     1       3.882   6.676  -9.116  1.00  0.00     0.198 A 
ATOM     56  F   UNL     1       3.155   7.229  -6.947  1.00  0.00    -0.203 F 
ATOM     57  F   UNL     1       7.221   6.141 -10.416  1.00  0.00    -0.200 F 
ATOM     58  C   UNL     1       4.910   6.396 -10.003  1.00  0.00     0.200 A 
ATOM     59  F   UNL     1       2.610   6.666  -9.538  1.00  0.00    -0.200 F 
ATOM     60  F   UNL     1       4.635   6.137 -11.288  1.00  0.00    -0.200 F 
ENDBRANCH  26  50
BRANCH  38  61
ATOM     61  C   UNL     1       8.716  12.058  -3.846  1.00  0.00     0.064 A 
ATOM     62  C   UNL     1       7.989  13.163  -4.313  1.00  0.00     0.173 A 
ATOM     63  C   UNL     1      10.113  12.172  -3.773  1.00  0.00     0.173 A 
ATOM     64  F   UNL     1       6.653  13.097  -4.417  1.00  0.00    -0.203 F 
ATOM     65  C   UNL     1       8.638  14.328  -4.713  1.00  0.00     0.198 A 
ATOM     66  C   UNL     1      10.756  13.348  -4.147  1.00  0.00     0.198 A 
ATOM     67  F   UNL     1      10.852  11.145  -3.329  1.00  0.00    -0.203 F 
ATOM     68  F   UNL     1       7.928  15.355  -5.199  1.00  0.00    -0.200 F 
ATOM     69  C   UNL     1      10.019  14.422  -4.623  1.00  0.00     0.200 A 
ATOM     70  F   UNL     1      12.089  13.442  -4.048  1.00  0.00    -0.200 F 
ATOM     71  F   UNL     1      10.641  15.547  -5.001  1.00  0.00    -0.200 F 
ENDBRANCH  38  61
ENDBRANCH  12  13
ENDBRANCH   5   7
ENDBRANCH   2   3
ENDBRANCH   1   2
BRANCH   1  72
ATOM     72  C   UNL     1       4.279  -2.876   2.378  1.00  0.00     0.118 C 
BRANCH  72  73
ATOM     73  N   UNL     1       4.814  -4.028   1.667  1.00  0.00    -0.352 N 
ATOM     74  C   UNL     1       5.693  -4.988   2.097  1.00  0.00     0.251 C 
ATOM     75  H   UNL     1       4.498  -4.133   0.740  1.00  0.00     0.163 HD
ATOM     76  O   UNL     1       6.212  -5.756   1.294  1.00  0.00    -0.269 OA
BRANCH  74  77
ATOM     77  C   UNL     1       6.020  -5.093   3.532  1.00  0.00     0.039 A 
ATOM     78  C   UNL     1       7.357  -5.162   3.920  1.00  0.00     0.016 A 
ATOM     79  C   UNL     1       5.008  -5.153   4.491  1.00  0.00     0.016 A 
ATOM     80  C   UNL     1       7.680  -5.228   5.278  1.00  0.00     0.027 A 
ATOM     81  C   UNL     1       5.335  -5.210   5.846  1.00  0.00     0.027 A 
ATOM     82  C   UNL     1       6.674  -5.256   6.260  1.00  0.00     0.051 A 
BRANCH  82  83
ATOM     83  N   UNL     1       7.015  -5.303   7.647  1.00  0.00    -0.261 N 
ATOM     84  C   UNL     1       8.043  -4.490   8.129  1.00  0.00     0.270 C 
ATOM     85  C   UNL     1       6.389  -6.120   8.582  1.00  0.00     0.152 C 
ATOM     86  O   UNL     1       8.724  -3.693   7.501  1.00  0.00    -0.268 OA
ATOM     87  C   UNL     1       8.204  -4.682   9.596  1.00  0.00     0.084 C 
ATOM     88  S   UNL     1       7.062  -5.819  10.180  1.00  0.00    -0.054 SA
ATOM     89  S   UNL     1       5.254  -7.334   8.377  1.00  0.00    -0.051 S 
ATOM     90  C   UNL     1       9.113  -3.986  10.291  1.00  0.00     0.068 C 
BRANCH  90  91
ATOM     91  C   UNL     1       9.317  -4.140  11.688  1.00  0.00     0.127 A 
ATOM     92  C   UNL     1       9.608  -5.281  12.429  1.00  0.00     0.050 A 
ATOM     93  O   UNL     1       9.277  -3.079  12.562  1.00  0.00    -0.465 OA
ATOM     94  C   UNL     1       9.704  -4.904  13.788  1.00  0.00     0.042 A 
ATOM     95  C   UNL     1       9.487  -3.551  13.815  1.00  0.00     0.195 A 
ENDBRANCH  90  91
ENDBRANCH  82  83
ENDBRANCH  74  77
ENDBRANCH  72  73
ENDBRANCH   1  72
TORSDOF 12
