REMARK SMILES COCc1cccc(O[C@@H](C)c2ccc(C(=O)NCCCNC(=O)c3ccc(-c4c5nc(c(-c6c(F)c(F)c(F)c(F)c6F)c6ccc([nH]6)c(-c6c(F)c(F)c(F)c(F)c6F)c6nc(c(-c7c(F)c(F)c(F)c(F)c7F)c7ccc4[nH]7)C=C6)C=C5)cc3)o2)c1
REMARK SMILES IDX 16 1 17 2 18 3 15 5 12 6 13 7 88 8 14 9 10 10 11 11 9 12
REMARK SMILES IDX 8 13 4 14 5 15 89 16 6 17 7 18 3 19 2 20 1 21 19 22 20 23
REMARK SMILES IDX 21 24 22 25 23 26 24 28 25 29 26 30 87 31 27 32 86 33 28 34
REMARK SMILES IDX 29 35 30 36 80 37 31 38 85 39 79 40 81 41 32 42 84 43 78 44
REMARK SMILES IDX 77 45 33 47 65 48 45 49 64 50 46 51 49 52 63 53 82 54 47 55
REMARK SMILES IDX 48 56 62 58 83 59 50 60 34 61 35 62 43 63 36 64 37 65 41 66
REMARK SMILES IDX 44 67 38 68 39 69 42 70 40 71 66 72 67 73 75 74 68 75 69 76
REMARK SMILES IDX 73 77 76 78 70 79 71 80 74 81 72 82 51 83 52 84 60 85 53 86
REMARK SMILES IDX 54 87 58 88 61 89 55 90 56 91 59 92 57 93
REMARK H PARENT 18 4 22 27 81 46 49 57
REMARK Flexibility Score: inf
ROOT
ATOM      1  C   UNL     1       0.675  -4.141   5.068  1.00  0.00     0.286 C 
ATOM      2  O   UNL     1       1.224  -3.073   4.780  1.00  0.00    -0.266 OA
ATOM      3  N   UNL     1      -0.222  -4.074   6.107  1.00  0.00    -0.349 N 
ATOM      4  H   UNL     1      -0.297  -3.182   6.517  1.00  0.00     0.163 HD
ENDROOT
BRANCH   1   5
ATOM      5  C   UNL     1       0.930  -5.372   4.341  1.00  0.00     0.191 A 
ATOM      6  C   UNL     1       1.666  -6.422   2.525  1.00  0.00     0.145 A 
ATOM      7  C   UNL     1       1.098  -7.385   3.330  1.00  0.00     0.050 A 
ATOM      8  O   UNL     1       1.625  -5.226   3.167  1.00  0.00    -0.452 OA
ATOM      9  C   UNL     1       0.656  -6.718   4.504  1.00  0.00     0.057 A 
BRANCH   6  10
ATOM     10  C   UNL     1       2.301  -6.463   1.171  1.00  0.00     0.236 C 
ATOM     11  C   UNL     1       3.671  -5.807   1.062  1.00  0.00     0.062 C 
BRANCH  10  12
ATOM     12  O   UNL     1       1.376  -6.099   0.133  1.00  0.00    -0.483 OA
BRANCH  12  13
ATOM     13  C   UNL     1       0.791  -4.874   0.009  1.00  0.00     0.120 A 
ATOM     14  C   UNL     1       0.369  -2.522   0.518  1.00  0.00    -0.019 A 
ATOM     15  C   UNL     1      -0.670  -2.509  -0.418  1.00  0.00     0.006 A 
ATOM     16  C   UNL     1       1.092  -3.713   0.716  1.00  0.00     0.052 A 
ATOM     17  C   UNL     1      -0.956  -3.652  -1.162  1.00  0.00     0.004 A 
ATOM     18  C   UNL     1      -0.228  -4.824  -0.947  1.00  0.00     0.046 A 
BRANCH  14  19
ATOM     19  C   UNL     1       0.678  -1.323   1.387  1.00  0.00     0.195 C 
BRANCH  19  20
ATOM     20  O   UNL     1       0.313  -0.076   0.788  1.00  0.00    -0.380 OA
ATOM     21  C   UNL     1       1.266   0.371  -0.168  1.00  0.00     0.195 C 
ENDBRANCH  19  20
ENDBRANCH  14  19
ENDBRANCH  12  13
ENDBRANCH  10  12
ENDBRANCH   6  10
ENDBRANCH   1   5
BRANCH   3  22
ATOM     22  C   UNL     1      -1.077  -5.075   6.708  1.00  0.00     0.118 C 
BRANCH  22  23
ATOM     23  C   UNL     1      -0.440  -5.671   7.961  1.00  0.00     0.042 C 
BRANCH  23  24
ATOM     24  C   UNL     1      -0.493  -4.731   9.166  1.00  0.00     0.118 C 
BRANCH  24  25
ATOM     25  N   UNL     1      -1.854  -4.550   9.656  1.00  0.00    -0.352 N 
ATOM     26  C   UNL     1      -2.407  -4.831  10.879  1.00  0.00     0.251 C 
ATOM     27  H   UNL     1      -2.478  -4.161   9.002  1.00  0.00     0.163 HD
ATOM     28  O   UNL     1      -3.629  -4.815  11.004  1.00  0.00    -0.269 OA
BRANCH  26  29
ATOM     29  C   UNL     1      -1.560  -5.155  12.047  1.00  0.00     0.039 A 
ATOM     30  C   UNL     1      -2.001  -6.135  12.943  1.00  0.00     0.014 A 
ATOM     31  C   UNL     1      -0.377  -4.459  12.306  1.00  0.00     0.014 A 
ATOM     32  C   UNL     1      -1.235  -6.449  14.068  1.00  0.00     0.010 A 
ATOM     33  C   UNL     1       0.420  -4.819  13.391  1.00  0.00     0.010 A 
ATOM     34  C   UNL     1      -0.005  -5.811  14.288  1.00  0.00    -0.014 A 
BRANCH  34  35
ATOM     35  C   UNL     1       0.846  -6.166  15.451  1.00  0.00     0.031 A 
ATOM     36  C   UNL     1       1.112  -5.159  16.535  1.00  0.00     0.074 A 
ATOM     37  C   UNL     1       1.429  -7.379  15.501  1.00  0.00     0.049 A 
ATOM     38  N   UNL     1       1.869  -5.265  17.599  1.00  0.00    -0.248 NA
ATOM     39  C   UNL     1       0.460  -3.848  16.392  1.00  0.00     0.031 C 
ATOM     40  C   UNL     1       1.282  -8.428  14.491  1.00  0.00     0.029 A 
ATOM     41  N   UNL     1       2.267  -7.932  16.436  1.00  0.00    -0.354 N 
ATOM     42  C   UNL     1       1.802  -4.032  18.235  1.00  0.00     0.074 A 
ATOM     43  C   UNL     1       0.968  -3.179  17.416  1.00  0.00     0.031 C 
ATOM     44  C   UNL     1       1.980  -9.508  14.875  1.00  0.00     0.029 A 
ATOM     45  C   UNL     1       2.652  -9.216  16.137  1.00  0.00     0.049 A 
ATOM     46  H   UNL     1       2.564  -7.454  17.244  1.00  0.00     0.167 HD
ATOM     47  C   UNL     1       2.369  -3.653  19.406  1.00  0.00     0.037 A 
ATOM     48  C   UNL     1       3.458 -10.061  16.807  1.00  0.00     0.037 A 
ATOM     49  C   UNL     1       3.172  -4.515  20.234  1.00  0.00     0.049 A 
ATOM     50  C   UNL     1       4.077  -9.614  18.102  1.00  0.00     0.074 A 
ATOM     51  C   UNL     1       3.727  -4.252  21.474  1.00  0.00     0.029 A 
ATOM     52  N   UNL     1       3.539  -5.811  19.900  1.00  0.00    -0.354 N 
ATOM     53  N   UNL     1       3.948  -8.473  18.732  1.00  0.00    -0.248 NA
ATOM     54  C   UNL     1       4.954 -10.579  18.781  1.00  0.00     0.031 C 
ATOM     55  C   UNL     1       4.467  -5.372  21.870  1.00  0.00     0.029 A 
ATOM     56  C   UNL     1       4.334  -6.351  20.898  1.00  0.00     0.049 A 
ATOM     57  H   UNL     1       3.273  -6.278  19.075  1.00  0.00     0.167 HD
ATOM     58  C   UNL     1       4.698  -8.590  19.894  1.00  0.00     0.074 A 
ATOM     59  C   UNL     1       5.272  -9.920  19.887  1.00  0.00     0.031 C 
ATOM     60  C   UNL     1       4.893  -7.679  20.879  1.00  0.00     0.037 A 
BRANCH  47  61
ATOM     61  C   UNL     1       2.144  -2.238  19.857  1.00  0.00     0.064 A 
ATOM     62  C   UNL     1       0.886  -1.791  20.289  1.00  0.00     0.173 A 
ATOM     63  C   UNL     1       3.206  -1.320  19.875  1.00  0.00     0.173 A 
ATOM     64  F   UNL     1      -0.165  -2.625  20.282  1.00  0.00    -0.203 F 
ATOM     65  C   UNL     1       0.690  -0.470  20.685  1.00  0.00     0.198 A 
ATOM     66  C   UNL     1       3.013  -0.008  20.301  1.00  0.00     0.198 A 
ATOM     67  F   UNL     1       4.432  -1.695  19.480  1.00  0.00    -0.203 F 
ATOM     68  F   UNL     1      -0.533  -0.053  21.038  1.00  0.00    -0.200 F 
ATOM     69  C   UNL     1       1.754   0.418  20.695  1.00  0.00     0.200 A 
ATOM     70  F   UNL     1       4.046   0.846  20.323  1.00  0.00    -0.200 F 
ATOM     71  F   UNL     1       1.565   1.689  21.077  1.00  0.00    -0.200 F 
ENDBRANCH  47  61
BRANCH  48  72
ATOM     72  C   UNL     1       3.688 -11.433  16.287  1.00  0.00     0.064 A 
ATOM     73  C   UNL     1       3.135 -12.544  16.939  1.00  0.00     0.173 A 
ATOM     74  C   UNL     1       4.451 -11.664  15.134  1.00  0.00     0.173 A 
ATOM     75  F   UNL     1       2.414 -12.374  18.057  1.00  0.00    -0.203 F 
ATOM     76  C   UNL     1       3.349 -13.837  16.465  1.00  0.00     0.198 A 
ATOM     77  C   UNL     1       4.643 -12.955  14.647  1.00  0.00     0.198 A 
ATOM     78  F   UNL     1       4.996 -10.634  14.471  1.00  0.00    -0.203 F 
ATOM     79  F   UNL     1       2.841 -14.884  17.130  1.00  0.00    -0.200 F 
ATOM     80  C   UNL     1       4.098 -14.041  15.316  1.00  0.00     0.200 A 
ATOM     81  F   UNL     1       5.356 -13.148  13.528  1.00  0.00    -0.200 F 
ATOM     82  F   UNL     1       4.299 -15.283  14.857  1.00  0.00    -0.200 F 
ENDBRANCH  48  72
BRANCH  60  83
ATOM     83  C   UNL     1       5.734  -8.104  22.047  1.00  0.00     0.064 A 
ATOM     84  C   UNL     1       7.123  -8.261  21.936  1.00  0.00     0.173 A 
ATOM     85  C   UNL     1       5.144  -8.332  23.299  1.00  0.00     0.173 A 
ATOM     86  F   UNL     1       7.732  -8.072  20.756  1.00  0.00    -0.203 F 
ATOM     87  C   UNL     1       7.887  -8.657  23.031  1.00  0.00     0.198 A 
ATOM     88  C   UNL     1       5.915  -8.700  24.398  1.00  0.00     0.198 A 
ATOM     89  F   UNL     1       3.819  -8.191  23.459  1.00  0.00    -0.203 F 
ATOM     90  F   UNL     1       9.206  -8.850  22.890  1.00  0.00    -0.200 F 
ATOM     91  C   UNL     1       7.284  -8.870  24.262  1.00  0.00     0.200 A 
ATOM     92  F   UNL     1       5.332  -8.893  25.590  1.00  0.00    -0.200 F 
ATOM     93  F   UNL     1       8.022  -9.247  25.314  1.00  0.00    -0.200 F 
ENDBRANCH  60  83
ENDBRANCH  34  35
ENDBRANCH  26  29
ENDBRANCH  24  25
ENDBRANCH  23  24
ENDBRANCH  22  23
ENDBRANCH   3  22
TORSDOF 15
