REMARK SMILES O=C(NCCCNC(=O)[C@@H]1C[N@@H+](CC(=O)c2ccc[nH]2)CC[NH2+]1)c1ccc(-c2c3nc(c(-c4c(F)c(F)c(F)c(F)c4F)c4ccc([nH]4)c(-c4c(F)c(F)c(F)c(F)c4F)c4nc(c(-c5c(F)c(F)c(F)c(F)c5F)c5ccc2[nH]5)C=C4)C=C3)cc1
REMARK SMILES IDX 5 1 4 2 3 3 1 4 2 5 24 7 25 8 86 9 26 10 85 11 27 12 28 13
REMARK SMILES IDX 29 14 79 15 30 16 84 17 78 18 80 19 31 20 83 21 77 22 76 23
REMARK SMILES IDX 32 25 64 26 44 27 63 28 45 29 48 30 62 31 81 32 46 33 47 34
REMARK SMILES IDX 61 36 82 37 49 38 33 39 34 40 42 41 35 42 36 43 40 44 43 45
REMARK SMILES IDX 37 46 38 47 41 48 39 49 65 50 66 51 74 52 67 53 68 54 72 55
REMARK SMILES IDX 75 56 69 57 70 58 73 59 71 60 50 61 51 62 59 63 52 64 53 65
REMARK SMILES IDX 57 66 60 67 54 68 55 69 58 70 56 71 6 72 7 73 8 74 9 76
REMARK SMILES IDX 10 77 11 78 23 79 12 80 22 81 21 84 13 86 14 87 15 88 16 89
REMARK SMILES IDX 17 90 20 91 18 92 19 93
REMARK H PARENT 3 6 80 24 48 35 7 75 23 82 23 83 12 85 20 94
REMARK Flexibility Score: inf
ROOT
ATOM      1  C   UNL     1       4.385  -2.203  -0.924  1.00  0.00     0.042 C 
ENDROOT
BRANCH   1   2
ATOM      2  C   UNL     1       4.029  -0.787  -1.376  1.00  0.00     0.118 C 
BRANCH   2   3
ATOM      3  N   UNL     1       2.649  -0.384  -1.157  1.00  0.00    -0.352 N 
ATOM      4  O   UNL     1       0.759   0.341  -0.239  1.00  0.00    -0.269 OA
ATOM      5  C   UNL     1       1.893  -0.123  -0.047  1.00  0.00     0.251 C 
ATOM      6  H   UNL     1       2.146  -0.274  -1.996  1.00  0.00     0.163 HD
BRANCH   5   7
ATOM      7  C   UNL     1       2.306  -0.393   1.356  1.00  0.00     0.039 A 
ATOM      8  C   UNL     1       3.618  -0.319   1.827  1.00  0.00     0.014 A 
ATOM      9  C   UNL     1       1.275  -0.660   2.277  1.00  0.00     0.014 A 
ATOM     10  C   UNL     1       3.897  -0.529   3.183  1.00  0.00     0.010 A 
ATOM     11  C   UNL     1       1.547  -0.867   3.633  1.00  0.00     0.010 A 
ATOM     12  C   UNL     1       2.864  -0.791   4.094  1.00  0.00    -0.014 A 
BRANCH  12  13
ATOM     13  C   UNL     1       3.164  -0.767   5.553  1.00  0.00     0.031 A 
ATOM     14  C   UNL     1       3.255   0.651   6.126  1.00  0.00     0.074 A 
ATOM     15  C   UNL     1       3.327  -1.953   6.208  1.00  0.00     0.049 A 
ATOM     16  N   UNL     1       3.835   1.075   7.209  1.00  0.00    -0.248 NA
ATOM     17  C   UNL     1       2.653   1.770   5.355  1.00  0.00     0.031 C 
ATOM     18  C   UNL     1       3.185  -3.267   5.564  1.00  0.00     0.029 A 
ATOM     19  N   UNL     1       3.635  -2.308   7.514  1.00  0.00    -0.354 N 
ATOM     20  C   UNL     1       3.509   2.440   7.346  1.00  0.00     0.074 A 
ATOM     21  C   UNL     1       2.881   2.836   6.123  1.00  0.00     0.031 C 
ATOM     22  C   UNL     1       3.457  -4.256   6.438  1.00  0.00     0.029 A 
ATOM     23  C   UNL     1       3.785  -3.702   7.739  1.00  0.00     0.049 A 
ATOM     24  H   UNL     1       3.743  -1.642   8.232  1.00  0.00     0.167 HD
ATOM     25  C   UNL     1       3.641   3.131   8.514  1.00  0.00     0.037 A 
ATOM     26  C   UNL     1       4.164  -4.375   8.872  1.00  0.00     0.037 A 
ATOM     27  C   UNL     1       4.249   2.328   9.519  1.00  0.00     0.049 A 
ATOM     28  C   UNL     1       4.234  -3.376   9.952  1.00  0.00     0.074 A 
ATOM     29  C   UNL     1       5.525   1.888   9.745  1.00  0.00     0.029 A 
ATOM     30  N   UNL     1       3.405   1.695  10.394  1.00  0.00    -0.354 N 
ATOM     31  N   UNL     1       3.200  -2.874  10.560  1.00  0.00    -0.248 NA
ATOM     32  C   UNL     1       5.549  -2.901  10.404  1.00  0.00     0.031 C 
ATOM     33  C   UNL     1       5.372   0.732  10.543  1.00  0.00     0.029 A 
ATOM     34  C   UNL     1       4.010   0.529  10.786  1.00  0.00     0.049 A 
ATOM     35  H   UNL     1       2.524   2.019  10.689  1.00  0.00     0.167 HD
ATOM     36  C   UNL     1       3.743  -1.801  11.230  1.00  0.00     0.074 A 
ATOM     37  C   UNL     1       5.156  -2.064  11.360  1.00  0.00     0.031 C 
ATOM     38  C   UNL     1       3.151  -0.588  11.109  1.00  0.00     0.037 A 
BRANCH  25  39
ATOM     39  C   UNL     1       3.034   4.436   8.966  1.00  0.00     0.064 A 
ATOM     40  C   UNL     1       3.593   5.074  10.104  1.00  0.00     0.173 A 
ATOM     41  C   UNL     1       1.754   4.864   8.588  1.00  0.00     0.173 A 
ATOM     42  F   UNL     1       4.829   4.764  10.527  1.00  0.00    -0.203 F 
ATOM     43  C   UNL     1       2.862   5.965  10.887  1.00  0.00     0.198 A 
ATOM     44  C   UNL     1       1.046   5.803   9.346  1.00  0.00     0.198 A 
ATOM     45  F   UNL     1       1.115   4.314   7.549  1.00  0.00    -0.203 F 
ATOM     46  F   UNL     1       3.377   6.421  12.038  1.00  0.00    -0.200 F 
ATOM     47  C   UNL     1       1.580   6.316  10.516  1.00  0.00     0.200 A 
ATOM     48  F   UNL     1      -0.196   6.147   8.979  1.00  0.00    -0.200 F 
ATOM     49  F   UNL     1       0.846   7.116  11.302  1.00  0.00    -0.200 F 
ENDBRANCH  25  39
BRANCH  26  50
ATOM     50  C   UNL     1       4.530  -5.799   9.274  1.00  0.00     0.064 A 
ATOM     51  C   UNL     1       4.442  -6.937   8.462  1.00  0.00     0.173 A 
ATOM     52  C   UNL     1       5.080  -6.066  10.565  1.00  0.00     0.173 A 
ATOM     53  F   UNL     1       3.847  -6.900   7.268  1.00  0.00    -0.203 F 
ATOM     54  C   UNL     1       4.951  -8.190   8.856  1.00  0.00     0.198 A 
ATOM     55  C   UNL     1       5.619  -7.298  10.944  1.00  0.00     0.198 A 
ATOM     56  F   UNL     1       5.119  -5.134  11.526  1.00  0.00    -0.203 F 
ATOM     57  F   UNL     1       4.847  -9.235   8.024  1.00  0.00    -0.200 F 
ATOM     58  C   UNL     1       5.570  -8.361  10.079  1.00  0.00     0.200 A 
ATOM     59  F   UNL     1       6.199  -7.429  12.146  1.00  0.00    -0.200 F 
ATOM     60  F   UNL     1       6.100  -9.541  10.425  1.00  0.00    -0.200 F 
ENDBRANCH  26  50
BRANCH  38  61
ATOM     61  C   UNL     1       1.671  -0.682  10.812  1.00  0.00     0.064 A 
ATOM     62  C   UNL     1       0.787  -1.171  11.785  1.00  0.00     0.173 A 
ATOM     63  C   UNL     1       1.129  -0.443   9.538  1.00  0.00     0.173 A 
ATOM     64  F   UNL     1       1.230  -1.426  13.025  1.00  0.00    -0.203 F 
ATOM     65  C   UNL     1      -0.559  -1.410  11.492  1.00  0.00     0.198 A 
ATOM     66  C   UNL     1      -0.215  -0.667   9.247  1.00  0.00     0.198 A 
ATOM     67  F   UNL     1       1.901   0.006   8.550  1.00  0.00    -0.203 F 
ATOM     68  F   UNL     1      -1.374  -1.886  12.443  1.00  0.00    -0.200 F 
ATOM     69  C   UNL     1      -1.059  -1.158  10.224  1.00  0.00     0.200 A 
ATOM     70  F   UNL     1      -0.687  -0.405   8.018  1.00  0.00    -0.200 F 
ATOM     71  F   UNL     1      -2.351  -1.380   9.947  1.00  0.00    -0.200 F 
ENDBRANCH  38  61
ENDBRANCH  12  13
ENDBRANCH   5   7
ENDBRANCH   2   3
ENDBRANCH   1   2
BRANCH   1  72
ATOM     72  C   UNL     1       3.883  -3.321  -1.839  1.00  0.00     0.118 C 
BRANCH  72  73
ATOM     73  N   UNL     1       4.745  -3.509  -2.996  1.00  0.00    -0.351 N 
ATOM     74  C   UNL     1       5.604  -4.527  -3.306  1.00  0.00     0.284 C 
ATOM     75  H   UNL     1       4.702  -2.787  -3.664  1.00  0.00     0.163 HD
ATOM     76  O   UNL     1       6.187  -4.463  -4.394  1.00  0.00    -0.268 OA
BRANCH  74  77
ATOM     77  C   UNL     1       5.804  -5.729  -2.356  1.00  0.00     0.328 C 
ATOM     78  C   UNL     1       7.307  -6.127  -2.349  1.00  0.00     0.339 C 
ATOM     79  N   UNL     1       4.953  -6.853  -2.831  1.00  0.00    -0.327 N 
ATOM     80  N   UNL     1       7.646  -7.359  -1.617  1.00  0.00    -0.318 N 
ATOM     81  C   UNL     1       5.212  -8.051  -2.012  1.00  0.00     0.323 C 
ATOM     82  H   UNL     1       5.171  -7.055  -3.807  1.00  0.00     0.347 HD
ATOM     83  H   UNL     1       3.970  -6.592  -2.749  1.00  0.00     0.347 HD
ATOM     84  C   UNL     1       6.703  -8.448  -1.904  1.00  0.00     0.324 C 
ATOM     85  H   UNL     1       8.544  -7.651  -2.002  1.00  0.00     0.348 HD
BRANCH  80  86
ATOM     86  C   UNL     1       7.994  -7.195  -0.197  1.00  0.00     0.346 C 
BRANCH  86  87
ATOM     87  C   UNL     1       6.869  -6.710   0.707  1.00  0.00     0.232 C 
ATOM     88  O   UNL     1       6.013  -7.505   1.139  1.00  0.00    -0.286 OA
BRANCH  87  89
ATOM     89  C   UNL     1       6.799  -5.303   1.048  1.00  0.00     0.088 A 
ATOM     90  C   UNL     1       7.611  -4.227   0.716  1.00  0.00     0.031 A 
ATOM     91  N   UNL     1       5.785  -4.801   1.834  1.00  0.00    -0.359 N 
ATOM     92  C   UNL     1       7.066  -3.066   1.315  1.00  0.00     0.020 A 
ATOM     93  C   UNL     1       5.942  -3.455   2.003  1.00  0.00     0.083 A 
ATOM     94  H   UNL     1       5.053  -5.336   2.217  1.00  0.00     0.166 HD
ENDBRANCH  87  89
ENDBRANCH  86  87
ENDBRANCH  80  86
ENDBRANCH  74  77
ENDBRANCH  72  73
ENDBRANCH   1  72
TORSDOF 13
