REMARK SMILES CCOc1ccc(-c2cnc(N)cc2C(=O)NCCCNC(=O)c2ccc(-c3c4nc(c(-c5c(F)c(F)c(F)c(F)c5F)c5ccc([nH]5)c(-c5c(F)c(F)c(F)c(F)c5F)c5nc(c(-c6c(F)c(F)c(F)c(F)c6F)c6ccc3[nH]6)C=C5)C=C4)cc2)c(Cl)c1
REMARK SMILES IDX 18 1 17 2 15 3 16 4 14 6 8 7 9 8 10 9 13 10 11 11 7 12 4 13
REMARK SMILES IDX 5 14 89 15 6 16 87 17 88 18 3 19 2 20 1 21 12 22 19 25 20 26
REMARK SMILES IDX 21 27 22 28 23 30 24 31 25 32 86 33 26 34 85 35 27 36 28 37
REMARK SMILES IDX 29 38 79 39 30 40 84 41 78 42 80 43 31 44 83 45 77 46 76 47
REMARK SMILES IDX 32 49 64 50 44 51 63 52 45 53 48 54 62 55 81 56 46 57 47 58
REMARK SMILES IDX 61 60 82 61 49 62 33 63 34 64 42 65 35 66 36 67 40 68 43 69
REMARK SMILES IDX 37 70 38 71 41 72 39 73 65 74 66 75 74 76 67 77 68 78 72 79
REMARK SMILES IDX 75 80 69 81 70 82 73 83 71 84 50 85 51 86 59 87 52 88 53 89
REMARK SMILES IDX 57 90 60 91 54 92 55 93 58 94 56 95
REMARK H PARENT 17 5 12 23 12 24 21 29 80 48 48 59
REMARK Flexibility Score: inf
ROOT
ATOM      1  C   UNL     1       9.098   4.478  -2.500  1.00  0.00     0.118 C 
ENDROOT
BRANCH   1   2
ATOM      2  N   UNL     1       7.678   4.191  -2.471  1.00  0.00    -0.352 N 
ATOM      3  C   UNL     1       6.888   3.106  -2.746  1.00  0.00     0.252 C 
ATOM      4  O   UNL     1       5.699   3.288  -2.483  1.00  0.00    -0.269 OA
ATOM      5  H   UNL     1       7.149   4.969  -2.181  1.00  0.00     0.163 HD
BRANCH   3   6
ATOM      6  C   UNL     1       7.377   1.774  -3.252  1.00  0.00     0.052 A 
ATOM      7  C   UNL     1       6.518   0.651  -3.271  1.00  0.00     0.014 A 
ATOM      8  C   UNL     1       7.107  -0.578  -3.587  1.00  0.00     0.123 A 
ATOM      9  N   UNL     1       8.414  -0.774  -3.866  1.00  0.00    -0.239 NA
ATOM     10  C   UNL     1       8.697   1.585  -3.674  1.00  0.00     0.061 A 
ATOM     11  C   UNL     1       9.188   0.309  -3.904  1.00  0.00     0.124 A 
BRANCH   7  12
ATOM     12  C   UNL     1       5.070   0.656  -2.981  1.00  0.00     0.003 A 
ATOM     13  C   UNL     1       2.324   0.562  -2.339  1.00  0.00     0.120 A 
ATOM     14  C   UNL     1       3.247  -0.122  -1.557  1.00  0.00     0.047 A 
ATOM     15  C   UNL     1       2.746   1.245  -3.476  1.00  0.00     0.067 A 
ATOM     16  C   UNL     1       4.607  -0.053  -1.858  1.00  0.00     0.014 A 
ATOM     17  C   UNL     1       4.107   1.277  -3.806  1.00  0.00     0.052 A 
ATOM     18  Cl  UNL     1       4.546   2.060  -5.291  1.00  0.00    -0.084 Cl
BRANCH  13  19
ATOM     19  O   UNL     1       0.981   0.472  -2.102  1.00  0.00    -0.494 OA
BRANCH  19  20
ATOM     20  C   UNL     1       0.572   1.081  -0.869  1.00  0.00     0.226 C 
ATOM     21  C   UNL     1       0.550   0.083   0.279  1.00  0.00     0.049 C 
ENDBRANCH  19  20
ENDBRANCH  13  19
ENDBRANCH   7  12
BRANCH  11  22
ATOM     22  N   UNL     1      10.518   0.109  -4.217  1.00  0.00    -0.384 N 
ATOM     23  H   UNL     1      10.854  -0.802  -4.378  1.00  0.00     0.158 HD
ATOM     24  H   UNL     1      11.130   0.877  -4.279  1.00  0.00     0.158 HD
ENDBRANCH  11  22
ENDBRANCH   3   6
ENDBRANCH   1   2
BRANCH   1  25
ATOM     25  C   UNL     1       9.493   5.175  -3.799  1.00  0.00     0.042 C 
BRANCH  25  26
ATOM     26  C   UNL     1       8.996   6.619  -3.870  1.00  0.00     0.118 C 
BRANCH  26  27
ATOM     27  N   UNL     1       9.612   7.457  -2.847  1.00  0.00    -0.352 N 
ATOM     28  C   UNL     1      10.454   8.532  -2.977  1.00  0.00     0.251 C 
ATOM     29  H   UNL     1       9.390   7.213  -1.919  1.00  0.00     0.163 HD
ATOM     30  O   UNL     1      11.081   8.942  -2.007  1.00  0.00    -0.269 OA
BRANCH  28  31
ATOM     31  C   UNL     1      10.603   9.195  -4.286  1.00  0.00     0.039 A 
ATOM     32  C   UNL     1      11.875   9.586  -4.713  1.00  0.00     0.014 A 
ATOM     33  C   UNL     1       9.482   9.454  -5.079  1.00  0.00     0.014 A 
ATOM     34  C   UNL     1      12.030  10.176  -5.969  1.00  0.00     0.010 A 
ATOM     35  C   UNL     1       9.647   9.968  -6.358  1.00  0.00     0.010 A 
ATOM     36  C   UNL     1      10.921  10.335  -6.816  1.00  0.00    -0.014 A 
BRANCH  36  37
ATOM     37  C   UNL     1      11.062  10.877  -8.189  1.00  0.00     0.031 A 
ATOM     38  C   UNL     1      10.379  12.163  -8.561  1.00  0.00     0.074 A 
ATOM     39  C   UNL     1      11.725  10.165  -9.119  1.00  0.00     0.049 A 
ATOM     40  N   UNL     1      10.273  12.737  -9.732  1.00  0.00    -0.248 NA
ATOM     41  C   UNL     1       9.697  12.883  -7.475  1.00  0.00     0.031 C 
ATOM     42  C   UNL     1      12.398   8.886  -8.884  1.00  0.00     0.029 A 
ATOM     43  N   UNL     1      11.927  10.406 -10.455  1.00  0.00    -0.354 N 
ATOM     44  C   UNL     1       9.503  13.874  -9.526  1.00  0.00     0.074 A 
ATOM     45  C   UNL     1       9.118  13.877  -8.131  1.00  0.00     0.031 C 
ATOM     46  C   UNL     1      12.954   8.465 -10.031  1.00  0.00     0.029 A 
ATOM     47  C   UNL     1      12.637   9.417 -11.091  1.00  0.00     0.049 A 
ATOM     48  H   UNL     1      11.595  11.211 -10.914  1.00  0.00     0.167 HD
ATOM     49  C   UNL     1       9.167  14.839 -10.415  1.00  0.00     0.037 A 
ATOM     50  C   UNL     1      12.978   9.287 -12.386  1.00  0.00     0.037 A 
ATOM     51  C   UNL     1       9.564  14.832 -11.799  1.00  0.00     0.049 A 
ATOM     52  C   UNL     1      12.561  10.354 -13.362  1.00  0.00     0.074 A 
ATOM     53  C   UNL     1       9.314  15.780 -12.775  1.00  0.00     0.029 A 
ATOM     54  N   UNL     1      10.293  13.818 -12.405  1.00  0.00    -0.354 N 
ATOM     55  N   UNL     1      11.883  11.455 -13.146  1.00  0.00    -0.248 NA
ATOM     56  C   UNL     1      12.961  10.161 -14.762  1.00  0.00     0.031 C 
ATOM     57  C   UNL     1       9.845  15.316 -13.982  1.00  0.00     0.029 A 
ATOM     58  C   UNL     1      10.481  14.107 -13.747  1.00  0.00     0.049 A 
ATOM     59  H   UNL     1      10.627  13.011 -11.949  1.00  0.00     0.167 HD
ATOM     60  C   UNL     1      11.807  12.104 -14.371  1.00  0.00     0.074 A 
ATOM     61  C   UNL     1      12.518  11.277 -15.325  1.00  0.00     0.031 C 
ATOM     62  C   UNL     1      11.206  13.280 -14.678  1.00  0.00     0.037 A 
BRANCH  49  63
ATOM     63  C   UNL     1       8.325  15.979  -9.916  1.00  0.00     0.064 A 
ATOM     64  C   UNL     1       8.824  16.916  -8.997  1.00  0.00     0.173 A 
ATOM     65  C   UNL     1       7.011  16.153 -10.376  1.00  0.00     0.173 A 
ATOM     66  F   UNL     1      10.070  16.792  -8.515  1.00  0.00    -0.203 F 
ATOM     67  C   UNL     1       8.028  17.959  -8.529  1.00  0.00     0.198 A 
ATOM     68  C   UNL     1       6.230  17.218  -9.934  1.00  0.00     0.198 A 
ATOM     69  F   UNL     1       6.484  15.292 -11.261  1.00  0.00    -0.203 F 
ATOM     70  F   UNL     1       8.508  18.803  -7.606  1.00  0.00    -0.200 F 
ATOM     71  C   UNL     1       6.735  18.113  -9.004  1.00  0.00     0.200 A 
ATOM     72  F   UNL     1       4.985  17.374 -10.406  1.00  0.00    -0.200 F 
ATOM     73  F   UNL     1       5.971  19.119  -8.557  1.00  0.00    -0.200 F 
ENDBRANCH  49  63
BRANCH  50  74
ATOM     74  C   UNL     1      13.777   8.115 -12.832  1.00  0.00     0.064 A 
ATOM     75  C   UNL     1      15.100   8.275 -13.268  1.00  0.00     0.173 A 
ATOM     76  C   UNL     1      13.242   6.819 -12.837  1.00  0.00     0.173 A 
ATOM     77  F   UNL     1      15.651   9.498 -13.300  1.00  0.00    -0.203 F 
ATOM     78  C   UNL     1      15.849   7.189 -13.715  1.00  0.00     0.198 A 
ATOM     79  C   UNL     1      14.002   5.728 -13.254  1.00  0.00     0.198 A 
ATOM     80  F   UNL     1      11.984   6.609 -12.422  1.00  0.00    -0.203 F 
ATOM     81  F   UNL     1      17.093   7.378 -14.173  1.00  0.00    -0.200 F 
ATOM     82  C   UNL     1      15.301   5.915 -13.702  1.00  0.00     0.200 A 
ATOM     83  F   UNL     1      13.476   4.496 -13.224  1.00  0.00    -0.200 F 
ATOM     84  F   UNL     1      16.023   4.869 -14.128  1.00  0.00    -0.200 F 
ENDBRANCH  50  74
BRANCH  62  85
ATOM     85  C   UNL     1      11.337  13.773 -16.091  1.00  0.00     0.064 A 
ATOM     86  C   UNL     1      10.668  13.155 -17.157  1.00  0.00     0.173 A 
ATOM     87  C   UNL     1      12.110  14.911 -16.372  1.00  0.00     0.173 A 
ATOM     88  F   UNL     1       9.930  12.055 -16.945  1.00  0.00    -0.203 F 
ATOM     89  C   UNL     1      10.789  13.643 -18.456  1.00  0.00     0.198 A 
ATOM     90  C   UNL     1      12.200  15.416 -17.665  1.00  0.00     0.198 A 
ATOM     91  F   UNL     1      12.765  15.543 -15.387  1.00  0.00    -0.203 F 
ATOM     92  F   UNL     1      10.181  13.007 -19.467  1.00  0.00    -0.200 F 
ATOM     93  C   UNL     1      11.546  14.777 -18.707  1.00  0.00     0.200 A 
ATOM     94  F   UNL     1      12.919  16.521 -17.903  1.00  0.00    -0.200 F 
ATOM     95  F   UNL     1      11.652  15.251 -19.956  1.00  0.00    -0.200 F 
ENDBRANCH  62  85
ENDBRANCH  36  37
ENDBRANCH  28  31
ENDBRANCH  26  27
ENDBRANCH  25  26
ENDBRANCH   1  25
TORSDOF 14
