REMARK SMILES CC(C)(C[NH2+]Cc1ccc2c(c1)OCO2)C(=O)NCCCNC(=O)c1ccc(-c2c3nc(c(-c4c(F)c(F)c(F)c(F)c4F)c4ccc([nH]4)c(-c4c(F)c(F)c(F)c(F)c4F)c4nc(c(-c5c(F)c(F)c(F)c(F)c5F)c5ccc2[nH]5)C=C4)C=C3)cc1
REMARK SMILES IDX 19 1 18 2 16 3 17 4 2 6 1 7 3 8 4 9 5 10 6 13 7 14 8 15
REMARK SMILES IDX 12 16 9 17 11 18 10 19 13 20 15 21 14 22 20 23 21 24 22 25
REMARK SMILES IDX 23 26 24 28 25 29 26 30 87 31 27 32 86 33 28 34 29 35 30 36
REMARK SMILES IDX 80 37 31 38 85 39 79 40 81 41 32 42 84 43 78 44 77 45 33 47
REMARK SMILES IDX 65 48 45 49 64 50 46 51 49 52 63 53 82 54 47 55 48 56 62 58
REMARK SMILES IDX 83 59 50 60 34 61 35 62 43 63 36 64 37 65 41 66 44 67 38 68
REMARK SMILES IDX 39 69 42 70 40 71 66 72 67 73 75 74 68 75 69 76 73 77 76 78
REMARK SMILES IDX 70 79 71 80 74 81 72 82 51 83 52 84 60 85 53 86 54 87 58 88
REMARK SMILES IDX 61 89 55 90 56 91 59 92 57 93
REMARK H PARENT 18 5 5 11 5 12 22 27 81 46 49 57
REMARK Flexibility Score: inf
ROOT
ATOM      1  C   UNL     1      -0.019   4.030   1.805  1.00  0.00     0.117 C 
ENDROOT
BRANCH   1   2
ATOM      2  N   UNL     1       0.807   2.937   2.279  1.00  0.00    -0.355 N 
ATOM      3  C   UNL     1       1.104   1.708   1.777  1.00  0.00     0.231 C 
ATOM      4  O   UNL     1       1.866   1.026   2.471  1.00  0.00    -0.274 OA
ATOM      5  H   UNL     1       1.243   3.122   3.142  1.00  0.00     0.163 HD
BRANCH   3   6
ATOM      6  C   UNL     1       0.591   1.202   0.415  1.00  0.00     0.092 C 
ATOM      7  C   UNL     1       1.157  -0.221   0.172  1.00  0.00     0.027 C 
ATOM      8  C   UNL     1       1.160   2.080  -0.718  1.00  0.00     0.027 C 
BRANCH   6   9
ATOM      9  C   UNL     1      -0.955   1.152   0.337  1.00  0.00     0.277 C 
BRANCH   9  10
ATOM     10  N   UNL     1      -1.586   0.269   1.328  1.00  0.00    -0.342 N 
ATOM     11  H   UNL     1      -1.269   0.548   2.257  1.00  0.00     0.346 HD
ATOM     12  H   UNL     1      -1.312  -0.686   1.097  1.00  0.00     0.346 HD
BRANCH  10  13
ATOM     13  C   UNL     1      -3.052   0.315   1.304  1.00  0.00     0.297 C 
BRANCH  13  14
ATOM     14  C   UNL     1      -3.643  -0.037  -0.041  1.00  0.00     0.010 A 
ATOM     15  C   UNL     1      -4.137   0.989  -0.882  1.00  0.00     0.013 A 
ATOM     16  C   UNL     1      -3.625  -1.364  -0.501  1.00  0.00     0.060 A 
ATOM     17  C   UNL     1      -4.583   0.708  -2.175  1.00  0.00     0.051 A 
ATOM     18  C   UNL     1      -4.070  -1.609  -1.783  1.00  0.00     0.166 A 
ATOM     19  C   UNL     1      -4.529  -0.601  -2.598  1.00  0.00     0.165 A 
ATOM     20  O   UNL     1      -4.091  -2.822  -2.398  1.00  0.00    -0.454 OA
ATOM     21  O   UNL     1      -4.892  -1.052  -3.828  1.00  0.00    -0.454 OA
ATOM     22  C   UNL     1      -4.602  -2.459  -3.697  1.00  0.00     0.468 C 
ENDBRANCH  13  14
ENDBRANCH  10  13
ENDBRANCH   9  10
ENDBRANCH   6   9
ENDBRANCH   3   6
ENDBRANCH   1   2
BRANCH   1  23
ATOM     23  C   UNL     1      -1.298   4.189   2.619  1.00  0.00     0.042 C 
BRANCH  23  24
ATOM     24  C   UNL     1      -1.066   4.580   4.074  1.00  0.00     0.118 C 
BRANCH  24  25
ATOM     25  N   UNL     1      -0.420   5.880   4.212  1.00  0.00    -0.352 N 
ATOM     26  C   UNL     1      -0.871   7.048   4.772  1.00  0.00     0.251 C 
ATOM     27  H   UNL     1       0.490   5.928   3.841  1.00  0.00     0.163 HD
ATOM     28  O   UNL     1      -0.228   8.085   4.605  1.00  0.00    -0.269 OA
BRANCH  26  29
ATOM     29  C   UNL     1      -2.122   7.086   5.557  1.00  0.00     0.039 A 
ATOM     30  C   UNL     1      -2.971   8.189   5.418  1.00  0.00     0.014 A 
ATOM     31  C   UNL     1      -2.447   6.069   6.457  1.00  0.00     0.014 A 
ATOM     32  C   UNL     1      -4.173   8.238   6.128  1.00  0.00     0.010 A 
ATOM     33  C   UNL     1      -3.682   6.079   7.102  1.00  0.00     0.010 A 
ATOM     34  C   UNL     1      -4.556   7.165   6.948  1.00  0.00    -0.014 A 
BRANCH  34  35
ATOM     35  C   UNL     1      -5.861   7.159   7.656  1.00  0.00     0.031 A 
ATOM     36  C   UNL     1      -5.907   7.150   9.158  1.00  0.00     0.074 A 
ATOM     37  C   UNL     1      -7.003   7.086   6.945  1.00  0.00     0.049 A 
ATOM     38  N   UNL     1      -6.941   7.051   9.956  1.00  0.00    -0.248 NA
ATOM     39  C   UNL     1      -4.616   7.234   9.859  1.00  0.00     0.031 C 
ATOM     40  C   UNL     1      -7.089   7.040   5.485  1.00  0.00     0.029 A 
ATOM     41  N   UNL     1      -8.311   7.022   7.357  1.00  0.00    -0.354 N 
ATOM     42  C   UNL     1      -6.424   7.039  11.245  1.00  0.00     0.074 A 
ATOM     43  C   UNL     1      -4.984   7.092  11.124  1.00  0.00     0.031 C 
ATOM     44  C   UNL     1      -8.380   6.975   5.122  1.00  0.00     0.029 A 
ATOM     45  C   UNL     1      -9.210   6.935   6.322  1.00  0.00     0.049 A 
ATOM     46  H   UNL     1      -8.580   7.037   8.304  1.00  0.00     0.167 HD
ATOM     47  C   UNL     1      -7.092   7.009  12.423  1.00  0.00     0.037 A 
ATOM     48  C   UNL     1     -10.552   6.827   6.340  1.00  0.00     0.037 A 
ATOM     49  C   UNL     1      -8.527   6.990  12.540  1.00  0.00     0.049 A 
ATOM     50  C   UNL     1     -11.270   6.802   7.661  1.00  0.00     0.074 A 
ATOM     51  C   UNL     1      -9.300   7.025  13.688  1.00  0.00     0.029 A 
ATOM     52  N   UNL     1      -9.405   6.930  11.468  1.00  0.00    -0.354 N 
ATOM     53  N   UNL     1     -10.774   6.857   8.873  1.00  0.00    -0.248 NA
ATOM     54  C   UNL     1     -12.736   6.705   7.617  1.00  0.00     0.031 C 
ATOM     55  C   UNL     1     -10.645   6.945  13.312  1.00  0.00     0.029 A 
ATOM     56  C   UNL     1     -10.712   6.908  11.928  1.00  0.00     0.049 A 
ATOM     57  H   UNL     1      -9.139   6.907  10.521  1.00  0.00     0.167 HD
ATOM     58  C   UNL     1     -11.864   6.830   9.733  1.00  0.00     0.074 A 
ATOM     59  C   UNL     1     -13.049   6.768   8.903  1.00  0.00     0.031 C 
ATOM     60  C   UNL     1     -11.880   6.855  11.088  1.00  0.00     0.037 A 
BRANCH  47  61
ATOM     61  C   UNL     1      -6.277   7.002  13.683  1.00  0.00     0.064 A 
ATOM     62  C   UNL     1      -5.557   8.132  14.100  1.00  0.00     0.173 A 
ATOM     63  C   UNL     1      -6.242   5.864  14.503  1.00  0.00     0.173 A 
ATOM     64  F   UNL     1      -5.547   9.242  13.346  1.00  0.00    -0.203 F 
ATOM     65  C   UNL     1      -4.809   8.114  15.274  1.00  0.00     0.198 A 
ATOM     66  C   UNL     1      -5.518   5.859  15.693  1.00  0.00     0.198 A 
ATOM     67  F   UNL     1      -6.918   4.759  14.156  1.00  0.00    -0.203 F 
ATOM     68  F   UNL     1      -4.090   9.189  15.626  1.00  0.00    -0.200 F 
ATOM     69  C   UNL     1      -4.796   6.981  16.073  1.00  0.00     0.200 A 
ATOM     70  F   UNL     1      -5.517   4.768  16.471  1.00  0.00    -0.200 F 
ATOM     71  F   UNL     1      -4.082   6.967  17.207  1.00  0.00    -0.200 F 
ENDBRANCH  47  61
BRANCH  48  72
ATOM     72  C   UNL     1     -11.307   6.759   5.062  1.00  0.00     0.064 A 
ATOM     73  C   UNL     1     -12.108   7.831   4.645  1.00  0.00     0.173 A 
ATOM     74  C   UNL     1     -11.245   5.629   4.234  1.00  0.00     0.173 A 
ATOM     75  F   UNL     1     -12.215   8.925   5.413  1.00  0.00    -0.203 F 
ATOM     76  C   UNL     1     -12.835   7.768   3.457  1.00  0.00     0.198 A 
ATOM     77  C   UNL     1     -11.950   5.578   3.033  1.00  0.00     0.198 A 
ATOM     78  F   UNL     1     -10.487   4.580   4.585  1.00  0.00    -0.203 F 
ATOM     79  F   UNL     1     -13.627   8.789   3.104  1.00  0.00    -0.200 F 
ATOM     80  C   UNL     1     -12.750   6.644   2.650  1.00  0.00     0.200 A 
ATOM     81  F   UNL     1     -11.854   4.496   2.248  1.00  0.00    -0.200 F 
ATOM     82  F   UNL     1     -13.445   6.585   1.505  1.00  0.00    -0.200 F 
ENDBRANCH  48  72
BRANCH  60  83
ATOM     83  C   UNL     1     -13.223   6.850  11.758  1.00  0.00     0.064 A 
ATOM     84  C   UNL     1     -14.023   5.699  11.793  1.00  0.00     0.173 A 
ATOM     85  C   UNL     1     -13.695   8.000  12.408  1.00  0.00     0.173 A 
ATOM     86  F   UNL     1     -13.622   4.579  11.173  1.00  0.00    -0.203 F 
ATOM     87  C   UNL     1     -15.259   5.707  12.434  1.00  0.00     0.198 A 
ATOM     88  C   UNL     1     -14.918   7.996  13.072  1.00  0.00     0.198 A 
ATOM     89  F   UNL     1     -12.964   9.125  12.408  1.00  0.00    -0.203 F 
ATOM     90  F   UNL     1     -16.028   4.610  12.416  1.00  0.00    -0.200 F 
ATOM     91  C   UNL     1     -15.702   6.853  13.079  1.00  0.00     0.200 A 
ATOM     92  F   UNL     1     -15.339   9.100  13.705  1.00  0.00    -0.200 F 
ATOM     93  F   UNL     1     -16.889   6.856  13.701  1.00  0.00    -0.200 F 
ENDBRANCH  60  83
ENDBRANCH  34  35
ENDBRANCH  26  29
ENDBRANCH  24  25
ENDBRANCH  23  24
ENDBRANCH   1  23
TORSDOF 14
