REMARK SMILES O=C(CSc1ccc(Cl)cc1)Nc1ccc(C(=O)NCCCNC(=O)c2ccc(-c3c4nc(c(-c5c(F)c(F)c(F)c(F)c5F)c5ccc([nH]5)c(-c5c(F)c(F)c(F)c(F)c5F)c5nc(c(-c6c(F)c(F)c(F)c(F)c6F)c6ccc3[nH]6)C=C5)C=C4)cc2)cc1
REMARK SMILES IDX 20 1 19 2 17 3 18 4 16 6 13 7 14 8 90 9 15 10 89 11 12 12
REMARK SMILES IDX 1 13 2 14 3 16 4 17 5 18 6 19 11 20 7 21 10 22 8 23 9 24
REMARK SMILES IDX 21 25 22 26 23 27 24 28 25 30 26 31 27 32 88 33 28 34 87 35
REMARK SMILES IDX 29 36 30 37 31 38 81 39 32 40 86 41 80 42 82 43 33 44 85 45
REMARK SMILES IDX 79 46 78 47 34 49 66 50 46 51 65 52 47 53 50 54 64 55 83 56
REMARK SMILES IDX 48 57 49 58 63 60 84 61 51 62 35 63 36 64 44 65 37 66 38 67
REMARK SMILES IDX 42 68 45 69 39 70 40 71 43 72 41 73 67 74 68 75 76 76 69 77
REMARK SMILES IDX 70 78 74 79 77 80 71 81 72 82 75 83 73 84 52 85 53 86 61 87
REMARK SMILES IDX 54 88 55 89 59 90 62 91 56 92 57 93 60 94 58 95
REMARK H PARENT 19 5 12 15 23 29 82 48 50 59
REMARK Flexibility Score: inf
ROOT
ATOM      1  C   UNL     1      -1.581   1.292   5.650  1.00  0.00     0.118 C 
ENDROOT
BRANCH   1   2
ATOM      2  N   UNL     1      -0.496   2.064   6.232  1.00  0.00    -0.352 N 
ATOM      3  C   UNL     1       0.768   2.355   5.780  1.00  0.00     0.251 C 
ATOM      4  O   UNL     1       1.459   3.115   6.458  1.00  0.00    -0.269 OA
ATOM      5  H   UNL     1      -0.705   2.449   7.113  1.00  0.00     0.163 HD
BRANCH   3   6
ATOM      6  C   UNL     1       1.311   1.837   4.495  1.00  0.00     0.039 A 
ATOM      7  C   UNL     1       2.351   1.030   1.997  1.00  0.00     0.041 A 
ATOM      8  C   UNL     1       2.771   2.227   2.582  1.00  0.00     0.027 A 
ATOM      9  C   UNL     1       1.474   0.207   2.703  1.00  0.00     0.027 A 
ATOM     10  C   UNL     1       2.242   2.634   3.813  1.00  0.00     0.016 A 
ATOM     11  C   UNL     1       0.983   0.594   3.954  1.00  0.00     0.016 A 
BRANCH   7  12
ATOM     12  N   UNL     1       2.859   0.691   0.731  1.00  0.00    -0.325 N 
ATOM     13  O   UNL     1       1.243  -0.808  -0.001  1.00  0.00    -0.274 OA
ATOM     14  C   UNL     1       2.320  -0.231  -0.149  1.00  0.00     0.234 C 
ATOM     15  H   UNL     1       3.678   1.155   0.442  1.00  0.00     0.169 HD
BRANCH  14  16
ATOM     16  C   UNL     1       3.202  -0.584  -1.336  1.00  0.00     0.175 C 
BRANCH  16  17
ATOM     17  S   UNL     1       4.271   0.774  -1.916  1.00  0.00    -0.116 SA
BRANCH  17  18
ATOM     18  C   UNL     1       3.107   2.002  -2.488  1.00  0.00     0.008 A 
ATOM     19  C   UNL     1       3.493   3.345  -2.368  1.00  0.00     0.016 A 
ATOM     20  C   UNL     1       1.879   1.704  -3.086  1.00  0.00     0.016 A 
ATOM     21  C   UNL     1       2.659   4.372  -2.818  1.00  0.00     0.021 A 
ATOM     22  C   UNL     1       1.042   2.732  -3.538  1.00  0.00     0.021 A 
ATOM     23  C   UNL     1       1.435   4.061  -3.401  1.00  0.00     0.041 A 
ATOM     24  Cl  UNL     1       0.411   5.321  -3.965  1.00  0.00    -0.084 Cl
ENDBRANCH  17  18
ENDBRANCH  16  17
ENDBRANCH  14  16
ENDBRANCH   7  12
ENDBRANCH   3   6
ENDBRANCH   1   2
BRANCH   1  25
ATOM     25  C   UNL     1      -1.678  -0.097   6.284  1.00  0.00     0.042 C 
BRANCH  25  26
ATOM     26  C   UNL     1      -2.289  -0.091   7.683  1.00  0.00     0.118 C 
BRANCH  26  27
ATOM     27  N   UNL     1      -3.716   0.186   7.654  1.00  0.00    -0.352 N 
ATOM     28  C   UNL     1      -4.760  -0.476   8.246  1.00  0.00     0.251 C 
ATOM     29  H   UNL     1      -3.973   0.975   7.125  1.00  0.00     0.163 HD
ATOM     30  O   UNL     1      -5.909  -0.177   7.931  1.00  0.00    -0.269 OA
BRANCH  28  31
ATOM     31  C   UNL     1      -4.535  -1.545   9.247  1.00  0.00     0.039 A 
ATOM     32  C   UNL     1      -5.420  -2.630   9.263  1.00  0.00     0.014 A 
ATOM     33  C   UNL     1      -3.532  -1.458  10.216  1.00  0.00     0.014 A 
ATOM     34  C   UNL     1      -5.287  -3.630  10.228  1.00  0.00     0.010 A 
ATOM     35  C   UNL     1      -3.358  -2.490  11.140  1.00  0.00     0.010 A 
ATOM     36  C   UNL     1      -4.247  -3.575  11.168  1.00  0.00    -0.014 A 
BRANCH  36  37
ATOM     37  C   UNL     1      -4.106  -4.633  12.200  1.00  0.00     0.031 A 
ATOM     38  C   UNL     1      -4.351  -4.318  13.650  1.00  0.00     0.074 A 
ATOM     39  C   UNL     1      -3.736  -5.874  11.835  1.00  0.00     0.049 A 
ATOM     40  N   UNL     1      -4.296  -5.112  14.691  1.00  0.00    -0.248 NA
ATOM     41  C   UNL     1      -4.679  -2.923  13.977  1.00  0.00     0.031 C 
ATOM     42  C   UNL     1      -3.430  -6.293  10.468  1.00  0.00     0.029 A 
ATOM     43  N   UNL     1      -3.559  -7.011  12.582  1.00  0.00    -0.354 N 
ATOM     44  C   UNL     1      -4.564  -4.310  15.793  1.00  0.00     0.074 A 
ATOM     45  C   UNL     1      -4.735  -2.960  15.300  1.00  0.00     0.031 C 
ATOM     46  C   UNL     1      -3.142  -7.605  10.466  1.00  0.00     0.029 A 
ATOM     47  C   UNL     1      -3.217  -8.110  11.834  1.00  0.00     0.049 A 
ATOM     48  H   UNL     1      -3.667  -7.037  13.560  1.00  0.00     0.167 HD
ATOM     49  C   UNL     1      -4.681  -4.670  17.094  1.00  0.00     0.037 A 
ATOM     50  C   UNL     1      -3.002  -9.385  12.209  1.00  0.00     0.037 A 
ATOM     51  C   UNL     1      -4.543  -6.018  17.578  1.00  0.00     0.049 A 
ATOM     52  C   UNL     1      -3.144  -9.763  13.657  1.00  0.00     0.074 A 
ATOM     53  C   UNL     1      -4.717  -6.498  18.864  1.00  0.00     0.029 A 
ATOM     54  N   UNL     1      -4.192  -7.105  16.790  1.00  0.00    -0.354 N 
ATOM     55  N   UNL     1      -3.475  -9.012  14.679  1.00  0.00    -0.248 NA
ATOM     56  C   UNL     1      -2.889 -11.169  14.001  1.00  0.00     0.031 C 
ATOM     57  C   UNL     1      -4.432  -7.869  18.862  1.00  0.00     0.029 A 
ATOM     58  C   UNL     1      -4.121  -8.251  17.567  1.00  0.00     0.049 A 
ATOM     59  H   UNL     1      -4.019  -7.068  15.822  1.00  0.00     0.167 HD
ATOM     60  C   UNL     1      -3.497  -9.856  15.781  1.00  0.00     0.074 A 
ATOM     61  C   UNL     1      -3.152 -11.179  15.300  1.00  0.00     0.031 C 
ATOM     62  C   UNL     1      -3.781  -9.561  17.073  1.00  0.00     0.037 A 
BRANCH  49  63
ATOM     63  C   UNL     1      -4.969  -3.580  18.086  1.00  0.00     0.064 A 
ATOM     64  C   UNL     1      -6.214  -2.934  18.130  1.00  0.00     0.173 A 
ATOM     65  C   UNL     1      -3.991  -3.181  19.009  1.00  0.00     0.173 A 
ATOM     66  F   UNL     1      -7.180  -3.270  17.262  1.00  0.00    -0.203 F 
ATOM     67  C   UNL     1      -6.455  -1.902  19.034  1.00  0.00     0.198 A 
ATOM     68  C   UNL     1      -4.245  -2.169  19.931  1.00  0.00     0.198 A 
ATOM     69  F   UNL     1      -2.786  -3.771  19.015  1.00  0.00    -0.203 F 
ATOM     70  F   UNL     1      -7.631  -1.260  19.017  1.00  0.00    -0.200 F 
ATOM     71  C   UNL     1      -5.473  -1.523  19.935  1.00  0.00     0.200 A 
ATOM     72  F   UNL     1      -3.299  -1.811  20.810  1.00  0.00    -0.200 F 
ATOM     73  F   UNL     1      -5.705  -0.528  20.802  1.00  0.00    -0.200 F 
ENDBRANCH  49  63
BRANCH  50  74
ATOM     74  C   UNL     1      -2.694 -10.409  11.179  1.00  0.00     0.064 A 
ATOM     75  C   UNL     1      -3.656 -11.359  10.811  1.00  0.00     0.173 A 
ATOM     76  C   UNL     1      -1.455 -10.442  10.525  1.00  0.00     0.173 A 
ATOM     77  F   UNL     1      -4.848 -11.376  11.424  1.00  0.00    -0.203 F 
ATOM     78  C   UNL     1      -3.388 -12.309   9.829  1.00  0.00     0.198 A 
ATOM     79  C   UNL     1      -1.196 -11.380   9.527  1.00  0.00     0.198 A 
ATOM     80  F   UNL     1      -0.504  -9.550  10.840  1.00  0.00    -0.203 F 
ATOM     81  F   UNL     1      -4.316 -13.223   9.513  1.00  0.00    -0.200 F 
ATOM     82  C   UNL     1      -2.161 -12.314   9.182  1.00  0.00     0.200 A 
ATOM     83  F   UNL     1      -0.014 -11.374   8.896  1.00  0.00    -0.200 F 
ATOM     84  F   UNL     1      -1.907 -13.222   8.230  1.00  0.00    -0.200 F 
ENDBRANCH  50  74
BRANCH  62  85
ATOM     85  C   UNL     1      -3.762 -10.694  18.055  1.00  0.00     0.064 A 
ATOM     86  C   UNL     1      -2.559 -11.265  18.494  1.00  0.00     0.173 A 
ATOM     87  C   UNL     1      -4.960 -11.190  18.590  1.00  0.00     0.173 A 
ATOM     88  F   UNL     1      -1.388 -10.836  17.999  1.00  0.00    -0.203 F 
ATOM     89  C   UNL     1      -2.557 -12.306  19.418  1.00  0.00     0.198 A 
ATOM     90  C   UNL     1      -4.954 -12.214  19.533  1.00  0.00     0.198 A 
ATOM     91  F   UNL     1      -6.137 -10.674  18.205  1.00  0.00    -0.203 F 
ATOM     92  F   UNL     1      -1.398 -12.865  19.793  1.00  0.00    -0.200 F 
ATOM     93  C   UNL     1      -3.753 -12.775  19.942  1.00  0.00     0.200 A 
ATOM     94  F   UNL     1      -6.109 -12.659  20.045  1.00  0.00    -0.200 F 
ATOM     95  F   UNL     1      -3.749 -13.774  20.835  1.00  0.00    -0.200 F 
ENDBRANCH  62  85
ENDBRANCH  36  37
ENDBRANCH  28  31
ENDBRANCH  26  27
ENDBRANCH  25  26
ENDBRANCH   1  25
TORSDOF 14
