REMARK SMILES CCOC(=O)C1CCN(c2cc(NCC(=O)NCCCNC(=O)c3ccc(-c4c5nc(c(-c6c(F)c(F)c(F)c(F)c6F)c6ccc([nH]6)c(-c6c(F)c(F)c(F)c(F)c6F)c6nc(c(-c7c(F)c(F)c(F)c(F)c7F)c7ccc4[nH]7)C=C6)C=C5)cc3)c3c4c(onc24)-c2ccccc2C3=O)CC1
REMARK SMILES IDX 15 1 16 2 17 3 14 5 13 6 12 8 10 9 11 10 92 11 88 12 91 13
REMARK SMILES IDX 87 14 89 15 90 16 99 17 93 18 98 19 100 20 94 21 97 22 95 23
REMARK SMILES IDX 96 24 9 25 6 26 7 27 102 28 8 29 101 30 4 31 5 32 3 33 2 34
REMARK SMILES IDX 1 35 18 36 19 37 20 38 21 39 22 40 23 42 24 43 25 44 86 45
REMARK SMILES IDX 26 46 85 47 27 48 28 49 29 50 79 51 30 52 84 53 78 54 80 55
REMARK SMILES IDX 31 56 83 57 77 58 76 59 32 61 64 62 44 63 63 64 45 65 48 66
REMARK SMILES IDX 62 67 81 68 46 69 47 70 61 72 82 73 49 74 33 75 34 76 42 77
REMARK SMILES IDX 35 78 36 79 40 80 43 81 37 82 38 83 41 84 39 85 65 86 66 87
REMARK SMILES IDX 74 88 67 89 68 90 72 91 75 92 69 93 70 94 73 95 71 96 50 97
REMARK SMILES IDX 51 98 59 99 52 100 53 101 57 102 60 103 54 104 55 105 58 106
REMARK SMILES IDX 56 107
REMARK H PARENT 17 4 13 7 21 41 80 60 48 71
REMARK Flexibility Score: inf
ROOT
ATOM      1  C   UNL     1       3.075  -5.346  -9.100  1.00  0.00     0.239 C 
ATOM      2  O   UNL     1       2.684  -5.804 -10.177  1.00  0.00    -0.273 OA
ATOM      3  N   UNL     1       3.397  -4.019  -9.047  1.00  0.00    -0.355 N 
ATOM      4  H   UNL     1       3.178  -3.501  -9.855  1.00  0.00     0.163 HD
ENDROOT
BRANCH   1   5
ATOM      5  C   UNL     1       3.132  -6.206  -7.834  1.00  0.00     0.213 C 
BRANCH   5   6
ATOM      6  N   UNL     1       4.500  -6.418  -7.386  1.00  0.00    -0.375 N 
ATOM      7  H   UNL     1       5.122  -6.776  -8.060  1.00  0.00     0.161 HD
BRANCH   6   8
ATOM      8  C   UNL     1       5.040  -6.182  -6.130  1.00  0.00     0.049 A 
ATOM      9  C   UNL     1       4.743  -5.184  -3.765  1.00  0.00     0.069 A 
ATOM     10  C   UNL     1       4.256  -5.593  -5.053  1.00  0.00     0.054 A 
ATOM     11  C   UNL     1       6.103  -5.543  -3.587  1.00  0.00     0.138 A 
ATOM     12  C   UNL     1       6.802  -6.154  -4.644  1.00  0.00     0.065 A 
ATOM     13  N   UNL     1       6.960  -5.420  -2.542  1.00  0.00    -0.077 NA
ATOM     14  C   UNL     1       6.407  -6.476  -5.918  1.00  0.00     0.059 A 
ATOM     15  C   UNL     1       8.044  -6.445  -4.204  1.00  0.00     0.176 A 
ATOM     16  O   UNL     1       8.173  -6.000  -2.935  1.00  0.00    -0.355 OA
ATOM     17  C   UNL     1       7.421  -7.034  -6.859  1.00  0.00     0.196 C 
ATOM     18  C   UNL     1       9.074  -7.125  -4.934  1.00  0.00     0.032 A 
ATOM     19  C   UNL     1       8.784  -7.384  -6.295  1.00  0.00     0.034 A 
ATOM     20  O   UNL     1       7.152  -7.203  -8.034  1.00  0.00    -0.288 OA
ATOM     21  C   UNL     1      10.273  -7.553  -4.370  1.00  0.00     0.013 A 
ATOM     22  C   UNL     1       9.739  -7.999  -7.102  1.00  0.00     0.013 A 
ATOM     23  C   UNL     1      11.210  -8.196  -5.177  1.00  0.00     0.001 A 
ATOM     24  C   UNL     1      10.953  -8.401  -6.538  1.00  0.00     0.001 A 
BRANCH   9  25
ATOM     25  N   UNL     1       3.999  -4.457  -2.867  1.00  0.00    -0.370 N 
ATOM     26  C   UNL     1       3.063  -3.453  -0.356  1.00  0.00     0.103 C 
ATOM     27  C   UNL     1       4.526  -3.309  -0.801  1.00  0.00     0.037 C 
ATOM     28  C   UNL     1       2.432  -4.694  -1.013  1.00  0.00     0.037 C 
ATOM     29  C   UNL     1       4.608  -3.247  -2.321  1.00  0.00     0.117 C 
ATOM     30  C   UNL     1       2.611  -4.735  -2.538  1.00  0.00     0.117 C 
BRANCH  26  31
ATOM     31  C   UNL     1       2.317  -2.162  -0.664  1.00  0.00     0.309 C 
ATOM     32  O   UNL     1       2.855  -1.134  -1.058  1.00  0.00    -0.252 OA
BRANCH  31  33
ATOM     33  O   UNL     1       0.987  -2.273  -0.404  1.00  0.00    -0.466 OA
BRANCH  33  34
ATOM     34  C   UNL     1       0.220  -1.101  -0.729  1.00  0.00     0.229 C 
ATOM     35  C   UNL     1       0.393  -0.008   0.313  1.00  0.00     0.049 C 
ENDBRANCH  33  34
ENDBRANCH  31  33
ENDBRANCH  26  31
ENDBRANCH   9  25
ENDBRANCH   6   8
ENDBRANCH   5   6
ENDBRANCH   1   5
BRANCH   3  36
ATOM     36  C   UNL     1       4.017  -3.261  -7.971  1.00  0.00     0.117 C 
BRANCH  36  37
ATOM     37  C   UNL     1       5.519  -3.104  -8.194  1.00  0.00     0.042 C 
BRANCH  37  38
ATOM     38  C   UNL     1       5.824  -2.259  -9.430  1.00  0.00     0.118 C 
BRANCH  38  39
ATOM     39  N   UNL     1       5.812  -0.827  -9.164  1.00  0.00    -0.352 N 
ATOM     40  C   UNL     1       6.815  -0.011  -8.701  1.00  0.00     0.251 C 
ATOM     41  H   UNL     1       4.955  -0.376  -9.343  1.00  0.00     0.163 HD
ATOM     42  O   UNL     1       6.586   1.164  -8.433  1.00  0.00    -0.269 OA
BRANCH  40  43
ATOM     43  C   UNL     1       8.165  -0.565  -8.481  1.00  0.00     0.039 A 
ATOM     44  C   UNL     1       8.817  -1.287  -9.486  1.00  0.00     0.014 A 
ATOM     45  C   UNL     1       8.788  -0.344  -7.252  1.00  0.00     0.014 A 
ATOM     46  C   UNL     1      10.034  -1.903  -9.225  1.00  0.00     0.010 A 
ATOM     47  C   UNL     1      10.032  -0.920  -7.007  1.00  0.00     0.010 A 
ATOM     48  C   UNL     1      10.649  -1.720  -7.987  1.00  0.00    -0.014 A 
BRANCH  48  49
ATOM     49  C   UNL     1      12.014  -2.264  -7.831  1.00  0.00     0.031 A 
ATOM     50  C   UNL     1      13.022  -1.184  -7.659  1.00  0.00     0.074 A 
ATOM     51  C   UNL     1      12.261  -3.413  -7.162  1.00  0.00     0.049 A 
ATOM     52  N   UNL     1      13.146  -0.607  -6.503  1.00  0.00    -0.248 NA
ATOM     53  C   UNL     1      13.697  -0.475  -8.740  1.00  0.00     0.031 C 
ATOM     54  C   UNL     1      11.351  -3.944  -6.139  1.00  0.00     0.029 A 
ATOM     55  N   UNL     1      13.418  -4.160  -7.020  1.00  0.00    -0.354 N 
ATOM     56  C   UNL     1      13.828   0.573  -6.692  1.00  0.00     0.074 A 
ATOM     57  C   UNL     1      14.198   0.592  -8.090  1.00  0.00     0.031 C 
ATOM     58  C   UNL     1      12.049  -4.780  -5.351  1.00  0.00     0.029 A 
ATOM     59  C   UNL     1      13.382  -4.986  -5.906  1.00  0.00     0.049 A 
ATOM     60  H   UNL     1      14.181  -4.111  -7.641  1.00  0.00     0.167 HD
ATOM     61  C   UNL     1      14.025   1.432  -5.656  1.00  0.00     0.037 A 
ATOM     62  C   UNL     1      14.436  -5.475  -5.202  1.00  0.00     0.037 A 
ATOM     63  C   UNL     1      13.461   1.067  -4.373  1.00  0.00     0.049 A 
ATOM     64  C   UNL     1      14.674  -4.372  -4.204  1.00  0.00     0.074 A 
ATOM     65  C   UNL     1      12.812   1.658  -3.309  1.00  0.00     0.029 A 
ATOM     66  N   UNL     1      13.530  -0.259  -4.057  1.00  0.00    -0.354 N 
ATOM     67  N   UNL     1      13.946  -4.110  -3.149  1.00  0.00    -0.248 NA
ATOM     68  C   UNL     1      15.638  -3.317  -4.561  1.00  0.00     0.031 C 
ATOM     69  C   UNL     1      12.592   0.637  -2.318  1.00  0.00     0.029 A 
ATOM     70  C   UNL     1      13.151  -0.543  -2.780  1.00  0.00     0.049 A 
ATOM     71  H   UNL     1      13.828  -0.948  -4.695  1.00  0.00     0.167 HD
ATOM     72  C   UNL     1      14.160  -2.758  -2.913  1.00  0.00     0.074 A 
ATOM     73  C   UNL     1      15.332  -2.379  -3.673  1.00  0.00     0.031 C 
ATOM     74  C   UNL     1      13.215  -1.929  -2.385  1.00  0.00     0.037 A 
BRANCH  61  75
ATOM     75  C   UNL     1      15.033   2.509  -5.710  1.00  0.00     0.064 A 
ATOM     76  C   UNL     1      16.310   2.204  -5.208  1.00  0.00     0.173 A 
ATOM     77  C   UNL     1      14.760   3.829  -6.067  1.00  0.00     0.173 A 
ATOM     78  F   UNL     1      16.609   0.942  -4.855  1.00  0.00    -0.203 F 
ATOM     79  C   UNL     1      17.272   3.190  -5.038  1.00  0.00     0.198 A 
ATOM     80  C   UNL     1      15.733   4.817  -5.904  1.00  0.00     0.198 A 
ATOM     81  F   UNL     1      13.554   4.168  -6.543  1.00  0.00    -0.203 F 
ATOM     82  F   UNL     1      18.470   2.872  -4.527  1.00  0.00    -0.200 F 
ATOM     83  C   UNL     1      16.981   4.499  -5.380  1.00  0.00     0.200 A 
ATOM     84  F   UNL     1      15.460   6.087  -6.234  1.00  0.00    -0.200 F 
ATOM     85  F   UNL     1      17.902   5.456  -5.199  1.00  0.00    -0.200 F 
ENDBRANCH  61  75
BRANCH  62  86
ATOM     86  C   UNL     1      15.527  -6.225  -5.895  1.00  0.00     0.064 A 
ATOM     87  C   UNL     1      15.191  -7.213  -6.845  1.00  0.00     0.173 A 
ATOM     88  C   UNL     1      16.895  -6.109  -5.603  1.00  0.00     0.173 A 
ATOM     89  F   UNL     1      13.905  -7.500  -7.096  1.00  0.00    -0.203 F 
ATOM     90  C   UNL     1      16.160  -7.947  -7.535  1.00  0.00     0.198 A 
ATOM     91  C   UNL     1      17.868  -6.814  -6.318  1.00  0.00     0.198 A 
ATOM     92  F   UNL     1      17.325  -5.323  -4.608  1.00  0.00    -0.203 F 
ATOM     93  F   UNL     1      15.786  -8.870  -8.431  1.00  0.00    -0.200 F 
ATOM     94  C   UNL     1      17.501  -7.723  -7.293  1.00  0.00     0.200 A 
ATOM     95  F   UNL     1      19.165  -6.605  -6.054  1.00  0.00    -0.200 F 
ATOM     96  F   UNL     1      18.436  -8.392  -7.981  1.00  0.00    -0.200 F 
ENDBRANCH  62  86
BRANCH  74  97
ATOM     97  C   UNL     1      12.143  -2.554  -1.577  1.00  0.00     0.064 A 
ATOM     98  C   UNL     1      12.478  -3.247  -0.405  1.00  0.00     0.173 A 
ATOM     99  C   UNL     1      10.788  -2.423  -1.905  1.00  0.00     0.173 A 
ATOM    100  F   UNL     1      13.763  -3.374  -0.035  1.00  0.00    -0.203 F 
ATOM    101  C   UNL     1      11.492  -3.777   0.417  1.00  0.00     0.198 A 
ATOM    102  C   UNL     1       9.801  -2.937  -1.067  1.00  0.00     0.198 A 
ATOM    103  F   UNL     1      10.413  -1.790  -3.028  1.00  0.00    -0.203 F 
ATOM    104  F   UNL     1      11.837  -4.423   1.540  1.00  0.00    -0.200 F 
ATOM    105  C   UNL     1      10.154  -3.611   0.093  1.00  0.00     0.200 A 
ATOM    106  F   UNL     1       8.508  -2.752  -1.367  1.00  0.00    -0.200 F 
ATOM    107  F   UNL     1       9.206  -4.083   0.913  1.00  0.00    -0.200 F 
ENDBRANCH  74  97
ENDBRANCH  48  49
ENDBRANCH  40  43
ENDBRANCH  38  39
ENDBRANCH  37  38
ENDBRANCH  36  37
ENDBRANCH   3  36
TORSDOF 16
