REMARK SMILES Cn1cc(C(=O)NCCCNC(=O)c2ccc(-c3c4nc(c(-c5c(F)c(F)c(F)c(F)c5F)c5ccc([nH]5)c(-c5c(F)c(F)c(F)c(F)c5F)c5nc(c(-c6c(F)c(F)c(F)c(F)c6F)c6ccc3[nH]6)C=C5)C=C4)cc2)c(C(=O)Nc2ccc(-c3nc4cc(Cl)ccc4o3)cc2)n1
REMARK SMILES IDX 8 1 7 2 5 3 6 4 4 6 1 7 2 8 3 9 97 10 77 11 78 12 79 13
REMARK SMILES IDX 80 14 81 16 82 17 96 18 83 19 95 20 84 21 85 22 86 23 94 24
REMARK SMILES IDX 87 25 93 26 88 27 92 28 89 29 91 30 90 31 9 32 10 33 11 34
REMARK SMILES IDX 12 35 13 37 14 38 15 39 76 40 16 41 75 42 17 43 18 44 19 45
REMARK SMILES IDX 69 46 20 47 74 48 68 49 70 50 21 51 73 52 67 53 66 54 22 56
REMARK SMILES IDX 54 57 34 58 53 59 35 60 38 61 52 62 71 63 36 64 37 65 51 67
REMARK SMILES IDX 72 68 39 69 23 70 24 71 32 72 25 73 26 74 30 75 33 76 27 77
REMARK SMILES IDX 28 78 31 79 29 80 55 81 56 82 64 83 57 84 58 85 62 86 65 87
REMARK SMILES IDX 59 88 60 89 63 90 61 91 40 92 41 93 49 94 42 95 43 96 47 97
REMARK SMILES IDX 50 98 44 99 45 100 48 101 46 102
REMARK H PARENT 7 5 80 15 11 36 70 55 38 66
REMARK Flexibility Score: inf
ROOT
ATOM      1  C   UNL     1       0.430  -3.927   1.165  1.00  0.00     0.118 C 
ENDROOT
BRANCH   1   2
ATOM      2  N   UNL     1       1.531  -3.054   1.531  1.00  0.00    -0.352 N 
ATOM      3  C   UNL     1       1.731  -1.700   1.421  1.00  0.00     0.255 C 
ATOM      4  O   UNL     1       2.645  -1.226   2.103  1.00  0.00    -0.269 OA
ATOM      5  H   UNL     1       2.288  -3.530   1.942  1.00  0.00     0.163 HD
BRANCH   3   6
ATOM      6  C   UNL     1       0.941  -0.861   0.534  1.00  0.00     0.090 A 
ATOM      7  C   UNL     1      -1.998   0.451  -1.105  1.00  0.00     0.173 C 
ATOM      8  N   UNL     1      -0.696   0.093  -0.595  1.00  0.00    -0.274 N 
ATOM      9  C   UNL     1      -0.377  -1.009   0.139  1.00  0.00     0.123 A 
ATOM     10  N   UNL     1       0.327   0.929  -0.774  1.00  0.00    -0.167 NA
ATOM     11  C   UNL     1       1.334   0.405  -0.045  1.00  0.00     0.163 A 
BRANCH  11  12
ATOM     12  C   UNL     1       2.570   1.196   0.137  1.00  0.00     0.276 C 
ATOM     13  O   UNL     1       2.523   2.400   0.413  1.00  0.00    -0.267 OA
ATOM     14  N   UNL     1       3.822   0.624   0.089  1.00  0.00    -0.321 N 
ATOM     15  H   UNL     1       4.538   1.195   0.452  1.00  0.00     0.170 HD
BRANCH  14  16
ATOM     16  C   UNL     1       4.266  -0.616  -0.378  1.00  0.00     0.041 A 
ATOM     17  C   UNL     1       5.388  -1.159   0.256  1.00  0.00     0.027 A 
ATOM     18  C   UNL     1       3.642  -1.325  -1.403  1.00  0.00     0.027 A 
ATOM     19  C   UNL     1       5.785  -2.466  -0.020  1.00  0.00     0.016 A 
ATOM     20  C   UNL     1       4.078  -2.617  -1.718  1.00  0.00     0.016 A 
ATOM     21  C   UNL     1       5.106  -3.222  -0.982  1.00  0.00     0.037 A 
BRANCH  21  22
ATOM     22  C   UNL     1       5.387  -4.641  -1.135  1.00  0.00     0.227 A 
ATOM     23  N   UNL     1       5.439  -5.393  -2.219  1.00  0.00    -0.209 NA
ATOM     24  O   UNL     1       5.452  -5.337   0.048  1.00  0.00    -0.436 OA
ATOM     25  C   UNL     1       5.594  -6.666  -1.722  1.00  0.00     0.111 A 
ATOM     26  C   UNL     1       5.562  -6.637  -0.338  1.00  0.00     0.155 A 
ATOM     27  C   UNL     1       5.728  -7.899  -2.372  1.00  0.00     0.053 A 
ATOM     28  C   UNL     1       5.611  -7.755   0.484  1.00  0.00     0.051 A 
ATOM     29  C   UNL     1       5.780  -9.050  -1.575  1.00  0.00     0.043 A 
ATOM     30  C   UNL     1       5.713  -8.984  -0.178  1.00  0.00     0.024 A 
ATOM     31  Cl  UNL     1       5.919 -10.589  -2.337  1.00  0.00    -0.084 Cl
ENDBRANCH  21  22
ENDBRANCH  14  16
ENDBRANCH  11  12
ENDBRANCH   3   6
ENDBRANCH   1   2
BRANCH   1  32
ATOM     32  C   UNL     1       0.365  -4.365  -0.297  1.00  0.00     0.042 C 
BRANCH  32  33
ATOM     33  C   UNL     1       1.518  -5.238  -0.793  1.00  0.00     0.118 C 
BRANCH  33  34
ATOM     34  N   UNL     1       1.727  -6.448  -0.019  1.00  0.00    -0.352 N 
ATOM     35  C   UNL     1       1.781  -7.775  -0.356  1.00  0.00     0.251 C 
ATOM     36  H   UNL     1       1.857  -6.282   0.943  1.00  0.00     0.163 HD
ATOM     37  O   UNL     1       1.930  -8.592   0.553  1.00  0.00    -0.269 OA
BRANCH  35  38
ATOM     38  C   UNL     1       1.654  -8.278  -1.748  1.00  0.00     0.039 A 
ATOM     39  C   UNL     1       1.000  -9.507  -1.933  1.00  0.00     0.014 A 
ATOM     40  C   UNL     1       2.241  -7.655  -2.851  1.00  0.00     0.014 A 
ATOM     41  C   UNL     1       0.896 -10.081  -3.205  1.00  0.00     0.010 A 
ATOM     42  C   UNL     1       2.126  -8.220  -4.129  1.00  0.00     0.010 A 
ATOM     43  C   UNL     1       1.449  -9.434  -4.316  1.00  0.00    -0.014 A 
BRANCH  43  44
ATOM     44  C   UNL     1       1.291  -9.995  -5.680  1.00  0.00     0.031 A 
ATOM     45  C   UNL     1       2.401 -10.760  -6.336  1.00  0.00     0.074 A 
ATOM     46  C   UNL     1       0.146  -9.775  -6.352  1.00  0.00     0.049 A 
ATOM     47  N   UNL     1       2.476 -11.222  -7.559  1.00  0.00    -0.248 NA
ATOM     48  C   UNL     1       3.583 -11.041  -5.511  1.00  0.00     0.031 C 
ATOM     49  C   UNL     1      -1.012  -9.051  -5.830  1.00  0.00     0.029 A 
ATOM     50  N   UNL     1      -0.220 -10.121  -7.629  1.00  0.00    -0.354 N 
ATOM     51  C   UNL     1       3.717 -11.834  -7.657  1.00  0.00     0.074 A 
ATOM     52  C   UNL     1       4.364 -11.686  -6.369  1.00  0.00     0.031 C 
ATOM     53  C   UNL     1      -1.953  -8.987  -6.785  1.00  0.00     0.029 A 
ATOM     54  C   UNL     1      -1.454  -9.646  -7.990  1.00  0.00     0.049 A 
ATOM     55  H   UNL     1       0.349 -10.659  -8.226  1.00  0.00     0.167 HD
ATOM     56  C   UNL     1       4.266 -12.462  -8.725  1.00  0.00     0.037 A 
ATOM     57  C   UNL     1      -2.103  -9.710  -9.168  1.00  0.00     0.037 A 
ATOM     58  C   UNL     1       3.626 -12.634 -10.002  1.00  0.00     0.049 A 
ATOM     59  C   UNL     1      -1.470 -10.402 -10.338  1.00  0.00     0.074 A 
ATOM     60  C   UNL     1       4.102 -13.288 -11.127  1.00  0.00     0.029 A 
ATOM     61  N   UNL     1       2.369 -12.149 -10.324  1.00  0.00    -0.354 N 
ATOM     62  N   UNL     1      -0.297 -10.979 -10.418  1.00  0.00    -0.248 NA
ATOM     63  C   UNL     1      -2.250 -10.447 -11.584  1.00  0.00     0.031 C 
ATOM     64  C   UNL     1       3.135 -13.188 -12.135  1.00  0.00     0.029 A 
ATOM     65  C   UNL     1       2.056 -12.481 -11.633  1.00  0.00     0.049 A 
ATOM     66  H   UNL     1       1.785 -11.644  -9.714  1.00  0.00     0.167 HD
ATOM     67  C   UNL     1      -0.197 -11.457 -11.715  1.00  0.00     0.074 A 
ATOM     68  C   UNL     1      -1.430 -11.109 -12.390  1.00  0.00     0.031 C 
ATOM     69  C   UNL     1       0.829 -12.126 -12.292  1.00  0.00     0.037 A 
BRANCH  56  70
ATOM     70  C   UNL     1       5.647 -13.009  -8.560  1.00  0.00     0.064 A 
ATOM     71  C   UNL     1       5.862 -14.276  -8.002  1.00  0.00     0.173 A 
ATOM     72  C   UNL     1       6.757 -12.284  -9.013  1.00  0.00     0.173 A 
ATOM     73  F   UNL     1       4.827 -15.001  -7.552  1.00  0.00    -0.203 F 
ATOM     74  C   UNL     1       7.149 -14.798  -7.899  1.00  0.00     0.198 A 
ATOM     75  C   UNL     1       8.041 -12.812  -8.915  1.00  0.00     0.198 A 
ATOM     76  F   UNL     1       6.594 -11.068  -9.555  1.00  0.00    -0.203 F 
ATOM     77  F   UNL     1       7.339 -16.008  -7.354  1.00  0.00    -0.200 F 
ATOM     78  C   UNL     1       8.236 -14.067  -8.358  1.00  0.00     0.200 A 
ATOM     79  F   UNL     1       9.090 -12.106  -9.359  1.00  0.00    -0.200 F 
ATOM     80  F   UNL     1       9.473 -14.573  -8.261  1.00  0.00    -0.200 F 
ENDBRANCH  56  70
BRANCH  57  81
ATOM     81  C   UNL     1      -3.427  -9.064  -9.298  1.00  0.00     0.064 A 
ATOM     82  C   UNL     1      -4.606  -9.813  -9.209  1.00  0.00     0.173 A 
ATOM     83  C   UNL     1      -3.534  -7.679  -9.485  1.00  0.00     0.173 A 
ATOM     84  F   UNL     1      -4.543 -11.143  -9.048  1.00  0.00    -0.203 F 
ATOM     85  C   UNL     1      -5.851  -9.197  -9.303  1.00  0.00     0.198 A 
ATOM     86  C   UNL     1      -4.780  -7.064  -9.567  1.00  0.00     0.198 A 
ATOM     87  F   UNL     1      -2.428  -6.927  -9.575  1.00  0.00    -0.203 F 
ATOM     88  F   UNL     1      -6.968  -9.934  -9.227  1.00  0.00    -0.200 F 
ATOM     89  C   UNL     1      -5.937  -7.823  -9.477  1.00  0.00     0.200 A 
ATOM     90  F   UNL     1      -4.859  -5.736  -9.730  1.00  0.00    -0.200 F 
ATOM     91  F   UNL     1      -7.136  -7.231  -9.559  1.00  0.00    -0.200 F 
ENDBRANCH  57  81
BRANCH  69  92
ATOM     92  C   UNL     1       0.658 -12.527 -13.722  1.00  0.00     0.064 A 
ATOM     93  C   UNL     1       0.957 -11.637 -14.762  1.00  0.00     0.173 A 
ATOM     94  C   UNL     1       0.222 -13.817 -14.055  1.00  0.00     0.173 A 
ATOM     95  F   UNL     1       1.363 -10.389 -14.486  1.00  0.00    -0.203 F 
ATOM     96  C   UNL     1       0.817 -12.024 -16.092  1.00  0.00     0.198 A 
ATOM     97  C   UNL     1       0.089 -14.202 -15.386  1.00  0.00     0.198 A 
ATOM     98  F   UNL     1      -0.081 -14.697 -13.090  1.00  0.00    -0.203 F 
ATOM     99  F   UNL     1       1.088 -11.153 -17.074  1.00  0.00    -0.200 F 
ATOM    100  C   UNL     1       0.386 -13.306 -16.402  1.00  0.00     0.200 A 
ATOM    101  F   UNL     1      -0.333 -15.438 -15.686  1.00  0.00    -0.200 F 
ATOM    102  F   UNL     1       0.247 -13.675 -17.683  1.00  0.00    -0.200 F 
ENDBRANCH  69  92
ENDBRANCH  43  44
ENDBRANCH  35  38
ENDBRANCH  33  34
ENDBRANCH  32  33
ENDBRANCH   1  32
TORSDOF 13
