REMARK SMILES CN(CC(N)=O)c1ccccc1/C=C/C(=O)NCCCNC(=O)c1ccc(-c2c3nc(c(-c4c(F)c(F)c(F)c(F)c4F)c4ccc([nH]4)c(-c4c(F)c(F)c(F)c(F)c4F)c4nc(c(-c5c(F)c(F)c(F)c(F)c5F)c5ccc2[nH]5)C=C4)C=C3)cc1
REMARK SMILES IDX 18 1 17 2 15 3 16 4 14 6 13 7 12 8 7 9 8 10 9 11 11 12 10 13
REMARK SMILES IDX 2 14 1 15 3 16 4 17 5 18 6 19 19 22 20 23 21 24 22 25 23 27
REMARK SMILES IDX 24 28 25 29 86 30 26 31 85 32 27 33 28 34 29 35 79 36 30 37
REMARK SMILES IDX 84 38 78 39 80 40 31 41 83 42 77 43 76 44 32 46 64 47 44 48
REMARK SMILES IDX 63 49 45 50 48 51 62 52 81 53 46 54 47 55 61 57 82 58 49 59
REMARK SMILES IDX 33 60 34 61 42 62 35 63 36 64 40 65 43 66 37 67 38 68 41 69
REMARK SMILES IDX 39 70 65 71 66 72 74 73 67 74 68 75 72 76 75 77 69 78 70 79
REMARK SMILES IDX 73 80 71 81 50 82 51 83 59 84 52 85 53 86 57 87 60 88 54 89
REMARK SMILES IDX 55 90 58 91 56 92
REMARK H PARENT 17 5 5 20 5 21 21 26 80 45 48 56
REMARK Flexibility Score: inf
ROOT
ATOM      1  C   UNL     1       3.791  -0.749  -1.162  1.00  0.00     0.118 C 
ENDROOT
BRANCH   1   2
ATOM      2  N   UNL     1       5.062  -0.764  -0.469  1.00  0.00    -0.352 N 
ATOM      3  C   UNL     1       5.319  -0.794   0.864  1.00  0.00     0.244 C 
ATOM      4  O   UNL     1       6.479  -0.890   1.257  1.00  0.00    -0.270 OA
ATOM      5  H   UNL     1       5.857  -0.751  -1.050  1.00  0.00     0.163 HD
BRANCH   3   6
ATOM      6  C   UNL     1       4.213  -0.827   1.845  1.00  0.00     0.072 C 
ATOM      7  C   UNL     1       3.187   0.039   1.910  1.00  0.00     0.016 C 
BRANCH   7   8
ATOM      8  C   UNL     1       2.144  -0.025   2.962  1.00  0.00    -0.002 A 
ATOM      9  C   UNL     1       0.791   0.326   2.717  1.00  0.00     0.044 A 
ATOM     10  C   UNL     1      -0.116   0.210   3.788  1.00  0.00     0.026 A 
ATOM     11  C   UNL     1       0.287  -0.165   5.070  1.00  0.00     0.002 A 
ATOM     12  C   UNL     1       2.539  -0.370   4.272  1.00  0.00     0.010 A 
ATOM     13  C   UNL     1       1.621  -0.439   5.317  1.00  0.00     0.001 A 
BRANCH   9  14
ATOM     14  N   UNL     1       0.331   0.763   1.480  1.00  0.00    -0.365 N 
ATOM     15  C   UNL     1       0.277  -0.170   0.369  1.00  0.00     0.144 C 
BRANCH  14  16
ATOM     16  C   UNL     1      -0.397   2.034   1.355  1.00  0.00     0.215 C 
BRANCH  16  17
ATOM     17  C   UNL     1      -1.898   1.919   1.653  1.00  0.00     0.236 C 
ATOM     18  N   UNL     1      -2.346   2.638   2.730  1.00  0.00    -0.368 N 
ATOM     19  O   UNL     1      -2.683   1.236   1.000  1.00  0.00    -0.273 OA
ATOM     20  H   UNL     1      -1.716   3.185   3.252  1.00  0.00     0.159 HD
ATOM     21  H   UNL     1      -3.297   2.607   2.981  1.00  0.00     0.159 HD
ENDBRANCH  16  17
ENDBRANCH  14  16
ENDBRANCH   9  14
ENDBRANCH   7   8
ENDBRANCH   3   6
ENDBRANCH   1   2
BRANCH   1  22
ATOM     22  C   UNL     1       3.499   0.636  -1.728  1.00  0.00     0.042 C 
BRANCH  22  23
ATOM     23  C   UNL     1       4.229   0.904  -3.036  1.00  0.00     0.118 C 
BRANCH  23  24
ATOM     24  N   UNL     1       3.686   0.103  -4.127  1.00  0.00    -0.352 N 
ATOM     25  C   UNL     1       3.137   0.497  -5.322  1.00  0.00     0.251 C 
ATOM     26  H   UNL     1       3.717  -0.870  -3.985  1.00  0.00     0.163 HD
ATOM     27  O   UNL     1       2.522  -0.313  -6.006  1.00  0.00    -0.269 OA
BRANCH  25  28
ATOM     28  C   UNL     1       3.278   1.895  -5.782  1.00  0.00     0.039 A 
ATOM     29  C   UNL     1       2.200   2.508  -6.428  1.00  0.00     0.014 A 
ATOM     30  C   UNL     1       4.477   2.589  -5.609  1.00  0.00     0.014 A 
ATOM     31  C   UNL     1       2.308   3.836  -6.848  1.00  0.00     0.010 A 
ATOM     32  C   UNL     1       4.554   3.934  -5.948  1.00  0.00     0.010 A 
ATOM     33  C   UNL     1       3.475   4.568  -6.582  1.00  0.00    -0.014 A 
BRANCH  33  34
ATOM     34  C   UNL     1       3.613   5.992  -6.974  1.00  0.00     0.031 A 
ATOM     35  C   UNL     1       4.678   6.392  -7.957  1.00  0.00     0.074 A 
ATOM     36  C   UNL     1       2.845   6.928  -6.383  1.00  0.00     0.049 A 
ATOM     37  N   UNL     1       5.064   7.588  -8.322  1.00  0.00    -0.248 NA
ATOM     38  C   UNL     1       5.433   5.299  -8.591  1.00  0.00     0.031 C 
ATOM     39  C   UNL     1       1.800   6.664  -5.394  1.00  0.00     0.029 A 
ATOM     40  N   UNL     1       2.842   8.294  -6.514  1.00  0.00    -0.354 N 
ATOM     41  C   UNL     1       6.116   7.390  -9.207  1.00  0.00     0.074 A 
ATOM     42  C   UNL     1       6.345   5.964  -9.284  1.00  0.00     0.031 C 
ATOM     43  C   UNL     1       1.247   7.828  -5.017  1.00  0.00     0.029 A 
ATOM     44  C   UNL     1       1.932   8.922  -5.698  1.00  0.00     0.049 A 
ATOM     45  H   UNL     1       3.435   8.778  -7.133  1.00  0.00     0.167 HD
ATOM     46  C   UNL     1       6.814   8.315  -9.908  1.00  0.00     0.037 A 
ATOM     47  C   UNL     1       1.693  10.234  -5.509  1.00  0.00     0.037 A 
ATOM     48  C   UNL     1       6.563   9.730  -9.844  1.00  0.00     0.049 A 
ATOM     49  C   UNL     1       2.499  11.242  -6.284  1.00  0.00     0.074 A 
ATOM     50  C   UNL     1       7.181  10.749 -10.546  1.00  0.00     0.029 A 
ATOM     51  N   UNL     1       5.614  10.326  -9.025  1.00  0.00    -0.354 N 
ATOM     52  N   UNL     1       3.458  11.043  -7.156  1.00  0.00    -0.248 NA
ATOM     53  C   UNL     1       2.185  12.659  -6.053  1.00  0.00     0.031 C 
ATOM     54  C   UNL     1       6.642  11.965 -10.116  1.00  0.00     0.029 A 
ATOM     55  C   UNL     1       5.643  11.701  -9.193  1.00  0.00     0.049 A 
ATOM     56  H   UNL     1       5.010   9.844  -8.415  1.00  0.00     0.167 HD
ATOM     57  C   UNL     1       3.831  12.302  -7.608  1.00  0.00     0.074 A 
ATOM     58  C   UNL     1       2.992  13.259  -6.917  1.00  0.00     0.031 C 
ATOM     59  C   UNL     1       4.781  12.636  -8.515  1.00  0.00     0.037 A 
BRANCH  46  60
ATOM     60  C   UNL     1       7.914   7.826 -10.807  1.00  0.00     0.064 A 
ATOM     61  C   UNL     1       7.643   7.090 -11.971  1.00  0.00     0.173 A 
ATOM     62  C   UNL     1       9.254   8.133 -10.524  1.00  0.00     0.173 A 
ATOM     63  F   UNL     1       6.380   6.760 -12.282  1.00  0.00    -0.203 F 
ATOM     64  C   UNL     1       8.673   6.654 -12.800  1.00  0.00     0.198 A 
ATOM     65  C   UNL     1      10.278   7.725 -11.374  1.00  0.00     0.198 A 
ATOM     66  F   UNL     1       9.570   8.839  -9.428  1.00  0.00    -0.203 F 
ATOM     67  F   UNL     1       8.392   5.908 -13.878  1.00  0.00    -0.200 F 
ATOM     68  C   UNL     1       9.988   6.979 -12.506  1.00  0.00     0.200 A 
ATOM     69  F   UNL     1      11.548   8.053 -11.097  1.00  0.00    -0.200 F 
ATOM     70  F   UNL     1      10.977   6.568 -13.312  1.00  0.00    -0.200 F 
ENDBRANCH  46  60
BRANCH  47  71
ATOM     71  C   UNL     1       0.637  10.671  -4.558  1.00  0.00     0.064 A 
ATOM     72  C   UNL     1      -0.529  11.300  -5.017  1.00  0.00     0.173 A 
ATOM     73  C   UNL     1       0.773  10.485  -3.174  1.00  0.00     0.173 A 
ATOM     74  F   UNL     1      -0.698  11.518  -6.330  1.00  0.00    -0.203 F 
ATOM     75  C   UNL     1      -1.502  11.753  -4.129  1.00  0.00     0.198 A 
ATOM     76  C   UNL     1      -0.216  10.908  -2.289  1.00  0.00     0.198 A 
ATOM     77  F   UNL     1       1.865   9.881  -2.681  1.00  0.00    -0.203 F 
ATOM     78  F   UNL     1      -2.580  12.400  -4.593  1.00  0.00    -0.200 F 
ATOM     79  C   UNL     1      -1.348  11.552  -2.766  1.00  0.00     0.200 A 
ATOM     80  F   UNL     1      -0.071  10.696  -0.974  1.00  0.00    -0.200 F 
ATOM     81  F   UNL     1      -2.285  11.986  -1.912  1.00  0.00    -0.200 F 
ENDBRANCH  47  71
BRANCH  59  82
ATOM     82  C   UNL     1       4.922  14.088  -8.869  1.00  0.00     0.064 A 
ATOM     83  C   UNL     1       5.471  15.020  -7.977  1.00  0.00     0.173 A 
ATOM     84  C   UNL     1       4.553  14.539 -10.147  1.00  0.00     0.173 A 
ATOM     85  F   UNL     1       5.826  14.642  -6.740  1.00  0.00    -0.203 F 
ATOM     86  C   UNL     1       5.623  16.355  -8.343  1.00  0.00     0.198 A 
ATOM     87  C   UNL     1       4.738  15.866 -10.520  1.00  0.00     0.198 A 
ATOM     88  F   UNL     1       4.030  13.685 -11.040  1.00  0.00    -0.203 F 
ATOM     89  F   UNL     1       6.107  17.238  -7.459  1.00  0.00    -0.200 F 
ATOM     90  C   UNL     1       5.266  16.774  -9.616  1.00  0.00     0.200 A 
ATOM     91  F   UNL     1       4.408  16.265 -11.756  1.00  0.00    -0.200 F 
ATOM     92  F   UNL     1       5.428  18.057  -9.970  1.00  0.00    -0.200 F 
ENDBRANCH  59  82
ENDBRANCH  33  34
ENDBRANCH  25  28
ENDBRANCH  23  24
ENDBRANCH  22  23
ENDBRANCH   1  22
TORSDOF 14
