REMARK SMILES CSc1ccc(NC(=O)CC(C)(C)CC(=O)NCCCNC(=O)c2ccc(-c3c4nc(c(-c5c(F)c(F)c(F)c(F)c5F)c5ccc([nH]5)c(-c5c(F)c(F)c(F)c(F)c5F)c5nc(c(-c6c(F)c(F)c(F)c(F)c6F)c6ccc3[nH]6)C=C5)C=C4)cc2)cc1
REMARK SMILES IDX 15 1 16 2 17 3 14 5 11 6 12 7 13 8 10 9 8 10 7 11 9 13 6 14
REMARK SMILES IDX 3 15 4 16 88 17 5 18 87 19 2 20 1 21 18 22 19 23 20 24 21 25
REMARK SMILES IDX 22 26 23 28 24 29 25 30 86 31 26 32 85 33 27 34 28 35 29 36
REMARK SMILES IDX 79 37 30 38 84 39 78 40 80 41 31 42 83 43 77 44 76 45 32 47
REMARK SMILES IDX 64 48 44 49 63 50 45 51 48 52 62 53 81 54 46 55 47 56 61 58
REMARK SMILES IDX 82 59 49 60 33 61 34 62 42 63 35 64 36 65 40 66 43 67 37 68
REMARK SMILES IDX 38 69 41 70 39 71 65 72 66 73 74 74 67 75 68 76 72 77 75 78
REMARK SMILES IDX 69 79 70 80 73 81 71 82 50 83 51 84 59 85 52 86 53 87 57 88
REMARK SMILES IDX 60 89 54 90 55 91 58 92 56 93
REMARK H PARENT 17 4 7 12 21 27 80 46 48 57
REMARK Flexibility Score: inf
ROOT
ATOM      1  C   UNL     1       1.541   6.029   5.983  1.00  0.00     0.220 C 
ATOM      2  O   UNL     1       2.141   7.101   6.057  1.00  0.00    -0.275 OA
ATOM      3  N   UNL     1       1.679   5.164   7.021  1.00  0.00    -0.356 N 
ATOM      4  H   UNL     1       2.220   5.511   7.766  1.00  0.00     0.163 HD
ENDROOT
BRANCH   1   5
ATOM      5  C   UNL     1       0.644   5.707   4.803  1.00  0.00     0.107 C 
BRANCH   5   6
ATOM      6  C   UNL     1       1.276   5.039   3.548  1.00  0.00    -0.018 C 
ATOM      7  C   UNL     1       0.103   4.858   2.559  1.00  0.00     0.012 C 
ATOM      8  C   UNL     1       1.799   3.628   3.865  1.00  0.00     0.012 C 
BRANCH   6   9
ATOM      9  C   UNL     1       2.491   5.850   2.995  1.00  0.00     0.107 C 
BRANCH   9  10
ATOM     10  C   UNL     1       2.257   6.872   1.898  1.00  0.00     0.224 C 
ATOM     11  N   UNL     1       2.050   6.519   0.595  1.00  0.00    -0.326 N 
ATOM     12  H   UNL     1       1.928   7.282  -0.014  1.00  0.00     0.169 HD
ATOM     13  O   UNL     1       2.191   8.073   2.177  1.00  0.00    -0.275 OA
BRANCH  11  14
ATOM     14  C   UNL     1       1.979   5.267  -0.034  1.00  0.00     0.041 A 
ATOM     15  C   UNL     1       1.376   2.726  -1.090  1.00  0.00     0.007 A 
ATOM     16  C   UNL     1       2.440   2.893  -0.202  1.00  0.00     0.017 A 
ATOM     17  C   UNL     1       0.696   3.862  -1.538  1.00  0.00     0.017 A 
ATOM     18  C   UNL     1       2.745   4.158   0.316  1.00  0.00     0.027 A 
ATOM     19  C   UNL     1       1.009   5.127  -1.030  1.00  0.00     0.027 A 
BRANCH  15  20
ATOM     20  S   UNL     1       0.854   1.131  -1.694  1.00  0.00    -0.130 SA
ATOM     21  C   UNL     1       1.073   0.094  -0.219  1.00  0.00     0.091 C 
ENDBRANCH  15  20
ENDBRANCH  11  14
ENDBRANCH   9  10
ENDBRANCH   6   9
ENDBRANCH   5   6
ENDBRANCH   1   5
BRANCH   3  22
ATOM     22  C   UNL     1       1.171   3.819   7.230  1.00  0.00     0.117 C 
BRANCH  22  23
ATOM     23  C   UNL     1       2.296   2.788   7.193  1.00  0.00     0.042 C 
BRANCH  23  24
ATOM     24  C   UNL     1       3.303   2.936   8.323  1.00  0.00     0.118 C 
BRANCH  24  25
ATOM     25  N   UNL     1       2.825   2.335   9.555  1.00  0.00    -0.352 N 
ATOM     26  C   UNL     1       3.307   1.243  10.229  1.00  0.00     0.251 C 
ATOM     27  H   UNL     1       2.045   2.774   9.964  1.00  0.00     0.163 HD
ATOM     28  O   UNL     1       2.626   0.729  11.118  1.00  0.00    -0.269 OA
BRANCH  26  29
ATOM     29  C   UNL     1       4.628   0.665   9.892  1.00  0.00     0.039 A 
ATOM     30  C   UNL     1       4.778  -0.725   9.905  1.00  0.00     0.014 A 
ATOM     31  C   UNL     1       5.729   1.479   9.611  1.00  0.00     0.014 A 
ATOM     32  C   UNL     1       6.017  -1.296   9.604  1.00  0.00     0.010 A 
ATOM     33  C   UNL     1       6.939   0.908   9.224  1.00  0.00     0.010 A 
ATOM     34  C   UNL     1       7.104  -0.485   9.242  1.00  0.00    -0.014 A 
BRANCH  34  35
ATOM     35  C   UNL     1       8.431  -1.072   8.925  1.00  0.00     0.031 A 
ATOM     36  C   UNL     1       9.619  -0.762   9.794  1.00  0.00     0.074 A 
ATOM     37  C   UNL     1       8.583  -1.834   7.826  1.00  0.00     0.049 A 
ATOM     38  N   UNL     1      10.868  -1.130   9.655  1.00  0.00    -0.248 NA
ATOM     39  C   UNL     1       9.377   0.106  10.957  1.00  0.00     0.031 C 
ATOM     40  C   UNL     1       7.524  -2.159   6.870  1.00  0.00     0.029 A 
ATOM     41  N   UNL     1       9.693  -2.464   7.321  1.00  0.00    -0.354 N 
ATOM     42  C   UNL     1      11.560  -0.517  10.691  1.00  0.00     0.074 A 
ATOM     43  C   UNL     1      10.604   0.288  11.420  1.00  0.00     0.031 C 
ATOM     44  C   UNL     1       8.030  -2.942   5.904  1.00  0.00     0.029 A 
ATOM     45  C   UNL     1       9.454  -3.150   6.157  1.00  0.00     0.049 A 
ATOM     46  H   UNL     1      10.577  -2.428   7.753  1.00  0.00     0.167 HD
ATOM     47  C   UNL     1      12.868  -0.634  11.022  1.00  0.00     0.037 A 
ATOM     48  C   UNL     1      10.288  -3.865   5.378  1.00  0.00     0.037 A 
ATOM     49  C   UNL     1      13.807  -1.470  10.322  1.00  0.00     0.049 A 
ATOM     50  C   UNL     1      11.729  -4.012   5.783  1.00  0.00     0.074 A 
ATOM     51  C   UNL     1      15.130  -1.731  10.632  1.00  0.00     0.029 A 
ATOM     52  N   UNL     1      13.519  -2.179   9.165  1.00  0.00    -0.354 N 
ATOM     53  N   UNL     1      12.354  -3.496   6.813  1.00  0.00    -0.248 NA
ATOM     54  C   UNL     1      12.577  -4.848   4.922  1.00  0.00     0.031 C 
ATOM     55  C   UNL     1      15.655  -2.564   9.637  1.00  0.00     0.029 A 
ATOM     56  C   UNL     1      14.647  -2.859   8.733  1.00  0.00     0.049 A 
ATOM     57  H   UNL     1      12.642  -2.197   8.717  1.00  0.00     0.167 HD
ATOM     58  C   UNL     1      13.661  -3.956   6.737  1.00  0.00     0.074 A 
ATOM     59  C   UNL     1      13.735  -4.808   5.567  1.00  0.00     0.031 C 
ATOM     60  C   UNL     1      14.705  -3.697   7.562  1.00  0.00     0.037 A 
BRANCH  47  61
ATOM     61  C   UNL     1      13.357   0.166  12.196  1.00  0.00     0.064 A 
ATOM     62  C   UNL     1      12.959  -0.130  13.509  1.00  0.00     0.173 A 
ATOM     63  C   UNL     1      14.241   1.238  12.006  1.00  0.00     0.173 A 
ATOM     64  F   UNL     1      12.105  -1.138  13.745  1.00  0.00    -0.203 F 
ATOM     65  C   UNL     1      13.392   0.645  14.582  1.00  0.00     0.198 A 
ATOM     66  C   UNL     1      14.698   1.991  13.085  1.00  0.00     0.198 A 
ATOM     67  F   UNL     1      14.660   1.560  10.773  1.00  0.00    -0.203 F 
ATOM     68  F   UNL     1      12.947   0.383  15.819  1.00  0.00    -0.200 F 
ATOM     69  C   UNL     1      14.265   1.702  14.370  1.00  0.00     0.200 A 
ATOM     70  F   UNL     1      15.551   3.004  12.880  1.00  0.00    -0.200 F 
ATOM     71  F   UNL     1      14.679   2.448  15.403  1.00  0.00    -0.200 F 
ENDBRANCH  47  61
BRANCH  48  72
ATOM     72  C   UNL     1       9.761  -4.521   4.155  1.00  0.00     0.064 A 
ATOM     73  C   UNL     1       9.580  -5.910   4.106  1.00  0.00     0.173 A 
ATOM     74  C   UNL     1       9.391  -3.772   3.029  1.00  0.00     0.173 A 
ATOM     75  F   UNL     1       9.936  -6.669   5.153  1.00  0.00    -0.203 F 
ATOM     76  C   UNL     1       9.053  -6.526   2.973  1.00  0.00     0.198 A 
ATOM     77  C   UNL     1       8.842  -4.387   1.906  1.00  0.00     0.198 A 
ATOM     78  F   UNL     1       9.537  -2.439   3.032  1.00  0.00    -0.203 F 
ATOM     79  F   UNL     1       8.912  -7.858   2.942  1.00  0.00    -0.200 F 
ATOM     80  C   UNL     1       8.676  -5.763   1.877  1.00  0.00     0.200 A 
ATOM     81  F   UNL     1       8.463  -3.644   0.857  1.00  0.00    -0.200 F 
ATOM     82  F   UNL     1       8.154  -6.354   0.794  1.00  0.00    -0.200 F 
ENDBRANCH  48  72
BRANCH  60  83
ATOM     83  C   UNL     1      16.016  -4.351   7.238  1.00  0.00     0.064 A 
ATOM     84  C   UNL     1      16.801  -3.924   6.158  1.00  0.00     0.173 A 
ATOM     85  C   UNL     1      16.512  -5.387   8.044  1.00  0.00     0.173 A 
ATOM     86  F   UNL     1      16.362  -2.947   5.349  1.00  0.00    -0.203 F 
ATOM     87  C   UNL     1      18.027  -4.524   5.883  1.00  0.00     0.198 A 
ATOM     88  C   UNL     1      17.750  -5.967   7.782  1.00  0.00     0.198 A 
ATOM     89  F   UNL     1      15.801  -5.828   9.092  1.00  0.00    -0.203 F 
ATOM     90  F   UNL     1      18.742  -4.128   4.821  1.00  0.00    -0.200 F 
ATOM     91  C   UNL     1      18.504  -5.539   6.700  1.00  0.00     0.200 A 
ATOM     92  F   UNL     1      18.215  -6.939   8.579  1.00  0.00    -0.200 F 
ATOM     93  F   UNL     1      19.687  -6.111   6.438  1.00  0.00    -0.200 F 
ENDBRANCH  60  83
ENDBRANCH  34  35
ENDBRANCH  26  29
ENDBRANCH  24  25
ENDBRANCH  23  24
ENDBRANCH  22  23
ENDBRANCH   3  22
TORSDOF 15
