REMARK SMILES Cc1ccc(/C=C2/SC(=O)N(CC(=O)NCCCNC(=O)c3ccc(-c4c5nc(c(-c6c(F)c(F)c(F)c(F)c6F)c6ccc([nH]6)c(-c6c(F)c(F)c(F)c(F)c6F)c6nc(c(-c7c(F)c(F)c(F)c(F)c7F)c7ccc4[nH]7)C=C6)C=C5)cc3)C2=O)cc1
REMARK SMILES IDX 17 1 16 2 15 3 13 4 14 5 12 7 11 8 6 9 7 10 8 11 85 12 9 13
REMARK SMILES IDX 86 14 10 15 5 16 1 17 2 18 3 19 88 20 4 21 87 22 18 23 19 24
REMARK SMILES IDX 20 25 21 27 22 28 23 29 84 30 24 31 83 32 25 33 26 34 27 35
REMARK SMILES IDX 77 36 28 37 82 38 76 39 78 40 29 41 81 42 75 43 74 44 30 46
REMARK SMILES IDX 62 47 42 48 61 49 43 50 46 51 60 52 79 53 44 54 45 55 59 57
REMARK SMILES IDX 80 58 47 59 31 60 32 61 40 62 33 63 34 64 38 65 41 66 35 67
REMARK SMILES IDX 36 68 39 69 37 70 63 71 64 72 72 73 65 74 66 75 70 76 73 77
REMARK SMILES IDX 67 78 68 79 71 80 69 81 48 82 49 83 57 84 50 85 51 86 55 87
REMARK SMILES IDX 58 88 52 89 53 90 56 91 54 92
REMARK H PARENT 15 6 19 26 78 45 46 56
REMARK Flexibility Score: inf
ROOT
ATOM      1  C   UNL     1      -5.349   4.470  -2.133  1.00  0.00     0.042 C 
ENDROOT
BRANCH   1   2
ATOM      2  C   UNL     1      -4.998   4.643  -3.601  1.00  0.00     0.117 C 
BRANCH   2   3
ATOM      3  N   UNL     1      -3.575   4.491  -3.839  1.00  0.00    -0.354 N 
ATOM      4  C   UNL     1      -2.894   3.420  -4.343  1.00  0.00     0.240 C 
ATOM      5  O   UNL     1      -1.717   3.599  -4.660  1.00  0.00    -0.273 OA
ATOM      6  H   UNL     1      -3.022   5.270  -3.604  1.00  0.00     0.163 HD
BRANCH   4   7
ATOM      7  C   UNL     1      -3.590   2.073  -4.573  1.00  0.00     0.229 C 
BRANCH   7   8
ATOM      8  N   UNL     1      -4.030   1.469  -3.328  1.00  0.00    -0.259 N 
ATOM      9  C   UNL     1      -3.214   0.028  -0.086  1.00  0.00     0.029 C 
ATOM     10  C   UNL     1      -3.790   0.449  -1.222  1.00  0.00     0.083 C 
ATOM     11  S   UNL     1      -5.498   0.491  -1.461  1.00  0.00    -0.022 SA
ATOM     12  C   UNL     1      -3.106   0.966  -2.445  1.00  0.00     0.268 C 
ATOM     13  C   UNL     1      -5.347   1.249  -3.039  1.00  0.00     0.294 C 
ATOM     14  O   UNL     1      -1.902   0.942  -2.647  1.00  0.00    -0.268 OA
ATOM     15  O   UNL     1      -6.308   1.530  -3.727  1.00  0.00    -0.261 OA
BRANCH   9  16
ATOM     16  C   UNL     1      -1.765   0.007   0.120  1.00  0.00    -0.024 A 
ATOM     17  C   UNL     1       2.538  -0.057   0.081  1.00  0.00     0.044 C 
ATOM     18  C   UNL     1       1.041  -0.031   0.165  1.00  0.00    -0.051 A 
ATOM     19  C   UNL     1       0.316  -1.227   0.101  1.00  0.00     0.004 A 
ATOM     20  C   UNL     1       0.350   1.181   0.268  1.00  0.00     0.004 A 
ATOM     21  C   UNL     1      -1.080  -1.210   0.078  1.00  0.00     0.008 A 
ATOM     22  C   UNL     1      -1.046   1.200   0.256  1.00  0.00     0.008 A 
ENDBRANCH   9  16
ENDBRANCH   7   8
ENDBRANCH   4   7
ENDBRANCH   2   3
ENDBRANCH   1   2
BRANCH   1  23
ATOM     23  C   UNL     1      -5.090   5.715  -1.302  1.00  0.00     0.118 C 
BRANCH  23  24
ATOM     24  N   UNL     1      -6.159   6.710  -1.386  1.00  0.00    -0.352 N 
ATOM     25  C   UNL     1      -6.418   7.839  -0.626  1.00  0.00     0.251 C 
ATOM     26  H   UNL     1      -6.808   6.549  -2.109  1.00  0.00     0.163 HD
ATOM     27  O   UNL     1      -7.420   8.509  -0.858  1.00  0.00    -0.269 OA
BRANCH  25  28
ATOM     28  C   UNL     1      -5.397   8.355   0.319  1.00  0.00     0.039 A 
ATOM     29  C   UNL     1      -5.069   9.712   0.185  1.00  0.00     0.014 A 
ATOM     30  C   UNL     1      -4.501   7.472   0.892  1.00  0.00     0.014 A 
ATOM     31  C   UNL     1      -3.737  10.086   0.254  1.00  0.00     0.010 A 
ATOM     32  C   UNL     1      -3.176   7.774   0.746  1.00  0.00     0.010 A 
ATOM     33  C   UNL     1      -2.804   9.069   0.367  1.00  0.00    -0.014 A 
BRANCH  33  34
ATOM     34  C   UNL     1      -1.380   9.226   0.185  1.00  0.00     0.031 A 
ATOM     35  C   UNL     1      -0.569   9.227   1.413  1.00  0.00     0.074 A 
ATOM     36  C   UNL     1      -0.880   9.076  -1.062  1.00  0.00     0.049 A 
ATOM     37  N   UNL     1       0.684   9.486   1.456  1.00  0.00    -0.248 NA
ATOM     38  C   UNL     1      -1.135   8.952   2.733  1.00  0.00     0.031 C 
ATOM     39  C   UNL     1       0.487   8.747  -1.450  1.00  0.00     0.029 A 
ATOM     40  N   UNL     1      -1.522   9.359  -2.283  1.00  0.00    -0.354 N 
ATOM     41  C   UNL     1       1.146   9.130   2.705  1.00  0.00     0.074 A 
ATOM     42  C   UNL     1      -0.036   8.882   3.486  1.00  0.00     0.031 C 
ATOM     43  C   UNL     1       0.685   9.134  -2.722  1.00  0.00     0.029 A 
ATOM     44  C   UNL     1      -0.503   9.864  -3.129  1.00  0.00     0.049 A 
ATOM     45  H   UNL     1      -2.474   9.233  -2.501  1.00  0.00     0.167 HD
ATOM     46  C   UNL     1       2.491   8.968   2.848  1.00  0.00     0.037 A 
ATOM     47  C   UNL     1      -0.506  11.178  -3.505  1.00  0.00     0.037 A 
ATOM     48  C   UNL     1       3.158   9.430   1.629  1.00  0.00     0.049 A 
ATOM     49  C   UNL     1       0.688  11.925  -2.961  1.00  0.00     0.074 A 
ATOM     50  C   UNL     1       3.610   8.762   0.503  1.00  0.00     0.029 A 
ATOM     51  N   UNL     1       3.050  10.772   1.281  1.00  0.00    -0.354 N 
ATOM     52  N   UNL     1       1.301  11.610  -1.851  1.00  0.00    -0.248 NA
ATOM     53  C   UNL     1       1.325  13.033  -3.664  1.00  0.00     0.031 C 
ATOM     54  C   UNL     1       3.699   9.710  -0.552  1.00  0.00     0.029 A 
ATOM     55  C   UNL     1       3.329  10.951  -0.059  1.00  0.00     0.049 A 
ATOM     56  H   UNL     1       2.809  11.495   1.904  1.00  0.00     0.167 HD
ATOM     57  C   UNL     1       2.406  12.410  -1.703  1.00  0.00     0.074 A 
ATOM     58  C   UNL     1       2.370  13.288  -2.858  1.00  0.00     0.031 C 
ATOM     59  C   UNL     1       3.285  12.275  -0.664  1.00  0.00     0.037 A 
BRANCH  46  60
ATOM     60  C   UNL     1       3.199   8.186   3.935  1.00  0.00     0.064 A 
ATOM     61  C   UNL     1       4.527   7.745   3.725  1.00  0.00     0.173 A 
ATOM     62  C   UNL     1       2.639   7.772   5.159  1.00  0.00     0.173 A 
ATOM     63  F   UNL     1       5.219   8.101   2.635  1.00  0.00    -0.203 F 
ATOM     64  C   UNL     1       5.200   6.912   4.623  1.00  0.00     0.198 A 
ATOM     65  C   UNL     1       3.307   6.923   6.050  1.00  0.00     0.198 A 
ATOM     66  F   UNL     1       1.442   8.189   5.573  1.00  0.00    -0.203 F 
ATOM     67  F   UNL     1       6.451   6.515   4.349  1.00  0.00    -0.200 F 
ATOM     68  C   UNL     1       4.585   6.487   5.779  1.00  0.00     0.200 A 
ATOM     69  F   UNL     1       2.694   6.534   7.178  1.00  0.00    -0.200 F 
ATOM     70  F   UNL     1       5.222   5.676   6.634  1.00  0.00    -0.200 F 
ENDBRANCH  46  60
BRANCH  47  71
ATOM     71  C   UNL     1      -1.893  11.703  -3.675  1.00  0.00     0.064 A 
ATOM     72  C   UNL     1      -2.667  11.114  -4.697  1.00  0.00     0.173 A 
ATOM     73  C   UNL     1      -2.579  12.315  -2.619  1.00  0.00     0.173 A 
ATOM     74  F   UNL     1      -2.059  10.542  -5.749  1.00  0.00    -0.203 F 
ATOM     75  C   UNL     1      -4.045  10.961  -4.563  1.00  0.00     0.198 A 
ATOM     76  C   UNL     1      -3.968  12.190  -2.509  1.00  0.00     0.198 A 
ATOM     77  F   UNL     1      -1.905  12.904  -1.621  1.00  0.00    -0.203 F 
ATOM     78  F   UNL     1      -4.728  10.241  -5.465  1.00  0.00    -0.200 F 
ATOM     79  C   UNL     1      -4.688  11.462  -3.446  1.00  0.00     0.200 A 
ATOM     80  F   UNL     1      -4.599  12.682  -1.432  1.00  0.00    -0.200 F 
ATOM     81  F   UNL     1      -5.989  11.205  -3.248  1.00  0.00    -0.200 F 
ENDBRANCH  47  71
BRANCH  59  82
ATOM     82  C   UNL     1       4.272  13.325  -0.197  1.00  0.00     0.064 A 
ATOM     83  C   UNL     1       4.168  14.691  -0.510  1.00  0.00     0.173 A 
ATOM     84  C   UNL     1       5.293  13.002   0.735  1.00  0.00     0.173 A 
ATOM     85  F   UNL     1       3.160  15.168  -1.249  1.00  0.00    -0.203 F 
ATOM     86  C   UNL     1       5.069  15.638  -0.015  1.00  0.00     0.198 A 
ATOM     87  C   UNL     1       6.137  13.962   1.290  1.00  0.00     0.198 A 
ATOM     88  F   UNL     1       5.489  11.750   1.170  1.00  0.00    -0.203 F 
ATOM     89  F   UNL     1       4.961  16.916  -0.404  1.00  0.00    -0.200 F 
ATOM     90  C   UNL     1       6.044  15.277   0.892  1.00  0.00     0.200 A 
ATOM     91  F   UNL     1       7.024  13.604   2.229  1.00  0.00    -0.200 F 
ATOM     92  F   UNL     1       6.873  16.197   1.401  1.00  0.00    -0.200 F 
ENDBRANCH  59  82
ENDBRANCH  33  34
ENDBRANCH  25  28
ENDBRANCH  23  24
ENDBRANCH   1  23
TORSDOF 12
