REMARK SMILES CC[C@@H](C(=O)NCCCNC(=O)c1ccc(-c2c3nc(c(-c4c(F)c(F)c(F)c(F)c4F)c4ccc([nH]4)c(-c4c(F)c(F)c(F)c(F)c4F)c4nc(c(-c5c(F)c(F)c(F)c(F)c5F)c5ccc2[nH]5)C=C4)C=C3)cc1)N1CCN(Cc2cccc(C)c2)C(=O)C1=O
REMARK SMILES IDX 7 1 6 2 4 3 5 4 3 6 2 7 1 8 76 9 77 10 90 11 78 12 88 13
REMARK SMILES IDX 91 14 79 15 89 16 80 17 81 18 82 19 87 20 83 21 85 22 84 23
REMARK SMILES IDX 86 24 8 25 9 26 10 27 11 28 12 30 13 31 14 32 75 33 15 34
REMARK SMILES IDX 74 35 16 36 17 37 18 38 68 39 19 40 73 41 67 42 69 43 20 44
REMARK SMILES IDX 72 45 66 46 65 47 21 49 53 50 33 51 52 52 34 53 37 54 51 55
REMARK SMILES IDX 70 56 35 57 36 58 50 60 71 61 38 62 22 63 23 64 31 65 24 66
REMARK SMILES IDX 25 67 29 68 32 69 26 70 27 71 30 72 28 73 54 74 55 75 63 76
REMARK SMILES IDX 56 77 57 78 61 79 64 80 58 81 59 82 62 83 60 84 39 85 40 86
REMARK SMILES IDX 48 87 41 88 42 89 46 90 49 91 43 92 44 93 47 94 45 95
REMARK H PARENT 6 5 10 29 69 48 37 59
REMARK Flexibility Score: inf
ROOT
ATOM      1  C   UNL     1       1.794  -2.052  -1.137  1.00  0.00     0.117 C 
ENDROOT
BRANCH   1   2
ATOM      2  N   UNL     1       0.516  -1.717  -1.755  1.00  0.00    -0.354 N 
ATOM      3  C   UNL     1       0.008  -0.522  -2.193  1.00  0.00     0.242 C 
ATOM      4  O   UNL     1      -1.153  -0.518  -2.612  1.00  0.00    -0.273 OA
ATOM      5  H   UNL     1      -0.087  -2.485  -1.880  1.00  0.00     0.163 HD
BRANCH   3   6
ATOM      6  C   UNL     1       0.846   0.778  -2.099  1.00  0.00     0.174 C 
BRANCH   6   7
ATOM      7  C   UNL     1       0.505   1.533  -0.794  1.00  0.00     0.032 C 
ATOM      8  C   UNL     1       0.647   0.776   0.508  1.00  0.00     0.006 C 
ENDBRANCH   6   7
BRANCH   6   9
ATOM      9  N   UNL     1       0.611   1.614  -3.313  1.00  0.00    -0.321 N 
ATOM     10  C   UNL     1       0.195   3.009  -3.233  1.00  0.00     0.142 C 
ATOM     11  C   UNL     1       0.972   1.129  -4.587  1.00  0.00     0.312 C 
ATOM     12  C   UNL     1       1.126   3.833  -4.110  1.00  0.00     0.142 C 
ATOM     13  C   UNL     1       0.760   2.126  -5.804  1.00  0.00     0.312 C 
ATOM     14  O   UNL     1       1.485   0.031  -4.764  1.00  0.00    -0.263 OA
ATOM     15  N   UNL     1       0.865   3.489  -5.492  1.00  0.00    -0.328 N 
ATOM     16  O   UNL     1       0.539   1.696  -6.929  1.00  0.00    -0.263 OA
BRANCH  15  17
ATOM     17  C   UNL     1       0.802   4.532  -6.518  1.00  0.00     0.155 C 
BRANCH  17  18
ATOM     18  C   UNL     1      -0.292   5.558  -6.278  1.00  0.00    -0.028 A 
ATOM     19  C   UNL     1      -1.512   5.474  -6.960  1.00  0.00     0.005 A 
ATOM     20  C   UNL     1      -0.123   6.596  -5.344  1.00  0.00     0.009 A 
ATOM     21  C   UNL     1      -2.535   6.389  -6.697  1.00  0.00     0.001 A 
ATOM     22  C   UNL     1      -1.177   7.452  -5.000  1.00  0.00    -0.051 A 
ATOM     23  C   UNL     1      -2.376   7.362  -5.709  1.00  0.00     0.003 A 
ATOM     24  C   UNL     1      -1.017   8.453  -3.893  1.00  0.00     0.044 C 
ENDBRANCH  17  18
ENDBRANCH  15  17
ENDBRANCH   6   9
ENDBRANCH   3   6
ENDBRANCH   1   2
BRANCH   1  25
ATOM     25  C   UNL     1       1.625  -2.528   0.309  1.00  0.00     0.042 C 
BRANCH  25  26
ATOM     26  C   UNL     1       0.939  -3.883   0.452  1.00  0.00     0.118 C 
BRANCH  26  27
ATOM     27  N   UNL     1       1.896  -4.970   0.552  1.00  0.00    -0.352 N 
ATOM     28  C   UNL     1       2.133  -5.848   1.583  1.00  0.00     0.251 C 
ATOM     29  H   UNL     1       2.464  -5.099  -0.242  1.00  0.00     0.163 HD
ATOM     30  O   UNL     1       3.136  -6.556   1.548  1.00  0.00    -0.269 OA
BRANCH  28  31
ATOM     31  C   UNL     1       1.214  -5.949   2.746  1.00  0.00     0.039 A 
ATOM     32  C   UNL     1       1.765  -6.167   4.014  1.00  0.00     0.014 A 
ATOM     33  C   UNL     1      -0.175  -5.910   2.600  1.00  0.00     0.014 A 
ATOM     34  C   UNL     1       0.933  -6.303   5.132  1.00  0.00     0.010 A 
ATOM     35  C   UNL     1      -1.003  -5.978   3.724  1.00  0.00     0.010 A 
ATOM     36  C   UNL     1      -0.459  -6.191   5.001  1.00  0.00    -0.014 A 
BRANCH  36  37
ATOM     37  C   UNL     1      -1.357  -6.327   6.179  1.00  0.00     0.031 A 
ATOM     38  C   UNL     1      -2.320  -7.482   6.270  1.00  0.00     0.074 A 
ATOM     39  C   UNL     1      -1.354  -5.386   7.143  1.00  0.00     0.049 A 
ATOM     40  N   UNL     1      -3.230  -7.733   7.179  1.00  0.00    -0.248 NA
ATOM     41  C   UNL     1      -2.273  -8.471   5.182  1.00  0.00     0.031 C 
ATOM     42  C   UNL     1      -0.511  -4.190   7.155  1.00  0.00     0.029 A 
ATOM     43  N   UNL     1      -2.097  -5.279   8.293  1.00  0.00    -0.354 N 
ATOM     44  C   UNL     1      -3.882  -8.884   6.755  1.00  0.00     0.074 A 
ATOM     45  C   UNL     1      -3.285  -9.268   5.495  1.00  0.00     0.031 C 
ATOM     46  C   UNL     1      -0.778  -3.475   8.260  1.00  0.00     0.029 A 
ATOM     47  C   UNL     1      -1.828  -4.146   9.021  1.00  0.00     0.049 A 
ATOM     48  H   UNL     1      -2.761  -5.952   8.570  1.00  0.00     0.167 HD
ATOM     49  C   UNL     1      -4.877  -9.569   7.369  1.00  0.00     0.037 A 
ATOM     50  C   UNL     1      -2.371  -3.694  10.168  1.00  0.00     0.037 A 
ATOM     51  C   UNL     1      -5.432  -9.227   8.652  1.00  0.00     0.049 A 
ATOM     52  C   UNL     1      -3.437  -4.502  10.855  1.00  0.00     0.074 A 
ATOM     53  C   UNL     1      -6.371  -9.920   9.398  1.00  0.00     0.029 A 
ATOM     54  N   UNL     1      -5.094  -8.099   9.383  1.00  0.00    -0.354 N 
ATOM     55  N   UNL     1      -3.987  -5.631  10.482  1.00  0.00    -0.248 NA
ATOM     56  C   UNL     1      -3.952  -3.978  12.129  1.00  0.00     0.031 C 
ATOM     57  C   UNL     1      -6.626  -9.194  10.566  1.00  0.00     0.029 A 
ATOM     58  C   UNL     1      -5.820  -8.067  10.562  1.00  0.00     0.049 A 
ATOM     59  H   UNL     1      -4.437  -7.421   9.104  1.00  0.00     0.167 HD
ATOM     60  C   UNL     1      -4.892  -5.963  11.482  1.00  0.00     0.074 A 
ATOM     61  C   UNL     1      -4.809  -4.924  12.486  1.00  0.00     0.031 C 
ATOM     62  C   UNL     1      -5.719  -7.033  11.558  1.00  0.00     0.037 A 
BRANCH  49  63
ATOM     63  C   UNL     1      -5.434 -10.770   6.666  1.00  0.00     0.064 A 
ATOM     64  C   UNL     1      -4.719 -11.974   6.588  1.00  0.00     0.173 A 
ATOM     65  C   UNL     1      -6.725 -10.734   6.118  1.00  0.00     0.173 A 
ATOM     66  F   UNL     1      -3.478 -12.055   7.091  1.00  0.00    -0.203 F 
ATOM     67  C   UNL     1      -5.269 -13.093   5.969  1.00  0.00     0.198 A 
ATOM     68  C   UNL     1      -7.281 -11.862   5.520  1.00  0.00     0.198 A 
ATOM     69  F   UNL     1      -7.453  -9.608   6.173  1.00  0.00    -0.203 F 
ATOM     70  F   UNL     1      -4.554 -14.223   5.876  1.00  0.00    -0.200 F 
ATOM     71  C   UNL     1      -6.551 -13.039   5.442  1.00  0.00     0.200 A 
ATOM     72  F   UNL     1      -8.524 -11.812   5.022  1.00  0.00    -0.200 F 
ATOM     73  F   UNL     1      -7.082 -14.121   4.856  1.00  0.00    -0.200 F 
ENDBRANCH  49  63
BRANCH  50  74
ATOM     74  C   UNL     1      -1.901  -2.413  10.755  1.00  0.00     0.064 A 
ATOM     75  C   UNL     1      -1.125  -2.397  11.922  1.00  0.00     0.173 A 
ATOM     76  C   UNL     1      -2.230  -1.182  10.171  1.00  0.00     0.173 A 
ATOM     77  F   UNL     1      -0.806  -3.550  12.529  1.00  0.00    -0.203 F 
ATOM     78  C   UNL     1      -0.713  -1.196  12.495  1.00  0.00     0.198 A 
ATOM     79  C   UNL     1      -1.797   0.018  10.731  1.00  0.00     0.198 A 
ATOM     80  F   UNL     1      -2.969  -1.145   9.052  1.00  0.00    -0.203 F 
ATOM     81  F   UNL     1      -0.009  -1.207  13.635  1.00  0.00    -0.200 F 
ATOM     82  C   UNL     1      -1.045   0.010  11.897  1.00  0.00     0.200 A 
ATOM     83  F   UNL     1      -2.110   1.181  10.145  1.00  0.00    -0.200 F 
ATOM     84  F   UNL     1      -0.648   1.165  12.448  1.00  0.00    -0.200 F 
ENDBRANCH  50  74
BRANCH  62  85
ATOM     85  C   UNL     1      -6.579  -7.153  12.780  1.00  0.00     0.064 A 
ATOM     86  C   UNL     1      -7.709  -6.342  12.962  1.00  0.00     0.173 A 
ATOM     87  C   UNL     1      -6.294  -8.116  13.758  1.00  0.00     0.173 A 
ATOM     88  F   UNL     1      -8.012  -5.396  12.060  1.00  0.00    -0.203 F 
ATOM     89  C   UNL     1      -8.512  -6.479  14.091  1.00  0.00     0.198 A 
ATOM     90  C   UNL     1      -7.112  -8.266  14.874  1.00  0.00     0.198 A 
ATOM     91  F   UNL     1      -5.227  -8.919  13.627  1.00  0.00    -0.203 F 
ATOM     92  F   UNL     1      -9.565  -5.669  14.264  1.00  0.00    -0.200 F 
ATOM     93  C   UNL     1      -8.217  -7.445  15.042  1.00  0.00     0.200 A 
ATOM     94  F   UNL     1      -6.832  -9.205  15.789  1.00  0.00    -0.200 F 
ATOM     95  F   UNL     1      -8.995  -7.579  16.125  1.00  0.00    -0.200 F 
ENDBRANCH  62  85
ENDBRANCH  36  37
ENDBRANCH  28  31
ENDBRANCH  26  27
ENDBRANCH  25  26
ENDBRANCH   1  25
TORSDOF 14
