REMARK SMILES [NH3+][C@@]1(C(=O)NCCCNC(=O)c2ccc(-c3c4nc(c(-c5c(F)c(F)c(F)c(F)c5F)c5ccc([nH]5)c(-c5c(F)c(F)c(F)c(F)c5F)c5nc(c(-c6c(F)c(F)c(F)c(F)c6F)c6ccc3[nH]6)C=C5)C=C4)cc2)CC[C@H](Sc2cccs2)C1
REMARK SMILES IDX 7 1 6 2 5 3 3 4 4 5 2 7 75 8 84 9 76 10 77 11 1 12 78 16
REMARK SMILES IDX 79 17 80 18 83 19 81 20 82 21 8 22 9 23 10 24 11 26 12 27
REMARK SMILES IDX 13 28 74 29 14 30 73 31 15 32 16 33 17 34 67 35 18 36 72 37
REMARK SMILES IDX 66 38 68 39 19 40 71 41 65 42 64 43 20 45 52 46 32 47 51 48
REMARK SMILES IDX 33 49 36 50 50 51 69 52 34 53 35 54 49 56 70 57 37 58 21 59
REMARK SMILES IDX 22 60 30 61 23 62 24 63 28 64 31 65 25 66 26 67 29 68 27 69
REMARK SMILES IDX 53 70 54 71 62 72 55 73 56 74 60 75 63 76 57 77 58 78 61 79
REMARK SMILES IDX 59 80 38 81 39 82 47 83 40 84 41 85 45 86 48 87 42 88 43 89
REMARK SMILES IDX 46 90 44 91
REMARK H PARENT 5 6 1 13 1 14 1 15 9 25 68 44 36 55
REMARK Flexibility Score: inf
ROOT
ATOM      1  C   UNL     1       0.659   3.060  -4.643  1.00  0.00     0.042 C 
ENDROOT
BRANCH   1   2
ATOM      2  C   UNL     1      -0.253   2.163  -3.834  1.00  0.00     0.118 C 
BRANCH   2   3
ATOM      3  N   UNL     1       0.358   0.911  -3.461  1.00  0.00    -0.351 N 
ATOM      4  C   UNL     1       0.603   0.379  -2.235  1.00  0.00     0.281 C 
ATOM      5  O   UNL     1       1.105  -0.754  -2.231  1.00  0.00    -0.268 OA
ATOM      6  H   UNL     1       0.644   0.350  -4.217  1.00  0.00     0.163 HD
BRANCH   4   7
ATOM      7  C   UNL     1       0.305   1.122  -0.875  1.00  0.00     0.175 C 
ATOM      8  C   UNL     1      -1.158   1.531  -0.666  1.00  0.00     0.080 C 
ATOM      9  C   UNL     1       1.144   2.390  -0.695  1.00  0.00     0.094 C 
ATOM     10  C   UNL     1      -1.229   3.063  -0.705  1.00  0.00     0.022 C 
ATOM     11  C   UNL     1       0.186   3.571  -0.433  1.00  0.00     0.059 C 
BRANCH   7  12
ATOM     12  N   UNL     1       0.670   0.166   0.209  1.00  0.00    -0.345 N 
ATOM     13  H   UNL     1       0.122  -0.688   0.108  1.00  0.00     0.345 HD
ATOM     14  H   UNL     1       0.476   0.590   1.116  1.00  0.00     0.345 HD
ATOM     15  H   UNL     1       1.663  -0.058   0.144  1.00  0.00     0.345 HD
ENDBRANCH   7  12
BRANCH  11  16
ATOM     16  S   UNL     1       0.896   5.006  -1.301  1.00  0.00    -0.112 SA
BRANCH  16  17
ATOM     17  C   UNL     1      -0.341   5.977  -2.055  1.00  0.00     0.060 A 
ATOM     18  C   UNL     1      -1.640   6.226  -1.670  1.00  0.00     0.027 A 
ATOM     19  S   UNL     1       0.075   6.903  -3.449  1.00  0.00    -0.137 S 
ATOM     20  C   UNL     1      -2.298   7.160  -2.532  1.00  0.00     0.013 A 
ATOM     21  C   UNL     1      -1.475   7.609  -3.539  1.00  0.00     0.066 A 
ENDBRANCH  16  17
ENDBRANCH  11  16
ENDBRANCH   4   7
ENDBRANCH   2   3
ENDBRANCH   1   2
BRANCH   1  22
ATOM     22  C   UNL     1       0.753   2.644  -6.097  1.00  0.00     0.118 C 
BRANCH  22  23
ATOM     23  N   UNL     1      -0.500   2.867  -6.814  1.00  0.00    -0.352 N 
ATOM     24  C   UNL     1      -0.877   3.863  -7.685  1.00  0.00     0.251 C 
ATOM     25  H   UNL     1      -1.194   2.189  -6.645  1.00  0.00     0.163 HD
ATOM     26  O   UNL     1      -2.061   3.990  -7.981  1.00  0.00    -0.269 OA
BRANCH  24  27
ATOM     27  C   UNL     1       0.127   4.788  -8.256  1.00  0.00     0.039 A 
ATOM     28  C   UNL     1      -0.221   6.121  -8.492  1.00  0.00     0.014 A 
ATOM     29  C   UNL     1       1.403   4.340  -8.590  1.00  0.00     0.014 A 
ATOM     30  C   UNL     1       0.736   7.012  -8.989  1.00  0.00     0.010 A 
ATOM     31  C   UNL     1       2.388   5.249  -8.950  1.00  0.00     0.010 A 
ATOM     32  C   UNL     1       2.062   6.593  -9.178  1.00  0.00    -0.014 A 
BRANCH  32  33
ATOM     33  C   UNL     1       3.126   7.512  -9.660  1.00  0.00     0.031 A 
ATOM     34  C   UNL     1       3.878   7.179 -10.923  1.00  0.00     0.074 A 
ATOM     35  C   UNL     1       3.476   8.586  -8.925  1.00  0.00     0.049 A 
ATOM     36  N   UNL     1       4.941   7.750 -11.433  1.00  0.00    -0.248 NA
ATOM     37  C   UNL     1       3.396   6.021 -11.696  1.00  0.00     0.031 C 
ATOM     38  C   UNL     1       2.862   8.986  -7.659  1.00  0.00     0.029 A 
ATOM     39  N   UNL     1       4.454   9.528  -9.130  1.00  0.00    -0.354 N 
ATOM     40  C   UNL     1       5.260   7.010 -12.564  1.00  0.00     0.074 A 
ATOM     41  C   UNL     1       4.330   5.906 -12.628  1.00  0.00     0.031 C 
ATOM     42  C   UNL     1       3.463  10.099  -7.209  1.00  0.00     0.029 A 
ATOM     43  C   UNL     1       4.537  10.463  -8.127  1.00  0.00     0.049 A 
ATOM     44  H   UNL     1       5.040   9.533  -9.922  1.00  0.00     0.167 HD
ATOM     45  C   UNL     1       6.219   7.248 -13.489  1.00  0.00     0.037 A 
ATOM     46  C   UNL     1       5.398  11.485  -7.958  1.00  0.00     0.037 A 
ATOM     47  C   UNL     1       7.120   8.367 -13.442  1.00  0.00     0.049 A 
ATOM     48  C   UNL     1       6.462  11.724  -8.999  1.00  0.00     0.074 A 
ATOM     49  C   UNL     1       8.103   8.723 -14.348  1.00  0.00     0.029 A 
ATOM     50  N   UNL     1       7.141   9.319 -12.433  1.00  0.00    -0.354 N 
ATOM     51  N   UNL     1       6.719  11.047 -10.092  1.00  0.00    -0.248 NA
ATOM     52  C   UNL     1       7.350  12.876  -8.787  1.00  0.00     0.031 C 
ATOM     53  C   UNL     1       8.746   9.867 -13.868  1.00  0.00     0.029 A 
ATOM     54  C   UNL     1       8.126  10.257 -12.692  1.00  0.00     0.049 A 
ATOM     55  H   UNL     1       6.543   9.326 -11.651  1.00  0.00     0.167 HD
ATOM     56  C   UNL     1       7.769  11.710 -10.713  1.00  0.00     0.074 A 
ATOM     57  C   UNL     1       8.093  12.851  -9.883  1.00  0.00     0.031 C 
ATOM     58  C   UNL     1       8.411  11.402 -11.867  1.00  0.00     0.037 A 
BRANCH  45  59
ATOM     59  C   UNL     1       6.327   6.295 -14.645  1.00  0.00     0.064 A 
ATOM     60  C   UNL     1       5.330   6.223 -15.631  1.00  0.00     0.173 A 
ATOM     61  C   UNL     1       7.458   5.479 -14.798  1.00  0.00     0.173 A 
ATOM     62  F   UNL     1       4.222   6.971 -15.526  1.00  0.00    -0.203 F 
ATOM     63  C   UNL     1       5.449   5.352 -16.710  1.00  0.00     0.198 A 
ATOM     64  C   UNL     1       7.590   4.634 -15.898  1.00  0.00     0.198 A 
ATOM     65  F   UNL     1       8.444   5.510 -13.889  1.00  0.00    -0.203 F 
ATOM     66  F   UNL     1       4.460   5.266 -17.611  1.00  0.00    -0.200 F 
ATOM     67  C   UNL     1       6.582   4.566 -16.848  1.00  0.00     0.200 A 
ATOM     68  F   UNL     1       8.693   3.886 -16.038  1.00  0.00    -0.200 F 
ATOM     69  F   UNL     1       6.702   3.738 -17.896  1.00  0.00    -0.200 F 
ENDBRANCH  45  59
BRANCH  46  70
ATOM     70  C   UNL     1       5.294  12.366  -6.763  1.00  0.00     0.064 A 
ATOM     71  C   UNL     1       4.933  13.715  -6.889  1.00  0.00     0.173 A 
ATOM     72  C   UNL     1       5.585  11.888  -5.476  1.00  0.00     0.173 A 
ATOM     73  F   UNL     1       4.662  14.226  -8.099  1.00  0.00    -0.203 F 
ATOM     74  C   UNL     1       4.906  14.561  -5.781  1.00  0.00     0.198 A 
ATOM     75  C   UNL     1       5.523  12.726  -4.365  1.00  0.00     0.198 A 
ATOM     76  F   UNL     1       5.929  10.604  -5.298  1.00  0.00    -0.203 F 
ATOM     77  F   UNL     1       4.623  15.861  -5.941  1.00  0.00    -0.200 F 
ATOM     78  C   UNL     1       5.197  14.065  -4.520  1.00  0.00     0.200 A 
ATOM     79  F   UNL     1       5.789  12.239  -3.145  1.00  0.00    -0.200 F 
ATOM     80  F   UNL     1       5.176  14.880  -3.456  1.00  0.00    -0.200 F 
ENDBRANCH  46  70
BRANCH  58  81
ATOM     81  C   UNL     1       9.484  12.341 -12.335  1.00  0.00     0.064 A 
ATOM     82  C   UNL     1      10.722  12.436 -11.684  1.00  0.00     0.173 A 
ATOM     83  C   UNL     1       9.287  13.117 -13.489  1.00  0.00     0.173 A 
ATOM     84  F   UNL     1      10.956  11.725 -10.570  1.00  0.00    -0.203 F 
ATOM     85  C   UNL     1      11.713  13.293 -12.155  1.00  0.00     0.198 A 
ATOM     86  C   UNL     1      10.292  13.946 -13.976  1.00  0.00     0.198 A 
ATOM     87  F   UNL     1       8.123  13.055 -14.154  1.00  0.00    -0.203 F 
ATOM     88  F   UNL     1      12.871  13.403 -11.490  1.00  0.00    -0.200 F 
ATOM     89  C   UNL     1      11.502  14.039 -13.305  1.00  0.00     0.200 A 
ATOM     90  F   UNL     1      10.091  14.652 -15.097  1.00  0.00    -0.200 F 
ATOM     91  F   UNL     1      12.462  14.852 -13.764  1.00  0.00    -0.200 F 
ENDBRANCH  58  81
ENDBRANCH  32  33
ENDBRANCH  24  27
ENDBRANCH  22  23
ENDBRANCH   1  22
TORSDOF 13
