REMARK SMILES CCCCCCNC(=O)Nc1cccc(-c2ccc([C@@H](C)C(=O)NCCCNC(=O)c3ccc(-c4c5nc(c(-c6c(F)c(F)c(F)c(F)c6F)c6ccc([nH]6)c(-c6c(F)c(F)c(F)c(F)c6F)c6nc(c(-c7c(F)c(F)c(F)c(F)c7F)c7ccc4[nH]7)C=C6)C=C5)cc3)cc2F)c1
REMARK SMILES IDX 20 1 21 2 19 3 16 4 17 5 95 6 18 7 94 8 96 9 15 10 11 11
REMARK SMILES IDX 12 12 97 13 13 14 14 15 10 16 7 17 8 18 9 20 6 22 5 23 4 24
REMARK SMILES IDX 3 25 2 26 1 27 22 28 23 29 24 30 25 32 26 33 27 34 28 35
REMARK SMILES IDX 29 36 30 38 31 39 32 40 93 41 33 42 92 43 34 44 35 45 36 46
REMARK SMILES IDX 86 47 37 48 91 49 85 50 87 51 38 52 90 53 84 54 83 55 39 57
REMARK SMILES IDX 71 58 51 59 70 60 52 61 55 62 69 63 88 64 53 65 54 66 68 68
REMARK SMILES IDX 89 69 56 70 40 71 41 72 49 73 42 74 43 75 47 76 50 77 44 78
REMARK SMILES IDX 45 79 48 80 46 81 72 82 73 83 81 84 74 85 75 86 79 87 82 88
REMARK SMILES IDX 76 89 77 90 80 91 78 92 57 93 58 94 66 95 59 96 60 97 64 98
REMARK SMILES IDX 67 99 61 100 62 101 65 102 63 103
REMARK H PARENT 7 19 10 21 24 31 28 37 87 56 55 67
REMARK Flexibility Score: inf
ROOT
ATOM      1  C   UNL     1      -2.232   5.769  -2.779  1.00  0.00     0.105 C 
ATOM      2  C   UNL     1      -3.139   6.816  -2.135  1.00  0.00     0.023 C 
ENDROOT
BRANCH   1   3
ATOM      3  C   UNL     1      -2.900   4.429  -3.047  1.00  0.00    -0.033 A 
ATOM      4  C   UNL     1      -4.052   1.859  -3.590  1.00  0.00     0.018 A 
ATOM      5  C   UNL     1      -4.094   2.437  -2.310  1.00  0.00     0.012 A 
ATOM      6  C   UNL     1      -3.439   2.623  -4.595  1.00  0.00     0.131 A 
ATOM      7  C   UNL     1      -3.566   3.708  -2.055  1.00  0.00     0.005 A 
ATOM      8  C   UNL     1      -2.857   3.869  -4.332  1.00  0.00     0.044 A 
ATOM      9  F   UNL     1      -3.389   2.172  -5.858  1.00  0.00    -0.206 F 
BRANCH   4  10
ATOM     10  C   UNL     1      -4.590   0.497  -3.815  1.00  0.00    -0.013 A 
ATOM     11  C   UNL     1      -4.325  -1.758  -4.730  1.00  0.00     0.043 A 
ATOM     12  C   UNL     1      -5.475  -2.185  -4.071  1.00  0.00     0.026 A 
ATOM     13  C   UNL     1      -3.936  -0.414  -4.661  1.00  0.00     0.035 A 
ATOM     14  C   UNL     1      -6.160  -1.297  -3.248  1.00  0.00     0.003 A 
ATOM     15  C   UNL     1      -5.715   0.022  -3.113  1.00  0.00     0.009 A 
BRANCH  11  16
ATOM     16  N   UNL     1      -3.552  -2.724  -5.390  1.00  0.00    -0.308 N 
ATOM     17  N   UNL     1      -1.335  -2.216  -4.734  1.00  0.00    -0.338 N 
ATOM     18  C   UNL     1      -2.213  -2.786  -5.593  1.00  0.00     0.319 C 
ATOM     19  H   UNL     1      -0.411  -2.158  -5.069  1.00  0.00     0.165 HD
ATOM     20  O   UNL     1      -1.769  -3.462  -6.523  1.00  0.00    -0.249 OA
ATOM     21  H   UNL     1      -4.062  -3.477  -5.766  1.00  0.00     0.171 HD
BRANCH  17  22
ATOM     22  C   UNL     1      -1.531  -1.675  -3.398  1.00  0.00     0.117 C 
BRANCH  22  23
ATOM     23  C   UNL     1      -0.593  -2.263  -2.352  1.00  0.00     0.021 C 
BRANCH  23  24
ATOM     24  C   UNL     1       0.890  -1.958  -2.554  1.00  0.00     0.002 C 
BRANCH  24  25
ATOM     25  C   UNL     1       1.253  -0.476  -2.692  1.00  0.00    -0.000 C 
BRANCH  25  26
ATOM     26  C   UNL     1       0.773   0.432  -1.560  1.00  0.00    -0.003 C 
ATOM     27  C   UNL     1       1.262  -0.020  -0.199  1.00  0.00     0.004 C 
ENDBRANCH  25  26
ENDBRANCH  24  25
ENDBRANCH  23  24
ENDBRANCH  22  23
ENDBRANCH  17  22
ENDBRANCH  11  16
ENDBRANCH   4  10
ENDBRANCH   1   3
BRANCH   1  28
ATOM     28  C   UNL     1      -0.826   5.657  -2.167  1.00  0.00     0.227 C 
ATOM     29  O   UNL     1       0.169   5.792  -2.890  1.00  0.00    -0.274 OA
ATOM     30  N   UNL     1      -0.571   5.416  -0.852  1.00  0.00    -0.356 N 
ATOM     31  H   UNL     1       0.387   5.438  -0.624  1.00  0.00     0.163 HD
BRANCH  30  32
ATOM     32  C   UNL     1      -1.433   5.134   0.278  1.00  0.00     0.117 C 
BRANCH  32  33
ATOM     33  C   UNL     1      -1.500   3.642   0.594  1.00  0.00     0.042 C 
BRANCH  33  34
ATOM     34  C   UNL     1      -0.363   3.133   1.469  1.00  0.00     0.118 C 
BRANCH  34  35
ATOM     35  N   UNL     1      -0.422   3.643   2.831  1.00  0.00    -0.352 N 
ATOM     36  C   UNL     1      -0.470   2.961   4.025  1.00  0.00     0.251 C 
ATOM     37  H   UNL     1      -0.428   4.624   2.909  1.00  0.00     0.163 HD
ATOM     38  O   UNL     1      -0.706   3.568   5.063  1.00  0.00    -0.269 OA
BRANCH  36  39
ATOM     39  C   UNL     1      -0.260   1.496   4.063  1.00  0.00     0.039 A 
ATOM     40  C   UNL     1      -1.085   0.708   4.869  1.00  0.00     0.014 A 
ATOM     41  C   UNL     1       0.760   0.896   3.325  1.00  0.00     0.014 A 
ATOM     42  C   UNL     1      -0.933  -0.683   4.875  1.00  0.00     0.010 A 
ATOM     43  C   UNL     1       0.850  -0.494   3.262  1.00  0.00     0.010 A 
ATOM     44  C   UNL     1       0.007  -1.304   4.036  1.00  0.00    -0.014 A 
BRANCH  44  45
ATOM     45  C   UNL     1       0.125  -2.788   3.956  1.00  0.00     0.031 A 
ATOM     46  C   UNL     1       1.427  -3.471   4.292  1.00  0.00     0.074 A 
ATOM     47  C   UNL     1      -0.917  -3.524   3.520  1.00  0.00     0.049 A 
ATOM     48  N   UNL     1       1.736  -4.743   4.231  1.00  0.00    -0.248 NA
ATOM     49  C   UNL     1       2.538  -2.609   4.723  1.00  0.00     0.031 C 
ATOM     50  C   UNL     1      -2.214  -2.989   3.100  1.00  0.00     0.029 A 
ATOM     51  N   UNL     1      -1.052  -4.881   3.350  1.00  0.00    -0.354 N 
ATOM     52  C   UNL     1       3.074  -4.826   4.596  1.00  0.00     0.074 A 
ATOM     53  C   UNL     1       3.537  -3.473   4.810  1.00  0.00     0.031 C 
ATOM     54  C   UNL     1      -3.022  -4.005   2.759  1.00  0.00     0.029 A 
ATOM     55  C   UNL     1      -2.290  -5.262   2.890  1.00  0.00     0.049 A 
ATOM     56  H   UNL     1      -0.328  -5.521   3.540  1.00  0.00     0.167 HD
ATOM     57  C   UNL     1       3.841  -5.930   4.769  1.00  0.00     0.037 A 
ATOM     58  C   UNL     1      -2.781  -6.483   2.601  1.00  0.00     0.037 A 
ATOM     59  C   UNL     1       3.374  -7.278   4.585  1.00  0.00     0.049 A 
ATOM     60  C   UNL     1      -1.908  -7.695   2.797  1.00  0.00     0.074 A 
ATOM     61  C   UNL     1       4.055  -8.464   4.800  1.00  0.00     0.029 A 
ATOM     62  N   UNL     1       2.106  -7.621   4.138  1.00  0.00    -0.354 N 
ATOM     63  N   UNL     1      -0.670  -7.763   3.225  1.00  0.00    -0.248 NA
ATOM     64  C   UNL     1      -2.503  -9.001   2.479  1.00  0.00     0.031 C 
ATOM     65  C   UNL     1       3.220  -9.522   4.428  1.00  0.00     0.029 A 
ATOM     66  C   UNL     1       1.995  -8.999   4.046  1.00  0.00     0.049 A 
ATOM     67  H   UNL     1       1.392  -6.980   3.918  1.00  0.00     0.167 HD
ATOM     68  C   UNL     1      -0.352  -9.114   3.262  1.00  0.00     0.074 A 
ATOM     69  C   UNL     1      -1.530  -9.833   2.824  1.00  0.00     0.031 C 
ATOM     70  C   UNL     1       0.811  -9.706   3.628  1.00  0.00     0.037 A 
BRANCH  57  71
ATOM     71  C   UNL     1       5.271  -5.727   5.188  1.00  0.00     0.064 A 
ATOM     72  C   UNL     1       5.604  -5.230   6.458  1.00  0.00     0.173 A 
ATOM     73  C   UNL     1       6.323  -6.071   4.325  1.00  0.00     0.173 A 
ATOM     74  F   UNL     1       4.639  -4.877   7.320  1.00  0.00    -0.203 F 
ATOM     75  C   UNL     1       6.933  -5.052   6.834  1.00  0.00     0.198 A 
ATOM     76  C   UNL     1       7.651  -5.926   4.718  1.00  0.00     0.198 A 
ATOM     77  F   UNL     1       6.064  -6.560   3.103  1.00  0.00    -0.203 F 
ATOM     78  F   UNL     1       7.224  -4.521   8.030  1.00  0.00    -0.200 F 
ATOM     79  C   UNL     1       7.955  -5.407   5.967  1.00  0.00     0.200 A 
ATOM     80  F   UNL     1       8.638  -6.287   3.886  1.00  0.00    -0.200 F 
ATOM     81  F   UNL     1       9.234  -5.244   6.334  1.00  0.00    -0.200 F 
ENDBRANCH  57  71
BRANCH  58  82
ATOM     82  C   UNL     1      -4.182  -6.629   2.120  1.00  0.00     0.064 A 
ATOM     83  C   UNL     1      -5.155  -7.256   2.912  1.00  0.00     0.173 A 
ATOM     84  C   UNL     1      -4.576  -6.156   0.859  1.00  0.00     0.173 A 
ATOM     85  F   UNL     1      -4.825  -7.741   4.118  1.00  0.00    -0.203 F 
ATOM     86  C   UNL     1      -6.459  -7.429   2.452  1.00  0.00     0.198 A 
ATOM     87  C   UNL     1      -5.889  -6.299   0.414  1.00  0.00     0.198 A 
ATOM     88  F   UNL     1      -3.689  -5.540   0.065  1.00  0.00    -0.203 F 
ATOM     89  F   UNL     1      -7.354  -8.078   3.209  1.00  0.00    -0.200 F 
ATOM     90  C   UNL     1      -6.827  -6.945   1.206  1.00  0.00     0.200 A 
ATOM     91  F   UNL     1      -6.245  -5.811  -0.782  1.00  0.00    -0.200 F 
ATOM     92  F   UNL     1      -8.082  -7.105   0.765  1.00  0.00    -0.200 F 
ENDBRANCH  58  82
BRANCH  70  93
ATOM     93  C   UNL     1       0.861 -11.207   3.629  1.00  0.00     0.064 A 
ATOM     94  C   UNL     1       0.866 -11.950   2.439  1.00  0.00     0.173 A 
ATOM     95  C   UNL     1       0.965 -11.908   4.841  1.00  0.00     0.173 A 
ATOM     96  F   UNL     1       0.754 -11.330   1.255  1.00  0.00    -0.203 F 
ATOM     97  C   UNL     1       0.951 -13.340   2.465  1.00  0.00     0.198 A 
ATOM     98  C   UNL     1       1.084 -13.295   4.861  1.00  0.00     0.198 A 
ATOM     99  F   UNL     1       0.972 -11.245   6.007  1.00  0.00    -0.203 F 
ATOM    100  F   UNL     1       0.907 -14.033   1.318  1.00  0.00    -0.200 F 
ATOM    101  C   UNL     1       1.070 -14.010   3.674  1.00  0.00     0.200 A 
ATOM    102  F   UNL     1       1.217 -13.938   6.029  1.00  0.00    -0.200 F 
ATOM    103  F   UNL     1       1.166 -15.347   3.694  1.00  0.00    -0.200 F 
ENDBRANCH  70  93
ENDBRANCH  44  45
ENDBRANCH  36  39
ENDBRANCH  34  35
ENDBRANCH  33  34
ENDBRANCH  32  33
ENDBRANCH  30  32
ENDBRANCH   1  28
TORSDOF 18
