REMARK SMILES CC(=O)c1cccc(C(=O)NCCCNC(=O)c2ccc(-c3c4nc(c(-c5c(F)c(F)c(F)c(F)c5F)c5ccc([nH]5)c(-c5c(F)c(F)c(F)c(F)c5F)c5nc(c(-c6c(F)c(F)c(F)c(F)c6F)c6ccc3[nH]6)C=C5)C=C4)cc2)c1C
REMARK SMILES IDX 13 1 12 2 11 3 9 4 10 5 8 7 4 8 5 9 81 10 6 11 82 12 7 13
REMARK SMILES IDX 2 14 1 15 3 16 14 17 15 18 16 19 17 21 18 22 19 23 80 24
REMARK SMILES IDX 20 25 79 26 21 27 22 28 23 29 73 30 24 31 78 32 72 33 74 34
REMARK SMILES IDX 25 35 77 36 71 37 70 38 26 40 58 41 38 42 57 43 39 44 42 45
REMARK SMILES IDX 56 46 75 47 40 48 41 49 55 51 76 52 43 53 27 54 28 55 36 56
REMARK SMILES IDX 29 57 30 58 34 59 37 60 31 61 32 62 35 63 33 64 59 65 60 66
REMARK SMILES IDX 68 67 61 68 62 69 66 70 69 71 63 72 64 73 67 74 65 75 44 76
REMARK SMILES IDX 45 77 53 78 46 79 47 80 51 81 54 82 48 83 49 84 52 85 50 86
REMARK H PARENT 11 6 15 20 74 39 42 50
REMARK Flexibility Score: inf
ROOT
ATOM      1  C   UNL     1      -0.442   2.820  -2.716  1.00  0.00     0.042 C 
ENDROOT
BRANCH   1   2
ATOM      2  C   UNL     1      -1.883   2.811  -2.229  1.00  0.00     0.118 C 
BRANCH   2   3
ATOM      3  N   UNL     1      -2.777   1.922  -2.957  1.00  0.00    -0.352 N 
ATOM      4  C   UNL     1      -2.940   0.584  -3.176  1.00  0.00     0.251 C 
ATOM      5  O   UNL     1      -3.935   0.284  -3.845  1.00  0.00    -0.269 OA
ATOM      6  H   UNL     1      -3.467   2.438  -3.432  1.00  0.00     0.163 HD
BRANCH   4   7
ATOM      7  C   UNL     1      -2.008  -0.515  -2.783  1.00  0.00     0.043 A 
ATOM      8  C   UNL     1      -0.390  -1.758  -1.471  1.00  0.00     0.021 A 
ATOM      9  C   UNL     1      -0.413  -2.816  -2.388  1.00  0.00     0.012 A 
ATOM     10  C   UNL     1      -1.262  -0.644  -1.597  1.00  0.00    -0.028 A 
ATOM     11  C   UNL     1      -1.242  -2.747  -3.494  1.00  0.00     0.002 A 
ATOM     12  C   UNL     1      -1.460   0.251  -0.411  1.00  0.00     0.046 C 
ATOM     13  C   UNL     1      -1.997  -1.594  -3.704  1.00  0.00     0.014 A 
BRANCH   8  14
ATOM     14  C   UNL     1       0.595  -1.890  -0.366  1.00  0.00     0.160 C 
ATOM     15  C   UNL     1       1.528  -0.734  -0.114  1.00  0.00     0.093 C 
ATOM     16  O   UNL     1       0.667  -2.938   0.267  1.00  0.00    -0.295 OA
ENDBRANCH   8  14
ENDBRANCH   4   7
ENDBRANCH   2   3
ENDBRANCH   1   2
BRANCH   1  17
ATOM     17  C   UNL     1       0.156   4.222  -2.664  1.00  0.00     0.118 C 
BRANCH  17  18
ATOM     18  N   UNL     1       0.572   4.714  -1.351  1.00  0.00    -0.352 N 
ATOM     19  C   UNL     1       0.883   6.019  -0.970  1.00  0.00     0.251 C 
ATOM     20  H   UNL     1       0.641   4.034  -0.642  1.00  0.00     0.163 HD
ATOM     21  O   UNL     1       1.268   6.271   0.143  1.00  0.00    -0.269 OA
BRANCH  19  22
ATOM     22  C   UNL     1       0.602   7.119  -1.937  1.00  0.00     0.039 A 
ATOM     23  C   UNL     1      -0.232   8.163  -1.519  1.00  0.00     0.014 A 
ATOM     24  C   UNL     1       0.908   6.954  -3.283  1.00  0.00     0.014 A 
ATOM     25  C   UNL     1      -0.984   8.845  -2.472  1.00  0.00     0.010 A 
ATOM     26  C   UNL     1       0.071   7.535  -4.213  1.00  0.00     0.010 A 
ATOM     27  C   UNL     1      -0.929   8.423  -3.799  1.00  0.00    -0.014 A 
BRANCH  27  28
ATOM     28  C   UNL     1      -1.950   8.755  -4.790  1.00  0.00     0.031 A 
ATOM     29  C   UNL     1      -1.619   9.622  -5.939  1.00  0.00     0.074 A 
ATOM     30  C   UNL     1      -3.172   8.179  -4.713  1.00  0.00     0.049 A 
ATOM     31  N   UNL     1      -2.492  10.241  -6.659  1.00  0.00    -0.248 NA
ATOM     32  C   UNL     1      -0.247   9.899  -6.344  1.00  0.00     0.031 C 
ATOM     33  C   UNL     1      -4.201   8.135  -5.752  1.00  0.00     0.029 A 
ATOM     34  N   UNL     1      -3.820   7.682  -3.567  1.00  0.00    -0.354 N 
ATOM     35  C   UNL     1      -1.845  10.763  -7.757  1.00  0.00     0.074 A 
ATOM     36  C   UNL     1      -0.441  10.569  -7.483  1.00  0.00     0.031 C 
ATOM     37  C   UNL     1      -5.397   7.953  -5.171  1.00  0.00     0.029 A 
ATOM     38  C   UNL     1      -5.184   8.020  -3.737  1.00  0.00     0.049 A 
ATOM     39  H   UNL     1      -3.412   7.202  -2.810  1.00  0.00     0.167 HD
ATOM     40  C   UNL     1      -2.586  11.184  -8.823  1.00  0.00     0.037 A 
ATOM     41  C   UNL     1      -5.827   8.874  -2.890  1.00  0.00     0.037 A 
ATOM     42  C   UNL     1      -4.016  11.122  -8.528  1.00  0.00     0.049 A 
ATOM     43  C   UNL     1      -6.452  10.069  -3.574  1.00  0.00     0.074 A 
ATOM     44  C   UNL     1      -5.007  10.204  -8.838  1.00  0.00     0.029 A 
ATOM     45  N   UNL     1      -4.544  11.953  -7.547  1.00  0.00    -0.354 N 
ATOM     46  N   UNL     1      -6.102  10.495  -4.755  1.00  0.00    -0.248 NA
ATOM     47  C   UNL     1      -7.488  10.898  -2.966  1.00  0.00     0.031 C 
ATOM     48  C   UNL     1      -6.131  10.474  -8.017  1.00  0.00     0.029 A 
ATOM     49  C   UNL     1      -5.827  11.563  -7.220  1.00  0.00     0.049 A 
ATOM     50  H   UNL     1      -4.069  12.714  -7.142  1.00  0.00     0.167 HD
ATOM     51  C   UNL     1      -6.814  11.628  -5.065  1.00  0.00     0.074 A 
ATOM     52  C   UNL     1      -7.685  11.823  -3.922  1.00  0.00     0.031 C 
ATOM     53  C   UNL     1      -6.601  12.304  -6.235  1.00  0.00     0.037 A 
BRANCH  40  54
ATOM     54  C   UNL     1      -2.029  11.375 -10.220  1.00  0.00     0.064 A 
ATOM     55  C   UNL     1      -2.841  11.164 -11.358  1.00  0.00     0.173 A 
ATOM     56  C   UNL     1      -0.691  11.691 -10.514  1.00  0.00     0.173 A 
ATOM     57  F   UNL     1      -4.163  10.983 -11.254  1.00  0.00    -0.203 F 
ATOM     58  C   UNL     1      -2.324  11.130 -12.657  1.00  0.00     0.198 A 
ATOM     59  C   UNL     1      -0.159  11.599 -11.805  1.00  0.00     0.198 A 
ATOM     60  F   UNL     1       0.134  12.166  -9.574  1.00  0.00    -0.203 F 
ATOM     61  F   UNL     1      -3.145  10.912 -13.694  1.00  0.00    -0.200 F 
ATOM     62  C   UNL     1      -0.974  11.302 -12.876  1.00  0.00     0.200 A 
ATOM     63  F   UNL     1       1.151  11.803 -11.999  1.00  0.00    -0.200 F 
ATOM     64  F   UNL     1      -0.468  11.216 -14.114  1.00  0.00    -0.200 F 
ENDBRANCH  40  54
BRANCH  41  65
ATOM     65  C   UNL     1      -5.260   8.879  -1.516  1.00  0.00     0.064 A 
ATOM     66  C   UNL     1      -5.253   7.672  -0.788  1.00  0.00     0.173 A 
ATOM     67  C   UNL     1      -4.416   9.904  -1.075  1.00  0.00     0.173 A 
ATOM     68  F   UNL     1      -6.042   6.654  -1.172  1.00  0.00    -0.203 F 
ATOM     69  C   UNL     1      -4.350   7.455   0.249  1.00  0.00     0.198 A 
ATOM     70  C   UNL     1      -3.526   9.690  -0.020  1.00  0.00     0.198 A 
ATOM     71  F   UNL     1      -4.360  11.069  -1.736  1.00  0.00    -0.203 F 
ATOM     72  F   UNL     1      -4.279   6.250   0.833  1.00  0.00    -0.200 F 
ATOM     73  C   UNL     1      -3.468   8.457   0.615  1.00  0.00     0.200 A 
ATOM     74  F   UNL     1      -2.646  10.645   0.312  1.00  0.00    -0.200 F 
ATOM     75  F   UNL     1      -2.529   8.220   1.541  1.00  0.00    -0.200 F 
ENDBRANCH  41  65
BRANCH  53  76
ATOM     76  C   UNL     1      -7.131  13.670  -6.625  1.00  0.00     0.064 A 
ATOM     77  C   UNL     1      -7.545  14.656  -5.715  1.00  0.00     0.173 A 
ATOM     78  C   UNL     1      -7.093  14.087  -7.983  1.00  0.00     0.173 A 
ATOM     79  F   UNL     1      -7.521  14.445  -4.394  1.00  0.00    -0.203 F 
ATOM     80  C   UNL     1      -7.940  15.933  -6.132  1.00  0.00     0.198 A 
ATOM     81  C   UNL     1      -7.426  15.379  -8.387  1.00  0.00     0.198 A 
ATOM     82  F   UNL     1      -6.701  13.261  -8.964  1.00  0.00    -0.203 F 
ATOM     83  F   UNL     1      -8.363  16.824  -5.223  1.00  0.00    -0.200 F 
ATOM     84  C   UNL     1      -7.865  16.300  -7.462  1.00  0.00     0.200 A 
ATOM     85  F   UNL     1      -7.295  15.729  -9.674  1.00  0.00    -0.200 F 
ATOM     86  F   UNL     1      -8.191  17.541  -7.846  1.00  0.00    -0.200 F 
ENDBRANCH  53  76
ENDBRANCH  27  28
ENDBRANCH  19  22
ENDBRANCH  17  18
ENDBRANCH   1  17
TORSDOF 11
