REMARK SMILES C[C@H](C(=O)NCC(=O)NCCCNC(=O)c1ccc(-c2c3nc(c(-c4c(F)c(F)c(F)c(F)c4F)c4ccc([nH]4)c(-c4c(F)c(F)c(F)c(F)c4F)c4nc(c(-c5c(F)c(F)c(F)c(F)c5F)c5ccc2[nH]5)C=C4)C=C3)cc1)N1C(=O)/C(=C/c2ccc(O)cc2)SC1=S
REMARK SMILES IDX 7 1 8 2 9 3 6 5 5 6 3 7 4 8 2 10 1 11 79 12 80 13 92 14
REMARK SMILES IDX 81 15 82 16 91 17 93 18 83 19 84 20 85 21 90 22 86 23 89 24
REMARK SMILES IDX 87 25 88 26 10 28 11 29 12 30 13 31 14 32 15 34 16 35 17 36
REMARK SMILES IDX 78 37 18 38 77 39 19 40 20 41 21 42 71 43 22 44 76 45 70 46
REMARK SMILES IDX 72 47 23 48 75 49 69 50 68 51 24 53 56 54 36 55 55 56 37 57
REMARK SMILES IDX 40 58 54 59 73 60 38 61 39 62 53 64 74 65 41 66 25 67 26 68
REMARK SMILES IDX 34 69 27 70 28 71 32 72 35 73 29 74 30 75 33 76 31 77 57 78
REMARK SMILES IDX 58 79 66 80 59 81 60 82 64 83 67 84 61 85 62 86 65 87 63 88
REMARK SMILES IDX 42 89 43 90 51 91 44 92 45 93 49 94 52 95 46 96 47 97 50 98
REMARK SMILES IDX 48 99
REMARK H PARENT 9 4 5 9 88 27 13 33 72 52 40 63
REMARK Flexibility Score: inf
ROOT
ATOM      1  C   UNL     1      -1.693  -1.938  -1.598  1.00  0.00     0.239 C 
ATOM      2  O   UNL     1      -2.243  -3.026  -1.779  1.00  0.00    -0.273 OA
ATOM      3  N   UNL     1      -1.963  -0.940  -2.486  1.00  0.00    -0.355 N 
ATOM      4  H   UNL     1      -2.590  -1.176  -3.208  1.00  0.00     0.163 HD
ENDROOT
BRANCH   1   5
ATOM      5  C   UNL     1      -0.937  -1.641  -0.301  1.00  0.00     0.216 C 
BRANCH   5   6
ATOM      6  N   UNL     1       0.295  -0.860  -0.379  1.00  0.00    -0.345 N 
ATOM      7  C   UNL     1       0.831  -0.108   0.640  1.00  0.00     0.243 C 
ATOM      8  O   UNL     1       1.957  -0.457   1.018  1.00  0.00    -0.273 OA
ATOM      9  H   UNL     1       0.784  -0.873  -1.234  1.00  0.00     0.164 HD
BRANCH   7  10
ATOM     10  C   UNL     1       0.335   1.354   0.958  1.00  0.00     0.178 C 
ATOM     11  C   UNL     1       1.145   2.187  -0.059  1.00  0.00     0.042 C 
BRANCH  10  12
ATOM     12  N   UNL     1      -1.127   1.611   0.959  1.00  0.00    -0.281 N 
ATOM     13  C   UNL     1      -1.913   0.707   1.655  1.00  0.00     0.266 C 
ATOM     14  C   UNL     1      -1.793   2.807   0.769  1.00  0.00     0.149 C 
ATOM     15  O   UNL     1      -1.518  -0.153   2.415  1.00  0.00    -0.268 OA
ATOM     16  C   UNL     1      -3.346   0.922   1.314  1.00  0.00     0.081 C 
ATOM     17  S   UNL     1      -3.539   2.529   0.775  1.00  0.00    -0.054 SA
ATOM     18  S   UNL     1      -1.229   4.364   0.595  1.00  0.00    -0.052 S 
ATOM     19  C   UNL     1      -4.242  -0.072   1.360  1.00  0.00     0.029 C 
BRANCH  19  20
ATOM     20  C   UNL     1      -5.661  -0.013   0.974  1.00  0.00    -0.024 A 
ATOM     21  C   UNL     1      -6.607  -0.592   1.830  1.00  0.00     0.012 A 
ATOM     22  C   UNL     1      -6.100   0.554  -0.232  1.00  0.00     0.012 A 
ATOM     23  C   UNL     1      -7.968  -0.539   1.522  1.00  0.00     0.047 A 
ATOM     24  C   UNL     1      -7.464   0.621  -0.535  1.00  0.00     0.047 A 
ATOM     25  C   UNL     1      -8.387   0.085   0.355  1.00  0.00     0.115 A 
BRANCH  25  26
ATOM     26  O   UNL     1      -9.727   0.155   0.117  1.00  0.00    -0.508 OA
ATOM     27  H   UNL     1     -10.332  -0.213   0.731  1.00  0.00     0.293 HD
ENDBRANCH  25  26
ENDBRANCH  19  20
ENDBRANCH  10  12
ENDBRANCH   7  10
ENDBRANCH   5   6
ENDBRANCH   1   5
BRANCH   3  28
ATOM     28  C   UNL     1      -1.461   0.415  -2.520  1.00  0.00     0.117 C 
BRANCH  28  29
ATOM     29  C   UNL     1      -0.227   0.527  -3.404  1.00  0.00     0.042 C 
BRANCH  29  30
ATOM     30  C   UNL     1      -0.537   0.293  -4.877  1.00  0.00     0.118 C 
BRANCH  30  31
ATOM     31  N   UNL     1      -1.373   1.348  -5.436  1.00  0.00    -0.352 N 
ATOM     32  C   UNL     1      -1.126   2.184  -6.496  1.00  0.00     0.251 C 
ATOM     33  H   UNL     1      -2.240   1.479  -4.989  1.00  0.00     0.163 HD
ATOM     34  O   UNL     1      -1.854   3.148  -6.705  1.00  0.00    -0.269 OA
BRANCH  32  35
ATOM     35  C   UNL     1       0.038   1.928  -7.365  1.00  0.00     0.039 A 
ATOM     36  C   UNL     1       0.885   2.988  -7.696  1.00  0.00     0.014 A 
ATOM     37  C   UNL     1       0.306   0.636  -7.824  1.00  0.00     0.014 A 
ATOM     38  C   UNL     1       2.054   2.734  -8.415  1.00  0.00     0.010 A 
ATOM     39  C   UNL     1       1.506   0.373  -8.474  1.00  0.00     0.010 A 
ATOM     40  C   UNL     1       2.397   1.418  -8.763  1.00  0.00    -0.014 A 
BRANCH  40  41
ATOM     41  C   UNL     1       3.696   1.094  -9.400  1.00  0.00     0.031 A 
ATOM     42  C   UNL     1       3.728   0.498 -10.778  1.00  0.00     0.074 A 
ATOM     43  C   UNL     1       4.834   1.244  -8.695  1.00  0.00     0.049 A 
ATOM     44  N   UNL     1       4.744   0.014 -11.446  1.00  0.00    -0.248 NA
ATOM     45  C   UNL     1       2.443   0.412 -11.490  1.00  0.00     0.031 C 
ATOM     46  C   UNL     1       4.923   1.778  -7.334  1.00  0.00     0.029 A 
ATOM     47  N   UNL     1       6.134   0.942  -9.017  1.00  0.00    -0.354 N 
ATOM     48  C   UNL     1       4.220  -0.442 -12.647  1.00  0.00     0.074 A 
ATOM     49  C   UNL     1       2.791  -0.224 -12.599  1.00  0.00     0.031 C 
ATOM     50  C   UNL     1       6.207   1.776  -6.943  1.00  0.00     0.029 A 
ATOM     51  C   UNL     1       7.026   1.197  -8.003  1.00  0.00     0.049 A 
ATOM     52  H   UNL     1       6.401   0.576  -9.891  1.00  0.00     0.167 HD
ATOM     53  C   UNL     1       4.879  -0.975 -13.703  1.00  0.00     0.037 A 
ATOM     54  C   UNL     1       8.350   0.967  -7.930  1.00  0.00     0.037 A 
ATOM     55  C   UNL     1       6.304  -1.168 -13.754  1.00  0.00     0.049 A 
ATOM     56  C   UNL     1       9.048   0.331  -9.102  1.00  0.00     0.074 A 
ATOM     57  C   UNL     1       7.073  -1.642 -14.801  1.00  0.00     0.029 A 
ATOM     58  N   UNL     1       7.173  -0.899 -12.707  1.00  0.00    -0.354 N 
ATOM     59  N   UNL     1       8.552  -0.041 -10.257  1.00  0.00    -0.248 NA
ATOM     60  C   UNL     1      10.488   0.074  -8.956  1.00  0.00     0.031 C 
ATOM     61  C   UNL     1       8.404  -1.701 -14.374  1.00  0.00     0.029 A 
ATOM     62  C   UNL     1       8.469  -1.224 -13.075  1.00  0.00     0.049 A 
ATOM     63  H   UNL     1       6.909  -0.530 -11.833  1.00  0.00     0.167 HD
ATOM     64  C   UNL     1       9.618  -0.555 -10.981  1.00  0.00     0.074 A 
ATOM     65  C   UNL     1      10.793  -0.431 -10.143  1.00  0.00     0.031 C 
ATOM     66  C   UNL     1       9.624  -1.089 -12.226  1.00  0.00     0.037 A 
BRANCH  53  67
ATOM     67  C   UNL     1       4.069  -1.376 -14.900  1.00  0.00     0.064 A 
ATOM     68  C   UNL     1       3.493  -0.418 -15.747  1.00  0.00     0.173 A 
ATOM     69  C   UNL     1       3.914  -2.729 -15.237  1.00  0.00     0.173 A 
ATOM     70  F   UNL     1       3.602   0.888 -15.462  1.00  0.00    -0.203 F 
ATOM     71  C   UNL     1       2.775  -0.800 -16.877  1.00  0.00     0.198 A 
ATOM     72  C   UNL     1       3.219  -3.107 -16.382  1.00  0.00     0.198 A 
ATOM     73  F   UNL     1       4.449  -3.685 -14.462  1.00  0.00    -0.203 F 
ATOM     74  F   UNL     1       2.202   0.132 -17.651  1.00  0.00    -0.200 F 
ATOM     75  C   UNL     1       2.646  -2.143 -17.198  1.00  0.00     0.200 A 
ATOM     76  F   UNL     1       3.105  -4.404 -16.698  1.00  0.00    -0.200 F 
ATOM     77  F   UNL     1       1.965  -2.509 -18.293  1.00  0.00    -0.200 F 
ENDBRANCH  53  67
BRANCH  54  78
ATOM     78  C   UNL     1       9.107   1.332  -6.704  1.00  0.00     0.064 A 
ATOM     79  C   UNL     1      10.049   2.370  -6.726  1.00  0.00     0.173 A 
ATOM     80  C   UNL     1       8.922   0.643  -5.497  1.00  0.00     0.173 A 
ATOM     81  F   UNL     1      10.277   3.043  -7.863  1.00  0.00    -0.203 F 
ATOM     82  C   UNL     1      10.795   2.689  -5.593  1.00  0.00     0.198 A 
ATOM     83  C   UNL     1       9.648   0.982  -4.356  1.00  0.00     0.198 A 
ATOM     84  F   UNL     1       8.031  -0.356  -5.422  1.00  0.00    -0.203 F 
ATOM     85  F   UNL     1      11.725   3.652  -5.655  1.00  0.00    -0.200 F 
ATOM     86  C   UNL     1      10.591   1.998  -4.408  1.00  0.00     0.200 A 
ATOM     87  F   UNL     1       9.438   0.321  -3.210  1.00  0.00    -0.200 F 
ATOM     88  F   UNL     1      11.309   2.305  -3.319  1.00  0.00    -0.200 F 
ENDBRANCH  54  78
BRANCH  66  89
ATOM     89  C   UNL     1      10.941  -1.563 -12.765  1.00  0.00     0.064 A 
ATOM     90  C   UNL     1      11.535  -2.745 -12.300  1.00  0.00     0.173 A 
ATOM     91  C   UNL     1      11.585  -0.860 -13.793  1.00  0.00     0.173 A 
ATOM     92  F   UNL     1      10.965  -3.442 -11.306  1.00  0.00    -0.203 F 
ATOM     93  C   UNL     1      12.737  -3.198 -12.837  1.00  0.00     0.198 A 
ATOM     94  C   UNL     1      12.773  -1.330 -14.346  1.00  0.00     0.198 A 
ATOM     95  F   UNL     1      11.053   0.274 -14.274  1.00  0.00    -0.203 F 
ATOM     96  F   UNL     1      13.307  -4.310 -12.353  1.00  0.00    -0.200 F 
ATOM     97  C   UNL     1      13.350  -2.496 -13.864  1.00  0.00     0.200 A 
ATOM     98  F   UNL     1      13.357  -0.657 -15.347  1.00  0.00    -0.200 F 
ATOM     99  F   UNL     1      14.500  -2.941 -14.388  1.00  0.00    -0.200 F 
ENDBRANCH  66  89
ENDBRANCH  40  41
ENDBRANCH  32  35
ENDBRANCH  30  31
ENDBRANCH  29  30
ENDBRANCH  28  29
ENDBRANCH   3  28
TORSDOF 15
