REMARK SMILES CC[NH2+][C@]1(C(=O)NCCCNC(=O)c2ccc(-c3c4nc(c(-c5c(F)c(F)c(F)c(F)c5F)c5ccc([nH]5)c(-c5c(F)c(F)c(F)c(F)c5F)c5nc(c(-c6c(F)c(F)c(F)c(F)c6F)c6ccc3[nH]6)C=C5)C=C4)cc2)CCC[C@H]1CCSc1n[nH]c(=O)n1C
REMARK SMILES IDX 8 1 7 2 5 3 6 4 4 6 77 7 80 8 78 9 79 10 3 11 2 14 1 15
REMARK SMILES IDX 81 16 82 17 83 18 84 19 85 20 89 21 86 22 87 23 90 24 88 26
REMARK SMILES IDX 9 27 10 28 11 29 12 30 13 32 14 33 15 34 76 35 16 36 75 37
REMARK SMILES IDX 17 38 18 39 19 40 69 41 20 42 74 43 68 44 70 45 21 46 73 47
REMARK SMILES IDX 67 48 66 49 22 51 54 52 34 53 53 54 35 55 38 56 52 57 71 58
REMARK SMILES IDX 36 59 37 60 51 62 72 63 39 64 23 65 24 66 32 67 25 68 26 69
REMARK SMILES IDX 30 70 33 71 27 72 28 73 31 74 29 75 55 76 56 77 64 78 57 79
REMARK SMILES IDX 58 80 62 81 65 82 59 83 60 84 63 85 61 86 40 87 41 88 49 89
REMARK SMILES IDX 42 90 43 91 47 92 50 93 44 94 45 95 48 96 46 97
REMARK H PARENT 7 5 3 12 3 13 86 25 11 31 70 50 38 61
REMARK Flexibility Score: inf
ROOT
ATOM      1  C   UNL     1       3.454  -0.702  -2.678  1.00  0.00     0.118 C 
ENDROOT
BRANCH   1   2
ATOM      2  N   UNL     1       2.171  -0.689  -2.003  1.00  0.00    -0.351 N 
ATOM      3  C   UNL     1       0.885  -0.884  -2.396  1.00  0.00     0.281 C 
ATOM      4  O   UNL     1       0.062  -0.575  -1.524  1.00  0.00    -0.268 OA
ATOM      5  H   UNL     1       2.249  -0.494  -1.041  1.00  0.00     0.163 HD
BRANCH   3   6
ATOM      6  C   UNL     1       0.458  -1.521  -3.760  1.00  0.00     0.178 C 
ATOM      7  C   UNL     1       1.071  -0.785  -4.970  1.00  0.00     0.079 C 
ATOM      8  C   UNL     1       0.860  -3.028  -3.985  1.00  0.00     0.061 C 
ATOM      9  C   UNL     1       0.901  -1.753  -6.128  1.00  0.00     0.008 C 
ATOM     10  C   UNL     1       1.021  -3.148  -5.523  1.00  0.00     0.011 C 
BRANCH   6  11
ATOM     11  N   UNL     1      -1.020  -1.272  -3.931  1.00  0.00    -0.334 N 
ATOM     12  H   UNL     1      -1.261  -0.462  -3.359  1.00  0.00     0.347 HD
ATOM     13  H   UNL     1      -1.148  -1.151  -4.935  1.00  0.00     0.347 HD
BRANCH  11  14
ATOM     14  C   UNL     1      -1.930  -2.345  -3.569  1.00  0.00     0.257 C 
ATOM     15  C   UNL     1      -3.380  -1.898  -3.637  1.00  0.00     0.071 C 
ENDBRANCH  11  14
ENDBRANCH   6  11
BRANCH   8  16
ATOM     16  C   UNL     1       2.084  -3.678  -3.294  1.00  0.00     0.022 C 
BRANCH  16  17
ATOM     17  C   UNL     1       2.047  -3.823  -1.767  1.00  0.00     0.079 C 
BRANCH  17  18
ATOM     18  S   UNL     1       1.336  -5.353  -1.118  1.00  0.00    -0.086 SA
BRANCH  18  19
ATOM     19  C   UNL     1      -0.366  -5.083  -1.161  1.00  0.00     0.191 A 
ATOM     20  N   UNL     1      -1.147  -5.844  -1.873  1.00  0.00    -0.146 NA
ATOM     21  N   UNL     1      -1.005  -4.153  -0.414  1.00  0.00    -0.273 N 
ATOM     22  N   UNL     1      -2.401  -5.396  -1.574  1.00  0.00    -0.226 N 
ATOM     23  C   UNL     1      -2.340  -4.352  -0.664  1.00  0.00     0.343 A 
ATOM     24  C   UNL     1      -0.548  -3.107   0.470  1.00  0.00     0.157 C 
ATOM     25  H   UNL     1      -3.233  -5.763  -1.952  1.00  0.00     0.195 HD
ATOM     26  O   UNL     1      -3.294  -3.743  -0.209  1.00  0.00    -0.246 OA
ENDBRANCH  18  19
ENDBRANCH  17  18
ENDBRANCH  16  17
ENDBRANCH   8  16
ENDBRANCH   3   6
ENDBRANCH   1   2
BRANCH   1  27
ATOM     27  C   UNL     1       3.965   0.718  -2.853  1.00  0.00     0.042 C 
BRANCH  27  28
ATOM     28  C   UNL     1       4.407   1.327  -1.529  1.00  0.00     0.118 C 
BRANCH  28  29
ATOM     29  N   UNL     1       5.636   0.715  -1.039  1.00  0.00    -0.352 N 
ATOM     30  C   UNL     1       6.859   1.300  -0.825  1.00  0.00     0.251 C 
ATOM     31  H   UNL     1       5.581  -0.246  -0.833  1.00  0.00     0.163 HD
ATOM     32  O   UNL     1       7.857   0.610  -0.653  1.00  0.00    -0.269 OA
BRANCH  30  33
ATOM     33  C   UNL     1       6.957   2.772  -0.815  1.00  0.00     0.039 A 
ATOM     34  C   UNL     1       7.993   3.392  -1.516  1.00  0.00     0.014 A 
ATOM     35  C   UNL     1       6.014   3.532  -0.117  1.00  0.00     0.014 A 
ATOM     36  C   UNL     1       8.052   4.785  -1.558  1.00  0.00     0.010 A 
ATOM     37  C   UNL     1       6.024   4.915  -0.233  1.00  0.00     0.010 A 
ATOM     38  C   UNL     1       7.052   5.555  -0.941  1.00  0.00    -0.014 A 
BRANCH  38  39
ATOM     39  C   UNL     1       7.074   7.036  -0.990  1.00  0.00     0.031 A 
ATOM     40  C   UNL     1       7.226   7.819   0.284  1.00  0.00     0.074 A 
ATOM     41  C   UNL     1       6.882   7.669  -2.162  1.00  0.00     0.049 A 
ATOM     42  N   UNL     1       7.171   9.112   0.474  1.00  0.00    -0.248 NA
ATOM     43  C   UNL     1       7.433   7.040   1.516  1.00  0.00     0.031 C 
ATOM     44  C   UNL     1       6.676   7.014  -3.455  1.00  0.00     0.029 A 
ATOM     45  N   UNL     1       6.815   9.008  -2.453  1.00  0.00    -0.354 N 
ATOM     46  C   UNL     1       7.317   9.297   1.843  1.00  0.00     0.074 A 
ATOM     47  C   UNL     1       7.403   7.985   2.443  1.00  0.00     0.031 C 
ATOM     48  C   UNL     1       6.526   7.953  -4.403  1.00  0.00     0.029 A 
ATOM     49  C   UNL     1       6.585   9.272  -3.781  1.00  0.00     0.049 A 
ATOM     50  H   UNL     1       6.921   9.713  -1.774  1.00  0.00     0.167 HD
ATOM     51  C   UNL     1       7.397  10.459   2.533  1.00  0.00     0.037 A 
ATOM     52  C   UNL     1       6.431  10.447  -4.419  1.00  0.00     0.037 A 
ATOM     53  C   UNL     1       7.341  11.761   1.924  1.00  0.00     0.049 A 
ATOM     54  C   UNL     1       6.525  11.725  -3.629  1.00  0.00     0.074 A 
ATOM     55  C   UNL     1       7.473  13.001   2.523  1.00  0.00     0.029 A 
ATOM     56  N   UNL     1       7.135  11.989   0.571  1.00  0.00    -0.354 N 
ATOM     57  N   UNL     1       6.730  11.891  -2.345  1.00  0.00    -0.248 NA
ATOM     58  C   UNL     1       6.374  12.979  -4.379  1.00  0.00     0.031 C 
ATOM     59  C   UNL     1       7.302  13.981   1.539  1.00  0.00     0.029 A 
ATOM     60  C   UNL     1       7.117  13.351   0.319  1.00  0.00     0.049 A 
ATOM     61  H   UNL     1       7.018  11.287  -0.110  1.00  0.00     0.167 HD
ATOM     62  C   UNL     1       6.763  13.263  -2.137  1.00  0.00     0.074 A 
ATOM     63  C   UNL     1       6.570  13.884  -3.431  1.00  0.00     0.031 C 
ATOM     64  C   UNL     1       6.936  13.948  -0.980  1.00  0.00     0.037 A 
BRANCH  51  65
ATOM     65  C   UNL     1       7.559  10.372   4.023  1.00  0.00     0.064 A 
ATOM     66  C   UNL     1       8.742   9.896   4.609  1.00  0.00     0.173 A 
ATOM     67  C   UNL     1       6.529  10.793   4.878  1.00  0.00     0.173 A 
ATOM     68  F   UNL     1       9.753   9.467   3.837  1.00  0.00    -0.203 F 
ATOM     69  C   UNL     1       8.875   9.814   5.993  1.00  0.00     0.198 A 
ATOM     70  C   UNL     1       6.678  10.741   6.261  1.00  0.00     0.198 A 
ATOM     71  F   UNL     1       5.378  11.260   4.371  1.00  0.00    -0.203 F 
ATOM     72  F   UNL     1       9.994   9.304   6.527  1.00  0.00    -0.200 F 
ATOM     73  C   UNL     1       7.847  10.243   6.817  1.00  0.00     0.200 A 
ATOM     74  F   UNL     1       5.688  11.168   7.057  1.00  0.00    -0.200 F 
ATOM     75  F   UNL     1       7.979  10.170   8.149  1.00  0.00    -0.200 F 
ENDBRANCH  51  65
BRANCH  52  76
ATOM     76  C   UNL     1       6.201  10.471  -5.887  1.00  0.00     0.064 A 
ATOM     77  C   UNL     1       7.186  10.954  -6.760  1.00  0.00     0.173 A 
ATOM     78  C   UNL     1       4.998  10.018  -6.447  1.00  0.00     0.173 A 
ATOM     79  F   UNL     1       8.346  11.416  -6.270  1.00  0.00    -0.203 F 
ATOM     80  C   UNL     1       6.969  11.003  -8.135  1.00  0.00     0.198 A 
ATOM     81  C   UNL     1       4.793  10.040  -7.825  1.00  0.00     0.198 A 
ATOM     82  F   UNL     1       4.027   9.539  -5.657  1.00  0.00    -0.203 F 
ATOM     83  F   UNL     1       7.910  11.511  -8.942  1.00  0.00    -0.200 F 
ATOM     84  C   UNL     1       5.774  10.540  -8.668  1.00  0.00     0.200 A 
ATOM     85  F   UNL     1       3.644   9.577  -8.337  1.00  0.00    -0.200 F 
ATOM     86  F   UNL     1       5.567  10.583  -9.991  1.00  0.00    -0.200 F 
ENDBRANCH  52  76
BRANCH  64  87
ATOM     87  C   UNL     1       6.968  15.446  -1.066  1.00  0.00     0.064 A 
ATOM     88  C   UNL     1       5.810  16.195  -1.321  1.00  0.00     0.173 A 
ATOM     89  C   UNL     1       8.167  16.142  -0.847  1.00  0.00     0.173 A 
ATOM     90  F   UNL     1       4.643  15.576  -1.553  1.00  0.00    -0.203 F 
ATOM     91  C   UNL     1       5.856  17.585  -1.378  1.00  0.00     0.198 A 
ATOM     92  C   UNL     1       8.203  17.532  -0.873  1.00  0.00     0.198 A 
ATOM     93  F   UNL     1       9.301  15.472  -0.592  1.00  0.00    -0.203 F 
ATOM     94  F   UNL     1       4.748  18.279  -1.671  1.00  0.00    -0.200 F 
ATOM     95  C   UNL     1       7.050  18.253  -1.146  1.00  0.00     0.200 A 
ATOM     96  F   UNL     1       9.354  18.176  -0.634  1.00  0.00    -0.200 F 
ATOM     97  F   UNL     1       7.091  19.591  -1.192  1.00  0.00    -0.200 F 
ENDBRANCH  64  87
ENDBRANCH  38  39
ENDBRANCH  30  33
ENDBRANCH  28  29
ENDBRANCH  27  28
ENDBRANCH   1  27
TORSDOF 16
