REMARK SMILES CC(C)(Cn1ccc(=O)nc1SCC(=O)NCCCNC(=O)c1ccc(-c2c3nc(c(-c4c(F)c(F)c(F)c(F)c4F)c4ccc([nH]4)c(-c4c(F)c(F)c(F)c(F)c4F)c4nc(c(-c5c(F)c(F)c(F)c(F)c5F)c5ccc2[nH]5)C=C4)C=C3)cc1)S(C)(=O)=O
REMARK SMILES IDX 14 1 15 2 16 3 13 5 12 6 11 7 5 8 6 9 7 10 10 11 8 12 9 13
REMARK SMILES IDX 4 14 2 15 1 16 3 17 86 18 87 19 88 20 89 21 17 22 18 23
REMARK SMILES IDX 19 24 20 25 21 26 22 28 23 29 24 30 85 31 25 32 84 33 26 34
REMARK SMILES IDX 27 35 28 36 78 37 29 38 83 39 77 40 79 41 30 42 82 43 76 44
REMARK SMILES IDX 75 45 31 47 63 48 43 49 62 50 44 51 47 52 61 53 80 54 45 55
REMARK SMILES IDX 46 56 60 58 81 59 48 60 32 61 33 62 41 63 34 64 35 65 39 66
REMARK SMILES IDX 42 67 36 68 37 69 40 70 38 71 64 72 65 73 73 74 66 75 67 76
REMARK SMILES IDX 71 77 74 78 68 79 69 80 72 81 70 82 49 83 50 84 58 85 51 86
REMARK SMILES IDX 52 87 56 88 59 89 53 90 54 91 57 92 55 93
REMARK H PARENT 16 4 20 27 79 46 47 57
REMARK Flexibility Score: inf
ROOT
ATOM      1  C   UNL     1      -1.504  -0.260   2.365  1.00  0.00     0.230 C 
ATOM      2  O   UNL     1      -2.098  -1.261   1.964  1.00  0.00    -0.274 OA
ATOM      3  N   UNL     1      -2.013   0.427   3.424  1.00  0.00    -0.355 N 
ATOM      4  H   UNL     1      -2.642  -0.063   4.001  1.00  0.00     0.163 HD
ENDROOT
BRANCH   1   5
ATOM      5  C   UNL     1      -0.184   0.173   1.788  1.00  0.00     0.178 C 
BRANCH   5   6
ATOM      6  S   UNL     1      -0.266   1.451   0.549  1.00  0.00    -0.078 SA
BRANCH   6   7
ATOM      7  C   UNL     1      -1.193   0.935  -0.852  1.00  0.00     0.172 A 
ATOM      8  N   UNL     1      -1.240  -0.344  -1.419  1.00  0.00    -0.326 N 
ATOM      9  C   UNL     1      -2.213  -0.521  -2.404  1.00  0.00     0.094 A 
ATOM     10  C   UNL     1      -2.879   0.490  -2.961  1.00  0.00     0.091 A 
ATOM     11  N   UNL     1      -1.797   1.966  -1.366  1.00  0.00    -0.185 NA
ATOM     12  C   UNL     1      -2.497   1.848  -2.537  1.00  0.00     0.273 A 
ATOM     13  O   UNL     1      -2.835   2.800  -3.231  1.00  0.00    -0.267 OA
BRANCH   8  14
ATOM     14  C   UNL     1      -0.515  -1.544  -0.967  1.00  0.00     0.146 C 
BRANCH  14  15
ATOM     15  C   UNL     1       0.997  -1.666  -1.279  1.00  0.00     0.084 C 
ATOM     16  C   UNL     1       1.895  -0.463  -0.964  1.00  0.00     0.030 C 
ATOM     17  C   UNL     1       1.509  -2.850  -0.413  1.00  0.00     0.030 C 
BRANCH  15  18
ATOM     18  S   UNL     1       1.251  -2.140  -3.029  1.00  0.00     0.154 S 
ATOM     19  C   UNL     1       0.871  -0.711  -4.020  1.00  0.00     0.158 C 
ATOM     20  O   UNL     1       2.670  -2.397  -3.204  1.00  0.00    -0.229 OA
ATOM     21  O   UNL     1       0.286  -3.169  -3.368  1.00  0.00    -0.229 OA
ENDBRANCH  15  18
ENDBRANCH  14  15
ENDBRANCH   8  14
ENDBRANCH   6   7
ENDBRANCH   5   6
ENDBRANCH   1   5
BRANCH   3  22
ATOM     22  C   UNL     1      -1.733   1.802   3.801  1.00  0.00     0.117 C 
BRANCH  22  23
ATOM     23  C   UNL     1      -2.659   2.756   3.058  1.00  0.00     0.042 C 
BRANCH  23  24
ATOM     24  C   UNL     1      -4.124   2.370   3.206  1.00  0.00     0.118 C 
BRANCH  24  25
ATOM     25  N   UNL     1      -4.553   2.421   4.599  1.00  0.00    -0.352 N 
ATOM     26  C   UNL     1      -5.223   3.425   5.252  1.00  0.00     0.251 C 
ATOM     27  H   UNL     1      -4.332   1.630   5.143  1.00  0.00     0.163 HD
ATOM     28  O   UNL     1      -5.247   3.472   6.476  1.00  0.00    -0.269 OA
BRANCH  26  29
ATOM     29  C   UNL     1      -5.896   4.456   4.444  1.00  0.00     0.039 A 
ATOM     30  C   UNL     1      -6.662   4.066   3.344  1.00  0.00     0.014 A 
ATOM     31  C   UNL     1      -5.724   5.805   4.754  1.00  0.00     0.014 A 
ATOM     32  C   UNL     1      -7.101   5.023   2.446  1.00  0.00     0.010 A 
ATOM     33  C   UNL     1      -6.273   6.771   3.911  1.00  0.00     0.010 A 
ATOM     34  C   UNL     1      -6.935   6.386   2.733  1.00  0.00    -0.014 A 
BRANCH  34  35
ATOM     35  C   UNL     1      -7.511   7.394   1.813  1.00  0.00     0.031 A 
ATOM     36  C   UNL     1      -6.631   8.375   1.097  1.00  0.00     0.074 A 
ATOM     37  C   UNL     1      -8.842   7.392   1.613  1.00  0.00     0.049 A 
ATOM     38  N   UNL     1      -6.972   9.384   0.336  1.00  0.00    -0.248 NA
ATOM     39  C   UNL     1      -5.178   8.210   1.258  1.00  0.00     0.031 C 
ATOM     40  C   UNL     1      -9.786   6.454   2.228  1.00  0.00     0.029 A 
ATOM     41  N   UNL     1      -9.633   8.188   0.827  1.00  0.00    -0.354 N 
ATOM     42  C   UNL     1      -5.783   9.985  -0.054  1.00  0.00     0.074 A 
ATOM     43  C   UNL     1      -4.708   9.243   0.571  1.00  0.00     0.031 C 
ATOM     44  C   UNL     1     -11.017   6.696   1.760  1.00  0.00     0.029 A 
ATOM     45  C   UNL     1     -10.965   7.863   0.889  1.00  0.00     0.049 A 
ATOM     46  H   UNL     1      -9.281   8.921   0.272  1.00  0.00     0.167 HD
ATOM     47  C   UNL     1      -5.613  11.056  -0.865  1.00  0.00     0.037 A 
ATOM     48  C   UNL     1     -12.035   8.461   0.337  1.00  0.00     0.037 A 
ATOM     49  C   UNL     1      -6.696  11.771  -1.492  1.00  0.00     0.049 A 
ATOM     50  C   UNL     1     -11.821   9.683  -0.504  1.00  0.00     0.074 A 
ATOM     51  C   UNL     1      -6.636  12.880  -2.318  1.00  0.00     0.029 A 
ATOM     52  N   UNL     1      -8.039  11.440  -1.368  1.00  0.00    -0.354 N 
ATOM     53  N   UNL     1     -10.697  10.275  -0.827  1.00  0.00    -0.248 NA
ATOM     54  C   UNL     1     -13.022  10.326  -1.048  1.00  0.00     0.031 C 
ATOM     55  C   UNL     1      -7.942  13.245  -2.659  1.00  0.00     0.029 A 
ATOM     56  C   UNL     1      -8.816  12.329  -2.095  1.00  0.00     0.049 A 
ATOM     57  H   UNL     1      -8.388  10.684  -0.842  1.00  0.00     0.167 HD
ATOM     58  C   UNL     1     -11.050  11.346  -1.634  1.00  0.00     0.074 A 
ATOM     59  C   UNL     1     -12.494  11.312  -1.760  1.00  0.00     0.031 C 
ATOM     60  C   UNL     1     -10.251  12.273  -2.216  1.00  0.00     0.037 A 
BRANCH  47  61
ATOM     61  C   UNL     1      -4.212  11.539  -1.112  1.00  0.00     0.064 A 
ATOM     62  C   UNL     1      -3.314  10.821  -1.914  1.00  0.00     0.173 A 
ATOM     63  C   UNL     1      -3.787  12.775  -0.600  1.00  0.00     0.173 A 
ATOM     64  F   UNL     1      -3.664   9.628  -2.418  1.00  0.00    -0.203 F 
ATOM     65  C   UNL     1      -2.039  11.315  -2.184  1.00  0.00     0.198 A 
ATOM     66  C   UNL     1      -2.524  13.280  -0.896  1.00  0.00     0.198 A 
ATOM     67  F   UNL     1      -4.607  13.507   0.170  1.00  0.00    -0.203 F 
ATOM     68  F   UNL     1      -1.186  10.597  -2.928  1.00  0.00    -0.200 F 
ATOM     69  C   UNL     1      -1.650  12.549  -1.685  1.00  0.00     0.200 A 
ATOM     70  F   UNL     1      -2.155  14.479  -0.424  1.00  0.00    -0.200 F 
ATOM     71  F   UNL     1      -0.430  13.032  -1.962  1.00  0.00    -0.200 F 
ENDBRANCH  47  61
BRANCH  48  72
ATOM     72  C   UNL     1     -13.390   7.902   0.578  1.00  0.00     0.064 A 
ATOM     73  C   UNL     1     -14.108   7.293  -0.458  1.00  0.00     0.173 A 
ATOM     74  C   UNL     1     -13.971   7.920   1.855  1.00  0.00     0.173 A 
ATOM     75  F   UNL     1     -13.601   7.266  -1.700  1.00  0.00    -0.203 F 
ATOM     76  C   UNL     1     -15.359   6.724  -0.227  1.00  0.00     0.198 A 
ATOM     77  C   UNL     1     -15.206   7.322   2.092  1.00  0.00     0.198 A 
ATOM     78  F   UNL     1     -13.319   8.483   2.883  1.00  0.00    -0.203 F 
ATOM     79  F   UNL     1     -16.039   6.172  -1.241  1.00  0.00    -0.200 F 
ATOM     80  C   UNL     1     -15.901   6.729   1.050  1.00  0.00     0.200 A 
ATOM     81  F   UNL     1     -15.714   7.309   3.332  1.00  0.00    -0.200 F 
ATOM     82  F   UNL     1     -17.094   6.163   1.275  1.00  0.00    -0.200 F 
ENDBRANCH  48  72
BRANCH  60  83
ATOM     83  C   UNL     1     -10.917  13.299  -3.084  1.00  0.00     0.064 A 
ATOM     84  C   UNL     1     -11.703  14.326  -2.543  1.00  0.00     0.173 A 
ATOM     85  C   UNL     1     -10.733  13.273  -4.475  1.00  0.00     0.173 A 
ATOM     86  F   UNL     1     -11.921  14.384  -1.220  1.00  0.00    -0.203 F 
ATOM     87  C   UNL     1     -12.305  15.274  -3.366  1.00  0.00     0.198 A 
ATOM     88  C   UNL     1     -11.309  14.241  -5.291  1.00  0.00     0.198 A 
ATOM     89  F   UNL     1      -9.983  12.315  -5.041  1.00  0.00    -0.203 F 
ATOM     90  F   UNL     1     -13.095  16.216  -2.833  1.00  0.00    -0.200 F 
ATOM     91  C   UNL     1     -12.101  15.235  -4.737  1.00  0.00     0.200 A 
ATOM     92  F   UNL     1     -11.099  14.211  -6.614  1.00  0.00    -0.200 F 
ATOM     93  F   UNL     1     -12.675  16.153  -5.527  1.00  0.00    -0.200 F 
ENDBRANCH  60  83
ENDBRANCH  34  35
ENDBRANCH  26  29
ENDBRANCH  24  25
ENDBRANCH  23  24
ENDBRANCH  22  23
ENDBRANCH   3  22
TORSDOF 15
