REMARK SMILES CCCN1C(=O)/C(=C\c2ccc(OC)c(OC)c2C(=O)NCCCNC(=O)c2ccc(-c3c4nc(c(-c5c(F)c(F)c(F)c(F)c5F)c5ccc([nH]5)c(-c5c(F)c(F)c(F)c(F)c5F)c5nc(c(-c6c(F)c(F)c(F)c(F)c6F)c6ccc3[nH]6)C=C5)C=C4)cc2)S/C1=[NH+]\c1nccs1
REMARK SMILES IDX 22 1 21 2 19 3 20 4 18 6 9 7 10 8 11 9 15 10 12 11 8 12 4 13
REMARK SMILES IDX 5 14 92 15 6 16 7 17 91 18 93 19 3 21 2 22 1 23 94 24 95 25
REMARK SMILES IDX 98 26 96 27 97 28 16 29 17 30 13 31 14 32 23 33 24 34 25 35
REMARK SMILES IDX 26 36 27 38 28 39 29 40 90 41 30 42 89 43 31 44 32 45 33 46
REMARK SMILES IDX 83 47 34 48 88 49 82 50 84 51 35 52 87 53 81 54 80 55 36 57
REMARK SMILES IDX 68 58 48 59 67 60 49 61 52 62 66 63 85 64 50 65 51 66 65 68
REMARK SMILES IDX 86 69 53 70 37 71 38 72 46 73 39 74 40 75 44 76 47 77 41 78
REMARK SMILES IDX 42 79 45 80 43 81 69 82 70 83 78 84 71 85 72 86 76 87 79 88
REMARK SMILES IDX 73 89 74 90 77 91 75 92 54 93 55 94 63 95 56 96 57 97 61 98
REMARK SMILES IDX 64 99 58 100 59 101 62 102 60 103
REMARK H PARENT 21 5 93 20 25 37 84 56 52 67
REMARK Flexibility Score: inf
ROOT
ATOM      1  C   UNL     1      -1.987  -3.629   3.022  1.00  0.00     0.118 C 
ENDROOT
BRANCH   1   2
ATOM      2  N   UNL     1      -2.444  -2.636   2.088  1.00  0.00    -0.352 N 
ATOM      3  C   UNL     1      -1.970  -1.350   1.977  1.00  0.00     0.255 C 
ATOM      4  O   UNL     1      -2.114  -0.789   0.893  1.00  0.00    -0.269 OA
ATOM      5  H   UNL     1      -3.164  -2.901   1.470  1.00  0.00     0.163 HD
BRANCH   3   6
ATOM      6  C   UNL     1      -1.322  -0.653   3.126  1.00  0.00     0.092 A 
ATOM      7  C   UNL     1      -0.086  -1.110   3.691  1.00  0.00    -0.007 A 
ATOM      8  C   UNL     1       0.438  -0.439   4.804  1.00  0.00     0.013 A 
ATOM      9  C   UNL     1      -0.179   0.706   5.301  1.00  0.00     0.051 A 
ATOM     10  C   UNL     1      -1.962   0.503   3.656  1.00  0.00     0.174 A 
ATOM     11  C   UNL     1      -1.347   1.197   4.717  1.00  0.00     0.161 A 
BRANCH   7  12
ATOM     12  C   UNL     1       0.698  -2.306   3.276  1.00  0.00     0.032 C 
ATOM     13  N   UNL     1       1.372  -2.257  -0.261  1.00  0.00    -0.219 N 
ATOM     14  C   UNL     1       1.140  -1.604   0.930  1.00  0.00     0.321 C 
ATOM     15  C   UNL     1       1.560  -3.626  -0.190  1.00  0.00     0.271 C 
ATOM     16  O   UNL     1       0.917  -0.425   1.122  1.00  0.00    -0.250 OA
ATOM     17  C   UNL     1       1.176  -2.564   2.050  1.00  0.00     0.100 C 
ATOM     18  S   UNL     1       1.752  -4.087   1.486  1.00  0.00    -0.012 SA
ATOM     19  N   UNL     1       1.532  -4.332  -1.270  1.00  0.00    -0.228 N 
ATOM     20  H   UNL     1       1.595  -3.865  -2.134  1.00  0.00     0.268 HD
BRANCH  13  21
ATOM     21  C   UNL     1       1.318  -1.605  -1.565  1.00  0.00     0.206 C 
BRANCH  21  22
ATOM     22  C   UNL     1       0.804  -0.171  -1.645  1.00  0.00     0.035 C 
ATOM     23  C   UNL     1       1.820   0.881  -1.216  1.00  0.00     0.007 C 
ENDBRANCH  21  22
ENDBRANCH  13  21
BRANCH  19  24
ATOM     24  C   UNL     1       1.419  -5.681  -1.278  1.00  0.00     0.319 A 
ATOM     25  N   UNL     1       0.303  -6.310  -1.606  1.00  0.00    -0.101 NA
ATOM     26  S   UNL     1       2.801  -6.720  -1.180  1.00  0.00    -0.070 S 
ATOM     27  C   UNL     1       0.524  -7.664  -1.767  1.00  0.00     0.219 A 
ATOM     28  C   UNL     1       1.817  -8.079  -1.552  1.00  0.00     0.110 A 
ENDBRANCH  19  24
ENDBRANCH   7  12
BRANCH  10  29
ATOM     29  O   UNL     1      -3.268   0.863   3.409  1.00  0.00    -0.492 OA
ATOM     30  C   UNL     1      -3.639   1.167   2.069  1.00  0.00     0.278 C 
ENDBRANCH  10  29
BRANCH  11  31
ATOM     31  O   UNL     1      -1.842   2.320   5.335  1.00  0.00    -0.493 OA
ATOM     32  C   UNL     1      -2.326   3.330   4.453  1.00  0.00     0.278 C 
ENDBRANCH  11  31
ENDBRANCH   3   6
ENDBRANCH   1   2
BRANCH   1  33
ATOM     33  C   UNL     1      -2.734  -4.937   3.025  1.00  0.00     0.042 C 
BRANCH  33  34
ATOM     34  C   UNL     1      -2.687  -5.662   1.685  1.00  0.00     0.118 C 
BRANCH  34  35
ATOM     35  N   UNL     1      -1.323  -5.905   1.216  1.00  0.00    -0.352 N 
ATOM     36  C   UNL     1      -0.545  -7.035   1.273  1.00  0.00     0.251 C 
ATOM     37  H   UNL     1      -0.891  -5.130   0.788  1.00  0.00     0.163 HD
ATOM     38  O   UNL     1       0.671  -6.951   1.417  1.00  0.00    -0.269 OA
BRANCH  36  39
ATOM     39  C   UNL     1      -1.146  -8.373   1.191  1.00  0.00     0.039 A 
ATOM     40  C   UNL     1      -0.385  -9.478   1.584  1.00  0.00     0.014 A 
ATOM     41  C   UNL     1      -2.461  -8.541   0.782  1.00  0.00     0.014 A 
ATOM     42  C   UNL     1      -1.014 -10.697   1.780  1.00  0.00     0.010 A 
ATOM     43  C   UNL     1      -3.128  -9.672   1.187  1.00  0.00     0.010 A 
ATOM     44  C   UNL     1      -2.412 -10.746   1.724  1.00  0.00    -0.014 A 
BRANCH  44  45
ATOM     45  C   UNL     1      -3.162 -11.862   2.325  1.00  0.00     0.031 A 
ATOM     46  C   UNL     1      -4.177 -12.596   1.506  1.00  0.00     0.074 A 
ATOM     47  C   UNL     1      -3.009 -12.084   3.646  1.00  0.00     0.049 A 
ATOM     48  N   UNL     1      -5.032 -13.508   1.883  1.00  0.00    -0.248 NA
ATOM     49  C   UNL     1      -4.297 -12.210   0.089  1.00  0.00     0.031 C 
ATOM     50  C   UNL     1      -2.124 -11.325   4.540  1.00  0.00     0.029 A 
ATOM     51  N   UNL     1      -3.592 -13.003   4.475  1.00  0.00    -0.354 N 
ATOM     52  C   UNL     1      -5.800 -13.780   0.761  1.00  0.00     0.074 A 
ATOM     53  C   UNL     1      -5.378 -12.876  -0.282  1.00  0.00     0.031 C 
ATOM     54  C   UNL     1      -2.173 -11.852   5.771  1.00  0.00     0.029 A 
ATOM     55  C   UNL     1      -3.139 -12.939   5.771  1.00  0.00     0.049 A 
ATOM     56  H   UNL     1      -4.272 -13.648   4.173  1.00  0.00     0.167 HD
ATOM     57  C   UNL     1      -6.745 -14.734   0.613  1.00  0.00     0.037 A 
ATOM     58  C   UNL     1      -3.476 -13.683   6.839  1.00  0.00     0.037 A 
ATOM     59  C   UNL     1      -7.113 -15.637   1.668  1.00  0.00     0.049 A 
ATOM     60  C   UNL     1      -4.503 -14.760   6.635  1.00  0.00     0.074 A 
ATOM     61  C   UNL     1      -8.005 -16.691   1.634  1.00  0.00     0.029 A 
ATOM     62  N   UNL     1      -6.596 -15.584   2.958  1.00  0.00    -0.354 N 
ATOM     63  N   UNL     1      -5.162 -15.076   5.545  1.00  0.00    -0.248 NA
ATOM     64  C   UNL     1      -4.831 -15.586   7.800  1.00  0.00     0.031 C 
ATOM     65  C   UNL     1      -8.065 -17.244   2.917  1.00  0.00     0.029 A 
ATOM     66  C   UNL     1      -7.165 -16.577   3.736  1.00  0.00     0.049 A 
ATOM     67  H   UNL     1      -5.925 -14.935   3.272  1.00  0.00     0.167 HD
ATOM     68  C   UNL     1      -5.963 -16.154   5.883  1.00  0.00     0.074 A 
ATOM     69  C   UNL     1      -5.687 -16.451   7.276  1.00  0.00     0.031 C 
ATOM     70  C   UNL     1      -6.851 -16.838   5.119  1.00  0.00     0.037 A 
BRANCH  57  71
ATOM     71  C   UNL     1      -7.413 -14.848  -0.727  1.00  0.00     0.064 A 
ATOM     72  C   UNL     1      -6.703 -15.234  -1.876  1.00  0.00     0.173 A 
ATOM     73  C   UNL     1      -8.780 -14.568  -0.870  1.00  0.00     0.173 A 
ATOM     74  F   UNL     1      -5.388 -15.494  -1.803  1.00  0.00    -0.203 F 
ATOM     75  C   UNL     1      -7.326 -15.300  -3.120  1.00  0.00     0.198 A 
ATOM     76  C   UNL     1      -9.409 -14.672  -2.109  1.00  0.00     0.198 A 
ATOM     77  F   UNL     1      -9.508 -14.190   0.191  1.00  0.00    -0.203 F 
ATOM     78  F   UNL     1      -6.610 -15.606  -4.210  1.00  0.00    -0.200 F 
ATOM     79  C   UNL     1      -8.680 -15.027  -3.234  1.00  0.00     0.200 A 
ATOM     80  F   UNL     1     -10.720 -14.417  -2.216  1.00  0.00    -0.200 F 
ATOM     81  F   UNL     1      -9.280 -15.096  -4.430  1.00  0.00    -0.200 F 
ENDBRANCH  57  71
BRANCH  58  82
ATOM     82  C   UNL     1      -2.813 -13.463   8.152  1.00  0.00     0.064 A 
ATOM     83  C   UNL     1      -1.956 -14.431   8.694  1.00  0.00     0.173 A 
ATOM     84  C   UNL     1      -3.005 -12.283   8.886  1.00  0.00     0.173 A 
ATOM     85  F   UNL     1      -1.741 -15.579   8.035  1.00  0.00    -0.203 F 
ATOM     86  C   UNL     1      -1.343 -14.242   9.932  1.00  0.00     0.198 A 
ATOM     87  C   UNL     1      -2.365 -12.080  10.108  1.00  0.00     0.198 A 
ATOM     88  F   UNL     1      -3.798 -11.313   8.407  1.00  0.00    -0.203 F 
ATOM     89  F   UNL     1      -0.570 -15.207  10.447  1.00  0.00    -0.200 F 
ATOM     90  C   UNL     1      -1.544 -13.065  10.636  1.00  0.00     0.200 A 
ATOM     91  F   UNL     1      -2.543 -10.931  10.774  1.00  0.00    -0.200 F 
ATOM     92  F   UNL     1      -0.952 -12.883  11.824  1.00  0.00    -0.200 F 
ENDBRANCH  58  82
BRANCH  70  93
ATOM     93  C   UNL     1      -7.550 -17.992   5.771  1.00  0.00     0.064 A 
ATOM     94  C   UNL     1      -8.525 -17.798   6.759  1.00  0.00     0.173 A 
ATOM     95  C   UNL     1      -7.266 -19.305   5.368  1.00  0.00     0.173 A 
ATOM     96  F   UNL     1      -8.817 -16.560   7.187  1.00  0.00    -0.203 F 
ATOM     97  C   UNL     1      -9.170 -18.882   7.344  1.00  0.00     0.198 A 
ATOM     98  C   UNL     1      -7.941 -20.384   5.927  1.00  0.00     0.198 A 
ATOM     99  F   UNL     1      -6.347 -19.539   4.420  1.00  0.00    -0.203 F 
ATOM    100  F   UNL     1     -10.057 -18.679   8.328  1.00  0.00    -0.200 F 
ATOM    101  C   UNL     1      -8.885 -20.172   6.921  1.00  0.00     0.200 A 
ATOM    102  F   UNL     1      -7.679 -21.627   5.504  1.00  0.00    -0.200 F 
ATOM    103  F   UNL     1      -9.517 -21.215   7.478  1.00  0.00    -0.200 F 
ENDBRANCH  70  93
ENDBRANCH  44  45
ENDBRANCH  36  39
ENDBRANCH  34  35
ENDBRANCH  33  34
ENDBRANCH   1  33
TORSDOF 16
