REMARK SMILES O=C1C[C@H](C(=O)NCCCNC(=O)c2ccc(-c3c4nc(c(-c5c(F)c(F)c(F)c(F)c5F)c5ccc([nH]5)c(-c5c(F)c(F)c(F)c(F)c5F)c5nc(c(-c6c(F)c(F)c(F)c(F)c6F)c6ccc3[nH]6)C=C5)C=C4)cc2)c2c(nc(N3CCSCC3)[nH]c2=O)N1
REMARK SMILES IDX 9 1 8 2 7 3 5 4 6 5 4 7 1 8 2 9 3 10 90 11 78 12 77 14 79 15
REMARK SMILES IDX 88 16 80 17 87 18 89 19 81 21 82 22 86 23 83 24 85 25 84 26
REMARK SMILES IDX 10 27 11 28 12 29 13 31 14 32 15 33 76 34 16 35 75 36 17 37
REMARK SMILES IDX 18 38 19 39 69 40 20 41 74 42 68 43 70 44 21 45 73 46 67 47
REMARK SMILES IDX 66 48 22 50 54 51 34 52 53 53 35 54 38 55 52 56 71 57 36 58
REMARK SMILES IDX 37 59 51 61 72 62 39 63 23 64 24 65 32 66 25 67 26 68 30 69
REMARK SMILES IDX 33 70 27 71 28 72 31 73 29 74 55 75 56 76 64 77 57 78 58 79
REMARK SMILES IDX 62 80 65 81 59 82 60 83 63 84 61 85 40 86 41 87 49 88 42 89
REMARK SMILES IDX 43 90 47 91 50 92 44 93 45 94 48 95 46 96
REMARK H PARENT 7 6 90 13 87 20 11 30 70 49 38 60
REMARK Flexibility Score: inf
ROOT
ATOM      1  C   UNL     1       6.204  -1.128   2.163  1.00  0.00     0.042 C 
ENDROOT
BRANCH   1   2
ATOM      2  C   UNL     1       6.207  -0.951   0.651  1.00  0.00     0.117 C 
BRANCH   2   3
ATOM      3  N   UNL     1       5.821  -2.173  -0.033  1.00  0.00    -0.355 N 
ATOM      4  C   UNL     1       4.747  -2.476  -0.814  1.00  0.00     0.228 C 
ATOM      5  O   UNL     1       4.598  -3.660  -1.129  1.00  0.00    -0.274 OA
ATOM      6  H   UNL     1       6.451  -2.920   0.090  1.00  0.00     0.163 HD
BRANCH   4   7
ATOM      7  C   UNL     1       3.715  -1.425  -1.232  1.00  0.00     0.127 C 
ATOM      8  O   UNL     1       1.556   0.698   0.903  1.00  0.00    -0.275 OA
ATOM      9  C   UNL     1       2.441   0.348   0.126  1.00  0.00     0.226 C 
ATOM     10  C   UNL     1       2.815  -1.106  -0.037  1.00  0.00     0.119 C 
ATOM     11  N   UNL     1       3.175   1.271  -0.557  1.00  0.00    -0.310 N 
ATOM     12  C   UNL     1       4.126   1.020  -1.495  1.00  0.00     0.146 A 
ATOM     13  H   UNL     1       2.998   2.217  -0.350  1.00  0.00     0.171 HD
ATOM     14  C   UNL     1       4.369  -0.240  -1.870  1.00  0.00     0.073 A 
ATOM     15  N   UNL     1       4.778   2.126  -1.956  1.00  0.00    -0.196 NA
ATOM     16  C   UNL     1       5.358  -0.423  -2.944  1.00  0.00     0.258 A 
ATOM     17  C   UNL     1       5.664   1.957  -2.888  1.00  0.00     0.207 A 
ATOM     18  N   UNL     1       5.939   0.721  -3.394  1.00  0.00    -0.292 N 
ATOM     19  O   UNL     1       5.654  -1.521  -3.396  1.00  0.00    -0.269 OA
ATOM     20  H   UNL     1       6.595   0.653  -4.125  1.00  0.00     0.173 HD
BRANCH  17  21
ATOM     21  N   UNL     1       6.412   2.982  -3.399  1.00  0.00    -0.341 N 
ATOM     22  C   UNL     1       6.433   3.296  -4.831  1.00  0.00     0.130 C 
ATOM     23  C   UNL     1       7.100   3.929  -2.514  1.00  0.00     0.130 C 
ATOM     24  C   UNL     1       5.745   4.633  -5.121  1.00  0.00     0.091 C 
ATOM     25  C   UNL     1       6.515   5.338  -2.584  1.00  0.00     0.091 C 
ATOM     26  S   UNL     1       6.574   6.021  -4.277  1.00  0.00    -0.158 SA
ENDBRANCH  17  21
ENDBRANCH   4   7
ENDBRANCH   2   3
ENDBRANCH   1   2
BRANCH   1  27
ATOM     27  C   UNL     1       7.244  -2.126   2.655  1.00  0.00     0.118 C 
BRANCH  27  28
ATOM     28  N   UNL     1       8.603  -1.620   2.513  1.00  0.00    -0.352 N 
ATOM     29  C   UNL     1       9.475  -1.194   3.484  1.00  0.00     0.251 C 
ATOM     30  H   UNL     1       8.944  -1.578   1.590  1.00  0.00     0.163 HD
ATOM     31  O   UNL     1      10.504  -0.599   3.180  1.00  0.00    -0.269 OA
BRANCH  29  32
ATOM     32  C   UNL     1       9.156  -1.441   4.904  1.00  0.00     0.039 A 
ATOM     33  C   UNL     1       9.255  -0.389   5.816  1.00  0.00     0.014 A 
ATOM     34  C   UNL     1       8.757  -2.713   5.327  1.00  0.00     0.014 A 
ATOM     35  C   UNL     1       8.892  -0.599   7.147  1.00  0.00     0.010 A 
ATOM     36  C   UNL     1       8.326  -2.901   6.635  1.00  0.00     0.010 A 
ATOM     37  C   UNL     1       8.402  -1.849   7.559  1.00  0.00    -0.014 A 
BRANCH  37  38
ATOM     38  C   UNL     1       8.005  -2.087   8.966  1.00  0.00     0.031 A 
ATOM     39  C   UNL     1       8.828  -3.006   9.822  1.00  0.00     0.074 A 
ATOM     40  C   UNL     1       6.893  -1.509   9.457  1.00  0.00     0.049 A 
ATOM     41  N   UNL     1       8.645  -3.357  11.069  1.00  0.00    -0.248 NA
ATOM     42  C   UNL     1      10.001  -3.629   9.188  1.00  0.00     0.031 C 
ATOM     43  C   UNL     1       5.997  -0.630   8.707  1.00  0.00     0.029 A 
ATOM     44  N   UNL     1       6.326  -1.579  10.705  1.00  0.00    -0.354 N 
ATOM     45  C   UNL     1       9.680  -4.233  11.366  1.00  0.00     0.074 A 
ATOM     46  C   UNL     1      10.448  -4.415  10.155  1.00  0.00     0.031 C 
ATOM     47  C   UNL     1       5.006  -0.220   9.517  1.00  0.00     0.029 A 
ATOM     48  C   UNL     1       5.184  -0.828  10.833  1.00  0.00     0.049 A 
ATOM     49  H   UNL     1       6.703  -2.116  11.438  1.00  0.00     0.167 HD
ATOM     50  C   UNL     1       9.982  -4.806  12.554  1.00  0.00     0.037 A 
ATOM     51  C   UNL     1       4.377  -0.649  11.896  1.00  0.00     0.037 A 
ATOM     52  C   UNL     1       9.225  -4.609  13.760  1.00  0.00     0.049 A 
ATOM     53  C   UNL     1       4.713  -1.330  13.196  1.00  0.00     0.074 A 
ATOM     54  C   UNL     1       9.478  -5.106  15.026  1.00  0.00     0.029 A 
ATOM     55  N   UNL     1       8.065  -3.855  13.847  1.00  0.00    -0.354 N 
ATOM     56  N   UNL     1       5.734  -2.099  13.486  1.00  0.00    -0.248 NA
ATOM     57  C   UNL     1       3.787  -1.115  14.318  1.00  0.00     0.031 C 
ATOM     58  C   UNL     1       8.446  -4.687  15.871  1.00  0.00     0.029 A 
ATOM     59  C   UNL     1       7.575  -3.893  15.142  1.00  0.00     0.049 A 
ATOM     60  H   UNL     1       7.651  -3.365  13.100  1.00  0.00     0.167 HD
ATOM     61  C   UNL     1       5.588  -2.440  14.824  1.00  0.00     0.074 A 
ATOM     62  C   UNL     1       4.385  -1.785  15.294  1.00  0.00     0.031 C 
ATOM     63  C   UNL     1       6.379  -3.228  15.592  1.00  0.00     0.037 A 
BRANCH  50  64
ATOM     64  C   UNL     1      11.197  -5.682  12.613  1.00  0.00     0.064 A 
ATOM     65  C   UNL     1      12.489  -5.139  12.540  1.00  0.00     0.173 A 
ATOM     66  C   UNL     1      11.075  -7.067  12.794  1.00  0.00     0.173 A 
ATOM     67  F   UNL     1      12.658  -3.821  12.353  1.00  0.00    -0.203 F 
ATOM     68  C   UNL     1      13.614  -5.953  12.627  1.00  0.00     0.198 A 
ATOM     69  C   UNL     1      12.203  -7.875  12.909  1.00  0.00     0.198 A 
ATOM     70  F   UNL     1       9.862  -7.634  12.873  1.00  0.00    -0.203 F 
ATOM     71  F   UNL     1      14.837  -5.417  12.516  1.00  0.00    -0.200 F 
ATOM     72  C   UNL     1      13.470  -7.319  12.820  1.00  0.00     0.200 A 
ATOM     73  F   UNL     1      12.063  -9.193  13.107  1.00  0.00    -0.200 F 
ATOM     74  F   UNL     1      14.555  -8.101  12.917  1.00  0.00    -0.200 F 
ENDBRANCH  50  64
BRANCH  51  75
ATOM     75  C   UNL     1       3.197   0.247  11.786  1.00  0.00     0.064 A 
ATOM     76  C   UNL     1       3.181   1.490  12.435  1.00  0.00     0.173 A 
ATOM     77  C   UNL     1       2.075  -0.106  11.023  1.00  0.00     0.173 A 
ATOM     78  F   UNL     1       4.223   1.863  13.192  1.00  0.00    -0.203 F 
ATOM     79  C   UNL     1       2.082   2.340  12.334  1.00  0.00     0.198 A 
ATOM     80  C   UNL     1       0.986   0.755  10.904  1.00  0.00     0.198 A 
ATOM     81  F   UNL     1       2.044  -1.283  10.381  1.00  0.00    -0.203 F 
ATOM     82  F   UNL     1       2.079   3.508  12.991  1.00  0.00    -0.200 F 
ATOM     83  C   UNL     1       0.988   1.975  11.563  1.00  0.00     0.200 A 
ATOM     84  F   UNL     1      -0.064   0.404  10.149  1.00  0.00    -0.200 F 
ATOM     85  F   UNL     1      -0.065   2.797  11.460  1.00  0.00    -0.200 F 
ENDBRANCH  51  75
BRANCH  63  86
ATOM     86  C   UNL     1       5.988  -3.421  17.027  1.00  0.00     0.064 A 
ATOM     87  C   UNL     1       4.917  -4.252  17.384  1.00  0.00     0.173 A 
ATOM     88  C   UNL     1       6.753  -2.849  18.055  1.00  0.00     0.173 A 
ATOM     89  F   UNL     1       4.151  -4.810  16.436  1.00  0.00    -0.203 F 
ATOM     90  C   UNL     1       4.622  -4.499  18.722  1.00  0.00     0.198 A 
ATOM     91  C   UNL     1       6.471  -3.120  19.391  1.00  0.00     0.198 A 
ATOM     92  F   UNL     1       7.793  -2.054  17.763  1.00  0.00    -0.203 F 
ATOM     93  F   UNL     1       3.579  -5.277  19.043  1.00  0.00    -0.200 F 
ATOM     94  C   UNL     1       5.405  -3.943  19.723  1.00  0.00     0.200 A 
ATOM     95  F   UNL     1       7.239  -2.596  20.356  1.00  0.00    -0.200 F 
ATOM     96  F   UNL     1       5.133  -4.202  21.009  1.00  0.00    -0.200 F 
ENDBRANCH  63  86
ENDBRANCH  37  38
ENDBRANCH  29  32
ENDBRANCH  27  28
ENDBRANCH   1  27
TORSDOF 11
