REMARK SMILES Cc1ccc([C@@H](C)Nc2ccc(N)cc2C(=O)NCCCNC(=O)c2ccc(-c3c4nc(c(-c5c(F)c(F)c(F)c(F)c5F)c5ccc([nH]5)c(-c5c(F)c(F)c(F)c(F)c5F)c5nc(c(-c6c(F)c(F)c(F)c(F)c6F)c6ccc3[nH]6)C=C5)C=C4)cc2)cc1F
REMARK SMILES IDX 19 1 18 2 16 3 17 4 15 6 9 7 10 8 11 9 14 10 12 11 8 12 6 14
REMARK SMILES IDX 7 15 5 16 1 17 2 18 3 19 89 20 4 21 88 22 90 23 13 24 20 27
REMARK SMILES IDX 21 28 22 29 23 30 24 32 25 33 26 34 87 35 27 36 86 37 28 38
REMARK SMILES IDX 29 39 30 40 80 41 31 42 85 43 79 44 81 45 32 46 84 47 78 48
REMARK SMILES IDX 77 49 33 51 65 52 45 53 64 54 46 55 49 56 63 57 82 58 47 59
REMARK SMILES IDX 48 60 62 62 83 63 50 64 34 65 35 66 43 67 36 68 37 69 41 70
REMARK SMILES IDX 44 71 38 72 39 73 42 74 40 75 66 76 67 77 75 78 68 79 69 80
REMARK SMILES IDX 73 81 76 82 70 83 71 84 74 85 72 86 51 87 52 88 60 89 53 90
REMARK SMILES IDX 54 91 58 92 61 93 55 94 56 95 59 96 57 97
REMARK H PARENT 18 5 8 13 13 25 13 26 22 31 81 50 49 61
REMARK Flexibility Score: inf
ROOT
ATOM      1  C   UNL     1      -0.842  -2.979   0.778  1.00  0.00     0.118 C 
ENDROOT
BRANCH   1   2
ATOM      2  N   UNL     1      -0.974  -3.769  -0.447  1.00  0.00    -0.352 N 
ATOM      3  C   UNL     1      -2.007  -4.563  -0.889  1.00  0.00     0.253 C 
ATOM      4  O   UNL     1      -2.023  -4.946  -2.058  1.00  0.00    -0.269 OA
ATOM      5  H   UNL     1      -0.199  -3.724  -1.052  1.00  0.00     0.163 HD
BRANCH   3   6
ATOM      6  C   UNL     1      -2.979  -5.100   0.084  1.00  0.00     0.065 A 
ATOM      7  C   UNL     1      -3.618  -4.338   1.065  1.00  0.00     0.048 A 
ATOM      8  C   UNL     1      -3.859  -5.017   2.272  1.00  0.00     0.028 A 
ATOM      9  C   UNL     1      -3.637  -6.397   2.413  1.00  0.00     0.027 A 
ATOM     10  C   UNL     1      -2.927  -6.506   0.155  1.00  0.00     0.041 A 
ATOM     11  C   UNL     1      -3.284  -7.172   1.316  1.00  0.00     0.032 A 
BRANCH   7  12
ATOM     12  N   UNL     1      -4.006  -3.013   0.983  1.00  0.00    -0.378 N 
ATOM     13  H   UNL     1      -4.410  -2.656   1.807  1.00  0.00     0.161 HD
BRANCH  12  14
ATOM     14  C   UNL     1      -3.921  -2.050  -0.115  1.00  0.00     0.106 C 
ATOM     15  C   UNL     1      -4.489  -2.521  -1.443  1.00  0.00     0.036 C 
BRANCH  14  16
ATOM     16  C   UNL     1      -2.587  -1.340  -0.041  1.00  0.00    -0.023 A 
ATOM     17  C   UNL     1       1.667   1.431   0.636  1.00  0.00     0.047 C 
ATOM     18  C   UNL     1       0.462   0.567   0.455  1.00  0.00    -0.015 A 
ATOM     19  C   UNL     1      -0.871   0.679   1.646  1.00  0.00     0.007 A 
ATOM     20  C   UNL     1       0.256  -0.462  -1.020  1.00  0.00     0.126 A 
ATOM     21  C   UNL     1      -2.368  -0.320   1.446  1.00  0.00     0.006 A 
ATOM     22  C   UNL     1      -1.247  -1.422  -1.275  1.00  0.00     0.045 A 
ATOM     23  F   UNL     1       1.254  -0.540  -1.908  1.00  0.00    -0.207 F 
ENDBRANCH  14  16
ENDBRANCH  12  14
ENDBRANCH   7  12
BRANCH  11  24
ATOM     24  N   UNL     1      -3.075  -8.536   1.428  1.00  0.00    -0.399 N 
ATOM     25  H   UNL     1      -3.330  -9.007   2.254  1.00  0.00     0.156 HD
ATOM     26  H   UNL     1      -2.672  -9.035   0.682  1.00  0.00     0.156 HD
ENDBRANCH  11  24
ENDBRANCH   3   6
ENDBRANCH   1   2
BRANCH   1  27
ATOM     27  C   UNL     1      -0.646  -1.255   0.736  1.00  0.00     0.042 C 
BRANCH  27  28
ATOM     28  C   UNL     1      -1.551   0.427  -0.340  1.00  0.00     0.118 C 
BRANCH  28  29
ATOM     29  N   UNL     1      -2.819   1.399  -0.015  1.00  0.00    -0.352 N 
ATOM     30  C   UNL     1      -2.851   2.784  -0.070  1.00  0.00     0.251 C 
ATOM     31  H   UNL     1      -3.655   0.953   0.251  1.00  0.00     0.163 HD
ATOM     32  O   UNL     1      -3.688   3.456   0.510  1.00  0.00    -0.269 OA
BRANCH  30  33
ATOM     33  C   UNL     1      -1.874   3.395  -0.977  1.00  0.00     0.039 A 
ATOM     34  C   UNL     1      -1.039   4.468  -0.650  1.00  0.00     0.014 A 
ATOM     35  C   UNL     1      -1.736   2.694  -2.169  1.00  0.00     0.014 A 
ATOM     36  C   UNL     1      -0.052   4.825  -1.563  1.00  0.00     0.010 A 
ATOM     37  C   UNL     1      -0.548   2.780  -2.802  1.00  0.00     0.010 A 
ATOM     38  C   UNL     1       0.158   3.966  -2.640  1.00  0.00    -0.014 A 
BRANCH  38  39
ATOM     39  C   UNL     1       0.973   4.215  -3.809  1.00  0.00     0.031 A 
ATOM     40  C   UNL     1       2.421   4.193  -3.630  1.00  0.00     0.074 A 
ATOM     41  C   UNL     1       0.239   4.169  -4.952  1.00  0.00     0.049 A 
ATOM     42  N   UNL     1       3.250   4.949  -4.249  1.00  0.00    -0.248 NA
ATOM     43  C   UNL     1       3.075   3.355  -2.620  1.00  0.00     0.031 C 
ATOM     44  C   UNL     1       0.565   3.924  -6.343  1.00  0.00     0.029 A 
ATOM     45  N   UNL     1      -1.163   4.362  -5.002  1.00  0.00    -0.354 N 
ATOM     46  C   UNL     1       4.468   4.314  -4.113  1.00  0.00     0.074 A 
ATOM     47  C   UNL     1       4.370   3.559  -2.892  1.00  0.00     0.031 C 
ATOM     48  C   UNL     1      -0.469   4.345  -7.107  1.00  0.00     0.029 A 
ATOM     49  C   UNL     1      -1.460   4.957  -6.230  1.00  0.00     0.049 A 
ATOM     50  H   UNL     1      -1.809   4.121  -4.300  1.00  0.00     0.167 HD
ATOM     51  C   UNL     1       5.258   4.184  -5.221  1.00  0.00     0.037 A 
ATOM     52  C   UNL     1      -1.832   6.271  -6.169  1.00  0.00     0.037 A 
ATOM     53  C   UNL     1       4.516   4.654  -6.398  1.00  0.00     0.049 A 
ATOM     54  C   UNL     1      -0.687   7.166  -6.588  1.00  0.00     0.074 A 
ATOM     55  C   UNL     1       3.866   4.035  -7.452  1.00  0.00     0.029 A 
ATOM     56  N   UNL     1       4.043   5.947  -6.389  1.00  0.00    -0.354 N 
ATOM     57  N   UNL     1       0.533   6.741  -6.775  1.00  0.00    -0.248 NA
ATOM     58  C   UNL     1      -0.811   8.598  -6.818  1.00  0.00     0.031 C 
ATOM     59  C   UNL     1       3.043   5.013  -8.101  1.00  0.00     0.029 A 
ATOM     60  C   UNL     1       3.176   6.210  -7.420  1.00  0.00     0.049 A 
ATOM     61  H   UNL     1       4.300   6.615  -5.713  1.00  0.00     0.167 HD
ATOM     62  C   UNL     1       1.339   7.763  -7.176  1.00  0.00     0.074 A 
ATOM     63  C   UNL     1       0.458   8.922  -7.128  1.00  0.00     0.031 C 
ATOM     64  C   UNL     1       2.653   7.564  -7.510  1.00  0.00     0.037 A 
BRANCH  51  65
ATOM     65  C   UNL     1       6.566   3.436  -5.338  1.00  0.00     0.064 A 
ATOM     66  C   UNL     1       7.115   3.176  -6.616  1.00  0.00     0.173 A 
ATOM     67  C   UNL     1       7.378   3.033  -4.260  1.00  0.00     0.173 A 
ATOM     68  F   UNL     1       6.500   3.568  -7.739  1.00  0.00    -0.203 F 
ATOM     69  C   UNL     1       8.339   2.531  -6.798  1.00  0.00     0.198 A 
ATOM     70  C   UNL     1       8.595   2.363  -4.444  1.00  0.00     0.198 A 
ATOM     71  F   UNL     1       7.064   3.323  -2.993  1.00  0.00    -0.203 F 
ATOM     72  F   UNL     1       8.803   2.334  -8.040  1.00  0.00    -0.200 F 
ATOM     73  C   UNL     1       9.076   2.115  -5.713  1.00  0.00     0.200 A 
ATOM     74  F   UNL     1       9.313   1.984  -3.377  1.00  0.00    -0.200 F 
ATOM     75  F   UNL     1      10.257   1.507  -5.888  1.00  0.00    -0.200 F 
ENDBRANCH  51  65
BRANCH  52  76
ATOM     76  C   UNL     1      -2.788   6.489  -5.020  1.00  0.00     0.064 A 
ATOM     77  C   UNL     1      -3.993   5.747  -5.049  1.00  0.00     0.173 A 
ATOM     78  C   UNL     1      -2.364   6.955  -3.766  1.00  0.00     0.173 A 
ATOM     79  F   UNL     1      -4.465   5.284  -6.218  1.00  0.00    -0.203 F 
ATOM     80  C   UNL     1      -4.631   5.337  -3.878  1.00  0.00     0.198 A 
ATOM     81  C   UNL     1      -3.038   6.581  -2.595  1.00  0.00     0.198 A 
ATOM     82  F   UNL     1      -1.234   7.667  -3.654  1.00  0.00    -0.203 F 
ATOM     83  F   UNL     1      -5.664   4.483  -3.941  1.00  0.00    -0.200 F 
ATOM     84  C   UNL     1      -4.136   5.732  -2.650  1.00  0.00     0.200 A 
ATOM     85  F   UNL     1      -2.570   6.974  -1.401  1.00  0.00    -0.200 F 
ATOM     86  F   UNL     1      -4.695   5.265  -1.525  1.00  0.00    -0.200 F 
ENDBRANCH  52  76
BRANCH  64  87
ATOM     87  C   UNL     1       3.609   8.672  -7.873  1.00  0.00     0.064 A 
ATOM     88  C   UNL     1       3.210   9.793  -8.605  1.00  0.00     0.173 A 
ATOM     89  C   UNL     1       4.987   8.631  -7.534  1.00  0.00     0.173 A 
ATOM     90  F   UNL     1       1.994   9.853  -9.166  1.00  0.00    -0.203 F 
ATOM     91  C   UNL     1       4.069  10.873  -8.813  1.00  0.00     0.198 A 
ATOM     92  C   UNL     1       5.856   9.680  -7.796  1.00  0.00     0.198 A 
ATOM     93  F   UNL     1       5.563   7.591  -6.921  1.00  0.00    -0.203 F 
ATOM     94  F   UNL     1       3.607  11.972  -9.423  1.00  0.00    -0.200 F 
ATOM     95  C   UNL     1       5.386  10.822  -8.395  1.00  0.00     0.200 A 
ATOM     96  F   UNL     1       7.145   9.572  -7.441  1.00  0.00    -0.200 F 
ATOM     97  F   UNL     1       6.204  11.864  -8.583  1.00  0.00    -0.200 F 
ENDBRANCH  64  87
ENDBRANCH  38  39
ENDBRANCH  30  33
ENDBRANCH  28  29
ENDBRANCH  27  28
ENDBRANCH   1  27
TORSDOF 14
