REMARK SMILES Cc1nn([C@H]2CCS(=O)(=O)C2)c(C)c1/C=C(\CC(=O)NCCCNC(=O)c1ccc(-c2c3nc(c(-c4c(F)c(F)c(F)c(F)c4F)c4ccc([nH]4)c(-c4c(F)c(F)c(F)c(F)c4F)c4nc(c(-c5c(F)c(F)c(F)c(F)c5F)c5ccc2[nH]5)C=C4)C=C3)cc1)c1nc2ccccc2s1
REMARK SMILES IDX 21 1 20 2 18 3 19 4 17 6 16 7 15 8 14 9 1 10 2 11 3 12 4 13
REMARK SMILES IDX 12 14 13 15 5 16 6 17 11 18 7 19 8 20 9 21 10 22 90 23 91 24
REMARK SMILES IDX 98 25 92 26 97 27 93 28 96 29 94 30 95 31 22 32 23 33 24 34
REMARK SMILES IDX 25 35 26 37 27 38 28 39 89 40 29 41 88 42 30 43 31 44 32 45
REMARK SMILES IDX 82 46 33 47 87 48 81 49 83 50 34 51 86 52 80 53 79 54 35 56
REMARK SMILES IDX 67 57 47 58 66 59 48 60 51 61 65 62 84 63 49 64 50 65 64 67
REMARK SMILES IDX 85 68 52 69 36 70 37 71 45 72 38 73 39 74 43 75 46 76 40 77
REMARK SMILES IDX 41 78 44 79 42 80 68 81 69 82 77 83 70 84 71 85 75 86 78 87
REMARK SMILES IDX 72 88 73 89 76 90 74 91 53 92 54 93 62 94 55 95 56 96 60 97
REMARK SMILES IDX 63 98 57 99 58 100 61 101 59 102
REMARK H PARENT 20 5 24 36 83 55 51 66
REMARK Flexibility Score: inf
ROOT
ATOM      1  C   UNL     1       1.051  -8.713   4.832  1.00  0.00     0.117 C 
ENDROOT
BRANCH   1   2
ATOM      2  N   UNL     1       2.020  -8.788   5.911  1.00  0.00    -0.356 N 
ATOM      3  C   UNL     1       3.329  -8.395   5.906  1.00  0.00     0.224 C 
ATOM      4  O   UNL     1       4.037  -8.677   6.874  1.00  0.00    -0.275 OA
ATOM      5  H   UNL     1       1.691  -9.171   6.756  1.00  0.00     0.163 HD
BRANCH   3   6
ATOM      6  C   UNL     1       3.822  -7.482   4.793  1.00  0.00     0.138 C 
BRANCH   6   7
ATOM      7  C   UNL     1       4.069  -8.095   3.425  1.00  0.00    -0.002 C 
ATOM      8  C   UNL     1       3.464  -7.689   2.278  1.00  0.00     0.019 C 
BRANCH   8   9
ATOM      9  C   UNL     1       2.399  -6.730   2.144  1.00  0.00     0.019 A 
ATOM     10  C   UNL     1       1.000  -7.771   0.171  1.00  0.00     0.069 C 
ATOM     11  C   UNL     1       1.265  -6.832   1.292  1.00  0.00     0.067 A 
ATOM     12  N   UNL     1       0.342  -5.915   1.607  1.00  0.00    -0.177 NA
ATOM     13  N   UNL     1       0.896  -5.200   2.605  1.00  0.00    -0.265 N 
ATOM     14  C   UNL     1       2.237  -5.496   2.761  1.00  0.00     0.043 A 
ATOM     15  C   UNL     1       3.211  -4.610   3.456  1.00  0.00     0.067 C 
BRANCH  13  16
ATOM     16  C   UNL     1       0.052  -4.238   3.311  1.00  0.00     0.123 C 
ATOM     17  C   UNL     1      -1.399  -4.741   3.524  1.00  0.00     0.044 C 
ATOM     18  C   UNL     1       0.522  -3.889   4.721  1.00  0.00     0.164 C 
ATOM     19  C   UNL     1      -2.110  -3.738   4.427  1.00  0.00     0.139 C 
ATOM     20  S   UNL     1      -0.846  -3.059   5.477  1.00  0.00     0.152 S 
ATOM     21  O   UNL     1      -0.716  -1.641   5.183  1.00  0.00    -0.229 OA
ATOM     22  O   UNL     1      -1.003  -3.560   6.818  1.00  0.00    -0.229 OA
ENDBRANCH  13  16
ENDBRANCH   8   9
BRANCH   7  23
ATOM     23  C   UNL     1       4.980  -9.207   3.355  1.00  0.00     0.121 A 
ATOM     24  N   UNL     1       4.760 -10.373   3.928  1.00  0.00    -0.236 NA
ATOM     25  S   UNL     1       6.588  -9.004   2.761  1.00  0.00    -0.114 S 
ATOM     26  C   UNL     1       5.967 -10.956   4.267  1.00  0.00     0.082 A 
ATOM     27  C   UNL     1       7.097 -10.329   3.742  1.00  0.00     0.055 A 
ATOM     28  C   UNL     1       6.136 -12.046   5.144  1.00  0.00     0.030 A 
ATOM     29  C   UNL     1       8.396 -10.747   4.068  1.00  0.00     0.021 A 
ATOM     30  C   UNL     1       7.423 -12.404   5.554  1.00  0.00     0.002 A 
ATOM     31  C   UNL     1       8.537 -11.758   5.025  1.00  0.00     0.002 A 
ENDBRANCH   7  23
ENDBRANCH   6   7
ENDBRANCH   3   6
ENDBRANCH   1   2
BRANCH   1  32
ATOM     32  C   UNL     1       1.087  -9.955   3.939  1.00  0.00     0.042 C 
BRANCH  32  33
ATOM     33  C   UNL     1       0.502 -11.169   4.638  1.00  0.00     0.118 C 
BRANCH  33  34
ATOM     34  N   UNL     1      -0.946 -11.044   4.828  1.00  0.00    -0.352 N 
ATOM     35  C   UNL     1      -1.792 -11.865   5.545  1.00  0.00     0.251 C 
ATOM     36  H   UNL     1      -1.371 -10.274   4.386  1.00  0.00     0.163 HD
ATOM     37  O   UNL     1      -2.998 -11.870   5.337  1.00  0.00    -0.269 OA
BRANCH  35  38
ATOM     38  C   UNL     1      -1.210 -12.729   6.581  1.00  0.00     0.039 A 
ATOM     39  C   UNL     1      -1.608 -14.060   6.736  1.00  0.00     0.014 A 
ATOM     40  C   UNL     1      -0.202 -12.182   7.367  1.00  0.00     0.014 A 
ATOM     41  C   UNL     1      -0.918 -14.861   7.641  1.00  0.00     0.010 A 
ATOM     42  C   UNL     1       0.590 -13.011   8.110  1.00  0.00     0.010 A 
ATOM     43  C   UNL     1       0.195 -14.329   8.309  1.00  0.00    -0.014 A 
BRANCH  43  44
ATOM     44  C   UNL     1       1.078 -15.167   9.112  1.00  0.00     0.031 A 
ATOM     45  C   UNL     1       1.679 -16.287   8.336  1.00  0.00     0.074 A 
ATOM     46  C   UNL     1       1.498 -14.768  10.336  1.00  0.00     0.049 A 
ATOM     47  N   UNL     1       1.496 -17.554   8.506  1.00  0.00    -0.248 NA
ATOM     48  C   UNL     1       2.436 -15.965   7.111  1.00  0.00     0.031 C 
ATOM     49  C   UNL     1       1.179 -13.500  11.011  1.00  0.00     0.029 A 
ATOM     50  N   UNL     1       2.402 -15.333  11.189  1.00  0.00    -0.354 N 
ATOM     51  C   UNL     1       2.323 -18.183   7.574  1.00  0.00     0.074 A 
ATOM     52  C   UNL     1       2.670 -17.180   6.609  1.00  0.00     0.031 C 
ATOM     53  C   UNL     1       2.050 -13.281  12.019  1.00  0.00     0.029 A 
ATOM     54  C   UNL     1       2.867 -14.466  12.181  1.00  0.00     0.049 A 
ATOM     55  H   UNL     1       2.700 -16.268  11.111  1.00  0.00     0.167 HD
ATOM     56  C   UNL     1       2.926 -19.364   7.896  1.00  0.00     0.037 A 
ATOM     57  C   UNL     1       3.868 -14.707  13.064  1.00  0.00     0.037 A 
ATOM     58  C   UNL     1       2.293 -19.927   9.064  1.00  0.00     0.049 A 
ATOM     59  C   UNL     1       4.052 -16.174  13.113  1.00  0.00     0.074 A 
ATOM     60  C   UNL     1       1.103 -20.552   9.363  1.00  0.00     0.029 A 
ATOM     61  N   UNL     1       2.812 -19.450  10.238  1.00  0.00    -0.354 N 
ATOM     62  N   UNL     1       3.159 -16.989  13.600  1.00  0.00    -0.248 NA
ATOM     63  C   UNL     1       5.069 -16.787  12.267  1.00  0.00     0.031 C 
ATOM     64  C   UNL     1       0.853 -20.286  10.744  1.00  0.00     0.029 A 
ATOM     65  C   UNL     1       1.924 -19.563  11.267  1.00  0.00     0.049 A 
ATOM     66  H   UNL     1       3.717 -19.071  10.328  1.00  0.00     0.167 HD
ATOM     67  C   UNL     1       3.239 -18.102  12.787  1.00  0.00     0.074 A 
ATOM     68  C   UNL     1       4.529 -17.999  12.115  1.00  0.00     0.031 C 
ATOM     69  C   UNL     1       2.112 -18.810  12.484  1.00  0.00     0.037 A 
BRANCH  56  70
ATOM     70  C   UNL     1       4.378 -19.721   7.580  1.00  0.00     0.064 A 
ATOM     71  C   UNL     1       4.885 -20.945   8.080  1.00  0.00     0.173 A 
ATOM     72  C   UNL     1       5.361 -18.810   7.139  1.00  0.00     0.173 A 
ATOM     73  F   UNL     1       4.053 -21.904   8.515  1.00  0.00    -0.203 F 
ATOM     74  C   UNL     1       6.256 -21.177   8.238  1.00  0.00     0.198 A 
ATOM     75  C   UNL     1       6.729 -19.062   7.263  1.00  0.00     0.198 A 
ATOM     76  F   UNL     1       5.066 -17.599   6.662  1.00  0.00    -0.203 F 
ATOM     77  F   UNL     1       6.677 -22.296   8.842  1.00  0.00    -0.200 F 
ATOM     78  C   UNL     1       7.176 -20.226   7.845  1.00  0.00     0.200 A 
ATOM     79  F   UNL     1       7.606 -18.119   6.886  1.00  0.00    -0.200 F 
ATOM     80  F   UNL     1       8.485 -20.410   8.062  1.00  0.00    -0.200 F 
ENDBRANCH  56  70
BRANCH  57  81
ATOM     81  C   UNL     1       4.834 -13.777  13.696  1.00  0.00     0.064 A 
ATOM     82  C   UNL     1       5.558 -14.149  14.842  1.00  0.00     0.173 A 
ATOM     83  C   UNL     1       5.289 -12.634  13.012  1.00  0.00     0.173 A 
ATOM     84  F   UNL     1       5.211 -15.245  15.533  1.00  0.00    -0.203 F 
ATOM     85  C   UNL     1       6.698 -13.448  15.252  1.00  0.00     0.198 A 
ATOM     86  C   UNL     1       6.426 -11.934  13.423  1.00  0.00     0.198 A 
ATOM     87  F   UNL     1       4.699 -12.239  11.875  1.00  0.00    -0.203 F 
ATOM     88  F   UNL     1       7.405 -13.878  16.307  1.00  0.00    -0.200 F 
ATOM     89  C   UNL     1       7.141 -12.351  14.532  1.00  0.00     0.200 A 
ATOM     90  F   UNL     1       6.868 -10.898  12.696  1.00  0.00    -0.200 F 
ATOM     91  F   UNL     1       8.275 -11.727  14.877  1.00  0.00    -0.200 F 
ENDBRANCH  57  81
BRANCH  69  92
ATOM     92  C   UNL     1       0.945 -18.670  13.409  1.00  0.00     0.064 A 
ATOM     93  C   UNL     1       0.184 -17.501  13.567  1.00  0.00     0.173 A 
ATOM     94  C   UNL     1       0.535 -19.812  14.107  1.00  0.00     0.173 A 
ATOM     95  F   UNL     1       0.471 -16.392  12.873  1.00  0.00    -0.203 F 
ATOM     96  C   UNL     1      -0.918 -17.471  14.420  1.00  0.00     0.198 A 
ATOM     97  C   UNL     1      -0.586 -19.791  14.928  1.00  0.00     0.198 A 
ATOM     98  F   UNL     1       1.204 -20.965  13.958  1.00  0.00    -0.203 F 
ATOM     99  F   UNL     1      -1.621 -16.339  14.572  1.00  0.00    -0.200 F 
ATOM    100  C   UNL     1      -1.305 -18.618  15.094  1.00  0.00     0.200 A 
ATOM    101  F   UNL     1      -0.980 -20.914  15.541  1.00  0.00    -0.200 F 
ATOM    102  F   UNL     1      -2.385 -18.602  15.887  1.00  0.00    -0.200 F 
ENDBRANCH  69  92
ENDBRANCH  43  44
ENDBRANCH  35  38
ENDBRANCH  33  34
ENDBRANCH  32  33
ENDBRANCH   1  32
TORSDOF 14
