REMARK SMILES O=C(NCCCNC(=O)c1cc(Br)ccc1NC(=O)c1ccc(Br)s1)c1ccc(-c2c3nc(c(-c4c(F)c(F)c(F)c(F)c4F)c4ccc([nH]4)c(-c4c(F)c(F)c(F)c(F)c4F)c4nc(c(-c5c(F)c(F)c(F)c(F)c5F)c5ccc2[nH]5)C=C4)C=C3)cc1
REMARK SMILES IDX 5 1 4 2 3 3 1 4 2 5 26 7 27 8 88 9 28 10 87 11 29 12 30 13
REMARK SMILES IDX 31 14 81 15 32 16 86 17 80 18 82 19 33 20 85 21 79 22 78 23
REMARK SMILES IDX 34 25 66 26 46 27 65 28 47 29 50 30 64 31 83 32 48 33 49 34
REMARK SMILES IDX 63 36 84 37 51 38 35 39 36 40 44 41 37 42 38 43 42 44 45 45
REMARK SMILES IDX 39 46 40 47 43 48 41 49 67 50 68 51 76 52 69 53 70 54 74 55
REMARK SMILES IDX 77 56 71 57 72 58 75 59 73 60 52 61 53 62 61 63 54 64 55 65
REMARK SMILES IDX 59 66 62 67 56 68 57 69 60 70 58 71 6 72 7 73 8 74 9 76
REMARK SMILES IDX 10 77 11 78 16 79 12 80 15 81 13 82 14 83 17 84 18 85 19 87
REMARK SMILES IDX 20 88 21 89 25 90 22 91 23 92 24 93
REMARK H PARENT 3 6 82 24 50 35 7 75 17 86
REMARK Flexibility Score: inf
ROOT
ATOM      1  C   UNL     1       4.877  -0.825  -2.470  1.00  0.00     0.042 C 
ENDROOT
BRANCH   1   2
ATOM      2  C   UNL     1       4.601   0.269  -1.447  1.00  0.00     0.118 C 
BRANCH   2   3
ATOM      3  N   UNL     1       3.188   0.368  -1.103  1.00  0.00    -0.352 N 
ATOM      4  O   UNL     1       1.289   0.039   0.046  1.00  0.00    -0.269 OA
ATOM      5  C   UNL     1       2.517   0.075   0.058  1.00  0.00     0.251 C 
ATOM      6  H   UNL     1       2.616   0.704  -1.830  1.00  0.00     0.163 HD
BRANCH   5   7
ATOM      7  C   UNL     1       3.242  -0.208   1.317  1.00  0.00     0.039 A 
ATOM      8  C   UNL     1       4.384   0.509   1.674  1.00  0.00     0.014 A 
ATOM      9  C   UNL     1       2.724  -1.165   2.197  1.00  0.00     0.014 A 
ATOM     10  C   UNL     1       5.086   0.173   2.828  1.00  0.00     0.010 A 
ATOM     11  C   UNL     1       3.379  -1.440   3.402  1.00  0.00     0.010 A 
ATOM     12  C   UNL     1       4.583  -0.793   3.713  1.00  0.00    -0.014 A 
BRANCH  12  13
ATOM     13  C   UNL     1       5.310  -1.060   4.980  1.00  0.00     0.031 A 
ATOM     14  C   UNL     1       5.957  -2.391   5.239  1.00  0.00     0.074 A 
ATOM     15  C   UNL     1       5.423  -0.067   5.883  1.00  0.00     0.049 A 
ATOM     16  N   UNL     1       6.671  -2.774   6.269  1.00  0.00    -0.248 NA
ATOM     17  C   UNL     1       5.778  -3.432   4.216  1.00  0.00     0.031 C 
ATOM     18  C   UNL     1       4.821   1.262   5.750  1.00  0.00     0.029 A 
ATOM     19  N   UNL     1       6.099  -0.007   7.074  1.00  0.00    -0.354 N 
ATOM     20  C   UNL     1       7.016  -4.096   6.024  1.00  0.00     0.074 A 
ATOM     21  C   UNL     1       6.409  -4.463   4.762  1.00  0.00     0.031 C 
ATOM     22  C   UNL     1       5.197   2.022   6.789  1.00  0.00     0.029 A 
ATOM     23  C   UNL     1       6.022   1.220   7.686  1.00  0.00     0.049 A 
ATOM     24  H   UNL     1       6.592  -0.769   7.455  1.00  0.00     0.167 HD
ATOM     25  C   UNL     1       7.780  -4.923   6.778  1.00  0.00     0.037 A 
ATOM     26  C   UNL     1       6.552   1.653   8.845  1.00  0.00     0.037 A 
ATOM     27  C   UNL     1       8.393  -4.552   8.028  1.00  0.00     0.049 A 
ATOM     28  C   UNL     1       7.389   0.712   9.661  1.00  0.00     0.074 A 
ATOM     29  C   UNL     1       9.194  -5.317   8.858  1.00  0.00     0.029 A 
ATOM     30  N   UNL     1       8.275  -3.306   8.625  1.00  0.00    -0.354 N 
ATOM     31  N   UNL     1       7.724  -0.529   9.406  1.00  0.00    -0.248 NA
ATOM     32  C   UNL     1       7.921   1.231  10.929  1.00  0.00     0.031 C 
ATOM     33  C   UNL     1       9.536  -4.543   9.974  1.00  0.00     0.029 A 
ATOM     34  C   UNL     1       8.978  -3.285   9.820  1.00  0.00     0.049 A 
ATOM     35  H   UNL     1       7.767  -2.548   8.256  1.00  0.00     0.167 HD
ATOM     36  C   UNL     1       8.510  -0.938  10.473  1.00  0.00     0.074 A 
ATOM     37  C   UNL     1       8.625   0.196  11.367  1.00  0.00     0.031 C 
ATOM     38  C   UNL     1       9.079  -2.147  10.696  1.00  0.00     0.037 A 
BRANCH  25  39
ATOM     39  C   UNL     1       7.995  -6.320   6.276  1.00  0.00     0.064 A 
ATOM     40  C   UNL     1       8.852  -6.587   5.198  1.00  0.00     0.173 A 
ATOM     41  C   UNL     1       7.381  -7.409   6.912  1.00  0.00     0.173 A 
ATOM     42  F   UNL     1       9.453  -5.578   4.548  1.00  0.00    -0.203 F 
ATOM     43  C   UNL     1       9.072  -7.891   4.764  1.00  0.00     0.198 A 
ATOM     44  C   UNL     1       7.621  -8.714   6.490  1.00  0.00     0.198 A 
ATOM     45  F   UNL     1       6.556  -7.208   7.951  1.00  0.00    -0.203 F 
ATOM     46  F   UNL     1       9.867  -8.120   3.710  1.00  0.00    -0.200 F 
ATOM     47  C   UNL     1       8.463  -8.954   5.414  1.00  0.00     0.200 A 
ATOM     48  F   UNL     1       7.038  -9.741   7.125  1.00  0.00    -0.200 F 
ATOM     49  F   UNL     1       8.682 -10.210   5.000  1.00  0.00    -0.200 F 
ENDBRANCH  25  39
BRANCH  26  50
ATOM     50  C   UNL     1       6.306   3.046   9.293  1.00  0.00     0.064 A 
ATOM     51  C   UNL     1       7.336   3.996   9.298  1.00  0.00     0.173 A 
ATOM     52  C   UNL     1       5.032   3.460   9.711  1.00  0.00     0.173 A 
ATOM     53  F   UNL     1       8.575   3.641   8.925  1.00  0.00    -0.203 F 
ATOM     54  C   UNL     1       7.105   5.304   9.718  1.00  0.00     0.198 A 
ATOM     55  C   UNL     1       4.797   4.774  10.104  1.00  0.00     0.198 A 
ATOM     56  F   UNL     1       4.013   2.589   9.719  1.00  0.00    -0.203 F 
ATOM     57  F   UNL     1       8.116   6.183   9.750  1.00  0.00    -0.200 F 
ATOM     58  C   UNL     1       5.835   5.694  10.114  1.00  0.00     0.200 A 
ATOM     59  F   UNL     1       3.564   5.150  10.472  1.00  0.00    -0.200 F 
ATOM     60  F   UNL     1       5.611   6.954  10.511  1.00  0.00    -0.200 F 
ENDBRANCH  26  50
BRANCH  38  61
ATOM     61  C   UNL     1       9.887  -2.294  11.949  1.00  0.00     0.064 A 
ATOM     62  C   UNL     1       9.272  -2.396  13.206  1.00  0.00     0.173 A 
ATOM     63  C   UNL     1      11.287  -2.352  11.892  1.00  0.00     0.173 A 
ATOM     64  F   UNL     1       7.937  -2.327  13.311  1.00  0.00    -0.203 F 
ATOM     65  C   UNL     1      10.033  -2.525  14.364  1.00  0.00     0.198 A 
ATOM     66  C   UNL     1      12.043  -2.505  13.050  1.00  0.00     0.198 A 
ATOM     67  F   UNL     1      11.920  -2.262  10.713  1.00  0.00    -0.203 F 
ATOM     68  F   UNL     1       9.428  -2.574  15.559  1.00  0.00    -0.200 F 
ATOM     69  C   UNL     1      11.417  -2.584  14.285  1.00  0.00     0.200 A 
ATOM     70  F   UNL     1      13.380  -2.570  12.972  1.00  0.00    -0.200 F 
ATOM     71  F   UNL     1      12.147  -2.708  15.401  1.00  0.00    -0.200 F 
ENDBRANCH  38  61
ENDBRANCH  12  13
ENDBRANCH   5   7
ENDBRANCH   2   3
ENDBRANCH   1   2
BRANCH   1  72
ATOM     72  C   UNL     1       4.234  -0.572  -3.828  1.00  0.00     0.118 C 
BRANCH  72  73
ATOM     73  N   UNL     1       4.848   0.546  -4.537  1.00  0.00    -0.352 N 
ATOM     74  C   UNL     1       5.795   0.540  -5.534  1.00  0.00     0.253 C 
ATOM     75  H   UNL     1       4.537   1.439  -4.261  1.00  0.00     0.163 HD
ATOM     76  O   UNL     1       6.367   1.577  -5.853  1.00  0.00    -0.269 OA
BRANCH  74  77
ATOM     77  C   UNL     1       6.178  -0.738  -6.175  1.00  0.00     0.064 A 
ATOM     78  C   UNL     1       5.156  -1.544  -6.700  1.00  0.00     0.031 A 
ATOM     79  C   UNL     1       7.527  -1.146  -6.222  1.00  0.00     0.054 A 
ATOM     80  C   UNL     1       5.447  -2.833  -7.118  1.00  0.00     0.018 A 
ATOM     81  C   UNL     1       7.773  -2.476  -6.571  1.00  0.00     0.028 A 
ATOM     82  Br  UNL     1       4.066  -3.954  -7.745  1.00  0.00    -0.051 Br
ATOM     83  C   UNL     1       6.745  -3.316  -7.018  1.00  0.00     0.018 A 
BRANCH  79  84
ATOM     84  N   UNL     1       8.542  -0.213  -5.902  1.00  0.00    -0.321 N 
ATOM     85  C   UNL     1       9.919  -0.217  -6.013  1.00  0.00     0.265 C 
ATOM     86  H   UNL     1       8.190   0.622  -5.515  1.00  0.00     0.170 HD
ATOM     87  O   UNL     1      10.530   0.721  -5.497  1.00  0.00    -0.268 OA
BRANCH  85  88
ATOM     88  C   UNL     1      10.595  -1.261  -6.752  1.00  0.00     0.093 A 
ATOM     89  C   UNL     1      10.457  -1.634  -8.078  1.00  0.00     0.027 A 
ATOM     90  S   UNL     1      11.782  -2.206  -5.952  1.00  0.00    -0.123 S 
ATOM     91  C   UNL     1      11.247  -2.782  -8.397  1.00  0.00     0.028 A 
ATOM     92  C   UNL     1      11.989  -3.187  -7.317  1.00  0.00     0.071 A 
ATOM     93  Br  UNL     1      13.118  -4.681  -7.337  1.00  0.00    -0.039 Br
ENDBRANCH  85  88
ENDBRANCH  79  84
ENDBRANCH  74  77
ENDBRANCH  72  73
ENDBRANCH   1  72
TORSDOF 12
