REMARK SMILES CC1(C)C(NC(=O)c2cc(F)c(F)cc2C(=O)NCCCNC(=O)c2ccc(-c3c4nc(c(-c5c(F)c(F)c(F)c(F)c5F)c5ccc([nH]5)c(-c5c(F)c(F)c(F)c(F)c5F)c5nc(c(-c6c(F)c(F)c(F)c(F)c6F)c6ccc3[nH]6)C=C5)C=C4)cc2)C1(C)C
REMARK SMILES IDX 20 1 19 2 18 3 16 4 17 5 15 7 8 8 9 9 10 10 14 11 11 12
REMARK SMILES IDX 12 13 13 14 6 15 5 16 7 18 4 19 1 20 2 21 3 22 88 23 89 24
REMARK SMILES IDX 90 25 21 26 22 27 23 28 24 30 25 31 26 32 87 33 27 34 86 35
REMARK SMILES IDX 28 36 29 37 30 38 80 39 31 40 85 41 79 42 81 43 32 44 84 45
REMARK SMILES IDX 78 46 77 47 33 49 65 50 45 51 64 52 46 53 49 54 63 55 82 56
REMARK SMILES IDX 47 57 48 58 62 60 83 61 50 62 34 63 35 64 43 65 36 66 37 67
REMARK SMILES IDX 41 68 44 69 38 70 39 71 42 72 40 73 66 74 67 75 75 76 68 77
REMARK SMILES IDX 69 78 73 79 76 80 70 81 71 82 74 83 72 84 51 85 52 86 60 87
REMARK SMILES IDX 53 88 54 89 58 90 61 91 55 92 56 93 59 94 57 95
REMARK H PARENT 18 6 5 17 22 29 81 48 49 59
REMARK Flexibility Score: inf
ROOT
ATOM      1  C   UNL     1      -1.977   2.946   3.486  1.00  0.00     0.042 C 
ENDROOT
BRANCH   1   2
ATOM      2  C   UNL     1      -2.846   1.947   2.738  1.00  0.00     0.118 C 
BRANCH   2   3
ATOM      3  N   UNL     1      -3.924   2.518   1.964  1.00  0.00    -0.352 N 
ATOM      4  C   UNL     1      -4.584   2.094   0.845  1.00  0.00     0.252 C 
ATOM      5  O   UNL     1      -5.518   2.814   0.475  1.00  0.00    -0.269 OA
ATOM      6  H   UNL     1      -4.246   3.381   2.311  1.00  0.00     0.163 HD
BRANCH   4   7
ATOM      7  C   UNL     1      -4.254   0.913  -0.008  1.00  0.00     0.055 A 
ATOM      8  C   UNL     1      -3.806  -0.363   0.374  1.00  0.00     0.055 A 
ATOM      9  C   UNL     1      -3.741  -1.415  -0.565  1.00  0.00     0.057 A 
ATOM     10  C   UNL     1      -4.030  -1.180  -1.899  1.00  0.00     0.159 A 
ATOM     11  C   UNL     1      -4.551   1.111  -1.378  1.00  0.00     0.057 A 
ATOM     12  F   UNL     1      -3.911  -2.178  -2.783  1.00  0.00    -0.204 F 
ATOM     13  C   UNL     1      -4.424   0.081  -2.307  1.00  0.00     0.159 A 
ATOM     14  F   UNL     1      -4.700   0.317  -3.596  1.00  0.00    -0.204 F 
BRANCH   8  15
ATOM     15  C   UNL     1      -3.423  -0.738   1.740  1.00  0.00     0.252 C 
ATOM     16  N   UNL     1      -2.091  -1.020   2.004  1.00  0.00    -0.348 N 
ATOM     17  H   UNL     1      -1.860  -1.155   2.951  1.00  0.00     0.164 HD
ATOM     18  O   UNL     1      -4.282  -0.789   2.613  1.00  0.00    -0.269 OA
BRANCH  16  19
ATOM     19  C   UNL     1      -1.003  -1.140   1.072  1.00  0.00     0.094 C 
ATOM     20  C   UNL     1       1.107  -0.171  -0.100  1.00  0.00     0.014 C 
ATOM     21  C   UNL     1       0.401  -0.576   1.183  1.00  0.00    -0.007 C 
ATOM     22  C   UNL     1       0.771   0.338   2.328  1.00  0.00     0.014 C 
ATOM     23  C   UNL     1       0.143  -2.075   1.424  1.00  0.00    -0.007 C 
ATOM     24  C   UNL     1       0.432  -3.129   0.376  1.00  0.00     0.014 C 
ATOM     25  C   UNL     1       0.293  -2.627   2.827  1.00  0.00     0.014 C 
ENDBRANCH  16  19
ENDBRANCH   8  15
ENDBRANCH   4   7
ENDBRANCH   2   3
ENDBRANCH   1   2
BRANCH   1  26
ATOM     26  C   UNL     1      -2.720   3.827   4.478  1.00  0.00     0.118 C 
BRANCH  26  27
ATOM     27  N   UNL     1      -3.223   3.123   5.650  1.00  0.00    -0.352 N 
ATOM     28  C   UNL     1      -2.699   2.876   6.897  1.00  0.00     0.251 C 
ATOM     29  H   UNL     1      -4.124   2.747   5.524  1.00  0.00     0.163 HD
ATOM     30  O   UNL     1      -3.337   2.173   7.678  1.00  0.00    -0.269 OA
BRANCH  28  31
ATOM     31  C   UNL     1      -1.366   3.377   7.314  1.00  0.00     0.039 A 
ATOM     32  C   UNL     1      -0.590   2.579   8.167  1.00  0.00     0.014 A 
ATOM     33  C   UNL     1      -0.874   4.620   6.928  1.00  0.00     0.014 A 
ATOM     34  C   UNL     1       0.695   2.988   8.544  1.00  0.00     0.010 A 
ATOM     35  C   UNL     1       0.447   4.969   7.196  1.00  0.00     0.010 A 
ATOM     36  C   UNL     1       1.249   4.162   8.014  1.00  0.00    -0.014 A 
BRANCH  36  37
ATOM     37  C   UNL     1       2.646   4.585   8.307  1.00  0.00     0.031 A 
ATOM     38  C   UNL     1       2.914   5.939   8.914  1.00  0.00     0.074 A 
ATOM     39  C   UNL     1       3.678   3.800   7.937  1.00  0.00     0.049 A 
ATOM     40  N   UNL     1       4.055   6.559   9.085  1.00  0.00    -0.248 NA
ATOM     41  C   UNL     1       1.743   6.720   9.345  1.00  0.00     0.031 C 
ATOM     42  C   UNL     1       3.560   2.495   7.285  1.00  0.00     0.029 A 
ATOM     43  N   UNL     1       5.035   3.995   8.039  1.00  0.00    -0.354 N 
ATOM     44  C   UNL     1       3.733   7.810   9.595  1.00  0.00     0.074 A 
ATOM     45  C   UNL     1       2.291   7.883   9.666  1.00  0.00     0.031 C 
ATOM     46  C   UNL     1       4.787   1.994   7.072  1.00  0.00     0.029 A 
ATOM     47  C   UNL     1       5.781   2.961   7.526  1.00  0.00     0.049 A 
ATOM     48  H   UNL     1       5.434   4.799   8.442  1.00  0.00     0.167 HD
ATOM     49  C   UNL     1       4.566   8.800   9.994  1.00  0.00     0.037 A 
ATOM     50  C   UNL     1       7.116   2.811   7.423  1.00  0.00     0.037 A 
ATOM     51  C   UNL     1       6.000   8.693  10.005  1.00  0.00     0.049 A 
ATOM     52  C   UNL     1       8.020   3.901   7.932  1.00  0.00     0.074 A 
ATOM     53  C   UNL     1       6.925   9.602  10.485  1.00  0.00     0.029 A 
ATOM     54  N   UNL     1       6.714   7.604   9.530  1.00  0.00    -0.354 N 
ATOM     55  N   UNL     1       7.701   5.057   8.460  1.00  0.00    -0.248 NA
ATOM     56  C   UNL     1       9.468   3.666   7.834  1.00  0.00     0.031 C 
ATOM     57  C   UNL     1       8.203   9.078  10.271  1.00  0.00     0.029 A 
ATOM     58  C   UNL     1       8.070   7.824   9.695  1.00  0.00     0.049 A 
ATOM     59  H   UNL     1       6.316   6.795   9.135  1.00  0.00     0.167 HD
ATOM     60  C   UNL     1       8.901   5.678   8.773  1.00  0.00     0.074 A 
ATOM     61  C   UNL     1       9.958   4.765   8.392  1.00  0.00     0.031 C 
ATOM     62  C   UNL     1       9.108   6.899   9.322  1.00  0.00     0.037 A 
BRANCH  49  63
ATOM     63  C   UNL     1       3.960  10.080  10.490  1.00  0.00     0.064 A 
ATOM     64  C   UNL     1       4.108  11.266   9.755  1.00  0.00     0.173 A 
ATOM     65  C   UNL     1       3.311  10.153  11.731  1.00  0.00     0.173 A 
ATOM     66  F   UNL     1       4.727  11.252   8.565  1.00  0.00    -0.203 F 
ATOM     67  C   UNL     1       3.641  12.480  10.252  1.00  0.00     0.198 A 
ATOM     68  C   UNL     1       2.821  11.364  12.213  1.00  0.00     0.198 A 
ATOM     69  F   UNL     1       3.136   9.045  12.467  1.00  0.00    -0.203 F 
ATOM     70  F   UNL     1       3.825  13.607   9.549  1.00  0.00    -0.200 F 
ATOM     71  C   UNL     1       2.997  12.527  11.479  1.00  0.00     0.200 A 
ATOM     72  F   UNL     1       2.179  11.403  13.388  1.00  0.00    -0.200 F 
ATOM     73  F   UNL     1       2.544  13.695  11.955  1.00  0.00    -0.200 F 
ENDBRANCH  49  63
BRANCH  50  74
ATOM     74  C   UNL     1       7.675   1.565   6.837  1.00  0.00     0.064 A 
ATOM     75  C   UNL     1       7.552   1.278   5.469  1.00  0.00     0.173 A 
ATOM     76  C   UNL     1       8.324   0.621   7.645  1.00  0.00     0.173 A 
ATOM     77  F   UNL     1       6.932   2.144   4.654  1.00  0.00    -0.203 F 
ATOM     78  C   UNL     1       8.044   0.089   4.936  1.00  0.00     0.198 A 
ATOM     79  C   UNL     1       8.840  -0.556   7.106  1.00  0.00     0.198 A 
ATOM     80  F   UNL     1       8.482   0.859   8.955  1.00  0.00    -0.203 F 
ATOM     81  F   UNL     1       7.885  -0.175   3.632  1.00  0.00    -0.200 F 
ATOM     82  C   UNL     1       8.693  -0.825   5.754  1.00  0.00     0.200 A 
ATOM     83  F   UNL     1       9.486  -1.424   7.896  1.00  0.00    -0.200 F 
ATOM     84  F   UNL     1       9.178  -1.962   5.238  1.00  0.00    -0.200 F 
ENDBRANCH  50  74
BRANCH  62  85
ATOM     85  C   UNL     1      10.524   7.324   9.565  1.00  0.00     0.064 A 
ATOM     86  C   UNL     1      11.023   7.418  10.873  1.00  0.00     0.173 A 
ATOM     87  C   UNL     1      11.354   7.731   8.511  1.00  0.00     0.173 A 
ATOM     88  F   UNL     1      10.262   7.049  11.915  1.00  0.00    -0.203 F 
ATOM     89  C   UNL     1      12.297   7.922  11.118  1.00  0.00     0.198 A 
ATOM     90  C   UNL     1      12.637   8.210   8.758  1.00  0.00     0.198 A 
ATOM     91  F   UNL     1      10.924   7.649   7.244  1.00  0.00    -0.203 F 
ATOM     92  F   UNL     1      12.739   8.039  12.378  1.00  0.00    -0.200 F 
ATOM     93  C   UNL     1      13.103   8.316  10.061  1.00  0.00     0.200 A 
ATOM     94  F   UNL     1      13.423   8.572   7.735  1.00  0.00    -0.200 F 
ATOM     95  F   UNL     1      14.330   8.799  10.297  1.00  0.00    -0.200 F 
ENDBRANCH  62  85
ENDBRANCH  36  37
ENDBRANCH  28  31
ENDBRANCH  26  27
ENDBRANCH   1  26
TORSDOF 12
