REMARK SMILES Cc1cc(C(=O)NCCCNC(=O)c2ccc(-c3c4nc(c(-c5c(F)c(F)c(F)c(F)c5F)c5ccc([nH]5)c(-c5c(F)c(F)c(F)c(F)c5F)c5nc(c(-c6c(F)c(F)c(F)c(F)c6F)c6ccc3[nH]6)C=C5)C=C4)cc2)c(C#Cc2ccccc2)s1
REMARK SMILES IDX 9 1 8 2 7 3 5 4 6 5 4 7 1 8 2 9 3 10 86 11 77 12 78 13 79 14
REMARK SMILES IDX 80 15 81 16 85 17 82 18 84 19 83 20 10 21 11 22 12 23 13 25
REMARK SMILES IDX 14 26 15 27 76 28 16 29 75 30 17 31 18 32 19 33 69 34 20 35
REMARK SMILES IDX 74 36 68 37 70 38 21 39 73 40 67 41 66 42 22 44 54 45 34 46
REMARK SMILES IDX 53 47 35 48 38 49 52 50 71 51 36 52 37 53 51 55 72 56 39 57
REMARK SMILES IDX 23 58 24 59 32 60 25 61 26 62 30 63 33 64 27 65 28 66 31 67
REMARK SMILES IDX 29 68 55 69 56 70 64 71 57 72 58 73 62 74 65 75 59 76 60 77
REMARK SMILES IDX 63 78 61 79 40 80 41 81 49 82 42 83 43 84 47 85 50 86 44 87
REMARK SMILES IDX 45 88 48 89 46 90
REMARK H PARENT 7 6 11 24 70 43 38 54
REMARK Flexibility Score: inf
ROOT
ATOM      1  C   UNL     1       2.966  -5.370  -0.183  1.00  0.00     0.042 C 
ENDROOT
BRANCH   1   2
ATOM      2  C   UNL     1       1.449  -5.167  -0.093  1.00  0.00     0.118 C 
BRANCH   2   3
ATOM      3  N   UNL     1       0.975  -5.234   1.278  1.00  0.00    -0.352 N 
ATOM      4  C   UNL     1       0.513  -4.333   2.204  1.00  0.00     0.253 C 
ATOM      5  O   UNL     1       0.151  -4.847   3.266  1.00  0.00    -0.269 OA
ATOM      6  H   UNL     1       0.988  -6.153   1.630  1.00  0.00     0.163 HD
BRANCH   4   7
ATOM      7  C   UNL     1       0.431  -2.881   1.968  1.00  0.00     0.066 A 
ATOM      8  C   UNL     1       0.993   0.293  -0.072  1.00  0.00     0.056 C 
ATOM      9  C   UNL     1       0.648  -0.762   0.922  1.00  0.00     0.004 A 
ATOM     10  C   UNL     1       0.971  -2.102   0.880  1.00  0.00     0.030 A 
ATOM     11  S   UNL     1      -0.229  -0.387   2.324  1.00  0.00    -0.131 S 
ATOM     12  C   UNL     1      -0.195  -2.013   2.867  1.00  0.00     0.090 A 
BRANCH  12  13
ATOM     13  C   UNL     1      -0.782  -2.329   4.138  1.00  0.00    -0.050 C 
ATOM     14  C   UNL     1      -1.270  -2.528   5.214  1.00  0.00    -0.061 C 
BRANCH  14  15
ATOM     15  C   UNL     1      -1.871  -2.734   6.499  1.00  0.00     0.025 A 
ATOM     16  C   UNL     1      -1.972  -4.022   7.028  1.00  0.00     0.017 A 
ATOM     17  C   UNL     1      -2.375  -1.647   7.218  1.00  0.00     0.017 A 
ATOM     18  C   UNL     1      -2.589  -4.224   8.266  1.00  0.00     0.001 A 
ATOM     19  C   UNL     1      -2.992  -1.849   8.456  1.00  0.00     0.001 A 
ATOM     20  C   UNL     1      -3.102  -3.138   8.976  1.00  0.00     0.000 A 
ENDBRANCH  14  15
ENDBRANCH  12  13
ENDBRANCH   4   7
ENDBRANCH   2   3
ENDBRANCH   1   2
BRANCH   1  21
ATOM     21  C   UNL     1       3.399  -6.809   0.117  1.00  0.00     0.118 C 
BRANCH  21  22
ATOM     22  N   UNL     1       2.763  -7.797  -0.734  1.00  0.00    -0.352 N 
ATOM     23  C   UNL     1       3.040  -8.398  -1.925  1.00  0.00     0.251 C 
ATOM     24  H   UNL     1       1.913  -8.116  -0.352  1.00  0.00     0.163 HD
ATOM     25  O   UNL     1       2.248  -9.279  -2.273  1.00  0.00    -0.269 OA
BRANCH  23  26
ATOM     26  C   UNL     1       4.133  -8.025  -2.859  1.00  0.00     0.039 A 
ATOM     27  C   UNL     1       5.106  -7.050  -2.643  1.00  0.00     0.014 A 
ATOM     28  C   UNL     1       4.094  -8.677  -4.108  1.00  0.00     0.014 A 
ATOM     29  C   UNL     1       5.890  -6.610  -3.708  1.00  0.00     0.010 A 
ATOM     30  C   UNL     1       4.894  -8.266  -5.159  1.00  0.00     0.010 A 
ATOM     31  C   UNL     1       5.720  -7.168  -4.981  1.00  0.00    -0.014 A 
BRANCH  31  32
ATOM     32  C   UNL     1       6.518  -6.676  -6.098  1.00  0.00     0.031 A 
ATOM     33  C   UNL     1       7.981  -6.834  -5.882  1.00  0.00     0.074 A 
ATOM     34  C   UNL     1       5.975  -6.216  -7.248  1.00  0.00     0.049 A 
ATOM     35  N   UNL     1       8.855  -5.890  -5.771  1.00  0.00    -0.248 NA
ATOM     36  C   UNL     1       8.511  -8.173  -5.573  1.00  0.00     0.031 C 
ATOM     37  C   UNL     1       4.566  -6.182  -7.649  1.00  0.00     0.029 A 
ATOM     38  N   UNL     1       6.607  -5.729  -8.358  1.00  0.00    -0.354 N 
ATOM     39  C   UNL     1      10.081  -6.518  -5.568  1.00  0.00     0.074 A 
ATOM     40  C   UNL     1       9.789  -7.901  -5.299  1.00  0.00     0.031 C 
ATOM     41  C   UNL     1       4.473  -5.929  -8.976  1.00  0.00     0.029 A 
ATOM     42  C   UNL     1       5.797  -5.647  -9.495  1.00  0.00     0.049 A 
ATOM     43  H   UNL     1       7.554  -5.459  -8.357  1.00  0.00     0.167 HD
ATOM     44  C   UNL     1      11.245  -5.878  -5.865  1.00  0.00     0.037 A 
ATOM     45  C   UNL     1       6.223  -5.412 -10.768  1.00  0.00     0.037 A 
ATOM     46  C   UNL     1      11.040  -4.456  -5.954  1.00  0.00     0.049 A 
ATOM     47  C   UNL     1       7.544  -4.736 -10.658  1.00  0.00     0.074 A 
ATOM     48  C   UNL     1      10.636  -3.487  -5.056  1.00  0.00     0.029 A 
ATOM     49  N   UNL     1      10.860  -3.914  -7.203  1.00  0.00    -0.354 N 
ATOM     50  N   UNL     1       7.680  -3.531 -10.172  1.00  0.00    -0.248 NA
ATOM     51  C   UNL     1       8.720  -5.591 -10.571  1.00  0.00     0.031 C 
ATOM     52  C   UNL     1       9.773  -2.636  -5.803  1.00  0.00     0.029 A 
ATOM     53  C   UNL     1       9.783  -3.067  -7.130  1.00  0.00     0.049 A 
ATOM     54  H   UNL     1      11.403  -4.098  -8.003  1.00  0.00     0.167 HD
ATOM     55  C   UNL     1       8.778  -3.622  -9.331  1.00  0.00     0.074 A 
ATOM     56  C   UNL     1       9.398  -4.910  -9.642  1.00  0.00     0.031 C 
ATOM     57  C   UNL     1       8.908  -2.806  -8.245  1.00  0.00     0.037 A 
BRANCH  44  58
ATOM     58  C   UNL     1      12.459  -6.549  -6.454  1.00  0.00     0.064 A 
ATOM     59  C   UNL     1      13.639  -5.799  -6.628  1.00  0.00     0.173 A 
ATOM     60  C   UNL     1      12.411  -7.780  -7.141  1.00  0.00     0.173 A 
ATOM     61  F   UNL     1      13.784  -4.605  -6.033  1.00  0.00    -0.203 F 
ATOM     62  C   UNL     1      14.653  -6.211  -7.496  1.00  0.00     0.198 A 
ATOM     63  C   UNL     1      13.446  -8.211  -7.968  1.00  0.00     0.198 A 
ATOM     64  F   UNL     1      11.323  -8.559  -7.136  1.00  0.00    -0.203 F 
ATOM     65  F   UNL     1      15.696  -5.404  -7.731  1.00  0.00    -0.200 F 
ATOM     66  C   UNL     1      14.551  -7.413  -8.172  1.00  0.00     0.200 A 
ATOM     67  F   UNL     1      13.318  -9.369  -8.632  1.00  0.00    -0.200 F 
ATOM     68  F   UNL     1      15.489  -7.780  -9.054  1.00  0.00    -0.200 F 
ENDBRANCH  44  58
BRANCH  45  69
ATOM     69  C   UNL     1       5.761  -6.054 -12.031  1.00  0.00     0.064 A 
ATOM     70  C   UNL     1       6.147  -5.570 -13.296  1.00  0.00     0.173 A 
ATOM     71  C   UNL     1       5.166  -7.332 -12.018  1.00  0.00     0.173 A 
ATOM     72  F   UNL     1       6.766  -4.386 -13.406  1.00  0.00    -0.203 F 
ATOM     73  C   UNL     1       5.967  -6.326 -14.465  1.00  0.00     0.198 A 
ATOM     74  C   UNL     1       4.988  -8.084 -13.182  1.00  0.00     0.198 A 
ATOM     75  F   UNL     1       4.832  -7.920 -10.862  1.00  0.00    -0.203 F 
ATOM     76  F   UNL     1       6.397  -5.854 -15.644  1.00  0.00    -0.200 F 
ATOM     77  C   UNL     1       5.399  -7.587 -14.404  1.00  0.00     0.200 A 
ATOM     78  F   UNL     1       4.474  -9.319 -13.101  1.00  0.00    -0.200 F 
ATOM     79  F   UNL     1       5.285  -8.338 -15.509  1.00  0.00    -0.200 F 
ENDBRANCH  45  69
BRANCH  57  80
ATOM     80  C   UNL     1       7.934  -1.673  -8.075  1.00  0.00     0.064 A 
ATOM     81  C   UNL     1       6.558  -1.848  -7.839  1.00  0.00     0.173 A 
ATOM     82  C   UNL     1       8.451  -0.379  -7.938  1.00  0.00     0.173 A 
ATOM     83  F   UNL     1       6.006  -3.067  -7.850  1.00  0.00    -0.203 F 
ATOM     84  C   UNL     1       5.740  -0.769  -7.503  1.00  0.00     0.198 A 
ATOM     85  C   UNL     1       7.639   0.689  -7.569  1.00  0.00     0.198 A 
ATOM     86  F   UNL     1       9.767  -0.165  -8.092  1.00  0.00    -0.203 F 
ATOM     87  F   UNL     1       4.433  -0.963  -7.268  1.00  0.00    -0.200 F 
ATOM     88  C   UNL     1       6.284   0.496  -7.357  1.00  0.00     0.200 A 
ATOM     89  F   UNL     1       8.182   1.898  -7.372  1.00  0.00    -0.200 F 
ATOM     90  F   UNL     1       5.510   1.523  -6.978  1.00  0.00    -0.200 F 
ENDBRANCH  57  80
ENDBRANCH  31  32
ENDBRANCH  23  26
ENDBRANCH  21  22
ENDBRANCH   1  21
TORSDOF 12
