REMARK SMILES CCN(CC(=O)NCCCNC(=O)c1ccc(-c2c3nc(c(-c4c(F)c(F)c(F)c(F)c4F)c4ccc([nH]4)c(-c4c(F)c(F)c(F)c(F)c4F)c4nc(c(-c5c(F)c(F)c(F)c(F)c5F)c5ccc2[nH]5)C=C4)C=C3)cc1)C(=O)[C@@H]1CC[NH2+][C@@H]1C
REMARK SMILES IDX 8 1 7 2 5 3 6 4 4 6 3 7 2 8 1 9 77 10 78 11 79 12 80 13
REMARK SMILES IDX 83 14 81 15 82 16 84 17 9 20 10 21 11 22 12 23 13 25 14 26
REMARK SMILES IDX 15 27 76 28 16 29 75 30 17 31 18 32 19 33 69 34 20 35 74 36
REMARK SMILES IDX 68 37 70 38 21 39 73 40 67 41 66 42 22 44 54 45 34 46 53 47
REMARK SMILES IDX 35 48 38 49 52 50 71 51 36 52 37 53 51 55 72 56 39 57 23 58
REMARK SMILES IDX 24 59 32 60 25 61 26 62 30 63 33 64 27 65 28 66 31 67 29 68
REMARK SMILES IDX 55 69 56 70 64 71 57 72 58 73 62 74 65 75 59 76 60 77 63 78
REMARK SMILES IDX 61 79 40 80 41 81 49 82 42 83 43 84 47 85 50 86 44 87 45 88
REMARK SMILES IDX 48 89 46 90
REMARK H PARENT 7 5 82 18 82 19 11 24 70 43 38 54
REMARK Flexibility Score: inf
ROOT
ATOM      1  C   UNL     1       1.014   4.670  -1.317  1.00  0.00     0.117 C 
ENDROOT
BRANCH   1   2
ATOM      2  N   UNL     1       1.731   3.495  -0.864  1.00  0.00    -0.354 N 
ATOM      3  C   UNL     1       2.946   3.017  -1.261  1.00  0.00     0.239 C 
ATOM      4  O   UNL     1       3.463   2.129  -0.579  1.00  0.00    -0.273 OA
ATOM      5  H   UNL     1       1.276   2.965  -0.171  1.00  0.00     0.163 HD
BRANCH   3   6
ATOM      6  C   UNL     1       3.701   3.634  -2.447  1.00  0.00     0.219 C 
BRANCH   6   7
ATOM      7  N   UNL     1       2.956   3.693  -3.711  1.00  0.00    -0.333 N 
BRANCH   7   8
ATOM      8  C   UNL     1       2.780   5.013  -4.328  1.00  0.00     0.116 C 
ATOM      9  C   UNL     1       3.758   5.267  -5.466  1.00  0.00     0.027 C 
ENDBRANCH   7   8
BRANCH   7  10
ATOM     10  C   UNL     1       2.524   2.584  -4.441  1.00  0.00     0.232 C 
ATOM     11  O   UNL     1       1.859   2.756  -5.465  1.00  0.00    -0.274 OA
BRANCH  10  12
ATOM     12  C   UNL     1       2.801   1.172  -3.919  1.00  0.00     0.142 C 
ATOM     13  C   UNL     1       4.259   0.732  -3.886  1.00  0.00     0.081 C 
ATOM     14  C   UNL     1       2.151   0.036  -4.729  1.00  0.00     0.192 C 
ATOM     15  C   UNL     1       4.192  -0.791  -3.861  1.00  0.00     0.261 C 
ATOM     16  N   UNL     1       2.803  -1.154  -4.149  1.00  0.00    -0.343 N 
ATOM     17  C   UNL     1       2.360   0.035  -6.249  1.00  0.00     0.076 C 
ATOM     18  H   UNL     1       2.328  -1.428  -3.290  1.00  0.00     0.346 HD
ATOM     19  H   UNL     1       2.762  -1.940  -4.798  1.00  0.00     0.346 HD
ENDBRANCH  10  12
ENDBRANCH   7  10
ENDBRANCH   6   7
ENDBRANCH   3   6
ENDBRANCH   1   2
BRANCH   1  20
ATOM     20  C   UNL     1      -0.134   4.349  -2.268  1.00  0.00     0.042 C 
BRANCH  20  21
ATOM     21  C   UNL     1      -1.285   3.574  -1.633  1.00  0.00     0.118 C 
BRANCH  21  22
ATOM     22  N   UNL     1      -1.950   4.318  -0.571  1.00  0.00    -0.352 N 
ATOM     23  C   UNL     1      -3.256   4.704  -0.430  1.00  0.00     0.251 C 
ATOM     24  H   UNL     1      -1.360   4.589   0.169  1.00  0.00     0.163 HD
ATOM     25  O   UNL     1      -3.554   5.486   0.476  1.00  0.00    -0.269 OA
BRANCH  23  26
ATOM     26  C   UNL     1      -4.314   4.218  -1.343  1.00  0.00     0.039 A 
ATOM     27  C   UNL     1      -5.330   5.103  -1.722  1.00  0.00     0.014 A 
ATOM     28  C   UNL     1      -4.357   2.891  -1.779  1.00  0.00     0.014 A 
ATOM     29  C   UNL     1      -6.351   4.677  -2.576  1.00  0.00     0.010 A 
ATOM     30  C   UNL     1      -5.337   2.484  -2.685  1.00  0.00     0.010 A 
ATOM     31  C   UNL     1      -6.347   3.370  -3.089  1.00  0.00    -0.014 A 
BRANCH  31  32
ATOM     32  C   UNL     1      -7.393   2.913  -4.040  1.00  0.00     0.031 A 
ATOM     33  C   UNL     1      -8.352   1.823  -3.646  1.00  0.00     0.074 A 
ATOM     34  C   UNL     1      -7.440   3.434  -5.281  1.00  0.00     0.049 A 
ATOM     35  N   UNL     1      -9.278   1.234  -4.362  1.00  0.00    -0.248 NA
ATOM     36  C   UNL     1      -8.241   1.308  -2.272  1.00  0.00     0.031 C 
ATOM     37  C   UNL     1      -6.542   4.468  -5.799  1.00  0.00     0.029 A 
ATOM     38  N   UNL     1      -8.269   3.155  -6.339  1.00  0.00    -0.354 N 
ATOM     39  C   UNL     1      -9.837   0.267  -3.538  1.00  0.00     0.074 A 
ATOM     40  C   UNL     1      -9.126   0.321  -2.279  1.00  0.00     0.031 C 
ATOM     41  C   UNL     1      -6.881   4.750  -7.067  1.00  0.00     0.029 A 
ATOM     42  C   UNL     1      -7.992   3.892  -7.466  1.00  0.00     0.049 A 
ATOM     43  H   UNL     1      -8.994   2.491  -6.295  1.00  0.00     0.167 HD
ATOM     44  C   UNL     1     -10.862  -0.579  -3.802  1.00  0.00     0.037 A 
ATOM     45  C   UNL     1      -8.565   3.870  -8.684  1.00  0.00     0.037 A 
ATOM     46  C   UNL     1     -11.598  -0.602  -5.039  1.00  0.00     0.049 A 
ATOM     47  C   UNL     1      -9.706   2.924  -8.945  1.00  0.00     0.074 A 
ATOM     48  C   UNL     1     -12.702  -1.368  -5.372  1.00  0.00     0.029 A 
ATOM     49  N   UNL     1     -11.303   0.177  -6.147  1.00  0.00    -0.354 N 
ATOM     50  N   UNL     1     -10.274   2.067  -8.133  1.00  0.00    -0.248 NA
ATOM     51  C   UNL     1     -10.291   2.950 -10.294  1.00  0.00     0.031 C 
ATOM     52  C   UNL     1     -13.050  -1.082  -6.696  1.00  0.00     0.029 A 
ATOM     53  C   UNL     1     -12.192  -0.105  -7.172  1.00  0.00     0.049 A 
ATOM     54  H   UNL     1     -10.571   0.834  -6.199  1.00  0.00     0.167 HD
ATOM     55  C   UNL     1     -11.302   1.479  -8.858  1.00  0.00     0.074 A 
ATOM     56  C   UNL     1     -11.287   2.084 -10.172  1.00  0.00     0.031 C 
ATOM     57  C   UNL     1     -12.180   0.523  -8.468  1.00  0.00     0.037 A 
BRANCH  44  58
ATOM     58  C   UNL     1     -11.260  -1.553  -2.732  1.00  0.00     0.064 A 
ATOM     59  C   UNL     1     -11.924  -1.138  -1.568  1.00  0.00     0.173 A 
ATOM     60  C   UNL     1     -11.028  -2.926  -2.901  1.00  0.00     0.173 A 
ATOM     61  F   UNL     1     -12.161   0.165  -1.354  1.00  0.00    -0.203 F 
ATOM     62  C   UNL     1     -12.322  -2.061  -0.604  1.00  0.00     0.198 A 
ATOM     63  C   UNL     1     -11.452  -3.848  -1.948  1.00  0.00     0.198 A 
ATOM     64  F   UNL     1     -10.403  -3.376  -4.000  1.00  0.00    -0.203 F 
ATOM     65  F   UNL     1     -12.922  -1.638   0.518  1.00  0.00    -0.200 F 
ATOM     66  C   UNL     1     -12.094  -3.414  -0.798  1.00  0.00     0.200 A 
ATOM     67  F   UNL     1     -11.242  -5.158  -2.144  1.00  0.00    -0.200 F 
ATOM     68  F   UNL     1     -12.490  -4.302   0.125  1.00  0.00    -0.200 F 
ENDBRANCH  44  58
BRANCH  45  69
ATOM     69  C   UNL     1      -8.088   4.789  -9.751  1.00  0.00     0.064 A 
ATOM     70  C   UNL     1      -8.894   5.846 -10.197  1.00  0.00     0.173 A 
ATOM     71  C   UNL     1      -6.839   4.617 -10.363  1.00  0.00     0.173 A 
ATOM     72  F   UNL     1     -10.107   6.036  -9.658  1.00  0.00    -0.203 F 
ATOM     73  C   UNL     1      -8.480   6.680 -11.233  1.00  0.00     0.198 A 
ATOM     74  C   UNL     1      -6.413   5.469 -11.380  1.00  0.00     0.198 A 
ATOM     75  F   UNL     1      -6.029   3.622  -9.970  1.00  0.00    -0.203 F 
ATOM     76  F   UNL     1      -9.292   7.648 -11.676  1.00  0.00    -0.200 F 
ATOM     77  C   UNL     1      -7.238   6.493 -11.821  1.00  0.00     0.200 A 
ATOM     78  F   UNL     1      -5.208   5.293 -11.938  1.00  0.00    -0.200 F 
ATOM     79  F   UNL     1      -6.841   7.293 -12.820  1.00  0.00    -0.200 F 
ENDBRANCH  45  69
BRANCH  57  80
ATOM     80  C   UNL     1     -13.231   0.111  -9.455  1.00  0.00     0.064 A 
ATOM     81  C   UNL     1     -12.923  -0.669 -10.579  1.00  0.00     0.173 A 
ATOM     82  C   UNL     1     -14.572   0.471  -9.251  1.00  0.00     0.173 A 
ATOM     83  F   UNL     1     -11.653  -1.025 -10.825  1.00  0.00    -0.203 F 
ATOM     84  C   UNL     1     -13.916  -1.051 -11.477  1.00  0.00     0.198 A 
ATOM     85  C   UNL     1     -15.566   0.063 -10.136  1.00  0.00     0.198 A 
ATOM     86  F   UNL     1     -14.920   1.211  -8.188  1.00  0.00    -0.203 F 
ATOM     87  F   UNL     1     -13.592  -1.756 -12.570  1.00  0.00    -0.200 F 
ATOM     88  C   UNL     1     -15.236  -0.691 -11.252  1.00  0.00     0.200 A 
ATOM     89  F   UNL     1     -16.843   0.401  -9.909  1.00  0.00    -0.200 F 
ATOM     90  F   UNL     1     -16.191  -1.065 -12.114  1.00  0.00    -0.200 F 
ENDBRANCH  57  80
ENDBRANCH  31  32
ENDBRANCH  23  26
ENDBRANCH  21  22
ENDBRANCH  20  21
ENDBRANCH   1  20
TORSDOF 14
