REMARK SMILES CO[C@@H]1C[C@H](C(=O)NCCCNC(=O)c2ccc(-c3c4nc(c(-c5c(F)c(F)c(F)c(F)c5F)c5ccc([nH]5)c(-c5c(F)c(F)c(F)c(F)c5F)c5nc(c(-c6c(F)c(F)c(F)c(F)c6F)c6ccc3[nH]6)C=C5)C=C4)cc2)N(C(=O)[C@H](CC(C)C)NC(N)=O)C1
REMARK SMILES IDX 9 1 8 2 6 3 7 4 5 6 3 7 4 8 90 9 78 10 2 11 1 12 79 13 80 14
REMARK SMILES IDX 81 15 86 16 87 17 88 19 89 20 82 23 83 24 84 25 85 26 10 27
REMARK SMILES IDX 11 28 12 29 13 30 14 32 15 33 16 34 77 35 17 36 76 37 18 38
REMARK SMILES IDX 19 39 20 40 70 41 21 42 75 43 69 44 71 45 22 46 74 47 68 48
REMARK SMILES IDX 67 49 23 51 55 52 35 53 54 54 36 55 39 56 53 57 72 58 37 59
REMARK SMILES IDX 38 60 52 62 73 63 40 64 24 65 25 66 33 67 26 68 27 69 31 70
REMARK SMILES IDX 34 71 28 72 29 73 32 74 30 75 56 76 57 77 65 78 58 79 59 80
REMARK SMILES IDX 63 81 66 82 60 83 61 84 64 85 62 86 41 87 42 88 50 89 43 90
REMARK SMILES IDX 44 91 48 92 51 93 45 94 46 95 49 96 47 97
REMARK H PARENT 8 5 86 18 88 21 88 22 12 31 71 50 39 61
REMARK Flexibility Score: inf
ROOT
ATOM      1  C   UNL     1       1.267   0.507  -1.982  1.00  0.00     0.117 C 
ENDROOT
BRANCH   1   2
ATOM      2  N   UNL     1       0.660  -0.361  -0.975  1.00  0.00    -0.354 N 
ATOM      3  C   UNL     1       0.258  -1.659  -0.927  1.00  0.00     0.242 C 
ATOM      4  O   UNL     1      -0.417  -1.958   0.071  1.00  0.00    -0.273 OA
ATOM      5  H   UNL     1       0.503   0.108  -0.124  1.00  0.00     0.163 HD
BRANCH   3   6
ATOM      6  C   UNL     1       0.523  -2.769  -1.991  1.00  0.00     0.177 C 
ATOM      7  C   UNL     1      -0.569  -2.177  -4.015  1.00  0.00     0.139 C 
ATOM      8  C   UNL     1      -0.705  -3.108  -2.823  1.00  0.00     0.069 C 
ATOM      9  C   UNL     1       0.965  -2.174  -4.254  1.00  0.00     0.152 C 
ATOM     10  N   UNL     1       1.573  -2.546  -2.964  1.00  0.00    -0.326 N 
BRANCH   7  11
ATOM     11  O   UNL     1      -1.041  -0.859  -3.739  1.00  0.00    -0.380 OA
ATOM     12  C   UNL     1      -2.342  -0.793  -3.156  1.00  0.00     0.195 C 
ENDBRANCH   7  11
BRANCH  10  13
ATOM     13  C   UNL     1       2.941  -2.715  -2.815  1.00  0.00     0.246 C 
ATOM     14  O   UNL     1       3.702  -2.191  -3.642  1.00  0.00    -0.272 OA
BRANCH  13  15
ATOM     15  C   UNL     1       3.554  -3.708  -1.735  1.00  0.00     0.173 C 
BRANCH  15  16
ATOM     16  N   UNL     1       4.981  -3.444  -1.585  1.00  0.00    -0.327 N 
ATOM     17  C   UNL     1       5.867  -4.440  -1.312  1.00  0.00     0.312 C 
ATOM     18  H   UNL     1       5.311  -2.521  -1.684  1.00  0.00     0.166 HD
ATOM     19  N   UNL     1       7.104  -3.985  -1.015  1.00  0.00    -0.352 N 
ATOM     20  O   UNL     1       5.597  -5.631  -1.267  1.00  0.00    -0.249 OA
ATOM     21  H   UNL     1       7.298  -3.021  -1.059  1.00  0.00     0.161 HD
ATOM     22  H   UNL     1       7.812  -4.618  -0.755  1.00  0.00     0.161 HD
ENDBRANCH  15  16
BRANCH  15  23
ATOM     23  C   UNL     1       2.837  -3.799  -0.379  1.00  0.00     0.038 C 
BRANCH  23  24
ATOM     24  C   UNL     1       3.560  -4.000   0.962  1.00  0.00    -0.015 C 
ATOM     25  C   UNL     1       4.199  -2.698   1.449  1.00  0.00     0.007 C 
ATOM     26  C   UNL     1       2.509  -4.452   1.993  1.00  0.00     0.007 C 
ENDBRANCH  23  24
ENDBRANCH  15  23
ENDBRANCH  13  15
ENDBRANCH  10  13
ENDBRANCH   3   6
ENDBRANCH   1   2
BRANCH   1  27
ATOM     27  C   UNL     1       0.319   1.627  -2.437  1.00  0.00     0.042 C 
BRANCH  27  28
ATOM     28  C   UNL     1      -0.018   2.666  -1.370  1.00  0.00     0.118 C 
BRANCH  28  29
ATOM     29  N   UNL     1       0.820   3.847  -1.474  1.00  0.00    -0.352 N 
ATOM     30  C   UNL     1       0.520   5.129  -1.867  1.00  0.00     0.251 C 
ATOM     31  H   UNL     1       1.761   3.705  -1.221  1.00  0.00     0.163 HD
ATOM     32  O   UNL     1       1.447   5.899  -2.111  1.00  0.00    -0.269 OA
BRANCH  30  33
ATOM     33  C   UNL     1      -0.878   5.620  -2.004  1.00  0.00     0.039 A 
ATOM     34  C   UNL     1      -1.142   6.581  -2.989  1.00  0.00     0.014 A 
ATOM     35  C   UNL     1      -1.901   5.256  -1.124  1.00  0.00     0.014 A 
ATOM     36  C   UNL     1      -2.413   7.159  -3.095  1.00  0.00     0.010 A 
ATOM     37  C   UNL     1      -3.192   5.778  -1.279  1.00  0.00     0.010 A 
ATOM     38  C   UNL     1      -3.457   6.758  -2.247  1.00  0.00    -0.014 A 
BRANCH  38  39
ATOM     39  C   UNL     1      -4.799   7.402  -2.342  1.00  0.00     0.031 A 
ATOM     40  C   UNL     1      -5.336   8.231  -1.202  1.00  0.00     0.074 A 
ATOM     41  C   UNL     1      -5.542   7.249  -3.457  1.00  0.00     0.049 A 
ATOM     42  N   UNL     1      -6.471   8.883  -1.110  1.00  0.00    -0.248 NA
ATOM     43  C   UNL     1      -4.499   8.325   0.004  1.00  0.00     0.031 C 
ATOM     44  C   UNL     1      -5.170   6.434  -4.614  1.00  0.00     0.029 A 
ATOM     45  N   UNL     1      -6.763   7.776  -3.801  1.00  0.00    -0.354 N 
ATOM     46  C   UNL     1      -6.483   9.454   0.157  1.00  0.00     0.074 A 
ATOM     47  C   UNL     1      -5.271   9.026   0.822  1.00  0.00     0.031 C 
ATOM     48  C   UNL     1      -6.127   6.538  -5.551  1.00  0.00     0.029 A 
ATOM     49  C   UNL     1      -7.190   7.408  -5.054  1.00  0.00     0.049 A 
ATOM     50  H   UNL     1      -7.284   8.363  -3.206  1.00  0.00     0.167 HD
ATOM     51  C   UNL     1      -7.401  10.285   0.708  1.00  0.00     0.037 A 
ATOM     52  C   UNL     1      -8.307   7.739  -5.731  1.00  0.00     0.037 A 
ATOM     53  C   UNL     1      -8.596  10.737   0.044  1.00  0.00     0.049 A 
ATOM     54  C   UNL     1      -9.294   8.689  -5.107  1.00  0.00     0.074 A 
ATOM     55  C   UNL     1      -9.574  11.599   0.512  1.00  0.00     0.029 A 
ATOM     56  N   UNL     1      -8.972  10.369  -1.239  1.00  0.00    -0.354 N 
ATOM     57  N   UNL     1      -9.263   9.262  -3.929  1.00  0.00    -0.248 NA
ATOM     58  C   UNL     1     -10.465   9.052  -5.918  1.00  0.00     0.031 C 
ATOM     59  C   UNL     1     -10.555  11.732  -0.477  1.00  0.00     0.029 A 
ATOM     60  C   UNL     1     -10.167  10.985  -1.577  1.00  0.00     0.049 A 
ATOM     61  H   UNL     1      -8.465   9.760  -1.823  1.00  0.00     0.167 HD
ATOM     62  C   UNL     1     -10.391  10.069  -3.867  1.00  0.00     0.074 A 
ATOM     63  C   UNL     1     -11.072   9.934  -5.137  1.00  0.00     0.031 C 
ATOM     64  C   UNL     1     -10.830  10.847  -2.847  1.00  0.00     0.037 A 
BRANCH  51  65
ATOM     65  C   UNL     1      -7.140  10.784   2.101  1.00  0.00     0.064 A 
ATOM     66  C   UNL     1      -6.129  11.722   2.362  1.00  0.00     0.173 A 
ATOM     67  C   UNL     1      -7.940  10.367   3.176  1.00  0.00     0.173 A 
ATOM     68  F   UNL     1      -5.329  12.145   1.372  1.00  0.00    -0.203 F 
ATOM     69  C   UNL     1      -5.914  12.206   3.650  1.00  0.00     0.198 A 
ATOM     70  C   UNL     1      -7.740  10.875   4.458  1.00  0.00     0.198 A 
ATOM     71  F   UNL     1      -8.926   9.479   2.981  1.00  0.00    -0.203 F 
ATOM     72  F   UNL     1      -4.915  13.069   3.882  1.00  0.00    -0.200 F 
ATOM     73  C   UNL     1      -6.724  11.788   4.695  1.00  0.00     0.200 A 
ATOM     74  F   UNL     1      -8.533  10.481   5.464  1.00  0.00    -0.200 F 
ATOM     75  F   UNL     1      -6.524  12.264   5.932  1.00  0.00    -0.200 F 
ENDBRANCH  51  65
BRANCH  52  76
ATOM     76  C   UNL     1      -8.544   7.194  -7.094  1.00  0.00     0.064 A 
ATOM     77  C   UNL     1      -8.502   8.025  -8.222  1.00  0.00     0.173 A 
ATOM     78  C   UNL     1      -8.845   5.839  -7.293  1.00  0.00     0.173 A 
ATOM     79  F   UNL     1      -8.241   9.333  -8.081  1.00  0.00    -0.203 F 
ATOM     80  C   UNL     1      -8.784   7.529  -9.493  1.00  0.00     0.198 A 
ATOM     81  C   UNL     1      -9.097   5.337  -8.568  1.00  0.00     0.198 A 
ATOM     82  F   UNL     1      -8.892   5.000  -6.247  1.00  0.00    -0.203 F 
ATOM     83  F   UNL     1      -8.796   8.358 -10.546  1.00  0.00    -0.200 F 
ATOM     84  C   UNL     1      -9.077   6.185  -9.666  1.00  0.00     0.200 A 
ATOM     85  F   UNL     1      -9.366   4.035  -8.733  1.00  0.00    -0.200 F 
ATOM     86  F   UNL     1      -9.352   5.708 -10.888  1.00  0.00    -0.200 F 
ENDBRANCH  52  76
BRANCH  64  87
ATOM     87  C   UNL     1     -12.088  11.631  -3.079  1.00  0.00     0.064 A 
ATOM     88  C   UNL     1     -13.341  11.005  -3.156  1.00  0.00     0.173 A 
ATOM     89  C   UNL     1     -12.041  13.026  -3.222  1.00  0.00     0.173 A 
ATOM     90  F   UNL     1     -13.438   9.672  -3.040  1.00  0.00    -0.203 F 
ATOM     91  C   UNL     1     -14.496  11.742  -3.409  1.00  0.00     0.198 A 
ATOM     92  C   UNL     1     -13.201  13.763  -3.444  1.00  0.00     0.198 A 
ATOM     93  F   UNL     1     -10.869  13.675  -3.148  1.00  0.00    -0.203 F 
ATOM     94  F   UNL     1     -15.673  11.114  -3.540  1.00  0.00    -0.200 F 
ATOM     95  C   UNL     1     -14.425  13.119  -3.549  1.00  0.00     0.200 A 
ATOM     96  F   UNL     1     -13.133  15.096  -3.568  1.00  0.00    -0.200 F 
ATOM     97  F   UNL     1     -15.536  13.826  -3.797  1.00  0.00    -0.200 F 
ENDBRANCH  64  87
ENDBRANCH  38  39
ENDBRANCH  30  33
ENDBRANCH  28  29
ENDBRANCH  27  28
ENDBRANCH   1  27
TORSDOF 16
