REMARK SMILES Cc1cccc(-c2cc(C[C@]3(C(=O)NCCCNC(=O)c4ccc(-c5c6nc(c(-c7c(F)c(F)c(F)c(F)c7F)c7ccc([nH]7)c(-c7c(F)c(F)c(F)c(F)c7F)c7nc(c(-c8c(F)c(F)c(F)c(F)c8F)c8ccc5[nH]8)C=C7)C=C6)cc4)CCCN(C(=O)C(C)C)C3)on2)c1
REMARK SMILES IDX 15 1 14 2 12 3 13 4 11 6 84 7 93 8 85 9 87 10 86 11 10 12
REMARK SMILES IDX 9 13 7 14 8 15 95 16 94 17 6 18 1 19 2 20 3 21 96 22 4 23
REMARK SMILES IDX 5 24 88 25 89 26 90 27 91 28 92 29 16 30 17 31 18 32 19 33
REMARK SMILES IDX 20 35 21 36 22 37 83 38 23 39 82 40 24 41 25 42 26 43 76 44
REMARK SMILES IDX 27 45 81 46 75 47 77 48 28 49 80 50 74 51 73 52 29 54 61 55
REMARK SMILES IDX 41 56 60 57 42 58 45 59 59 60 78 61 43 62 44 63 58 65 79 66
REMARK SMILES IDX 46 67 30 68 31 69 39 70 32 71 33 72 37 73 40 74 34 75 35 76
REMARK SMILES IDX 38 77 36 78 62 79 63 80 71 81 64 82 65 83 69 84 72 85 66 86
REMARK SMILES IDX 67 87 70 88 68 89 47 90 48 91 56 92 49 93 50 94 54 95 57 96
REMARK SMILES IDX 51 97 52 98 55 99 53 100
REMARK H PARENT 14 5 18 34 77 53 45 64
REMARK Flexibility Score: inf
ROOT
ATOM      1  C   UNL     1      -6.803   6.452  -3.066  1.00  0.00     0.117 C 
ENDROOT
BRANCH   1   2
ATOM      2  N   UNL     1      -5.582   7.237  -2.893  1.00  0.00    -0.355 N 
ATOM      3  C   UNL     1      -4.346   6.983  -2.363  1.00  0.00     0.228 C 
ATOM      4  O   UNL     1      -3.527   7.899  -2.491  1.00  0.00    -0.274 OA
ATOM      5  H   UNL     1      -5.668   8.156  -3.234  1.00  0.00     0.163 HD
BRANCH   3   6
ATOM      6  C   UNL     1      -3.978   5.686  -1.588  1.00  0.00     0.074 C 
ATOM      7  C   UNL     1      -4.803   5.697  -0.267  1.00  0.00     0.021 C 
ATOM      8  C   UNL     1      -4.174   4.465  -2.522  1.00  0.00     0.136 C 
ATOM      9  C   UNL     1      -5.347   4.356   0.209  1.00  0.00     0.023 C 
ATOM     10  N   UNL     1      -4.693   3.271  -1.848  1.00  0.00    -0.341 N 
ATOM     11  C   UNL     1      -5.812   3.505  -0.953  1.00  0.00     0.119 C 
BRANCH   6  12
ATOM     12  C   UNL     1      -2.449   5.785  -1.226  1.00  0.00     0.097 C 
BRANCH  12  13
ATOM     13  C   UNL     1      -1.856   4.571  -0.589  1.00  0.00     0.138 A 
ATOM     14  C   UNL     1      -0.886   2.693   0.075  1.00  0.00     0.114 A 
ATOM     15  C   UNL     1      -1.124   3.506  -1.061  1.00  0.00     0.077 A 
ATOM     16  N   UNL     1      -1.424   3.249   1.171  1.00  0.00    -0.080 NA
ATOM     17  O   UNL     1      -2.007   4.434   0.755  1.00  0.00    -0.361 OA
BRANCH  14  18
ATOM     18  C   UNL     1      -0.201   1.408   0.115  1.00  0.00     0.004 A 
ATOM     19  C   UNL     1       3.327  -0.019  -0.126  1.00  0.00     0.044 C 
ATOM     20  C   UNL     1       1.836   0.083  -0.009  1.00  0.00    -0.050 A 
ATOM     21  C   UNL     1       1.075  -1.088   0.114  1.00  0.00     0.003 A 
ATOM     22  C   UNL     1       1.189   1.330  -0.023  1.00  0.00     0.014 A 
ATOM     23  C   UNL     1      -0.306  -1.016   0.255  1.00  0.00     0.001 A 
ATOM     24  C   UNL     1      -0.935   0.228   0.269  1.00  0.00     0.010 A 
ENDBRANCH  14  18
ENDBRANCH  12  13
ENDBRANCH   6  12
BRANCH  10  25
ATOM     25  C   UNL     1      -4.098   2.050  -2.115  1.00  0.00     0.225 C 
ATOM     26  O   UNL     1      -3.256   1.946  -3.016  1.00  0.00    -0.275 OA
BRANCH  25  27
ATOM     27  C   UNL     1      -4.482   0.782  -1.343  1.00  0.00     0.072 C 
ATOM     28  C   UNL     1      -4.527   0.898   0.178  1.00  0.00     0.018 C 
ATOM     29  C   UNL     1      -5.731   0.130  -1.919  1.00  0.00     0.018 C 
ENDBRANCH  25  27
ENDBRANCH  10  25
ENDBRANCH   3   6
ENDBRANCH   1   2
BRANCH   1  30
ATOM     30  C   UNL     1      -7.850   6.693  -1.986  1.00  0.00     0.042 C 
BRANCH  30  31
ATOM     31  C   UNL     1      -8.900   7.715  -2.380  1.00  0.00     0.118 C 
BRANCH  31  32
ATOM     32  N   UNL     1     -10.091   7.156  -3.012  1.00  0.00    -0.352 N 
ATOM     33  C   UNL     1     -11.213   7.822  -3.499  1.00  0.00     0.251 C 
ATOM     34  H   UNL     1     -10.104   6.176  -3.106  1.00  0.00     0.163 HD
ATOM     35  O   UNL     1     -12.131   7.213  -3.999  1.00  0.00    -0.269 OA
BRANCH  33  36
ATOM     36  C   UNL     1     -11.193   9.307  -3.508  1.00  0.00     0.039 A 
ATOM     37  C   UNL     1     -11.429   9.962  -4.721  1.00  0.00     0.014 A 
ATOM     38  C   UNL     1     -10.687  10.002  -2.417  1.00  0.00     0.014 A 
ATOM     39  C   UNL     1     -10.903  11.238  -4.912  1.00  0.00     0.010 A 
ATOM     40  C   UNL     1     -10.040  11.196  -2.650  1.00  0.00     0.010 A 
ATOM     41  C   UNL     1     -10.097  11.788  -3.917  1.00  0.00    -0.014 A 
BRANCH  41  42
ATOM     42  C   UNL     1      -9.194  12.912  -4.138  1.00  0.00     0.031 A 
ATOM     43  C   UNL     1      -9.432  14.207  -3.462  1.00  0.00     0.074 A 
ATOM     44  C   UNL     1      -8.064  12.727  -4.859  1.00  0.00     0.049 A 
ATOM     45  N   UNL     1      -8.938  15.332  -3.855  1.00  0.00    -0.248 NA
ATOM     46  C   UNL     1     -10.284  14.340  -2.288  1.00  0.00     0.031 C 
ATOM     47  C   UNL     1      -6.900  13.610  -4.913  1.00  0.00     0.029 A 
ATOM     48  N   UNL     1      -7.812  11.760  -5.849  1.00  0.00    -0.354 N 
ATOM     49  C   UNL     1      -9.159  16.262  -2.864  1.00  0.00     0.074 A 
ATOM     50  C   UNL     1     -10.049  15.607  -1.935  1.00  0.00     0.031 C 
ATOM     51  C   UNL     1      -6.216  13.358  -6.040  1.00  0.00     0.029 A 
ATOM     52  C   UNL     1      -6.997  12.408  -6.809  1.00  0.00     0.049 A 
ATOM     53  H   UNL     1      -8.133  10.830  -5.870  1.00  0.00     0.167 HD
ATOM     54  C   UNL     1      -8.456  17.432  -2.883  1.00  0.00     0.037 A 
ATOM     55  C   UNL     1      -7.413  12.602  -8.093  1.00  0.00     0.037 A 
ATOM     56  C   UNL     1      -7.620  17.523  -4.078  1.00  0.00     0.049 A 
ATOM     57  C   UNL     1      -7.445  14.050  -8.516  1.00  0.00     0.074 A 
ATOM     58  C   UNL     1      -6.273  17.284  -4.302  1.00  0.00     0.029 A 
ATOM     59  N   UNL     1      -8.218  17.606  -5.331  1.00  0.00    -0.354 N 
ATOM     60  N   UNL     1      -7.481  15.049  -7.678  1.00  0.00    -0.248 NA
ATOM     61  C   UNL     1      -7.476  14.487  -9.909  1.00  0.00     0.031 C 
ATOM     62  C   UNL     1      -6.067  17.195  -5.699  1.00  0.00     0.029 A 
ATOM     63  C   UNL     1      -7.285  17.390  -6.327  1.00  0.00     0.049 A 
ATOM     64  H   UNL     1      -9.172  17.792  -5.487  1.00  0.00     0.167 HD
ATOM     65  C   UNL     1      -7.562  16.227  -8.375  1.00  0.00     0.074 A 
ATOM     66  C   UNL     1      -7.535  15.823  -9.767  1.00  0.00     0.031 C 
ATOM     67  C   UNL     1      -7.657  17.430  -7.733  1.00  0.00     0.037 A 
BRANCH  54  68
ATOM     68  C   UNL     1      -8.299  18.350  -1.686  1.00  0.00     0.064 A 
ATOM     69  C   UNL     1      -7.131  19.130  -1.518  1.00  0.00     0.173 A 
ATOM     70  C   UNL     1      -9.229  18.466  -0.637  1.00  0.00     0.173 A 
ATOM     71  F   UNL     1      -6.209  19.231  -2.483  1.00  0.00    -0.203 F 
ATOM     72  C   UNL     1      -6.862  19.843  -0.346  1.00  0.00     0.198 A 
ATOM     73  C   UNL     1      -8.937  19.132   0.559  1.00  0.00     0.198 A 
ATOM     74  F   UNL     1     -10.476  17.997  -0.758  1.00  0.00    -0.203 F 
ATOM     75  F   UNL     1      -5.728  20.552  -0.245  1.00  0.00    -0.200 F 
ATOM     76  C   UNL     1      -7.745  19.808   0.711  1.00  0.00     0.200 A 
ATOM     77  F   UNL     1      -9.826  19.114   1.563  1.00  0.00    -0.200 F 
ATOM     78  F   UNL     1      -7.467  20.450   1.853  1.00  0.00    -0.200 F 
ENDBRANCH  54  68
BRANCH  55  79
ATOM     79  C   UNL     1      -8.346  11.551  -8.572  1.00  0.00     0.064 A 
ATOM     80  C   UNL     1      -7.855  10.237  -8.696  1.00  0.00     0.173 A 
ATOM     81  C   UNL     1      -9.733  11.723  -8.510  1.00  0.00     0.173 A 
ATOM     82  F   UNL     1      -6.531  10.020  -8.756  1.00  0.00    -0.203 F 
ATOM     83  C   UNL     1      -8.707   9.138  -8.631  1.00  0.00     0.198 A 
ATOM     84  C   UNL     1     -10.585  10.617  -8.458  1.00  0.00     0.198 A 
ATOM     85  F   UNL     1     -10.259  12.948  -8.367  1.00  0.00    -0.203 F 
ATOM     86  F   UNL     1      -8.199   7.897  -8.628  1.00  0.00    -0.200 F 
ATOM     87  C   UNL     1     -10.070   9.329  -8.481  1.00  0.00     0.200 A 
ATOM     88  F   UNL     1     -11.902  10.799  -8.278  1.00  0.00    -0.200 F 
ATOM     89  F   UNL     1     -10.881   8.276  -8.309  1.00  0.00    -0.200 F 
ENDBRANCH  55  79
BRANCH  67  90
ATOM     90  C   UNL     1      -8.002  18.765  -8.356  1.00  0.00     0.064 A 
ATOM     91  C   UNL     1      -8.736  18.916  -9.545  1.00  0.00     0.173 A 
ATOM     92  C   UNL     1      -7.715  19.972  -7.669  1.00  0.00     0.173 A 
ATOM     93  F   UNL     1      -9.184  17.857 -10.229  1.00  0.00    -0.203 F 
ATOM     94  C   UNL     1      -9.093  20.174 -10.042  1.00  0.00     0.198 A 
ATOM     95  C   UNL     1      -8.126  21.220  -8.136  1.00  0.00     0.198 A 
ATOM     96  F   UNL     1      -7.051  19.978  -6.504  1.00  0.00    -0.203 F 
ATOM     97  F   UNL     1      -9.755  20.262 -11.204  1.00  0.00    -0.200 F 
ATOM     98  C   UNL     1      -8.800  21.323  -9.333  1.00  0.00     0.200 A 
ATOM     99  F   UNL     1      -7.882  22.317  -7.406  1.00  0.00    -0.200 F 
ATOM    100  F   UNL     1      -9.187  22.521  -9.789  1.00  0.00    -0.200 F 
ENDBRANCH  67  90
ENDBRANCH  41  42
ENDBRANCH  33  36
ENDBRANCH  31  32
ENDBRANCH  30  31
ENDBRANCH   1  30
TORSDOF 15
