REMARK SMILES Cc1cccc(-c2ccccc2O)c1C(=O)NCCCNC(=O)c1ccc(-c2c3nc(c(-c4c(F)c(F)c(F)c(F)c4F)c4ccc([nH]4)c(-c4c(F)c(F)c(F)c(F)c4F)c4nc(c(-c5c(F)c(F)c(F)c(F)c5F)c5ccc2[nH]5)C=C4)C=C3)cc1
REMARK SMILES IDX 19 1 18 2 17 3 15 4 16 5 14 7 1 8 2 9 3 10 4 11 6 12 5 13
REMARK SMILES IDX 7 14 8 15 12 16 9 17 11 18 10 19 13 20 20 22 21 23 22 24
REMARK SMILES IDX 23 26 24 27 25 28 86 29 26 30 85 31 27 32 28 33 29 34 79 35
REMARK SMILES IDX 30 36 84 37 78 38 80 39 31 40 83 41 77 42 76 43 32 45 64 46
REMARK SMILES IDX 44 47 63 48 45 49 48 50 62 51 81 52 46 53 47 54 61 56 82 57
REMARK SMILES IDX 49 58 33 59 34 60 42 61 35 62 36 63 40 64 43 65 37 66 38 67
REMARK SMILES IDX 41 68 39 69 65 70 66 71 74 72 67 73 68 74 72 75 75 76 69 77
REMARK SMILES IDX 70 78 73 79 71 80 50 81 51 82 59 83 52 84 53 85 57 86 60 87
REMARK SMILES IDX 54 88 55 89 58 90 56 91
REMARK H PARENT 17 6 13 21 21 25 80 44 48 55
REMARK Flexibility Score: inf
ROOT
ATOM      1  C   UNL     1       4.154   0.492  -0.806  1.00  0.00     0.042 C 
ENDROOT
BRANCH   1   2
ATOM      2  C   UNL     1       3.443   1.025   0.446  1.00  0.00     0.118 C 
BRANCH   2   3
ATOM      3  N   UNL     1       2.395   1.968   0.082  1.00  0.00    -0.352 N 
ATOM      4  C   UNL     1       1.055   1.958  -0.228  1.00  0.00     0.252 C 
ATOM      5  O   UNL     1       0.691   3.077  -0.611  1.00  0.00    -0.269 OA
ATOM      6  H   UNL     1       2.752   2.884   0.047  1.00  0.00     0.163 HD
BRANCH   4   7
ATOM      7  C   UNL     1       0.046   0.816  -0.119  1.00  0.00     0.050 A 
ATOM      8  C   UNL     1       1.596  -1.156  -0.816  1.00  0.00     0.045 C 
ATOM      9  C   UNL     1       0.341  -0.571  -0.254  1.00  0.00    -0.038 A 
ATOM     10  C   UNL     1      -0.638  -1.558   0.018  1.00  0.00     0.004 A 
ATOM     11  C   UNL     1      -1.946  -1.222   0.284  1.00  0.00     0.001 A 
ATOM     12  C   UNL     1      -1.341   1.152   0.077  1.00  0.00    -0.002 A 
ATOM     13  C   UNL     1      -2.296   0.114   0.270  1.00  0.00     0.010 A 
BRANCH  12  14
ATOM     14  C   UNL     1      -1.947   2.511   0.052  1.00  0.00     0.024 A 
ATOM     15  C   UNL     1      -2.622   2.999   1.189  1.00  0.00     0.012 A 
ATOM     16  C   UNL     1      -2.023   3.299  -1.111  1.00  0.00     0.123 A 
ATOM     17  C   UNL     1      -3.308   4.218   1.163  1.00  0.00     0.001 A 
ATOM     18  C   UNL     1      -2.678   4.529  -1.138  1.00  0.00     0.047 A 
ATOM     19  C   UNL     1      -3.325   4.989   0.003  1.00  0.00     0.004 A 
BRANCH  16  20
ATOM     20  O   UNL     1      -1.402   2.917  -2.271  1.00  0.00    -0.507 OA
ATOM     21  H   UNL     1      -0.946   2.100  -2.311  1.00  0.00     0.293 HD
ENDBRANCH  16  20
ENDBRANCH  12  14
ENDBRANCH   4   7
ENDBRANCH   2   3
ENDBRANCH   1   2
BRANCH   1  22
ATOM     22  C   UNL     1       5.458   1.176  -1.181  1.00  0.00     0.118 C 
BRANCH  22  23
ATOM     23  N   UNL     1       6.634   0.315  -1.047  1.00  0.00    -0.352 N 
ATOM     24  C   UNL     1       7.931   0.563  -1.478  1.00  0.00     0.251 C 
ATOM     25  H   UNL     1       6.487  -0.547  -0.595  1.00  0.00     0.163 HD
ATOM     26  O   UNL     1       8.839  -0.213  -1.264  1.00  0.00    -0.269 OA
BRANCH  24  27
ATOM     27  C   UNL     1       8.185   1.881  -2.102  1.00  0.00     0.039 A 
ATOM     28  C   UNL     1       8.934   2.794  -1.359  1.00  0.00     0.014 A 
ATOM     29  C   UNL     1       7.378   2.294  -3.158  1.00  0.00     0.014 A 
ATOM     30  C   UNL     1       8.651   4.149  -1.486  1.00  0.00     0.010 A 
ATOM     31  C   UNL     1       7.027   3.630  -3.216  1.00  0.00     0.010 A 
ATOM     32  C   UNL     1       7.606   4.543  -2.324  1.00  0.00    -0.014 A 
BRANCH  32  33
ATOM     33  C   UNL     1       7.014   5.875  -2.262  1.00  0.00     0.031 A 
ATOM     34  C   UNL     1       7.346   6.871  -3.298  1.00  0.00     0.074 A 
ATOM     35  C   UNL     1       6.166   6.223  -1.267  1.00  0.00     0.049 A 
ATOM     36  N   UNL     1       7.346   8.146  -3.099  1.00  0.00    -0.248 NA
ATOM     37  C   UNL     1       7.752   6.493  -4.644  1.00  0.00     0.031 C 
ATOM     38  C   UNL     1       5.367   7.445  -1.184  1.00  0.00     0.029 A 
ATOM     39  N   UNL     1       6.011   5.624  -0.006  1.00  0.00    -0.354 N 
ATOM     40  C   UNL     1       7.493   8.760  -4.318  1.00  0.00     0.074 A 
ATOM     41  C   UNL     1       7.799   7.688  -5.240  1.00  0.00     0.031 C 
ATOM     42  C   UNL     1       5.083   7.690   0.103  1.00  0.00     0.029 A 
ATOM     43  C   UNL     1       5.771   6.693   0.898  1.00  0.00     0.049 A 
ATOM     44  H   UNL     1       6.059   4.664   0.207  1.00  0.00     0.167 HD
ATOM     45  C   UNL     1       7.224  10.093  -4.435  1.00  0.00     0.037 A 
ATOM     46  C   UNL     1       6.615   6.943   1.941  1.00  0.00     0.037 A 
ATOM     47  C   UNL     1       6.857  10.691  -3.151  1.00  0.00     0.049 A 
ATOM     48  C   UNL     1       7.300   8.290   1.886  1.00  0.00     0.074 A 
ATOM     49  C   UNL     1       5.656  11.030  -2.550  1.00  0.00     0.029 A 
ATOM     50  N   UNL     1       7.810  10.760  -2.150  1.00  0.00    -0.354 N 
ATOM     51  N   UNL     1       7.100   9.186   0.959  1.00  0.00    -0.248 NA
ATOM     52  C   UNL     1       8.364   8.675   2.814  1.00  0.00     0.031 C 
ATOM     53  C   UNL     1       5.906  11.326  -1.179  1.00  0.00     0.029 A 
ATOM     54  C   UNL     1       7.259  11.163  -0.947  1.00  0.00     0.049 A 
ATOM     55  H   UNL     1       8.763  10.549  -2.278  1.00  0.00     0.167 HD
ATOM     56  C   UNL     1       8.015  10.196   1.104  1.00  0.00     0.074 A 
ATOM     57  C   UNL     1       8.787   9.829   2.276  1.00  0.00     0.031 C 
ATOM     58  C   UNL     1       8.113  11.237   0.226  1.00  0.00     0.037 A 
BRANCH  45  59
ATOM     59  C   UNL     1       7.051  10.793  -5.764  1.00  0.00     0.064 A 
ATOM     60  C   UNL     1       6.173  11.889  -5.897  1.00  0.00     0.173 A 
ATOM     61  C   UNL     1       7.683  10.400  -6.958  1.00  0.00     0.173 A 
ATOM     62  F   UNL     1       5.601  12.462  -4.831  1.00  0.00    -0.203 F 
ATOM     63  C   UNL     1       5.846  12.442  -7.138  1.00  0.00     0.198 A 
ATOM     64  C   UNL     1       7.309  10.905  -8.207  1.00  0.00     0.198 A 
ATOM     65  F   UNL     1       8.725   9.558  -6.948  1.00  0.00    -0.203 F 
ATOM     66  F   UNL     1       4.999  13.479  -7.200  1.00  0.00    -0.200 F 
ATOM     67  C   UNL     1       6.377  11.918  -8.298  1.00  0.00     0.200 A 
ATOM     68  F   UNL     1       7.860  10.403  -9.321  1.00  0.00    -0.200 F 
ATOM     69  F   UNL     1       6.017  12.406  -9.492  1.00  0.00    -0.200 F 
ENDBRANCH  45  59
BRANCH  46  70
ATOM     70  C   UNL     1       7.209   5.694   2.484  1.00  0.00     0.064 A 
ATOM     71  C   UNL     1       6.324   4.733   3.012  1.00  0.00     0.173 A 
ATOM     72  C   UNL     1       8.479   5.266   2.087  1.00  0.00     0.173 A 
ATOM     73  F   UNL     1       5.103   5.102   3.429  1.00  0.00    -0.203 F 
ATOM     74  C   UNL     1       6.627   3.377   2.957  1.00  0.00     0.198 A 
ATOM     75  C   UNL     1       8.793   3.908   2.074  1.00  0.00     0.198 A 
ATOM     76  F   UNL     1       9.365   6.136   1.582  1.00  0.00    -0.203 F 
ATOM     77  F   UNL     1       5.699   2.470   3.296  1.00  0.00    -0.200 F 
ATOM     78  C   UNL     1       7.847   2.964   2.450  1.00  0.00     0.200 A 
ATOM     79  F   UNL     1       9.979   3.508   1.594  1.00  0.00    -0.200 F 
ATOM     80  F   UNL     1       8.091   1.658   2.274  1.00  0.00    -0.200 F 
ENDBRANCH  46  70
BRANCH  58  81
ATOM     81  C   UNL     1       9.062  12.393   0.408  1.00  0.00     0.064 A 
ATOM     82  C   UNL     1       9.319  12.968   1.665  1.00  0.00     0.173 A 
ATOM     83  C   UNL     1       9.675  13.032  -0.692  1.00  0.00     0.173 A 
ATOM     84  F   UNL     1       8.699  12.520   2.767  1.00  0.00    -0.203 F 
ATOM     85  C   UNL     1      10.203  14.038   1.822  1.00  0.00     0.198 A 
ATOM     86  C   UNL     1      10.513  14.136  -0.539  1.00  0.00     0.198 A 
ATOM     87  F   UNL     1       9.499  12.596  -1.947  1.00  0.00    -0.203 F 
ATOM     88  F   UNL     1      10.474  14.501   3.050  1.00  0.00    -0.200 F 
ATOM     89  C   UNL     1      10.797  14.624   0.720  1.00  0.00     0.200 A 
ATOM     90  F   UNL     1      11.050  14.717  -1.621  1.00  0.00    -0.200 F 
ATOM     91  F   UNL     1      11.636  15.657   0.870  1.00  0.00    -0.200 F 
ENDBRANCH  58  81
ENDBRANCH  32  33
ENDBRANCH  24  27
ENDBRANCH  22  23
ENDBRANCH   1  22
TORSDOF 12
