REMARK SMILES Cn1ccc(-c2n[nH]c(=O)n2-c2ccc(C(=O)NCCCNC(=O)c3ccc(-c4c5nc(c(-c6c(F)c(F)c(F)c(F)c6F)c6ccc([nH]6)c(-c6c(F)c(F)c(F)c(F)c6F)c6nc(c(-c7c(F)c(F)c(F)c(F)c7F)c7ccc4[nH]7)C=C6)C=C5)cc3)cc2)n1
REMARK SMILES IDX 20 1 19 2 18 3 16 4 17 5 15 7 12 8 13 9 89 10 14 11 88 12
REMARK SMILES IDX 11 13 6 14 7 15 8 16 9 17 10 19 5 20 1 21 2 22 3 23 90 24
REMARK SMILES IDX 4 25 21 26 22 27 23 28 24 30 25 31 26 32 87 33 27 34 86 35
REMARK SMILES IDX 28 36 29 37 30 38 80 39 31 40 85 41 79 42 81 43 32 44 84 45
REMARK SMILES IDX 78 46 77 47 33 49 65 50 45 51 64 52 46 53 49 54 63 55 82 56
REMARK SMILES IDX 47 57 48 58 62 60 83 61 50 62 34 63 35 64 43 65 36 66 37 67
REMARK SMILES IDX 41 68 44 69 38 70 39 71 42 72 40 73 66 74 67 75 75 76 68 77
REMARK SMILES IDX 69 78 73 79 76 80 70 81 71 82 74 83 72 84 51 85 52 86 60 87
REMARK SMILES IDX 53 88 54 89 58 90 61 91 55 92 56 93 59 94 57 95
REMARK H PARENT 18 6 8 18 22 29 81 48 49 59
REMARK Flexibility Score: inf
ROOT
ATOM      1  C   UNL     1       0.978   0.274   6.928  1.00  0.00     0.042 C 
ENDROOT
BRANCH   1   2
ATOM      2  C   UNL     1      -0.221   0.962   6.258  1.00  0.00     0.118 C 
BRANCH   2   3
ATOM      3  N   UNL     1      -0.201   2.403   6.462  1.00  0.00    -0.352 N 
ATOM      4  C   UNL     1       0.277   3.440   5.693  1.00  0.00     0.251 C 
ATOM      5  O   UNL     1       0.078   4.585   6.099  1.00  0.00    -0.269 OA
ATOM      6  H   UNL     1      -0.607   2.692   7.311  1.00  0.00     0.163 HD
BRANCH   4   7
ATOM      7  C   UNL     1       0.974   3.240   4.389  1.00  0.00     0.039 A 
ATOM      8  C   UNL     1       2.123   2.931   1.836  1.00  0.00     0.052 A 
ATOM      9  C   UNL     1       1.580   4.160   2.208  1.00  0.00     0.028 A 
ATOM     10  C   UNL     1       2.170   1.894   2.768  1.00  0.00     0.028 A 
ATOM     11  C   UNL     1       0.980   4.302   3.469  1.00  0.00     0.016 A 
ATOM     12  C   UNL     1       1.643   2.069   4.044  1.00  0.00     0.016 A 
BRANCH   8  13
ATOM     13  N   UNL     1       2.689   2.725   0.572  1.00  0.00    -0.242 N 
ATOM     14  C   UNL     1       2.573   1.629  -0.232  1.00  0.00     0.189 A 
ATOM     15  N   UNL     1       3.493   1.523  -1.153  1.00  0.00    -0.150 NA
ATOM     16  N   UNL     1       4.256   2.647  -0.974  1.00  0.00    -0.226 N 
ATOM     17  C   UNL     1       3.778   3.413   0.093  1.00  0.00     0.348 A 
ATOM     18  H   UNL     1       5.038   2.884  -1.523  1.00  0.00     0.195 HD
ATOM     19  O   UNL     1       4.314   4.419   0.527  1.00  0.00    -0.246 OA
BRANCH  14  20
ATOM     20  C   UNL     1       1.479   0.676  -0.127  1.00  0.00     0.130 A 
ATOM     21  C   UNL     1      -1.958   0.020   0.021  1.00  0.00     0.173 C 
ATOM     22  N   UNL     1      -0.516  -0.054   0.004  1.00  0.00    -0.275 N 
ATOM     23  C   UNL     1       0.246  -1.176  -0.124  1.00  0.00     0.109 A 
ATOM     24  N   UNL     1       0.208   1.077   0.072  1.00  0.00    -0.170 NA
ATOM     25  C   UNL     1       1.543  -0.736  -0.249  1.00  0.00     0.054 A 
ENDBRANCH  14  20
ENDBRANCH   8  13
ENDBRANCH   4   7
ENDBRANCH   2   3
ENDBRANCH   1   2
BRANCH   1  26
ATOM     26  C   UNL     1       0.728  -0.028   8.395  1.00  0.00     0.118 C 
BRANCH  26  27
ATOM     27  N   UNL     1      -0.252  -1.102   8.573  1.00  0.00    -0.352 N 
ATOM     28  C   UNL     1      -0.833  -1.552   9.738  1.00  0.00     0.251 C 
ATOM     29  H   UNL     1      -0.533  -1.563   7.751  1.00  0.00     0.163 HD
ATOM     30  O   UNL     1      -1.364  -2.660   9.787  1.00  0.00    -0.269 OA
BRANCH  28  31
ATOM     31  C   UNL     1      -0.798  -0.694  10.929  1.00  0.00     0.039 A 
ATOM     32  C   UNL     1      -0.517  -1.224  12.193  1.00  0.00     0.014 A 
ATOM     33  C   UNL     1      -1.005   0.670  10.755  1.00  0.00     0.014 A 
ATOM     34  C   UNL     1      -0.356  -0.354  13.267  1.00  0.00     0.010 A 
ATOM     35  C   UNL     1      -0.684   1.531  11.772  1.00  0.00     0.010 A 
ATOM     36  C   UNL     1      -0.417   1.028  13.044  1.00  0.00    -0.014 A 
BRANCH  36  37
ATOM     37  C   UNL     1      -0.080   1.979  14.102  1.00  0.00     0.031 A 
ATOM     38  C   UNL     1       1.283   1.812  14.692  1.00  0.00     0.074 A 
ATOM     39  C   UNL     1      -0.831   3.084  14.313  1.00  0.00     0.049 A 
ATOM     40  N   UNL     1       1.605   1.673  15.937  1.00  0.00    -0.248 NA
ATOM     41  C   UNL     1       2.429   1.689  13.771  1.00  0.00     0.031 C 
ATOM     42  C   UNL     1      -2.023   3.514  13.569  1.00  0.00     0.029 A 
ATOM     43  N   UNL     1      -0.604   4.144  15.135  1.00  0.00    -0.354 N 
ATOM     44  C   UNL     1       2.999   1.630  15.977  1.00  0.00     0.074 A 
ATOM     45  C   UNL     1       3.439   1.478  14.616  1.00  0.00     0.031 C 
ATOM     46  C   UNL     1      -2.235   4.830  13.776  1.00  0.00     0.029 A 
ATOM     47  C   UNL     1      -1.311   5.292  14.793  1.00  0.00     0.049 A 
ATOM     48  H   UNL     1       0.008   4.103  15.905  1.00  0.00     0.167 HD
ATOM     49  C   UNL     1       3.684   1.971  17.104  1.00  0.00     0.037 A 
ATOM     50  C   UNL     1      -1.109   6.545  15.270  1.00  0.00     0.037 A 
ATOM     51  C   UNL     1       2.833   1.920  18.264  1.00  0.00     0.049 A 
ATOM     52  C   UNL     1      -0.337   6.412  16.529  1.00  0.00     0.074 A 
ATOM     53  C   UNL     1       2.087   0.933  18.878  1.00  0.00     0.029 A 
ATOM     54  N   UNL     1       2.364   3.105  18.772  1.00  0.00    -0.354 N 
ATOM     55  N   UNL     1      -0.803   5.862  17.616  1.00  0.00    -0.248 NA
ATOM     56  C   UNL     1       1.113   6.492  16.441  1.00  0.00     0.031 C 
ATOM     57  C   UNL     1       0.900   1.591  19.320  1.00  0.00     0.029 A 
ATOM     58  C   UNL     1       1.024   2.946  19.013  1.00  0.00     0.049 A 
ATOM     59  H   UNL     1       2.892   3.920  18.934  1.00  0.00     0.167 HD
ATOM     60  C   UNL     1       0.264   5.139  18.127  1.00  0.00     0.074 A 
ATOM     61  C   UNL     1       1.438   5.644  17.420  1.00  0.00     0.031 C 
ATOM     62  C   UNL     1       0.055   4.003  18.855  1.00  0.00     0.037 A 
BRANCH  49  63
ATOM     63  C   UNL     1       5.000   2.719  17.110  1.00  0.00     0.064 A 
ATOM     64  C   UNL     1       5.662   2.933  18.337  1.00  0.00     0.173 A 
ATOM     65  C   UNL     1       5.470   3.497  16.029  1.00  0.00     0.173 A 
ATOM     66  F   UNL     1       5.293   2.261  19.439  1.00  0.00    -0.203 F 
ATOM     67  C   UNL     1       6.646   3.915  18.488  1.00  0.00     0.198 A 
ATOM     68  C   UNL     1       6.490   4.437  16.170  1.00  0.00     0.198 A 
ATOM     69  F   UNL     1       4.892   3.469  14.823  1.00  0.00    -0.203 F 
ATOM     70  F   UNL     1       7.144   4.177  19.704  1.00  0.00    -0.200 F 
ATOM     71  C   UNL     1       7.052   4.673  17.406  1.00  0.00     0.200 A 
ATOM     72  F   UNL     1       6.858   5.172  15.111  1.00  0.00    -0.200 F 
ATOM     73  F   UNL     1       7.944   5.660  17.560  1.00  0.00    -0.200 F 
ENDBRANCH  49  63
BRANCH  50  74
ATOM     74  C   UNL     1      -1.244   7.838  14.551  1.00  0.00     0.064 A 
ATOM     75  C   UNL     1      -1.231   9.053  15.255  1.00  0.00     0.173 A 
ATOM     76  C   UNL     1      -1.102   7.928  13.151  1.00  0.00     0.173 A 
ATOM     77  F   UNL     1      -1.322   9.058  16.593  1.00  0.00    -0.203 F 
ATOM     78  C   UNL     1      -1.047  10.279  14.604  1.00  0.00     0.198 A 
ATOM     79  C   UNL     1      -0.930   9.152  12.502  1.00  0.00     0.198 A 
ATOM     80  F   UNL     1      -1.029   6.826  12.391  1.00  0.00    -0.203 F 
ATOM     81  F   UNL     1      -0.966  11.409  15.320  1.00  0.00    -0.200 F 
ATOM     82  C   UNL     1      -0.884  10.326  13.230  1.00  0.00     0.200 A 
ATOM     83  F   UNL     1      -0.743   9.180  11.175  1.00  0.00    -0.200 F 
ATOM     84  F   UNL     1      -0.641  11.491  12.614  1.00  0.00    -0.200 F 
ENDBRANCH  50  74
BRANCH  62  85
ATOM     85  C   UNL     1      -1.345   3.716  19.326  1.00  0.00     0.064 A 
ATOM     86  C   UNL     1      -2.438   3.487  18.473  1.00  0.00     0.173 A 
ATOM     87  C   UNL     1      -1.553   3.527  20.699  1.00  0.00     0.173 A 
ATOM     88  F   UNL     1      -2.302   3.542  17.143  1.00  0.00    -0.203 F 
ATOM     89  C   UNL     1      -3.690   3.134  18.975  1.00  0.00     0.198 A 
ATOM     90  C   UNL     1      -2.794   3.137  21.195  1.00  0.00     0.198 A 
ATOM     91  F   UNL     1      -0.534   3.675  21.559  1.00  0.00    -0.203 F 
ATOM     92  F   UNL     1      -4.719   2.937  18.138  1.00  0.00    -0.200 F 
ATOM     93  C   UNL     1      -3.864   2.952  20.336  1.00  0.00     0.200 A 
ATOM     94  F   UNL     1      -2.943   2.912  22.508  1.00  0.00    -0.200 F 
ATOM     95  F   UNL     1      -5.056   2.573  20.817  1.00  0.00    -0.200 F 
ENDBRANCH  62  85
ENDBRANCH  36  37
ENDBRANCH  28  31
ENDBRANCH  26  27
ENDBRANCH   1  26
TORSDOF 12
