REMARK SMILES [NH3+][C@H](CS[C@@H]1CC(=O)N(c2ccc3ccccc3c2)C1=O)C(=O)NCCCNC(=O)c1ccc(-c2c3nc(c(-c4c(F)c(F)c(F)c(F)c4F)c4ccc([nH]4)c(-c4c(F)c(F)c(F)c(F)c4F)c4nc(c(-c5c(F)c(F)c(F)c(F)c5F)c5ccc2[nH]5)C=C4)C=C3)cc1
REMARK SMILES IDX 25 1 24 2 22 3 23 4 2 6 1 7 3 11 4 12 5 13 6 14 20 15 7 16
REMARK SMILES IDX 9 17 21 18 8 19 10 20 11 21 19 22 12 23 18 24 13 25 17 26
REMARK SMILES IDX 14 27 16 28 15 29 26 30 27 31 28 32 29 33 30 35 31 36 32 37
REMARK SMILES IDX 93 38 33 39 92 40 34 41 35 42 36 43 86 44 37 45 91 46 85 47
REMARK SMILES IDX 87 48 38 49 90 50 84 51 83 52 39 54 71 55 51 56 70 57 52 58
REMARK SMILES IDX 55 59 69 60 88 61 53 62 54 63 68 65 89 66 56 67 40 68 41 69
REMARK SMILES IDX 49 70 42 71 43 72 47 73 50 74 44 75 45 76 48 77 46 78 72 79
REMARK SMILES IDX 73 80 81 81 74 82 75 83 79 84 82 85 76 86 77 87 80 88 78 89
REMARK SMILES IDX 57 90 58 91 66 92 59 93 60 94 64 95 67 96 61 97 62 98 65 99
REMARK SMILES IDX 63 100
REMARK H PARENT 24 5 1 8 1 9 1 10 28 34 87 53 55 64
REMARK Flexibility Score: inf
ROOT
ATOM      1  C   UNL     1      -0.723  -3.258   0.350  1.00  0.00     0.118 C 
ENDROOT
BRANCH   1   2
ATOM      2  N   UNL     1      -1.298  -2.502  -0.751  1.00  0.00    -0.351 N 
ATOM      3  C   UNL     1      -0.770  -1.699  -1.715  1.00  0.00     0.279 C 
ATOM      4  O   UNL     1      -1.557  -1.353  -2.606  1.00  0.00    -0.268 OA
ATOM      5  H   UNL     1      -2.277  -2.590  -0.813  1.00  0.00     0.163 HD
BRANCH   3   6
ATOM      6  C   UNL     1       0.659  -1.126  -1.704  1.00  0.00     0.280 C 
BRANCH   6   7
ATOM      7  N   UNL     1       1.690  -2.183  -1.672  1.00  0.00    -0.347 N 
ATOM      8  H   UNL     1       1.428  -2.933  -2.312  1.00  0.00     0.345 HD
ATOM      9  H   UNL     1       1.767  -2.555  -0.726  1.00  0.00     0.345 HD
ATOM     10  H   UNL     1       2.588  -1.791  -1.957  1.00  0.00     0.345 HD
ENDBRANCH   6   7
BRANCH   6  11
ATOM     11  C   UNL     1       0.908   0.090  -0.784  1.00  0.00     0.145 C 
BRANCH  11  12
ATOM     12  S   UNL     1       0.233   0.124   0.899  1.00  0.00    -0.141 SA
BRANCH  12  13
ATOM     13  C   UNL     1      -1.541   0.623   0.702  1.00  0.00     0.146 C 
ATOM     14  C   UNL     1      -2.157   0.916  -0.651  1.00  0.00     0.125 C 
ATOM     15  C   UNL     1      -1.774   1.888   1.492  1.00  0.00     0.247 C 
ATOM     16  C   UNL     1      -2.768   2.277  -0.521  1.00  0.00     0.235 C 
ATOM     17  N   UNL     1      -2.371   2.817   0.676  1.00  0.00    -0.250 N 
ATOM     18  O   UNL     1      -1.539   1.990   2.692  1.00  0.00    -0.273 OA
ATOM     19  O   UNL     1      -3.437   2.777  -1.407  1.00  0.00    -0.274 OA
BRANCH  17  20
ATOM     20  C   UNL     1      -2.523   4.178   1.024  1.00  0.00     0.052 A 
ATOM     21  C   UNL     1      -3.580   4.956   0.543  1.00  0.00     0.027 A 
ATOM     22  C   UNL     1      -1.523   4.796   1.788  1.00  0.00     0.035 A 
ATOM     23  C   UNL     1      -3.639   6.324   0.825  1.00  0.00     0.011 A 
ATOM     24  C   UNL     1      -1.534   6.175   2.022  1.00  0.00    -0.016 A 
ATOM     25  C   UNL     1      -2.612   6.950   1.546  1.00  0.00    -0.018 A 
ATOM     26  C   UNL     1      -0.471   6.794   2.695  1.00  0.00     0.009 A 
ATOM     27  C   UNL     1      -2.613   8.332   1.788  1.00  0.00     0.009 A 
ATOM     28  C   UNL     1      -0.475   8.171   2.904  1.00  0.00     0.001 A 
ATOM     29  C   UNL     1      -1.548   8.937   2.459  1.00  0.00     0.001 A 
ENDBRANCH  17  20
ENDBRANCH  12  13
ENDBRANCH  11  12
ENDBRANCH   6  11
ENDBRANCH   3   6
ENDBRANCH   1   2
BRANCH   1  30
ATOM     30  C   UNL     1      -1.341  -2.993   1.726  1.00  0.00     0.042 C 
BRANCH  30  31
ATOM     31  C   UNL     1      -2.849  -2.794   1.775  1.00  0.00     0.118 C 
BRANCH  31  32
ATOM     32  N   UNL     1      -3.583  -4.037   1.685  1.00  0.00    -0.352 N 
ATOM     33  C   UNL     1      -4.275  -4.729   2.648  1.00  0.00     0.251 C 
ATOM     34  H   UNL     1      -3.588  -4.453   0.792  1.00  0.00     0.163 HD
ATOM     35  O   UNL     1      -4.657  -5.870   2.397  1.00  0.00    -0.269 OA
BRANCH  33  36
ATOM     36  C   UNL     1      -4.553  -4.149   3.986  1.00  0.00     0.039 A 
ATOM     37  C   UNL     1      -4.473  -4.999   5.094  1.00  0.00     0.014 A 
ATOM     38  C   UNL     1      -4.973  -2.827   4.166  1.00  0.00     0.014 A 
ATOM     39  C   UNL     1      -4.786  -4.523   6.370  1.00  0.00     0.010 A 
ATOM     40  C   UNL     1      -5.210  -2.331   5.453  1.00  0.00     0.010 A 
ATOM     41  C   UNL     1      -5.142  -3.179   6.568  1.00  0.00    -0.014 A 
BRANCH  41  42
ATOM     42  C   UNL     1      -5.465  -2.687   7.936  1.00  0.00     0.031 A 
ATOM     43  C   UNL     1      -6.857  -2.228   8.284  1.00  0.00     0.074 A 
ATOM     44  C   UNL     1      -4.504  -2.663   8.881  1.00  0.00     0.049 A 
ATOM     45  N   UNL     1      -7.337  -1.835   9.439  1.00  0.00    -0.248 NA
ATOM     46  C   UNL     1      -7.838  -2.187   7.188  1.00  0.00     0.031 C 
ATOM     47  C   UNL     1      -3.104  -3.031   8.667  1.00  0.00     0.029 A 
ATOM     48  N   UNL     1      -4.559  -2.326  10.211  1.00  0.00    -0.354 N 
ATOM     49  C   UNL     1      -8.665  -1.501   9.208  1.00  0.00     0.074 A 
ATOM     50  C   UNL     1      -8.903  -1.680   7.792  1.00  0.00     0.031 C 
ATOM     51  C   UNL     1      -2.442  -2.938   9.831  1.00  0.00     0.029 A 
ATOM     52  C   UNL     1      -3.361  -2.476  10.867  1.00  0.00     0.049 A 
ATOM     53  H   UNL     1      -5.379  -2.007  10.653  1.00  0.00     0.167 HD
ATOM     54  C   UNL     1      -9.610  -1.107  10.097  1.00  0.00     0.037 A 
ATOM     55  C   UNL     1      -3.040  -2.273  12.160  1.00  0.00     0.037 A 
ATOM     56  C   UNL     1      -9.381  -0.943  11.510  1.00  0.00     0.049 A 
ATOM     57  C   UNL     1      -4.108  -1.837  13.127  1.00  0.00     0.074 A 
ATOM     58  C   UNL     1     -10.289  -0.600  12.498  1.00  0.00     0.029 A 
ATOM     59  N   UNL     1      -8.154  -1.104  12.136  1.00  0.00    -0.354 N 
ATOM     60  N   UNL     1      -5.380  -1.607  12.909  1.00  0.00    -0.248 NA
ATOM     61  C   UNL     1      -3.695  -1.646  14.524  1.00  0.00     0.031 C 
ATOM     62  C   UNL     1      -9.601  -0.505  13.713  1.00  0.00     0.029 A 
ATOM     63  C   UNL     1      -8.276  -0.844  13.492  1.00  0.00     0.049 A 
ATOM     64  H   UNL     1      -7.319  -1.364  11.683  1.00  0.00     0.167 HD
ATOM     65  C   UNL     1      -5.924  -1.272  14.142  1.00  0.00     0.074 A 
ATOM     66  C   UNL     1      -4.848  -1.351  15.108  1.00  0.00     0.031 C 
ATOM     67  C   UNL     1      -7.200  -0.928  14.446  1.00  0.00     0.037 A 
BRANCH  54  68
ATOM     68  C   UNL     1     -10.989  -0.827   9.568  1.00  0.00     0.064 A 
ATOM     69  C   UNL     1     -11.820  -1.857   9.100  1.00  0.00     0.173 A 
ATOM     70  C   UNL     1     -11.504   0.478   9.572  1.00  0.00     0.173 A 
ATOM     71  F   UNL     1     -11.375  -3.122   9.068  1.00  0.00    -0.203 F 
ATOM     72  C   UNL     1     -13.102  -1.587   8.627  1.00  0.00     0.198 A 
ATOM     73  C   UNL     1     -12.798   0.741   9.127  1.00  0.00     0.198 A 
ATOM     74  F   UNL     1     -10.757   1.499  10.017  1.00  0.00    -0.203 F 
ATOM     75  F   UNL     1     -13.858  -2.580   8.140  1.00  0.00    -0.200 F 
ATOM     76  C   UNL     1     -13.593  -0.290   8.648  1.00  0.00     0.200 A 
ATOM     77  F   UNL     1     -13.276   1.992   9.163  1.00  0.00    -0.200 F 
ATOM     78  F   UNL     1     -14.829  -0.032   8.201  1.00  0.00    -0.200 F 
ENDBRANCH  54  68
BRANCH  55  79
ATOM     79  C   UNL     1      -1.649  -2.515  12.625  1.00  0.00     0.064 A 
ATOM     80  C   UNL     1      -1.350  -3.581  13.486  1.00  0.00     0.173 A 
ATOM     81  C   UNL     1      -0.593  -1.681  12.229  1.00  0.00     0.173 A 
ATOM     82  F   UNL     1      -2.329  -4.394  13.910  1.00  0.00    -0.203 F 
ATOM     83  C   UNL     1      -0.053  -3.789  13.950  1.00  0.00     0.198 A 
ATOM     84  C   UNL     1       0.709  -1.909  12.670  1.00  0.00     0.198 A 
ATOM     85  F   UNL     1      -0.825  -0.650  11.404  1.00  0.00    -0.203 F 
ATOM     86  F   UNL     1       0.196  -4.785  14.812  1.00  0.00    -0.200 F 
ATOM     87  C   UNL     1       0.976  -2.957  13.537  1.00  0.00     0.200 A 
ATOM     88  F   UNL     1       1.703  -1.112  12.256  1.00  0.00    -0.200 F 
ATOM     89  F   UNL     1       2.224  -3.160  13.981  1.00  0.00    -0.200 F 
ENDBRANCH  55  79
BRANCH  67  90
ATOM     90  C   UNL     1      -7.510  -0.644  15.889  1.00  0.00     0.064 A 
ATOM     91  C   UNL     1      -7.025   0.502  16.537  1.00  0.00     0.173 A 
ATOM     92  C   UNL     1      -8.319  -1.522  16.627  1.00  0.00     0.173 A 
ATOM     93  F   UNL     1      -6.236   1.366  15.881  1.00  0.00    -0.203 F 
ATOM     94  C   UNL     1      -7.309   0.740  17.879  1.00  0.00     0.198 A 
ATOM     95  C   UNL     1      -8.628  -1.263  17.960  1.00  0.00     0.198 A 
ATOM     96  F   UNL     1      -8.815  -2.628  16.055  1.00  0.00    -0.203 F 
ATOM     97  F   UNL     1      -6.786   1.811  18.493  1.00  0.00    -0.200 F 
ATOM     98  C   UNL     1      -8.115  -0.139  18.588  1.00  0.00     0.200 A 
ATOM     99  F   UNL     1      -9.419  -2.106  18.639  1.00  0.00    -0.200 F 
ATOM    100  F   UNL     1      -8.388   0.093  19.879  1.00  0.00    -0.200 F 
ENDBRANCH  67  90
ENDBRANCH  41  42
ENDBRANCH  33  36
ENDBRANCH  31  32
ENDBRANCH  30  31
ENDBRANCH   1  30
TORSDOF 15
