REMARK SMILES O=C(C[C@@H]1[NH2+]CCc2c(Br)cccc21)NCCCNC(=O)c1ccc(-c2c3nc(c(-c4c(F)c(F)c(F)c(F)c4F)c4ccc([nH]4)c(-c4c(F)c(F)c(F)c(F)c4F)c4nc(c(-c5c(F)c(F)c(F)c(F)c5F)c5ccc2[nH]5)C=C4)C=C3)cc1
REMARK SMILES IDX 17 1 16 2 15 3 1 4 2 5 3 7 4 8 5 9 14 10 6 11 8 14 13 15
REMARK SMILES IDX 7 16 9 17 12 18 10 19 11 20 18 21 19 22 20 23 21 25 22 26
REMARK SMILES IDX 23 27 84 28 24 29 83 30 25 31 26 32 27 33 77 34 28 35 82 36
REMARK SMILES IDX 76 37 78 38 29 39 81 40 75 41 74 42 30 44 62 45 42 46 61 47
REMARK SMILES IDX 43 48 46 49 60 50 79 51 44 52 45 53 59 55 80 56 47 57 31 58
REMARK SMILES IDX 32 59 40 60 33 61 34 62 38 63 41 64 35 65 36 66 39 67 37 68
REMARK SMILES IDX 63 69 64 70 72 71 65 72 66 73 70 74 73 75 67 76 68 77 71 78
REMARK SMILES IDX 69 79 48 80 49 81 57 82 50 83 51 84 55 85 58 86 52 87 53 88
REMARK SMILES IDX 56 89 54 90
REMARK H PARENT 15 6 5 12 5 13 19 24 78 43 46 54
REMARK Flexibility Score: inf
ROOT
ATOM      1  C   UNL     1       2.364   3.329  -0.908  1.00  0.00     0.042 C 
ENDROOT
BRANCH   1   2
ATOM      2  C   UNL     1       2.092   1.984  -1.573  1.00  0.00     0.117 C 
BRANCH   2   3
ATOM      3  N   UNL     1       2.760   0.903  -0.875  1.00  0.00    -0.356 N 
ATOM      4  O   UNL     1       0.867  -0.166  -0.142  1.00  0.00    -0.275 OA
ATOM      5  C   UNL     1       2.089  -0.086  -0.194  1.00  0.00     0.226 C 
ATOM      6  H   UNL     1       3.744   0.876  -0.889  1.00  0.00     0.163 HD
BRANCH   5   7
ATOM      7  C   UNL     1       2.990  -1.041   0.561  1.00  0.00     0.170 C 
BRANCH   7   8
ATOM      8  C   UNL     1       3.912  -1.853  -0.374  1.00  0.00     0.223 C 
ATOM      9  N   UNL     1       3.366  -3.184  -0.692  1.00  0.00    -0.339 N 
ATOM     10  C   UNL     1       5.335  -1.909   0.181  1.00  0.00     0.014 A 
ATOM     11  C   UNL     1       3.568  -4.130   0.403  1.00  0.00     0.265 C 
ATOM     12  H   UNL     1       3.832  -3.541  -1.526  1.00  0.00     0.346 HD
ATOM     13  H   UNL     1       2.363  -3.086  -0.845  1.00  0.00     0.346 HD
ATOM     14  C   UNL     1       5.868  -3.094   0.733  1.00  0.00    -0.019 A 
ATOM     15  C   UNL     1       6.128  -0.744   0.156  1.00  0.00     0.010 A 
ATOM     16  C   UNL     1       5.054  -4.366   0.676  1.00  0.00     0.098 C 
ATOM     17  C   UNL     1       7.180  -3.078   1.244  1.00  0.00     0.021 A 
ATOM     18  C   UNL     1       7.418  -0.742   0.678  1.00  0.00     0.002 A 
ATOM     19  Br  UNL     1       8.006  -4.630   1.968  1.00  0.00    -0.051 Br
ATOM     20  C   UNL     1       7.942  -1.907   1.226  1.00  0.00     0.016 A 
ENDBRANCH   7   8
ENDBRANCH   5   7
ENDBRANCH   2   3
ENDBRANCH   1   2
BRANCH   1  21
ATOM     21  C   UNL     1       3.843   3.699  -0.821  1.00  0.00     0.118 C 
BRANCH  21  22
ATOM     22  N   UNL     1       4.454   3.917  -2.124  1.00  0.00    -0.352 N 
ATOM     23  C   UNL     1       5.067   5.044  -2.615  1.00  0.00     0.251 C 
ATOM     24  H   UNL     1       4.425   3.150  -2.739  1.00  0.00     0.163 HD
ATOM     25  O   UNL     1       5.407   5.106  -3.792  1.00  0.00    -0.269 OA
BRANCH  23  26
ATOM     26  C   UNL     1       5.292   6.198  -1.723  1.00  0.00     0.039 A 
ATOM     27  C   UNL     1       4.835   7.456  -2.122  1.00  0.00     0.014 A 
ATOM     28  C   UNL     1       5.939   6.034  -0.495  1.00  0.00     0.014 A 
ATOM     29  C   UNL     1       4.968   8.543  -1.257  1.00  0.00     0.010 A 
ATOM     30  C   UNL     1       6.025   7.107   0.389  1.00  0.00     0.010 A 
ATOM     31  C   UNL     1       5.537   8.369   0.015  1.00  0.00    -0.014 A 
BRANCH  31  32
ATOM     32  C   UNL     1       5.635   9.505   0.961  1.00  0.00     0.031 A 
ATOM     33  C   UNL     1       6.972  10.102   1.283  1.00  0.00     0.074 A 
ATOM     34  C   UNL     1       4.521   9.976   1.553  1.00  0.00     0.049 A 
ATOM     35  N   UNL     1       7.261  11.098   2.082  1.00  0.00    -0.248 NA
ATOM     36  C   UNL     1       8.143   9.492   0.635  1.00  0.00     0.031 C 
ATOM     37  C   UNL     1       3.170   9.453   1.346  1.00  0.00     0.029 A 
ATOM     38  N   UNL     1       4.348  11.001   2.449  1.00  0.00    -0.354 N 
ATOM     39  C   UNL     1       8.640  11.237   2.026  1.00  0.00     0.074 A 
ATOM     40  C   UNL     1       9.139  10.189   1.162  1.00  0.00     0.031 C 
ATOM     41  C   UNL     1       2.304  10.176   2.075  1.00  0.00     0.029 A 
ATOM     42  C   UNL     1       3.040  11.197   2.817  1.00  0.00     0.049 A 
ATOM     43  H   UNL     1       5.092  11.544   2.796  1.00  0.00     0.167 HD
ATOM     44  C   UNL     1       9.416  12.176   2.615  1.00  0.00     0.037 A 
ATOM     45  C   UNL     1       2.497  12.102   3.653  1.00  0.00     0.037 A 
ATOM     46  C   UNL     1       8.917  13.228   3.459  1.00  0.00     0.049 A 
ATOM     47  C   UNL     1       3.387  13.109   4.329  1.00  0.00     0.074 A 
ATOM     48  C   UNL     1       9.618  14.261   4.055  1.00  0.00     0.029 A 
ATOM     49  N   UNL     1       7.589  13.378   3.828  1.00  0.00    -0.354 N 
ATOM     50  N   UNL     1       4.681  13.276   4.211  1.00  0.00    -0.248 NA
ATOM     51  C   UNL     1       2.741  14.054   5.252  1.00  0.00     0.031 C 
ATOM     52  C   UNL     1       8.721  15.015   4.816  1.00  0.00     0.029 A 
ATOM     53  C   UNL     1       7.454  14.473   4.665  1.00  0.00     0.049 A 
ATOM     54  H   UNL     1       6.851  12.794   3.538  1.00  0.00     0.167 HD
ATOM     55  C   UNL     1       5.003  14.354   5.025  1.00  0.00     0.074 A 
ATOM     56  C   UNL     1       3.766  14.809   5.626  1.00  0.00     0.031 C 
ATOM     57  C   UNL     1       6.215  14.914   5.252  1.00  0.00     0.037 A 
BRANCH  44  58
ATOM     58  C   UNL     1      10.890  12.123   2.349  1.00  0.00     0.064 A 
ATOM     59  C   UNL     1      11.416  12.498   1.104  1.00  0.00     0.173 A 
ATOM     60  C   UNL     1      11.787  11.746   3.358  1.00  0.00     0.173 A 
ATOM     61  F   UNL     1      10.596  12.855   0.104  1.00  0.00    -0.203 F 
ATOM     62  C   UNL     1      12.789  12.479   0.873  1.00  0.00     0.198 A 
ATOM     63  C   UNL     1      13.161  11.751   3.131  1.00  0.00     0.198 A 
ATOM     64  F   UNL     1      11.333  11.383   4.567  1.00  0.00    -0.203 F 
ATOM     65  F   UNL     1      13.267  12.807  -0.335  1.00  0.00    -0.200 F 
ATOM     66  C   UNL     1      13.660  12.113   1.888  1.00  0.00     0.200 A 
ATOM     67  F   UNL     1      14.003  11.406   4.115  1.00  0.00    -0.200 F 
ATOM     68  F   UNL     1      14.981  12.104   1.667  1.00  0.00    -0.200 F 
ENDBRANCH  44  58
BRANCH  45  69
ATOM     69  C   UNL     1       1.028  12.122   3.864  1.00  0.00     0.064 A 
ATOM     70  C   UNL     1       0.241  13.144   3.315  1.00  0.00     0.173 A 
ATOM     71  C   UNL     1       0.380  11.120   4.600  1.00  0.00     0.173 A 
ATOM     72  F   UNL     1       0.820  14.134   2.621  1.00  0.00    -0.203 F 
ATOM     73  C   UNL     1      -1.139  13.167   3.502  1.00  0.00     0.198 A 
ATOM     74  C   UNL     1      -1.004  11.133   4.768  1.00  0.00     0.198 A 
ATOM     75  F   UNL     1       1.089  10.120   5.143  1.00  0.00    -0.203 F 
ATOM     76  F   UNL     1      -1.865  14.171   2.990  1.00  0.00    -0.200 F 
ATOM     77  C   UNL     1      -1.761  12.159   4.223  1.00  0.00     0.200 A 
ATOM     78  F   UNL     1      -1.602  10.152   5.457  1.00  0.00    -0.200 F 
ATOM     79  F   UNL     1      -3.090  12.178   4.396  1.00  0.00    -0.200 F 
ENDBRANCH  45  69
BRANCH  57  80
ATOM     80  C   UNL     1       6.277  16.088   6.181  1.00  0.00     0.064 A 
ATOM     81  C   UNL     1       6.194  15.921   7.570  1.00  0.00     0.173 A 
ATOM     82  C   UNL     1       6.517  17.378   5.683  1.00  0.00     0.173 A 
ATOM     83  F   UNL     1       5.952  14.708   8.090  1.00  0.00    -0.203 F 
ATOM     84  C   UNL     1       6.348  17.004   8.429  1.00  0.00     0.198 A 
ATOM     85  C   UNL     1       6.694  18.455   6.546  1.00  0.00     0.198 A 
ATOM     86  F   UNL     1       6.611  17.586   4.361  1.00  0.00    -0.203 F 
ATOM     87  F   UNL     1       6.248  16.826   9.754  1.00  0.00    -0.200 F 
ATOM     88  C   UNL     1       6.609  18.267   7.918  1.00  0.00     0.200 A 
ATOM     89  F   UNL     1       6.959  19.672   6.052  1.00  0.00    -0.200 F 
ATOM     90  F   UNL     1       6.780  19.305   8.748  1.00  0.00    -0.200 F 
ENDBRANCH  57  80
ENDBRANCH  31  32
ENDBRANCH  23  26
ENDBRANCH  21  22
ENDBRANCH   1  21
TORSDOF 11
