REMARK SMILES Cc1nn(-c2ccccc2)c(C)c1CNC(=O)CCCC(=O)NCCCNC(=O)c1ccc(-c2c3nc(c(-c4c(F)c(F)c(F)c(F)c4F)c4ccc([nH]4)c(-c4c(F)c(F)c(F)c(F)c4F)c4nc(c(-c5c(F)c(F)c(F)c(F)c5F)c5ccc2[nH]5)C=C4)C=C3)cc1
REMARK SMILES IDX 21 1 22 2 23 3 20 5 19 6 18 7 16 8 15 9 17 11 14 12 13 13
REMARK SMILES IDX 1 14 2 15 3 16 4 17 11 18 12 19 5 20 6 21 10 22 7 23 9 24
REMARK SMILES IDX 8 25 24 26 25 27 26 28 27 29 28 30 29 32 30 33 31 34 92 35
REMARK SMILES IDX 32 36 91 37 33 38 34 39 35 40 85 41 36 42 90 43 84 44 86 45
REMARK SMILES IDX 37 46 89 47 83 48 82 49 38 51 70 52 50 53 69 54 51 55 54 56
REMARK SMILES IDX 68 57 87 58 52 59 53 60 67 62 88 63 55 64 39 65 40 66 48 67
REMARK SMILES IDX 41 68 42 69 46 70 49 71 43 72 44 73 47 74 45 75 71 76 72 77
REMARK SMILES IDX 80 78 73 79 74 80 78 81 81 82 75 83 76 84 79 85 77 86 56 87
REMARK SMILES IDX 57 88 65 89 58 90 59 91 63 92 66 93 60 94 61 95 64 96 62 97
REMARK H PARENT 23 4 15 10 27 31 86 50 54 61
REMARK Flexibility Score: inf
ROOT
ATOM      1  C   UNL     1      -3.681   0.826  -2.655  1.00  0.00     0.220 C 
ATOM      2  O   UNL     1      -4.692   0.555  -2.002  1.00  0.00    -0.275 OA
ATOM      3  N   UNL     1      -3.272   2.122  -2.641  1.00  0.00    -0.356 N 
ATOM      4  H   UNL     1      -3.844   2.722  -2.111  1.00  0.00     0.163 HD
ENDROOT
BRANCH   1   5
ATOM      5  C   UNL     1      -2.906  -0.277  -3.354  1.00  0.00     0.100 C 
BRANCH   5   6
ATOM      6  C   UNL     1      -2.830  -0.289  -4.870  1.00  0.00     0.020 C 
BRANCH   6   7
ATOM      7  C   UNL     1      -1.828   0.550  -5.658  1.00  0.00     0.100 C 
BRANCH   7   8
ATOM      8  C   UNL     1      -0.295   0.598  -5.620  1.00  0.00     0.220 C 
ATOM      9  N   UNL     1       0.551   0.449  -4.585  1.00  0.00    -0.352 N 
ATOM     10  H   UNL     1       1.485   0.515  -4.888  1.00  0.00     0.163 HD
ATOM     11  O   UNL     1       0.278   0.875  -6.687  1.00  0.00    -0.275 OA
BRANCH   9  12
ATOM     12  C   UNL     1       0.492   0.220  -3.158  1.00  0.00     0.155 C 
BRANCH  12  13
ATOM     13  C   UNL     1       0.569  -1.222  -2.796  1.00  0.00     0.016 A 
ATOM     14  C   UNL     1       0.937  -0.945  -0.211  1.00  0.00     0.069 C 
ATOM     15  C   UNL     1       0.745  -1.721  -1.468  1.00  0.00     0.065 A 
ATOM     16  N   UNL     1       0.673  -3.054  -1.416  1.00  0.00    -0.173 NA
ATOM     17  N   UNL     1       0.607  -3.441  -2.707  1.00  0.00    -0.237 N 
ATOM     18  C   UNL     1       0.392  -2.368  -3.558  1.00  0.00     0.046 A 
ATOM     19  C   UNL     1      -0.048  -2.582  -4.964  1.00  0.00     0.067 C 
BRANCH  17  20
ATOM     20  C   UNL     1       0.601  -4.804  -3.085  1.00  0.00     0.065 A 
ATOM     21  C   UNL     1      -0.179  -5.713  -2.371  1.00  0.00     0.028 A 
ATOM     22  C   UNL     1       1.247  -5.191  -4.269  1.00  0.00     0.028 A 
ATOM     23  C   UNL     1      -0.403  -6.979  -2.914  1.00  0.00     0.002 A 
ATOM     24  C   UNL     1       1.029  -6.459  -4.797  1.00  0.00     0.002 A 
ATOM     25  C   UNL     1       0.183  -7.342  -4.131  1.00  0.00     0.000 A 
ENDBRANCH  17  20
ENDBRANCH  12  13
ENDBRANCH   9  12
ENDBRANCH   7   8
ENDBRANCH   6   7
ENDBRANCH   5   6
ENDBRANCH   1   5
BRANCH   3  26
ATOM     26  C   UNL     1      -2.142   2.775  -3.266  1.00  0.00     0.117 C 
BRANCH  26  27
ATOM     27  C   UNL     1      -2.536   3.611  -4.482  1.00  0.00     0.042 C 
BRANCH  27  28
ATOM     28  C   UNL     1      -2.878   5.040  -4.139  1.00  0.00     0.118 C 
BRANCH  28  29
ATOM     29  N   UNL     1      -1.699   5.798  -3.731  1.00  0.00    -0.352 N 
ATOM     30  C   UNL     1      -1.677   6.997  -3.047  1.00  0.00     0.251 C 
ATOM     31  H   UNL     1      -0.825   5.413  -3.971  1.00  0.00     0.163 HD
ATOM     32  O   UNL     1      -0.686   7.701  -3.011  1.00  0.00    -0.269 OA
BRANCH  30  33
ATOM     33  C   UNL     1      -2.932   7.407  -2.398  1.00  0.00     0.039 A 
ATOM     34  C   UNL     1      -3.575   8.561  -2.835  1.00  0.00     0.014 A 
ATOM     35  C   UNL     1      -3.549   6.509  -1.527  1.00  0.00     0.014 A 
ATOM     36  C   UNL     1      -4.906   8.751  -2.481  1.00  0.00     0.010 A 
ATOM     37  C   UNL     1      -4.900   6.648  -1.270  1.00  0.00     0.010 A 
ATOM     38  C   UNL     1      -5.593   7.764  -1.745  1.00  0.00    -0.014 A 
BRANCH  38  39
ATOM     39  C   UNL     1      -7.056   7.858  -1.635  1.00  0.00     0.031 A 
ATOM     40  C   UNL     1      -7.779   8.180  -2.902  1.00  0.00     0.074 A 
ATOM     41  C   UNL     1      -7.788   7.535  -0.548  1.00  0.00     0.049 A 
ATOM     42  N   UNL     1      -8.454   9.251  -3.166  1.00  0.00    -0.248 NA
ATOM     43  C   UNL     1      -7.683   7.247  -4.035  1.00  0.00     0.031 C 
ATOM     44  C   UNL     1      -7.327   6.910   0.694  1.00  0.00     0.029 A 
ATOM     45  N   UNL     1      -9.144   7.627  -0.362  1.00  0.00    -0.354 N 
ATOM     46  C   UNL     1      -9.017   9.062  -4.427  1.00  0.00     0.074 A 
ATOM     47  C   UNL     1      -8.406   7.875  -4.966  1.00  0.00     0.031 C 
ATOM     48  C   UNL     1      -8.390   6.480   1.405  1.00  0.00     0.029 A 
ATOM     49  C   UNL     1      -9.601   6.966   0.768  1.00  0.00     0.049 A 
ATOM     50  H   UNL     1      -9.738   8.117  -0.975  1.00  0.00     0.167 HD
ATOM     51  C   UNL     1     -10.112   9.778  -4.810  1.00  0.00     0.037 A 
ATOM     52  C   UNL     1     -10.876   6.835   1.200  1.00  0.00     0.037 A 
ATOM     53  C   UNL     1     -10.341  10.884  -3.918  1.00  0.00     0.049 A 
ATOM     54  C   UNL     1     -11.674   7.944   0.638  1.00  0.00     0.074 A 
ATOM     55  C   UNL     1      -9.826  12.142  -3.703  1.00  0.00     0.029 A 
ATOM     56  N   UNL     1     -11.098  10.564  -2.827  1.00  0.00    -0.354 N 
ATOM     57  N   UNL     1     -11.539   9.188   1.005  1.00  0.00    -0.248 NA
ATOM     58  C   UNL     1     -12.492   7.728  -0.550  1.00  0.00     0.031 C 
ATOM     59  C   UNL     1     -10.164  12.488  -2.358  1.00  0.00     0.029 A 
ATOM     60  C   UNL     1     -10.884  11.437  -1.797  1.00  0.00     0.049 A 
ATOM     61  H   UNL     1     -11.720   9.801  -2.788  1.00  0.00     0.167 HD
ATOM     62  C   UNL     1     -11.864   9.906  -0.124  1.00  0.00     0.074 A 
ATOM     63  C   UNL     1     -12.635   8.993  -0.954  1.00  0.00     0.031 C 
ATOM     64  C   UNL     1     -11.180  11.043  -0.440  1.00  0.00     0.037 A 
BRANCH  51  65
ATOM     65  C   UNL     1     -11.259   9.260  -5.664  1.00  0.00     0.064 A 
ATOM     66  C   UNL     1     -12.315  10.145  -5.989  1.00  0.00     0.173 A 
ATOM     67  C   UNL     1     -11.539   7.893  -5.864  1.00  0.00     0.173 A 
ATOM     68  F   UNL     1     -12.168  11.470  -5.841  1.00  0.00    -0.203 F 
ATOM     69  C   UNL     1     -13.577   9.686  -6.379  1.00  0.00     0.198 A 
ATOM     70  C   UNL     1     -12.786   7.443  -6.302  1.00  0.00     0.198 A 
ATOM     71  F   UNL     1     -10.666   6.934  -5.539  1.00  0.00    -0.203 F 
ATOM     72  F   UNL     1     -14.582  10.558  -6.543  1.00  0.00    -0.200 F 
ATOM     73  C   UNL     1     -13.815   8.334  -6.524  1.00  0.00     0.200 A 
ATOM     74  F   UNL     1     -13.004   6.125  -6.423  1.00  0.00    -0.200 F 
ATOM     75  F   UNL     1     -15.040   7.886  -6.830  1.00  0.00    -0.200 F 
ENDBRANCH  51  65
BRANCH  52  76
ATOM     76  C   UNL     1     -11.480   5.791   2.051  1.00  0.00     0.064 A 
ATOM     77  C   UNL     1     -12.663   6.029   2.768  1.00  0.00     0.173 A 
ATOM     78  C   UNL     1     -11.050   4.454   1.966  1.00  0.00     0.173 A 
ATOM     79  F   UNL     1     -13.153   7.272   2.873  1.00  0.00    -0.203 F 
ATOM     80  C   UNL     1     -13.399   4.984   3.329  1.00  0.00     0.198 A 
ATOM     81  C   UNL     1     -11.781   3.412   2.536  1.00  0.00     0.198 A 
ATOM     82  F   UNL     1      -9.963   4.128   1.251  1.00  0.00    -0.203 F 
ATOM     83  F   UNL     1     -14.562   5.243   3.944  1.00  0.00    -0.200 F 
ATOM     84  C   UNL     1     -12.965   3.675   3.201  1.00  0.00     0.200 A 
ATOM     85  F   UNL     1     -11.366   2.146   2.384  1.00  0.00    -0.200 F 
ATOM     86  F   UNL     1     -13.706   2.667   3.681  1.00  0.00    -0.200 F 
ENDBRANCH  52  76
BRANCH  64  87
ATOM     87  C   UNL     1     -10.554  11.794   0.691  1.00  0.00     0.064 A 
ATOM     88  C   UNL     1      -9.527  11.294   1.508  1.00  0.00     0.173 A 
ATOM     89  C   UNL     1     -11.015  13.092   0.948  1.00  0.00     0.173 A 
ATOM     90  F   UNL     1      -8.975  10.097   1.270  1.00  0.00    -0.203 F 
ATOM     91  C   UNL     1      -9.037  12.039   2.579  1.00  0.00     0.198 A 
ATOM     92  C   UNL     1     -10.494  13.850   1.992  1.00  0.00     0.198 A 
ATOM     93  F   UNL     1     -11.965  13.636   0.171  1.00  0.00    -0.203 F 
ATOM     94  F   UNL     1      -8.088  11.525   3.376  1.00  0.00    -0.200 F 
ATOM     95  C   UNL     1      -9.520  13.316   2.818  1.00  0.00     0.200 A 
ATOM     96  F   UNL     1     -10.936  15.099   2.193  1.00  0.00    -0.200 F 
ATOM     97  F   UNL     1      -9.036  14.039   3.838  1.00  0.00    -0.200 F 
ENDBRANCH  64  87
ENDBRANCH  38  39
ENDBRANCH  30  33
ENDBRANCH  28  29
ENDBRANCH  27  28
ENDBRANCH  26  27
ENDBRANCH   3  26
TORSDOF 16
