REMARK SMILES CC1([C@@H]2C[C@H](C(F)(F)F)n3nc(C(=O)NCCCNC(=O)c4ccc(-c5c6nc(c(-c7c(F)c(F)c(F)c(F)c7F)c7ccc([nH]7)c(-c7c(F)c(F)c(F)c(F)c7F)c7nc(c(-c8c(F)c(F)c(F)c(F)c8F)c8ccc5[nH]8)C=C7)C=C6)cc4)cc3N2)CC1
REMARK SMILES IDX 17 1 16 2 15 3 13 4 14 5 12 7 3 8 4 9 87 10 5 11 86 12 10 14
REMARK SMILES IDX 85 15 11 16 2 17 1 18 88 19 89 20 6 21 7 22 8 23 9 24 18 25
REMARK SMILES IDX 19 26 20 27 21 29 22 30 23 31 84 32 24 33 83 34 25 35 26 36
REMARK SMILES IDX 27 37 77 38 28 39 82 40 76 41 78 42 29 43 81 44 75 45 74 46
REMARK SMILES IDX 30 48 62 49 42 50 61 51 43 52 46 53 60 54 79 55 44 56 45 57
REMARK SMILES IDX 59 59 80 60 47 61 31 62 32 63 40 64 33 65 34 66 38 67 41 68
REMARK SMILES IDX 35 69 36 70 39 71 37 72 63 73 64 74 72 75 65 76 66 77 70 78
REMARK SMILES IDX 73 79 67 80 68 81 71 82 69 83 48 84 49 85 57 86 50 87 51 88
REMARK SMILES IDX 55 89 58 90 52 91 53 92 56 93 54 94
REMARK H PARENT 15 6 87 13 19 28 78 47 46 58
REMARK Flexibility Score: inf
ROOT
ATOM      1  C   UNL     1      -1.536   6.931   4.982  1.00  0.00     0.042 C 
ENDROOT
BRANCH   1   2
ATOM      2  C   UNL     1      -1.965   5.714   5.800  1.00  0.00     0.118 C 
BRANCH   2   3
ATOM      3  N   UNL     1      -3.266   5.231   5.388  1.00  0.00    -0.351 N 
ATOM      4  C   UNL     1      -3.643   4.184   4.575  1.00  0.00     0.271 C 
ATOM      5  O   UNL     1      -4.858   3.990   4.485  1.00  0.00    -0.267 OA
ATOM      6  H   UNL     1      -4.020   5.745   5.756  1.00  0.00     0.163 HD
BRANCH   4   7
ATOM      7  C   UNL     1      -2.647   3.341   3.882  1.00  0.00     0.152 A 
ATOM      8  C   UNL     1       0.655   0.881   1.813  1.00  0.00     0.089 C 
ATOM      9  C   UNL     1      -0.364  -0.211   2.203  1.00  0.00     0.062 C 
ATOM     10  N   UNL     1       0.424   2.080   2.605  1.00  0.00    -0.367 N 
ATOM     11  C   UNL     1      -1.823   0.263   2.378  1.00  0.00     0.216 C 
ATOM     12  C   UNL     1      -0.810   2.449   2.992  1.00  0.00     0.126 A 
ATOM     13  H   UNL     1       1.193   2.636   2.865  1.00  0.00     0.162 HD
ATOM     14  N   UNL     1      -1.884   1.620   2.875  1.00  0.00    -0.237 N 
ATOM     15  C   UNL     1      -1.289   3.605   3.546  1.00  0.00     0.082 A 
ATOM     16  N   UNL     1      -2.989   2.102   3.460  1.00  0.00    -0.165 NA
BRANCH   8  17
ATOM     17  C   UNL     1       0.778   1.203   0.316  1.00  0.00    -0.012 C 
ATOM     18  C   UNL     1       1.291   0.055  -0.527  1.00  0.00     0.013 C 
ATOM     19  C   UNL     1       1.346   2.563  -0.095  1.00  0.00     0.009 C 
ATOM     20  C   UNL     1      -0.092   2.256  -0.357  1.00  0.00     0.009 C 
ENDBRANCH   8  17
BRANCH  11  21
ATOM     21  C   UNL     1      -2.659   0.059   1.133  1.00  0.00     0.410 C 
ATOM     22  F   UNL     1      -2.652  -1.263   0.802  1.00  0.00    -0.169 F 
ATOM     23  F   UNL     1      -3.955   0.395   1.295  1.00  0.00    -0.169 F 
ATOM     24  F   UNL     1      -2.199   0.718   0.054  1.00  0.00    -0.169 F 
ENDBRANCH  11  21
ENDBRANCH   4   7
ENDBRANCH   2   3
ENDBRANCH   1   2
BRANCH   1  25
ATOM     25  C   UNL     1      -2.288   8.204   5.365  1.00  0.00     0.118 C 
BRANCH  25  26
ATOM     26  N   UNL     1      -1.957   8.651   6.713  1.00  0.00    -0.352 N 
ATOM     27  C   UNL     1      -1.463   9.852   7.153  1.00  0.00     0.251 C 
ATOM     28  H   UNL     1      -2.114   7.984   7.420  1.00  0.00     0.163 HD
ATOM     29  O   UNL     1      -1.048   9.953   8.303  1.00  0.00    -0.269 OA
BRANCH  27  30
ATOM     30  C   UNL     1      -1.418  11.023   6.252  1.00  0.00     0.039 A 
ATOM     31  C   UNL     1      -0.302  11.863   6.294  1.00  0.00     0.014 A 
ATOM     32  C   UNL     1      -2.485  11.317   5.400  1.00  0.00     0.014 A 
ATOM     33  C   UNL     1      -0.230  12.966   5.440  1.00  0.00     0.010 A 
ATOM     34  C   UNL     1      -2.380  12.372   4.497  1.00  0.00     0.010 A 
ATOM     35  C   UNL     1      -1.254  13.209   4.511  1.00  0.00    -0.014 A 
BRANCH  35  36
ATOM     36  C   UNL     1      -1.171  14.331   3.544  1.00  0.00     0.031 A 
ATOM     37  C   UNL     1      -2.176  15.447   3.595  1.00  0.00     0.074 A 
ATOM     38  C   UNL     1      -0.236  14.305   2.575  1.00  0.00     0.049 A 
ATOM     39  N   UNL     1      -2.332  16.461   2.781  1.00  0.00    -0.248 NA
ATOM     40  C   UNL     1      -3.155  15.402   4.692  1.00  0.00     0.031 C 
ATOM     41  C   UNL     1       0.769  13.256   2.399  1.00  0.00     0.029 A 
ATOM     42  N   UNL     1       0.010  15.177   1.545  1.00  0.00    -0.354 N 
ATOM     43  C   UNL     1      -3.433  17.160   3.257  1.00  0.00     0.074 A 
ATOM     44  C   UNL     1      -3.940  16.427   4.397  1.00  0.00     0.031 C 
ATOM     45  C   UNL     1       1.537  13.556   1.340  1.00  0.00     0.029 A 
ATOM     46  C   UNL     1       1.051  14.793   0.736  1.00  0.00     0.049 A 
ATOM     47  H   UNL     1      -0.509  16.001   1.400  1.00  0.00     0.167 HD
ATOM     48  C   UNL     1      -3.960  18.322   2.799  1.00  0.00     0.037 A 
ATOM     49  C   UNL     1       1.550  15.368  -0.374  1.00  0.00     0.037 A 
ATOM     50  C   UNL     1      -3.439  19.055   1.675  1.00  0.00     0.049 A 
ATOM     51  C   UNL     1       0.935  16.646  -0.875  1.00  0.00     0.074 A 
ATOM     52  C   UNL     1      -3.866  20.267   1.160  1.00  0.00     0.029 A 
ATOM     53  N   UNL     1      -2.373  18.641   0.888  1.00  0.00    -0.354 N 
ATOM     54  N   UNL     1      -0.068  17.332  -0.383  1.00  0.00    -0.248 NA
ATOM     55  C   UNL     1       1.526  17.233  -2.086  1.00  0.00     0.031 C 
ATOM     56  C   UNL     1      -3.092  20.561   0.033  1.00  0.00     0.029 A 
ATOM     57  C   UNL     1      -2.144  19.563  -0.122  1.00  0.00     0.049 A 
ATOM     58  H   UNL     1      -1.857  17.814   1.026  1.00  0.00     0.167 HD
ATOM     59  C   UNL     1      -0.208  18.445  -1.200  1.00  0.00     0.074 A 
ATOM     60  C   UNL     1       0.822  18.349  -2.214  1.00  0.00     0.031 C 
ATOM     61  C   UNL     1      -1.107  19.457  -1.117  1.00  0.00     0.037 A 
BRANCH  48  62
ATOM     62  C   UNL     1      -5.162  18.868   3.514  1.00  0.00     0.064 A 
ATOM     63  C   UNL     1      -5.077  19.367   4.824  1.00  0.00     0.173 A 
ATOM     64  C   UNL     1      -6.412  18.915   2.877  1.00  0.00     0.173 A 
ATOM     65  F   UNL     1      -3.909  19.337   5.483  1.00  0.00    -0.203 F 
ATOM     66  C   UNL     1      -6.203  19.858   5.480  1.00  0.00     0.198 A 
ATOM     67  C   UNL     1      -7.529  19.439   3.525  1.00  0.00     0.198 A 
ATOM     68  F   UNL     1      -6.550  18.459   1.624  1.00  0.00    -0.203 F 
ATOM     69  F   UNL     1      -6.107  20.275   6.750  1.00  0.00    -0.200 F 
ATOM     70  C   UNL     1      -7.426  19.899   4.829  1.00  0.00     0.200 A 
ATOM     71  F   UNL     1      -8.707  19.491   2.888  1.00  0.00    -0.200 F 
ATOM     72  F   UNL     1      -8.507  20.376   5.460  1.00  0.00    -0.200 F 
ENDBRANCH  48  62
BRANCH  49  73
ATOM     73  C   UNL     1       2.710  14.754  -1.071  1.00  0.00     0.064 A 
ATOM     74  C   UNL     1       3.965  15.379  -1.060  1.00  0.00     0.173 A 
ATOM     75  C   UNL     1       2.595  13.536  -1.756  1.00  0.00     0.173 A 
ATOM     76  F   UNL     1       4.121  16.555  -0.434  1.00  0.00    -0.203 F 
ATOM     77  C   UNL     1       5.054  14.820  -1.725  1.00  0.00     0.198 A 
ATOM     78  C   UNL     1       3.692  12.963  -2.396  1.00  0.00     0.198 A 
ATOM     79  F   UNL     1       1.418  12.893  -1.791  1.00  0.00    -0.203 F 
ATOM     80  F   UNL     1       6.231  15.462  -1.736  1.00  0.00    -0.200 F 
ATOM     81  C   UNL     1       4.918  13.610  -2.387  1.00  0.00     0.200 A 
ATOM     82  F   UNL     1       3.561  11.785  -3.021  1.00  0.00    -0.200 F 
ATOM     83  F   UNL     1       5.968  13.069  -3.021  1.00  0.00    -0.200 F 
ENDBRANCH  49  73
BRANCH  61  84
ATOM     84  C   UNL     1      -0.990  20.566  -2.123  1.00  0.00     0.064 A 
ATOM     85  C   UNL     1      -1.331  20.380  -3.471  1.00  0.00     0.173 A 
ATOM     86  C   UNL     1      -0.567  21.843  -1.722  1.00  0.00     0.173 A 
ATOM     87  F   UNL     1      -1.724  19.174  -3.908  1.00  0.00    -0.203 F 
ATOM     88  C   UNL     1      -1.228  21.425  -4.385  1.00  0.00     0.198 A 
ATOM     89  C   UNL     1      -0.497  22.893  -2.632  1.00  0.00     0.198 A 
ATOM     90  F   UNL     1      -0.235  22.075  -0.443  1.00  0.00    -0.203 F 
ATOM     91  F   UNL     1      -1.511  21.213  -5.677  1.00  0.00    -0.200 F 
ATOM     92  C   UNL     1      -0.820  22.682  -3.963  1.00  0.00     0.200 A 
ATOM     93  F   UNL     1      -0.116  24.110  -2.219  1.00  0.00    -0.200 F 
ATOM     94  F   UNL     1      -0.730  23.689  -4.843  1.00  0.00    -0.200 F 
ENDBRANCH  61  84
ENDBRANCH  35  36
ENDBRANCH  27  30
ENDBRANCH  25  26
ENDBRANCH   1  25
TORSDOF 12
