REMARK SMILES O=C(NCCCNC(=O)c1cccc(/C=N/NC(=S)Nc2ccccc2)c1O)c1ccc(-c2c3nc(c(-c4c(F)c(F)c(F)c(F)c4F)c4ccc([nH]4)c(-c4c(F)c(F)c(F)c(F)c4F)c4nc(c(-c5c(F)c(F)c(F)c(F)c5F)c5ccc2[nH]5)C=C4)C=C3)cc1
REMARK SMILES IDX 7 1 8 2 9 3 6 5 5 6 4 7 3 8 1 9 2 10 29 12 30 13 91 14 31 15
REMARK SMILES IDX 90 16 32 17 33 18 34 19 84 20 35 21 89 22 83 23 85 24 36 25
REMARK SMILES IDX 88 26 82 27 81 28 37 30 69 31 49 32 68 33 50 34 53 35 67 36
REMARK SMILES IDX 86 37 51 38 52 39 66 41 87 42 54 43 38 44 39 45 47 46 40 47
REMARK SMILES IDX 41 48 45 49 48 50 42 51 43 52 46 53 44 54 70 55 71 56 79 57
REMARK SMILES IDX 72 58 73 59 77 60 80 61 74 62 75 63 78 64 76 65 55 66 56 67
REMARK SMILES IDX 64 68 57 69 58 70 62 71 65 72 59 73 60 74 63 75 61 76 10 77
REMARK SMILES IDX 11 78 27 79 12 80 14 81 13 82 28 83 15 85 16 86 17 87 18 89
REMARK SMILES IDX 19 90 20 91 21 93 22 94 26 95 23 96 25 97 24 98
REMARK H PARENT 7 4 3 11 85 29 53 40 28 84 17 88 20 92
REMARK Flexibility Score: inf
ROOT
ATOM      1  N   UNL     1       5.611  -3.277   2.046  1.00  0.00    -0.352 N 
ATOM      2  C   UNL     1       6.390  -4.188   2.709  1.00  0.00     0.255 C 
ATOM      3  O   UNL     1       6.849  -5.128   2.061  1.00  0.00    -0.269 OA
ATOM      4  H   UNL     1       5.392  -3.530   1.120  1.00  0.00     0.163 HD
ENDROOT
BRANCH   1   5
ATOM      5  C   UNL     1       5.048  -1.999   2.465  1.00  0.00     0.118 C 
BRANCH   5   6
ATOM      6  C   UNL     1       5.251  -0.894   1.442  1.00  0.00     0.042 C 
BRANCH   6   7
ATOM      7  C   UNL     1       4.591  -1.178   0.101  1.00  0.00     0.118 C 
BRANCH   7   8
ATOM      8  N   UNL     1       3.138  -1.054   0.128  1.00  0.00    -0.352 N 
ATOM      9  O   UNL     1       1.114  -0.072   0.052  1.00  0.00    -0.269 OA
ATOM     10  C   UNL     1       2.311   0.003  -0.185  1.00  0.00     0.251 C 
ATOM     11  H   UNL     1       2.666  -1.867   0.420  1.00  0.00     0.163 HD
BRANCH  10  12
ATOM     12  C   UNL     1       2.872   1.246  -0.761  1.00  0.00     0.039 A 
ATOM     13  C   UNL     1       3.869   1.199  -1.730  1.00  0.00     0.014 A 
ATOM     14  C   UNL     1       2.387   2.483  -0.326  1.00  0.00     0.014 A 
ATOM     15  C   UNL     1       4.546   2.357  -2.084  1.00  0.00     0.010 A 
ATOM     16  C   UNL     1       2.972   3.663  -0.798  1.00  0.00     0.010 A 
ATOM     17  C   UNL     1       4.091   3.607  -1.643  1.00  0.00    -0.014 A 
BRANCH  17  18
ATOM     18  C   UNL     1       4.764   4.839  -2.127  1.00  0.00     0.031 A 
ATOM     19  C   UNL     1       5.394   5.805  -1.164  1.00  0.00     0.074 A 
ATOM     20  C   UNL     1       4.817   5.072  -3.453  1.00  0.00     0.049 A 
ATOM     21  N   UNL     1       5.962   6.960  -1.405  1.00  0.00    -0.248 NA
ATOM     22  C   UNL     1       5.376   5.433   0.259  1.00  0.00     0.031 C 
ATOM     23  C   UNL     1       4.250   4.199  -4.484  1.00  0.00     0.029 A 
ATOM     24  N   UNL     1       5.377   6.101  -4.164  1.00  0.00    -0.354 N 
ATOM     25  C   UNL     1       6.335   7.468  -0.167  1.00  0.00     0.074 A 
ATOM     26  C   UNL     1       5.912   6.504   0.827  1.00  0.00     0.031 C 
ATOM     27  C   UNL     1       4.525   4.705  -5.692  1.00  0.00     0.029 A 
ATOM     28  C   UNL     1       5.203   5.983  -5.521  1.00  0.00     0.049 A 
ATOM     29  H   UNL     1       5.855   6.852  -3.744  1.00  0.00     0.167 HD
ATOM     30  C   UNL     1       6.973   8.632   0.109  1.00  0.00     0.037 A 
ATOM     31  C   UNL     1       5.515   6.828  -6.520  1.00  0.00     0.037 A 
ATOM     32  C   UNL     1       7.402   9.573  -0.895  1.00  0.00     0.049 A 
ATOM     33  C   UNL     1       6.182   8.128  -6.186  1.00  0.00     0.074 A 
ATOM     34  C   UNL     1       8.081  10.767  -0.726  1.00  0.00     0.029 A 
ATOM     35  N   UNL     1       7.185   9.428  -2.260  1.00  0.00    -0.354 N 
ATOM     36  N   UNL     1       6.537   8.595  -5.013  1.00  0.00    -0.248 NA
ATOM     37  C   UNL     1       6.487   9.022  -7.309  1.00  0.00     0.031 C 
ATOM     38  C   UNL     1       8.223  11.371  -1.980  1.00  0.00     0.029 A 
ATOM     39  C   UNL     1       7.694  10.523  -2.940  1.00  0.00     0.049 A 
ATOM     40  H   UNL     1       6.737   8.660  -2.682  1.00  0.00     0.167 HD
ATOM     41  C   UNL     1       7.130   9.824  -5.257  1.00  0.00     0.074 A 
ATOM     42  C   UNL     1       7.094  10.026  -6.692  1.00  0.00     0.031 C 
ATOM     43  C   UNL     1       7.658  10.704  -4.371  1.00  0.00     0.037 A 
BRANCH  30  44
ATOM     44  C   UNL     1       7.210   8.971   1.555  1.00  0.00     0.064 A 
ATOM     45  C   UNL     1       8.115   8.254   2.351  1.00  0.00     0.173 A 
ATOM     46  C   UNL     1       6.532  10.049   2.148  1.00  0.00     0.173 A 
ATOM     47  F   UNL     1       8.783   7.209   1.840  1.00  0.00    -0.203 F 
ATOM     48  C   UNL     1       8.303   8.577   3.694  1.00  0.00     0.198 A 
ATOM     49  C   UNL     1       6.748  10.390   3.481  1.00  0.00     0.198 A 
ATOM     50  F   UNL     1       5.661  10.777   1.433  1.00  0.00    -0.203 F 
ATOM     51  F   UNL     1       9.128   7.838   4.449  1.00  0.00    -0.200 F 
ATOM     52  C   UNL     1       7.624   9.647   4.256  1.00  0.00     0.200 A 
ATOM     53  F   UNL     1       6.102  11.435   4.017  1.00  0.00    -0.200 F 
ATOM     54  F   UNL     1       7.807   9.957   5.547  1.00  0.00    -0.200 F 
ENDBRANCH  30  44
BRANCH  31  55
ATOM     55  C   UNL     1       5.171   6.461  -7.917  1.00  0.00     0.064 A 
ATOM     56  C   UNL     1       6.168   6.144  -8.848  1.00  0.00     0.173 A 
ATOM     57  C   UNL     1       3.834   6.370  -8.335  1.00  0.00     0.173 A 
ATOM     58  F   UNL     1       7.460   6.229  -8.499  1.00  0.00    -0.203 F 
ATOM     59  C   UNL     1       5.842   5.755 -10.145  1.00  0.00     0.198 A 
ATOM     60  C   UNL     1       3.508   5.950  -9.622  1.00  0.00     0.198 A 
ATOM     61  F   UNL     1       2.841   6.651  -7.478  1.00  0.00    -0.203 F 
ATOM     62  F   UNL     1       6.816   5.484 -11.025  1.00  0.00    -0.200 F 
ATOM     63  C   UNL     1       4.513   5.648 -10.528  1.00  0.00     0.200 A 
ATOM     64  F   UNL     1       2.223   5.825  -9.979  1.00  0.00    -0.200 F 
ATOM     65  F   UNL     1       4.201   5.255 -11.770  1.00  0.00    -0.200 F 
ENDBRANCH  31  55
BRANCH  43  66
ATOM     66  C   UNL     1       8.290  11.944  -4.931  1.00  0.00     0.064 A 
ATOM     67  C   UNL     1       7.524  12.983  -5.478  1.00  0.00     0.173 A 
ATOM     68  C   UNL     1       9.682  12.110  -4.877  1.00  0.00     0.173 A 
ATOM     69  F   UNL     1       6.191  12.864  -5.570  1.00  0.00    -0.203 F 
ATOM     70  C   UNL     1       8.132  14.136  -5.968  1.00  0.00     0.198 A 
ATOM     71  C   UNL     1      10.283  13.277  -5.338  1.00  0.00     0.198 A 
ATOM     72  F   UNL     1      10.459  11.146  -4.360  1.00  0.00    -0.203 F 
ATOM     73  F   UNL     1       7.385  15.098  -6.528  1.00  0.00    -0.200 F 
ATOM     74  C   UNL     1       9.508  14.286  -5.889  1.00  0.00     0.200 A 
ATOM     75  F   UNL     1      11.612  13.425  -5.248  1.00  0.00    -0.200 F 
ATOM     76  F   UNL     1      10.090  15.402  -6.350  1.00  0.00    -0.200 F 
ENDBRANCH  43  66
ENDBRANCH  17  18
ENDBRANCH  10  12
ENDBRANCH   7   8
ENDBRANCH   6   7
ENDBRANCH   5   6
ENDBRANCH   1   5
BRANCH   2  77
ATOM     77  C   UNL     1       6.687  -4.095   4.160  1.00  0.00     0.082 A 
ATOM     78  C   UNL     1       7.941  -4.569   4.577  1.00  0.00     0.018 A 
ATOM     79  C   UNL     1       5.773  -3.664   5.129  1.00  0.00     0.137 A 
ATOM     80  C   UNL     1       8.282  -4.589   5.932  1.00  0.00     0.002 A 
ATOM     81  C   UNL     1       6.128  -3.645   6.482  1.00  0.00     0.037 A 
ATOM     82  C   UNL     1       7.376  -4.124   6.885  1.00  0.00     0.014 A 
BRANCH  79  83
ATOM     83  O   UNL     1       4.489  -3.325   4.811  1.00  0.00    -0.506 OA
ATOM     84  H   UNL     1       4.212  -3.325   3.916  1.00  0.00     0.293 HD
ENDBRANCH  79  83
BRANCH  81  85
ATOM     85  C   UNL     1       5.147  -3.175   7.484  1.00  0.00     0.145 C 
ATOM     86  N   UNL     1       5.158  -3.632   8.695  1.00  0.00    -0.181 NA
BRANCH  86  87
ATOM     87  N   UNL     1       4.179  -3.245   9.567  1.00  0.00    -0.254 N 
ATOM     88  H   UNL     1       4.465  -3.249  10.509  1.00  0.00     0.193 HD
BRANCH  87  89
ATOM     89  C   UNL     1       2.890  -2.858   9.390  1.00  0.00     0.191 C 
ATOM     90  S   UNL     1       2.161  -1.998  10.635  1.00  0.00    -0.039 S 
BRANCH  89  91
ATOM     91  N   UNL     1       2.158  -3.076   8.274  1.00  0.00    -0.331 N 
ATOM     92  H   UNL     1       1.440  -2.417   8.131  1.00  0.00     0.169 HD
BRANCH  91  93
ATOM     93  C   UNL     1       2.230  -4.067   7.279  1.00  0.00     0.040 A 
ATOM     94  C   UNL     1       1.601  -3.799   6.057  1.00  0.00     0.026 A 
ATOM     95  C   UNL     1       2.890  -5.283   7.453  1.00  0.00     0.026 A 
ATOM     96  C   UNL     1       1.723  -4.692   4.988  1.00  0.00     0.002 A 
ATOM     97  C   UNL     1       3.015  -6.175   6.385  1.00  0.00     0.002 A 
ATOM     98  C   UNL     1       2.449  -5.871   5.148  1.00  0.00     0.000 A 
ENDBRANCH  91  93
ENDBRANCH  89  91
ENDBRANCH  87  89
ENDBRANCH  86  87
ENDBRANCH  81  85
ENDBRANCH   2  77
TORSDOF 16
