REMARK SMILES CO[C@@H]1C[C@@H](C(=O)NCCCNC(=O)c2ccc(-c3c4nc(c(-c5c(F)c(F)c(F)c(F)c5F)c5ccc([nH]5)c(-c5c(F)c(F)c(F)c(F)c5F)c5nc(c(-c6c(F)c(F)c(F)c(F)c6F)c6ccc3[nH]6)C=C5)C=C4)cc2)N(S(=O)(=O)c2ccc(Cl)cc2F)C1
REMARK SMILES IDX 10 1 9 2 8 3 6 4 7 5 5 7 3 8 4 9 90 10 78 11 2 12 1 13 79 14
REMARK SMILES IDX 80 15 81 16 82 17 83 18 88 19 84 20 87 21 89 22 85 23 86 24
REMARK SMILES IDX 11 25 12 26 13 27 14 29 15 30 16 31 77 32 17 33 76 34 18 35
REMARK SMILES IDX 19 36 20 37 70 38 21 39 75 40 69 41 71 42 22 43 74 44 68 45
REMARK SMILES IDX 67 46 23 48 55 49 35 50 54 51 36 52 39 53 53 54 72 55 37 56
REMARK SMILES IDX 38 57 52 59 73 60 40 61 24 62 25 63 33 64 26 65 27 66 31 67
REMARK SMILES IDX 34 68 28 69 29 70 32 71 30 72 56 73 57 74 65 75 58 76 59 77
REMARK SMILES IDX 63 78 66 79 60 80 61 81 64 82 62 83 41 84 42 85 50 86 43 87
REMARK SMILES IDX 44 88 48 89 51 90 45 91 46 92 49 93 47 94
REMARK H PARENT 8 6 12 28 71 47 39 58
REMARK Flexibility Score: inf
ROOT
ATOM      1  C   UNL     1       5.849   1.998  -0.607  1.00  0.00     0.042 C 
ENDROOT
BRANCH   1   2
ATOM      2  C   UNL     1       5.665   0.888   0.431  1.00  0.00     0.117 C 
BRANCH   2   3
ATOM      3  N   UNL     1       5.509   1.464   1.758  1.00  0.00    -0.355 N 
ATOM      4  C   UNL     1       4.347   1.729   2.436  1.00  0.00     0.238 C 
ATOM      5  O   UNL     1       4.352   2.650   3.250  1.00  0.00    -0.273 OA
ATOM      6  H   UNL     1       6.343   1.693   2.229  1.00  0.00     0.163 HD
BRANCH   4   7
ATOM      7  C   UNL     1       3.128   0.891   2.141  1.00  0.00     0.165 C 
ATOM      8  C   UNL     1       0.817   0.455   2.217  1.00  0.00     0.135 C 
ATOM      9  C   UNL     1       1.821   1.532   2.601  1.00  0.00     0.064 C 
ATOM     10  C   UNL     1       1.559  -0.857   2.554  1.00  0.00     0.135 C 
ATOM     11  N   UNL     1       3.046  -0.525   2.652  1.00  0.00    -0.183 NA
BRANCH   8  12
ATOM     12  O   UNL     1       0.436   0.733   0.865  1.00  0.00    -0.380 OA
ATOM     13  C   UNL     1       0.589  -0.285  -0.104  1.00  0.00     0.195 C 
ENDBRANCH   8  12
BRANCH  11  14
ATOM     14  S   UNL     1       3.639  -0.868   4.243  1.00  0.00     0.246 S 
ATOM     15  O   UNL     1       3.279   0.227   5.109  1.00  0.00    -0.207 OA
ATOM     16  O   UNL     1       3.159  -2.204   4.557  1.00  0.00    -0.207 OA
BRANCH  14  17
ATOM     17  C   UNL     1       5.399  -1.029   4.154  1.00  0.00     0.118 A 
ATOM     18  C   UNL     1       5.952  -2.300   3.923  1.00  0.00     0.026 A 
ATOM     19  C   UNL     1       6.238   0.007   4.544  1.00  0.00     0.144 A 
ATOM     20  C   UNL     1       7.333  -2.497   4.029  1.00  0.00     0.022 A 
ATOM     21  C   UNL     1       7.620  -0.171   4.604  1.00  0.00     0.061 A 
ATOM     22  F   UNL     1       5.764   1.205   4.892  1.00  0.00    -0.205 F 
ATOM     23  C   UNL     1       8.163  -1.425   4.351  1.00  0.00     0.044 A 
ATOM     24  Cl  UNL     1       9.862  -1.661   4.473  1.00  0.00    -0.084 Cl
ENDBRANCH  14  17
ENDBRANCH  11  14
ENDBRANCH   4   7
ENDBRANCH   2   3
ENDBRANCH   1   2
BRANCH   1  25
ATOM     25  C   UNL     1       7.200   2.704  -0.502  1.00  0.00     0.118 C 
BRANCH  25  26
ATOM     26  N   UNL     1       8.299   1.858  -0.945  1.00  0.00    -0.352 N 
ATOM     27  C   UNL     1       9.345   2.160  -1.782  1.00  0.00     0.251 C 
ATOM     28  H   UNL     1       8.292   0.939  -0.595  1.00  0.00     0.163 HD
ATOM     29  O   UNL     1      10.084   1.267  -2.184  1.00  0.00    -0.269 OA
BRANCH  27  30
ATOM     30  C   UNL     1       9.568   3.554  -2.223  1.00  0.00     0.039 A 
ATOM     31  C   UNL     1       9.851   3.795  -3.570  1.00  0.00     0.014 A 
ATOM     32  C   UNL     1       9.520   4.616  -1.315  1.00  0.00     0.014 A 
ATOM     33  C   UNL     1      10.026   5.105  -4.020  1.00  0.00     0.010 A 
ATOM     34  C   UNL     1       9.638   5.927  -1.774  1.00  0.00     0.010 A 
ATOM     35  C   UNL     1       9.890   6.184  -3.131  1.00  0.00    -0.014 A 
BRANCH  35  36
ATOM     36  C   UNL     1       9.998   7.587  -3.605  1.00  0.00     0.031 A 
ATOM     37  C   UNL     1      11.129   8.460  -3.141  1.00  0.00     0.074 A 
ATOM     38  C   UNL     1       9.038   8.092  -4.403  1.00  0.00     0.049 A 
ATOM     39  N   UNL     1      11.350   9.728  -3.385  1.00  0.00    -0.248 NA
ATOM     40  C   UNL     1      12.133   7.833  -2.268  1.00  0.00     0.031 C 
ATOM     41  C   UNL     1       7.867   7.359  -4.885  1.00  0.00     0.029 A 
ATOM     42  N   UNL     1       8.888   9.348  -4.938  1.00  0.00    -0.354 N 
ATOM     43  C   UNL     1      12.503  10.052  -2.684  1.00  0.00     0.074 A 
ATOM     44  C   UNL     1      12.914   8.861  -1.971  1.00  0.00     0.031 C 
ATOM     45  C   UNL     1       7.126   8.172  -5.656  1.00  0.00     0.029 A 
ATOM     46  C   UNL     1       7.751   9.491  -5.695  1.00  0.00     0.049 A 
ATOM     47  H   UNL     1       9.534  10.076  -4.793  1.00  0.00     0.167 HD
ATOM     48  C   UNL     1      13.169  11.231  -2.653  1.00  0.00     0.037 A 
ATOM     49  C   UNL     1       7.262  10.567  -6.340  1.00  0.00     0.037 A 
ATOM     50  C   UNL     1      12.776  12.406  -3.386  1.00  0.00     0.049 A 
ATOM     51  C   UNL     1       8.026  11.863  -6.294  1.00  0.00     0.074 A 
ATOM     52  C   UNL     1      13.422  13.627  -3.470  1.00  0.00     0.029 A 
ATOM     53  N   UNL     1      11.632  12.505  -4.163  1.00  0.00    -0.354 N 
ATOM     54  N   UNL     1       9.151  12.138  -5.681  1.00  0.00    -0.248 NA
ATOM     55  C   UNL     1       7.454  12.995  -7.035  1.00  0.00     0.031 C 
ATOM     56  C   UNL     1      12.649  14.478  -4.268  1.00  0.00     0.029 A 
ATOM     57  C   UNL     1      11.543  13.773  -4.715  1.00  0.00     0.049 A 
ATOM     58  H   UNL     1      10.978  11.781  -4.302  1.00  0.00     0.167 HD
ATOM     59  C   UNL     1       9.435  13.463  -5.982  1.00  0.00     0.074 A 
ATOM     60  C   UNL     1       8.371  13.933  -6.845  1.00  0.00     0.031 C 
ATOM     61  C   UNL     1      10.483  14.222  -5.580  1.00  0.00     0.037 A 
BRANCH  48  62
ATOM     62  C   UNL     1      14.402  11.310  -1.802  1.00  0.00     0.064 A 
ATOM     63  C   UNL     1      15.588  10.656  -2.165  1.00  0.00     0.173 A 
ATOM     64  C   UNL     1      14.412  12.086  -0.633  1.00  0.00     0.173 A 
ATOM     65  F   UNL     1      15.627   9.893  -3.268  1.00  0.00    -0.203 F 
ATOM     66  C   UNL     1      16.732  10.755  -1.378  1.00  0.00     0.198 A 
ATOM     67  C   UNL     1      15.566  12.206   0.138  1.00  0.00     0.198 A 
ATOM     68  F   UNL     1      13.306  12.738  -0.243  1.00  0.00    -0.203 F 
ATOM     69  F   UNL     1      17.841  10.087  -1.723  1.00  0.00    -0.200 F 
ATOM     70  C   UNL     1      16.722  11.535  -0.231  1.00  0.00     0.200 A 
ATOM     71  F   UNL     1      15.558  12.969   1.240  1.00  0.00    -0.200 F 
ATOM     72  F   UNL     1      17.826  11.637   0.521  1.00  0.00    -0.200 F 
ENDBRANCH  48  62
BRANCH  49  73
ATOM     73  C   UNL     1       5.994  10.460  -7.105  1.00  0.00     0.064 A 
ATOM     74  C   UNL     1       5.996  10.500  -8.506  1.00  0.00     0.173 A 
ATOM     75  C   UNL     1       4.759  10.322  -6.456  1.00  0.00     0.173 A 
ATOM     76  F   UNL     1       7.151  10.652  -9.169  1.00  0.00    -0.203 F 
ATOM     77  C   UNL     1       4.807  10.425  -9.229  1.00  0.00     0.198 A 
ATOM     78  C   UNL     1       3.574  10.221  -7.181  1.00  0.00     0.198 A 
ATOM     79  F   UNL     1       4.705  10.274  -5.117  1.00  0.00    -0.203 F 
ATOM     80  F   UNL     1       4.833  10.509 -10.566  1.00  0.00    -0.200 F 
ATOM     81  C   UNL     1       3.598  10.281  -8.566  1.00  0.00     0.200 A 
ATOM     82  F   UNL     1       2.408  10.068  -6.538  1.00  0.00    -0.200 F 
ATOM     83  F   UNL     1       2.455  10.206  -9.262  1.00  0.00    -0.200 F 
ENDBRANCH  49  73
BRANCH  61  84
ATOM     84  C   UNL     1      10.550  15.629  -6.095  1.00  0.00     0.064 A 
ATOM     85  C   UNL     1       9.688  16.627  -5.618  1.00  0.00     0.173 A 
ATOM     86  C   UNL     1      11.512  15.990  -7.050  1.00  0.00     0.173 A 
ATOM     87  F   UNL     1       8.741  16.327  -4.717  1.00  0.00    -0.203 F 
ATOM     88  C   UNL     1       9.774  17.932  -6.095  1.00  0.00     0.198 A 
ATOM     89  C   UNL     1      11.613  17.301  -7.505  1.00  0.00     0.198 A 
ATOM     90  F   UNL     1      12.363  15.072  -7.534  1.00  0.00    -0.203 F 
ATOM     91  F   UNL     1       8.913  18.861  -5.658  1.00  0.00    -0.200 F 
ATOM     92  C   UNL     1      10.740  18.270  -7.032  1.00  0.00     0.200 A 
ATOM     93  F   UNL     1      12.553  17.628  -8.402  1.00  0.00    -0.200 F 
ATOM     94  F   UNL     1      10.825  19.528  -7.485  1.00  0.00    -0.200 F 
ENDBRANCH  61  84
ENDBRANCH  35  36
ENDBRANCH  27  30
ENDBRANCH  25  26
ENDBRANCH   1  25
TORSDOF 13
