REMARK SMILES O=C(NCCCNC(=O)c1ccccc1NC(=O)c1ccc(N2C(=O)[C@H]3CC=CC[C@H]3C2=O)cc1)c1ccc(-c2c3nc(c(-c4c(F)c(F)c(F)c(F)c4F)c4ccc([nH]4)c(-c4c(F)c(F)c(F)c(F)c4F)c4nc(c(-c5c(F)c(F)c(F)c(F)c5F)c5ccc2[nH]5)C=C4)C=C3)cc1
REMARK SMILES IDX 5 1 4 2 3 3 1 4 2 5 36 7 37 8 98 9 38 10 97 11 39 12 40 13
REMARK SMILES IDX 41 14 91 15 42 16 96 17 90 18 92 19 43 20 95 21 89 22 88 23
REMARK SMILES IDX 44 25 76 26 56 27 75 28 57 29 60 30 74 31 93 32 58 33 59 34
REMARK SMILES IDX 73 36 94 37 61 38 45 39 46 40 54 41 47 42 48 43 52 44 55 45
REMARK SMILES IDX 49 46 50 47 53 48 51 49 77 50 78 51 86 52 79 53 80 54 84 55
REMARK SMILES IDX 87 56 81 57 82 58 85 59 83 60 62 61 63 62 71 63 64 64 65 65
REMARK SMILES IDX 69 66 72 67 66 68 67 69 70 70 68 71 6 72 7 73 8 74 9 76
REMARK SMILES IDX 10 77 11 78 15 79 12 80 14 81 13 82 16 83 17 84 18 86 19 87
REMARK SMILES IDX 20 88 35 89 21 90 34 91 22 92 23 93 24 94 32 95 25 96 26 97
REMARK SMILES IDX 31 98 33 99 27 100 30 101 28 102 29 103
REMARK H PARENT 3 6 92 24 60 35 7 75 16 85
REMARK Flexibility Score: inf
ROOT
ATOM      1  C   UNL     1       5.074  -1.063  -2.224  1.00  0.00     0.042 C 
ENDROOT
BRANCH   1   2
ATOM      2  C   UNL     1       4.640   0.137  -1.399  1.00  0.00     0.118 C 
BRANCH   2   3
ATOM      3  N   UNL     1       3.201   0.195  -1.175  1.00  0.00    -0.352 N 
ATOM      4  O   UNL     1       1.241  -0.036  -0.088  1.00  0.00    -0.269 OA
ATOM      5  C   UNL     1       2.467   0.010  -0.029  1.00  0.00     0.251 C 
ATOM      6  H   UNL     1       2.668   0.401  -1.977  1.00  0.00     0.163 HD
BRANCH   5   7
ATOM      7  C   UNL     1       3.143  -0.166   1.273  1.00  0.00     0.039 A 
ATOM      8  C   UNL     1       4.240   0.620   1.623  1.00  0.00     0.014 A 
ATOM      9  C   UNL     1       2.660  -1.125   2.168  1.00  0.00     0.014 A 
ATOM     10  C   UNL     1       4.965   0.324   2.769  1.00  0.00     0.010 A 
ATOM     11  C   UNL     1       3.322  -1.343   3.381  1.00  0.00     0.010 A 
ATOM     12  C   UNL     1       4.503  -0.645   3.673  1.00  0.00    -0.014 A 
BRANCH  12  13
ATOM     13  C   UNL     1       5.245  -0.855   4.942  1.00  0.00     0.031 A 
ATOM     14  C   UNL     1       5.899  -2.170   5.257  1.00  0.00     0.074 A 
ATOM     15  C   UNL     1       5.361   0.183   5.794  1.00  0.00     0.049 A 
ATOM     16  N   UNL     1       6.606  -2.507   6.307  1.00  0.00    -0.248 NA
ATOM     17  C   UNL     1       5.736  -3.252   4.274  1.00  0.00     0.031 C 
ATOM     18  C   UNL     1       4.758   1.504   5.597  1.00  0.00     0.029 A 
ATOM     19  N   UNL     1       6.041   0.304   6.978  1.00  0.00    -0.354 N 
ATOM     20  C   UNL     1       6.959  -3.837   6.120  1.00  0.00     0.074 A 
ATOM     21  C   UNL     1       6.364  -4.257   4.869  1.00  0.00     0.031 C 
ATOM     22  C   UNL     1       5.140   2.316   6.592  1.00  0.00     0.029 A 
ATOM     23  C   UNL     1       5.954   1.557   7.533  1.00  0.00     0.049 A 
ATOM     24  H   UNL     1       6.543  -0.436   7.391  1.00  0.00     0.167 HD
ATOM     25  C   UNL     1       7.719  -4.628   6.915  1.00  0.00     0.037 A 
ATOM     26  C   UNL     1       6.457   2.039   8.683  1.00  0.00     0.037 A 
ATOM     27  C   UNL     1       8.317  -4.199   8.154  1.00  0.00     0.049 A 
ATOM     28  C   UNL     1       7.272   1.130   9.556  1.00  0.00     0.074 A 
ATOM     29  C   UNL     1       9.116  -4.921   9.024  1.00  0.00     0.029 A 
ATOM     30  N   UNL     1       8.180  -2.930   8.700  1.00  0.00    -0.354 N 
ATOM     31  N   UNL     1       7.615  -0.118   9.354  1.00  0.00    -0.248 NA
ATOM     32  C   UNL     1       7.765   1.696  10.817  1.00  0.00     0.031 C 
ATOM     33  C   UNL     1       9.428  -4.102  10.115  1.00  0.00     0.029 A 
ATOM     34  C   UNL     1       8.864  -2.855   9.903  1.00  0.00     0.049 A 
ATOM     35  H   UNL     1       7.671  -2.192   8.292  1.00  0.00     0.167 HD
ATOM     36  C   UNL     1       8.376  -0.485  10.455  1.00  0.00     0.074 A 
ATOM     37  C   UNL     1       8.465   0.682  11.308  1.00  0.00     0.031 C 
ATOM     38  C   UNL     1       8.943  -1.683  10.737  1.00  0.00     0.037 A 
BRANCH  25  39
ATOM     39  C   UNL     1       7.943  -6.048   6.479  1.00  0.00     0.064 A 
ATOM     40  C   UNL     1       8.779  -6.362   5.397  1.00  0.00     0.173 A 
ATOM     41  C   UNL     1       7.356  -7.111   7.183  1.00  0.00     0.173 A 
ATOM     42  F   UNL     1       9.355  -5.384   4.683  1.00  0.00    -0.203 F 
ATOM     43  C   UNL     1       9.004  -7.686   5.025  1.00  0.00     0.198 A 
ATOM     44  C   UNL     1       7.604  -8.434   6.825  1.00  0.00     0.198 A 
ATOM     45  F   UNL     1       6.554  -6.867   8.230  1.00  0.00    -0.203 F 
ATOM     46  F   UNL     1       9.776  -7.960   3.964  1.00  0.00    -0.200 F 
ATOM     47  C   UNL     1       8.423  -8.720   5.743  1.00  0.00     0.200 A 
ATOM     48  F   UNL     1       7.052  -9.432   7.529  1.00  0.00    -0.200 F 
ATOM     49  F   UNL     1       8.648  -9.993   5.390  1.00  0.00    -0.200 F 
ENDBRANCH  25  39
BRANCH  26  50
ATOM     50  C   UNL     1       6.192   3.448   9.072  1.00  0.00     0.064 A 
ATOM     51  C   UNL     1       7.223   4.396   9.104  1.00  0.00     0.173 A 
ATOM     52  C   UNL     1       4.900   3.877   9.410  1.00  0.00     0.173 A 
ATOM     53  F   UNL     1       8.479   4.030   8.807  1.00  0.00    -0.203 F 
ATOM     54  C   UNL     1       6.975   5.715   9.477  1.00  0.00     0.198 A 
ATOM     55  C   UNL     1       4.647   5.203   9.751  1.00  0.00     0.198 A 
ATOM     56  F   UNL     1       3.877   3.010   9.388  1.00  0.00    -0.203 F 
ATOM     57  F   UNL     1       7.987   6.591   9.543  1.00  0.00    -0.200 F 
ATOM     58  C   UNL     1       5.686   6.119   9.793  1.00  0.00     0.200 A 
ATOM     59  F   UNL     1       3.397   5.592  10.037  1.00  0.00    -0.200 F 
ATOM     60  F   UNL     1       5.448   7.390  10.144  1.00  0.00    -0.200 F 
ENDBRANCH  26  50
BRANCH  38  61
ATOM     61  C   UNL     1       9.732  -1.776  12.009  1.00  0.00     0.064 A 
ATOM     62  C   UNL     1       9.103  -1.788  13.263  1.00  0.00     0.173 A 
ATOM     63  C   UNL     1      11.131  -1.869  11.972  1.00  0.00     0.173 A 
ATOM     64  F   UNL     1       7.768  -1.682  13.350  1.00  0.00    -0.203 F 
ATOM     65  C   UNL     1       9.850  -1.861  14.435  1.00  0.00     0.198 A 
ATOM     66  C   UNL     1      11.872  -1.971  13.145  1.00  0.00     0.198 A 
ATOM     67  F   UNL     1      11.778  -1.865  10.797  1.00  0.00    -0.203 F 
ATOM     68  F   UNL     1       9.232  -1.818  15.624  1.00  0.00    -0.200 F 
ATOM     69  C   UNL     1      11.232  -1.959  14.376  1.00  0.00     0.200 A 
ATOM     70  F   UNL     1      13.207  -2.076  13.086  1.00  0.00    -0.200 F 
ATOM     71  F   UNL     1      11.949  -2.030  15.506  1.00  0.00    -0.200 F 
ENDBRANCH  38  61
ENDBRANCH  12  13
ENDBRANCH   5   7
ENDBRANCH   2   3
ENDBRANCH   1   2
BRANCH   1  72
ATOM     72  C   UNL     1       4.536  -1.064  -3.644  1.00  0.00     0.118 C 
BRANCH  72  73
ATOM     73  N   UNL     1       4.889   0.150  -4.368  1.00  0.00    -0.352 N 
ATOM     74  C   UNL     1       5.756   0.339  -5.410  1.00  0.00     0.253 C 
ATOM     75  H   UNL     1       4.431   0.965  -4.058  1.00  0.00     0.163 HD
ATOM     76  O   UNL     1       6.110   1.480  -5.697  1.00  0.00    -0.269 OA
BRANCH  74  77
ATOM     77  C   UNL     1       6.254  -0.799  -6.214  1.00  0.00     0.063 A 
ATOM     78  C   UNL     1       7.640  -0.829  -6.439  1.00  0.00     0.016 A 
ATOM     79  C   UNL     1       5.399  -1.758  -6.802  1.00  0.00     0.054 A 
ATOM     80  C   UNL     1       8.197  -1.818  -7.244  1.00  0.00     0.001 A 
ATOM     81  C   UNL     1       5.979  -2.699  -7.659  1.00  0.00     0.027 A 
ATOM     82  C   UNL     1       7.364  -2.743  -7.862  1.00  0.00     0.002 A 
BRANCH  79  83
ATOM     83  N   UNL     1       4.015  -1.714  -6.508  1.00  0.00    -0.321 N 
ATOM     84  C   UNL     1       2.991  -2.629  -6.568  1.00  0.00     0.255 C 
ATOM     85  H   UNL     1       3.719  -0.830  -6.190  1.00  0.00     0.170 HD
ATOM     86  O   UNL     1       1.870  -2.319  -6.169  1.00  0.00    -0.269 OA
BRANCH  84  87
ATOM     87  C   UNL     1       3.190  -3.981  -7.098  1.00  0.00     0.040 A 
ATOM     88  C   UNL     1       2.550  -4.286  -8.294  1.00  0.00     0.016 A 
ATOM     89  C   UNL     1       4.034  -4.909  -6.486  1.00  0.00     0.016 A 
ATOM     90  C   UNL     1       2.878  -5.462  -8.963  1.00  0.00     0.027 A 
ATOM     91  C   UNL     1       4.352  -6.093  -7.165  1.00  0.00     0.027 A 
ATOM     92  C   UNL     1       3.834  -6.353  -8.448  1.00  0.00     0.052 A 
BRANCH  92  93
ATOM     93  N   UNL     1       4.337  -7.419  -9.248  1.00  0.00    -0.250 N 
ATOM     94  C   UNL     1       4.347  -7.395 -10.625  1.00  0.00     0.238 C 
ATOM     95  C   UNL     1       4.947  -8.545  -8.754  1.00  0.00     0.238 C 
ATOM     96  O   UNL     1       3.894  -6.539 -11.377  1.00  0.00    -0.274 OA
ATOM     97  C   UNL     1       5.080  -8.604 -11.150  1.00  0.00     0.096 C 
ATOM     98  C   UNL     1       5.508  -9.360  -9.895  1.00  0.00     0.096 C 
ATOM     99  O   UNL     1       5.026  -8.914  -7.588  1.00  0.00    -0.274 OA
ATOM    100  C   UNL     1       6.210  -8.154 -12.084  1.00  0.00     0.041 C 
ATOM    101  C   UNL     1       7.016  -9.546  -9.696  1.00  0.00     0.041 C 
ATOM    102  C   UNL     1       7.454  -7.761 -11.346  1.00  0.00    -0.030 C 
ATOM    103  C   UNL     1       7.827  -8.407 -10.235  1.00  0.00    -0.030 C 
ENDBRANCH  92  93
ENDBRANCH  84  87
ENDBRANCH  79  83
ENDBRANCH  74  77
ENDBRANCH  72  73
ENDBRANCH   1  72
TORSDOF 13
