REMARK SMILES COc1cccc(C(=O)N[C@H]2C=C[C@@H](C(=O)NCCCNC(=O)c3ccc(-c4c5nc(c(-c6c(F)c(F)c(F)c(F)c6F)c6ccc([nH]6)c(-c6c(F)c(F)c(F)c(F)c6F)c6nc(c(-c7c(F)c(F)c(F)c(F)c7F)c7ccc4[nH]7)C=C6)C=C5)cc3)C2)c1
REMARK SMILES IDX 18 1 17 2 15 3 16 4 14 6 11 7 12 8 87 9 13 10 10 11 8 12
REMARK SMILES IDX 9 13 7 15 3 16 4 17 88 18 5 19 6 20 2 21 1 22 19 23 20 24
REMARK SMILES IDX 21 25 22 26 23 28 24 29 25 30 86 31 26 32 85 33 27 34 28 35
REMARK SMILES IDX 29 36 79 37 30 38 84 39 78 40 80 41 31 42 83 43 77 44 76 45
REMARK SMILES IDX 32 47 64 48 44 49 63 50 45 51 48 52 62 53 81 54 46 55 47 56
REMARK SMILES IDX 61 58 82 59 49 60 33 61 34 62 42 63 35 64 36 65 40 66 43 67
REMARK SMILES IDX 37 68 38 69 41 70 39 71 65 72 66 73 74 74 67 75 68 76 72 77
REMARK SMILES IDX 75 78 69 79 70 80 73 81 71 82 50 83 51 84 59 85 52 86 53 87
REMARK SMILES IDX 57 88 60 89 54 90 55 91 58 92 56 93
REMARK H PARENT 17 5 10 14 21 27 80 46 48 57
REMARK Flexibility Score: inf
ROOT
ATOM      1  C   UNL     1       1.113  -0.254   2.620  1.00  0.00     0.117 C 
ENDROOT
BRANCH   1   2
ATOM      2  N   UNL     1       1.436  -0.171   1.018  1.00  0.00    -0.356 N 
ATOM      3  C   UNL     1       2.359   0.540   0.279  1.00  0.00     0.227 C 
ATOM      4  O   UNL     1       2.083   1.602  -0.282  1.00  0.00    -0.274 OA
ATOM      5  H   UNL     1       0.853  -0.744   0.470  1.00  0.00     0.163 HD
BRANCH   3   6
ATOM      6  C   UNL     1       3.759  -0.038   0.128  1.00  0.00     0.103 C 
ATOM      7  C   UNL     1       5.342  -0.030   1.997  1.00  0.00     0.106 C 
ATOM      8  C   UNL     1       4.785  -1.388   1.752  1.00  0.00    -0.006 C 
ATOM      9  C   UNL     1       4.769   0.843   0.886  1.00  0.00     0.047 C 
ATOM     10  C   UNL     1       3.960  -1.404   0.702  1.00  0.00    -0.016 C 
BRANCH   7  11
ATOM     11  N   UNL     1       5.148   0.405   3.365  1.00  0.00    -0.346 N 
ATOM     12  C   UNL     1       4.083   0.649   4.180  1.00  0.00     0.251 C 
ATOM     13  O   UNL     1       4.273   0.870   5.374  1.00  0.00    -0.269 OA
ATOM     14  H   UNL     1       6.004   0.563   3.825  1.00  0.00     0.164 HD
BRANCH  12  15
ATOM     15  C   UNL     1       2.692   0.562   3.743  1.00  0.00     0.043 A 
ATOM     16  C   UNL     1       0.146   1.563   2.207  1.00  0.00     0.119 A 
ATOM     17  C   UNL     1      -0.869   0.375   3.081  1.00  0.00     0.046 A 
ATOM     18  C   UNL     1       1.912   1.707   2.583  1.00  0.00     0.060 A 
ATOM     19  C   UNL     1      -0.107  -0.753   4.250  1.00  0.00     0.005 A 
ATOM     20  C   UNL     1       1.662  -0.637   4.616  1.00  0.00     0.014 A 
BRANCH  16  21
ATOM     21  O   UNL     1      -0.429   2.365   1.260  1.00  0.00    -0.497 OA
ATOM     22  C   UNL     1      -1.077   1.555   0.271  1.00  0.00     0.278 C 
ENDBRANCH  16  21
ENDBRANCH  12  15
ENDBRANCH   7  11
ENDBRANCH   3   6
ENDBRANCH   1   2
BRANCH   1  23
ATOM     23  C   UNL     1       0.719   1.181   4.217  1.00  0.00     0.042 C 
BRANCH  23  24
ATOM     24  C   UNL     1       0.135   1.187   5.857  1.00  0.00     0.118 C 
BRANCH  24  25
ATOM     25  N   UNL     1      -0.148   0.065   6.737  1.00  0.00    -0.352 N 
ATOM     26  C   UNL     1      -0.675   0.041   7.998  1.00  0.00     0.251 C 
ATOM     27  H   UNL     1       0.075  -0.819   6.365  1.00  0.00     0.163 HD
ATOM     28  O   UNL     1      -1.066  -1.030   8.457  1.00  0.00    -0.269 OA
BRANCH  26  29
ATOM     29  C   UNL     1      -0.596   1.227   8.870  1.00  0.00     0.039 A 
ATOM     30  C   UNL     1      -0.174   0.980  10.181  1.00  0.00     0.014 A 
ATOM     31  C   UNL     1      -0.819   2.535   8.438  1.00  0.00     0.014 A 
ATOM     32  C   UNL     1       0.070   2.039  11.041  1.00  0.00     0.010 A 
ATOM     33  C   UNL     1      -0.475   3.598   9.263  1.00  0.00     0.010 A 
ATOM     34  C   UNL     1      -0.052   3.354  10.575  1.00  0.00    -0.014 A 
BRANCH  34  35
ATOM     35  C   UNL     1       0.187   4.475  11.503  1.00  0.00     0.031 A 
ATOM     36  C   UNL     1      -0.970   5.339  11.906  1.00  0.00     0.074 A 
ATOM     37  C   UNL     1       1.426   4.665  11.991  1.00  0.00     0.049 A 
ATOM     38  N   UNL     1      -1.004   6.330  12.755  1.00  0.00    -0.248 NA
ATOM     39  C   UNL     1      -2.260   5.072  11.246  1.00  0.00     0.031 C 
ATOM     40  C   UNL     1       2.610   3.889  11.609  1.00  0.00     0.029 A 
ATOM     41  N   UNL     1       1.893   5.544  12.928  1.00  0.00    -0.354 N 
ATOM     42  C   UNL     1      -2.309   6.805  12.720  1.00  0.00     0.074 A 
ATOM     43  C   UNL     1      -3.015   6.052  11.711  1.00  0.00     0.031 C 
ATOM     44  C   UNL     1       3.655   4.291  12.349  1.00  0.00     0.029 A 
ATOM     45  C   UNL     1       3.222   5.371  13.227  1.00  0.00     0.049 A 
ATOM     46  H   UNL     1       1.330   6.234  13.349  1.00  0.00     0.167 HD
ATOM     47  C   UNL     1      -2.872   7.760  13.493  1.00  0.00     0.037 A 
ATOM     48  C   UNL     1       3.990   6.015  14.125  1.00  0.00     0.037 A 
ATOM     49  C   UNL     1      -2.145   8.471  14.509  1.00  0.00     0.049 A 
ATOM     50  C   UNL     1       3.336   7.071  14.976  1.00  0.00     0.074 A 
ATOM     51  C   UNL     1      -2.600   9.437  15.386  1.00  0.00     0.029 A 
ATOM     52  N   UNL     1      -0.795   8.281  14.781  1.00  0.00    -0.354 N 
ATOM     53  N   UNL     1       2.087   7.474  14.982  1.00  0.00    -0.248 NA
ATOM     54  C   UNL     1       4.192   7.752  15.953  1.00  0.00     0.031 C 
ATOM     55  C   UNL     1      -1.512   9.871  16.150  1.00  0.00     0.029 A 
ATOM     56  C   UNL     1      -0.393   9.131  15.796  1.00  0.00     0.049 A 
ATOM     57  H   UNL     1      -0.211   7.637  14.319  1.00  0.00     0.167 HD
ATOM     58  C   UNL     1       2.000   8.443  15.970  1.00  0.00     0.074 A 
ATOM     59  C   UNL     1       3.320   8.538  16.566  1.00  0.00     0.031 C 
ATOM     60  C   UNL     1       0.937   9.195  16.352  1.00  0.00     0.037 A 
BRANCH  47  61
ATOM     61  C   UNL     1      -4.319   8.081  13.255  1.00  0.00     0.064 A 
ATOM     62  C   UNL     1      -5.340   7.154  13.525  1.00  0.00     0.173 A 
ATOM     63  C   UNL     1      -4.694   9.328  12.733  1.00  0.00     0.173 A 
ATOM     64  F   UNL     1      -5.039   5.937  14.003  1.00  0.00    -0.203 F 
ATOM     65  C   UNL     1      -6.673   7.449  13.246  1.00  0.00     0.198 A 
ATOM     66  C   UNL     1      -6.032   9.633  12.490  1.00  0.00     0.198 A 
ATOM     67  F   UNL     1      -3.763  10.251  12.452  1.00  0.00    -0.203 F 
ATOM     68  F   UNL     1      -7.619   6.521  13.447  1.00  0.00    -0.200 F 
ATOM     69  C   UNL     1      -7.018   8.690  12.736  1.00  0.00     0.200 A 
ATOM     70  F   UNL     1      -6.364  10.837  12.005  1.00  0.00    -0.200 F 
ATOM     71  F   UNL     1      -8.300   8.974  12.469  1.00  0.00    -0.200 F 
ENDBRANCH  47  61
BRANCH  48  72
ATOM     72  C   UNL     1       5.426   5.659  14.280  1.00  0.00     0.064 A 
ATOM     73  C   UNL     1       5.909   5.073  15.459  1.00  0.00     0.173 A 
ATOM     74  C   UNL     1       6.350   5.893  13.249  1.00  0.00     0.173 A 
ATOM     75  F   UNL     1       5.073   4.839  16.482  1.00  0.00    -0.203 F 
ATOM     76  C   UNL     1       7.259   4.760  15.611  1.00  0.00     0.198 A 
ATOM     77  C   UNL     1       7.694   5.548  13.389  1.00  0.00     0.198 A 
ATOM     78  F   UNL     1       5.945   6.444  12.096  1.00  0.00    -0.203 F 
ATOM     79  F   UNL     1       7.699   4.247  16.768  1.00  0.00    -0.200 F 
ATOM     80  C   UNL     1       8.149   4.992  14.574  1.00  0.00     0.200 A 
ATOM     81  F   UNL     1       8.546   5.758  12.377  1.00  0.00    -0.200 F 
ATOM     82  F   UNL     1       9.446   4.686  14.719  1.00  0.00    -0.200 F 
ENDBRANCH  48  72
BRANCH  60  83
ATOM     83  C   UNL     1       1.168  10.166  17.471  1.00  0.00     0.064 A 
ATOM     84  C   UNL     1       1.970  11.305  17.302  1.00  0.00     0.173 A 
ATOM     85  C   UNL     1       0.561   9.966  18.720  1.00  0.00     0.173 A 
ATOM     86  F   UNL     1       2.580  11.533  16.129  1.00  0.00    -0.203 F 
ATOM     87  C   UNL     1       2.190  12.185  18.356  1.00  0.00     0.198 A 
ATOM     88  C   UNL     1       0.751  10.871  19.759  1.00  0.00     0.198 A 
ATOM     89  F   UNL     1      -0.225   8.899  18.928  1.00  0.00    -0.203 F 
ATOM     90  F   UNL     1       3.014  13.229  18.192  1.00  0.00    -0.200 F 
ATOM     91  C   UNL     1       1.575  11.971  19.580  1.00  0.00     0.200 A 
ATOM     92  F   UNL     1       0.139  10.674  20.935  1.00  0.00    -0.200 F 
ATOM     93  F   UNL     1       1.785  12.823  20.593  1.00  0.00    -0.200 F 
ENDBRANCH  60  83
ENDBRANCH  34  35
ENDBRANCH  26  29
ENDBRANCH  24  25
ENDBRANCH  23  24
ENDBRANCH   1  23
TORSDOF 13
