REMARK SMILES NC(=O)C[C@@H](NC(=O)c1ccc(CO)cc1)C(=O)NCCCNC(=O)c1ccc(-c2c3nc(c(-c4c(F)c(F)c(F)c(F)c4F)c4ccc([nH]4)c(-c4c(F)c(F)c(F)c(F)c4F)c4nc(c(-c5c(F)c(F)c(F)c(F)c5F)c5ccc2[nH]5)C=C4)C=C3)cc1
REMARK SMILES IDX 20 1 19 2 17 3 18 4 5 6 4 7 2 8 1 9 3 12 6 13 7 14 8 16 9 17
REMARK SMILES IDX 10 18 16 19 11 20 15 21 12 22 13 23 14 24 21 26 22 27 23 28
REMARK SMILES IDX 24 29 25 31 26 32 27 33 88 34 28 35 87 36 29 37 30 38 31 39
REMARK SMILES IDX 81 40 32 41 86 42 80 43 82 44 33 45 85 46 79 47 78 48 34 50
REMARK SMILES IDX 66 51 46 52 65 53 47 54 50 55 64 56 83 57 48 58 49 59 63 61
REMARK SMILES IDX 84 62 51 63 35 64 36 65 44 66 37 67 38 68 42 69 45 70 39 71
REMARK SMILES IDX 40 72 43 73 41 74 67 75 68 76 76 77 69 78 70 79 74 80 77 81
REMARK SMILES IDX 71 82 72 83 75 84 73 85 52 86 53 87 61 88 54 89 55 90 59 91
REMARK SMILES IDX 62 92 56 93 57 94 60 95 58 96
REMARK H PARENT 19 5 1 10 1 11 6 15 14 25 23 30 82 49 50 60
REMARK Flexibility Score: inf
ROOT
ATOM      1  C   UNL     1       3.474   2.766  -2.317  1.00  0.00     0.117 C 
ENDROOT
BRANCH   1   2
ATOM      2  N   UNL     1       2.865   3.933  -1.704  1.00  0.00    -0.354 N 
ATOM      3  C   UNL     1       2.160   4.044  -0.545  1.00  0.00     0.243 C 
ATOM      4  O   UNL     1       1.645   5.138  -0.295  1.00  0.00    -0.273 OA
ATOM      5  H   UNL     1       2.980   4.773  -2.203  1.00  0.00     0.163 HD
BRANCH   3   6
ATOM      6  C   UNL     1       1.868   2.817   0.333  1.00  0.00     0.180 C 
BRANCH   6   7
ATOM      7  C   UNL     1       0.695   2.116  -0.375  1.00  0.00     0.134 C 
BRANCH   7   8
ATOM      8  C   UNL     1       0.175   0.930   0.382  1.00  0.00     0.220 C 
ATOM      9  N   UNL     1       0.804  -0.250   0.107  1.00  0.00    -0.370 N 
ATOM     10  H   UNL     1       0.522  -1.076   0.562  1.00  0.00     0.159 HD
ATOM     11  H   UNL     1       1.540  -0.275  -0.546  1.00  0.00     0.159 HD
ATOM     12  O   UNL     1      -0.735   0.995   1.197  1.00  0.00    -0.275 OA
ENDBRANCH   7   8
ENDBRANCH   6   7
BRANCH   6  13
ATOM     13  N   UNL     1       3.009   1.912   0.586  1.00  0.00    -0.340 N 
ATOM     14  C   UNL     1       4.286   2.172   1.037  1.00  0.00     0.251 C 
ATOM     15  H   UNL     1       2.826   0.962   0.402  1.00  0.00     0.164 HD
ATOM     16  O   UNL     1       4.974   1.244   1.451  1.00  0.00    -0.269 OA
BRANCH  14  17
ATOM     17  C   UNL     1       4.904   3.502   0.845  1.00  0.00     0.039 A 
ATOM     18  C   UNL     1       6.008   3.577  -0.015  1.00  0.00     0.014 A 
ATOM     19  C   UNL     1       4.371   4.663   1.400  1.00  0.00     0.014 A 
ATOM     20  C   UNL     1       6.475   4.820  -0.444  1.00  0.00     0.007 A 
ATOM     21  C   UNL     1       4.845   5.908   0.972  1.00  0.00     0.007 A 
ATOM     22  C   UNL     1       5.865   5.996   0.012  1.00  0.00    -0.023 A 
BRANCH  22  23
ATOM     23  C   UNL     1       6.277   7.328  -0.561  1.00  0.00     0.191 C 
BRANCH  23  24
ATOM     24  O   UNL     1       7.632   7.616  -0.260  1.00  0.00    -0.392 OA
ATOM     25  H   UNL     1       7.748   7.655   0.702  1.00  0.00     0.211 HD
ENDBRANCH  23  24
ENDBRANCH  22  23
ENDBRANCH  14  17
ENDBRANCH   6  13
ENDBRANCH   3   6
ENDBRANCH   1   2
BRANCH   1  26
ATOM     26  C   UNL     1       3.308   2.784  -3.824  1.00  0.00     0.042 C 
BRANCH  26  27
ATOM     27  C   UNL     1       4.062   3.922  -4.496  1.00  0.00     0.118 C 
BRANCH  27  28
ATOM     28  N   UNL     1       5.510   3.787  -4.400  1.00  0.00    -0.352 N 
ATOM     29  C   UNL     1       6.439   3.808  -5.412  1.00  0.00     0.251 C 
ATOM     30  H   UNL     1       5.869   3.664  -3.491  1.00  0.00     0.163 HD
ATOM     31  O   UNL     1       7.615   3.539  -5.194  1.00  0.00    -0.269 OA
BRANCH  29  32
ATOM     32  C   UNL     1       5.986   4.126  -6.780  1.00  0.00     0.039 A 
ATOM     33  C   UNL     1       6.302   3.254  -7.823  1.00  0.00     0.014 A 
ATOM     34  C   UNL     1       5.171   5.240  -7.003  1.00  0.00     0.014 A 
ATOM     35  C   UNL     1       5.725   3.451  -9.078  1.00  0.00     0.010 A 
ATOM     36  C   UNL     1       4.530   5.382  -8.225  1.00  0.00     0.010 A 
ATOM     37  C   UNL     1       4.797   4.488  -9.274  1.00  0.00    -0.014 A 
BRANCH  37  38
ATOM     38  C   UNL     1       4.090   4.665 -10.566  1.00  0.00     0.031 A 
ATOM     39  C   UNL     1       4.285   5.928 -11.354  1.00  0.00     0.074 A 
ATOM     40  C   UNL     1       3.206   3.736 -10.979  1.00  0.00     0.049 A 
ATOM     41  N   UNL     1       3.676   6.331 -12.440  1.00  0.00    -0.248 NA
ATOM     42  C   UNL     1       5.273   6.886 -10.830  1.00  0.00     0.031 C 
ATOM     43  C   UNL     1       2.885   2.496 -10.270  1.00  0.00     0.029 A 
ATOM     44  N   UNL     1       2.402   3.700 -12.090  1.00  0.00    -0.354 N 
ATOM     45  C   UNL     1       4.184   7.594 -12.709  1.00  0.00     0.074 A 
ATOM     46  C   UNL     1       5.113   7.915 -11.648  1.00  0.00     0.031 C 
ATOM     47  C   UNL     1       1.970   1.810 -10.975  1.00  0.00     0.029 A 
ATOM     48  C   UNL     1       1.613   2.578 -12.164  1.00  0.00     0.049 A 
ATOM     49  H   UNL     1       2.391   4.411 -12.771  1.00  0.00     0.167 HD
ATOM     50  C   UNL     1       3.919   8.403 -13.761  1.00  0.00     0.037 A 
ATOM     51  C   UNL     1       0.701   2.215 -13.086  1.00  0.00     0.037 A 
ATOM     52  C   UNL     1       3.031   8.060 -14.839  1.00  0.00     0.049 A 
ATOM     53  C   UNL     1       0.445   3.119 -14.260  1.00  0.00     0.074 A 
ATOM     54  C   UNL     1       2.753   8.776 -15.989  1.00  0.00     0.029 A 
ATOM     55  N   UNL     1       2.280   6.896 -14.899  1.00  0.00    -0.354 N 
ATOM     56  N   UNL     1       0.981   4.282 -14.539  1.00  0.00    -0.248 NA
ATOM     57  C   UNL     1      -0.540   2.659 -15.249  1.00  0.00     0.031 C 
ATOM     58  C   UNL     1       1.809   8.059 -16.732  1.00  0.00     0.029 A 
ATOM     59  C   UNL     1       1.528   6.879 -16.061  1.00  0.00     0.049 A 
ATOM     60  H   UNL     1       2.282   6.186 -14.217  1.00  0.00     0.167 HD
ATOM     61  C   UNL     1       0.420   4.681 -15.744  1.00  0.00     0.074 A 
ATOM     62  C   UNL     1      -0.490   3.630 -16.150  1.00  0.00     0.031 C 
ATOM     63  C   UNL     1       0.637   5.817 -16.451  1.00  0.00     0.037 A 
BRANCH  50  64
ATOM     64  C   UNL     1       4.612   9.733 -13.801  1.00  0.00     0.064 A 
ATOM     65  C   UNL     1       5.989   9.836 -14.051  1.00  0.00     0.173 A 
ATOM     66  C   UNL     1       3.887  10.919 -13.611  1.00  0.00     0.173 A 
ATOM     67  F   UNL     1       6.728   8.730 -14.223  1.00  0.00    -0.203 F 
ATOM     68  C   UNL     1       6.620  11.076 -14.079  1.00  0.00     0.198 A 
ATOM     69  C   UNL     1       4.517  12.159 -13.669  1.00  0.00     0.198 A 
ATOM     70  F   UNL     1       2.568  10.875 -13.372  1.00  0.00    -0.203 F 
ATOM     71  F   UNL     1       7.945  11.147 -14.268  1.00  0.00    -0.200 F 
ATOM     72  C   UNL     1       5.883  12.237 -13.895  1.00  0.00     0.200 A 
ATOM     73  F   UNL     1       3.803  13.280 -13.500  1.00  0.00    -0.200 F 
ATOM     74  F   UNL     1       6.492  13.430 -13.926  1.00  0.00    -0.200 F 
ENDBRANCH  50  64
BRANCH  51  75
ATOM     75  C   UNL     1      -0.014   0.919 -12.953  1.00  0.00     0.064 A 
ATOM     76  C   UNL     1       0.272  -0.147 -13.817  1.00  0.00     0.173 A 
ATOM     77  C   UNL     1      -0.990   0.719 -11.968  1.00  0.00     0.173 A 
ATOM     78  F   UNL     1       1.185   0.004 -14.787  1.00  0.00    -0.203 F 
ATOM     79  C   UNL     1      -0.404  -1.361 -13.711  1.00  0.00     0.198 A 
ATOM     80  C   UNL     1      -1.649  -0.503 -11.847  1.00  0.00     0.198 A 
ATOM     81  F   UNL     1      -1.295   1.706 -11.113  1.00  0.00    -0.203 F 
ATOM     82  F   UNL     1      -0.139  -2.351 -14.574  1.00  0.00    -0.200 F 
ATOM     83  C   UNL     1      -1.361  -1.540 -12.723  1.00  0.00     0.200 A 
ATOM     84  F   UNL     1      -2.563  -0.677 -10.883  1.00  0.00    -0.200 F 
ATOM     85  F   UNL     1      -2.008  -2.708 -12.618  1.00  0.00    -0.200 F 
ENDBRANCH  51  75
BRANCH  63  86
ATOM     86  C   UNL     1      -0.097   5.968 -17.749  1.00  0.00     0.064 A 
ATOM     87  C   UNL     1      -1.465   6.269 -17.786  1.00  0.00     0.173 A 
ATOM     88  C   UNL     1       0.590   5.860 -18.968  1.00  0.00     0.173 A 
ATOM     89  F   UNL     1      -2.166   6.367 -16.646  1.00  0.00    -0.203 F 
ATOM     90  C   UNL     1      -2.126   6.438 -19.000  1.00  0.00     0.198 A 
ATOM     91  C   UNL     1      -0.069   6.054 -20.178  1.00  0.00     0.198 A 
ATOM     92  F   UNL     1       1.901   5.579 -18.983  1.00  0.00    -0.203 F 
ATOM     93  F   UNL     1      -3.442   6.687 -19.015  1.00  0.00    -0.200 F 
ATOM     94  C   UNL     1      -1.426   6.338 -20.194  1.00  0.00     0.200 A 
ATOM     95  F   UNL     1       0.611   5.968 -21.330  1.00  0.00    -0.200 F 
ATOM     96  F   UNL     1      -2.062   6.509 -21.360  1.00  0.00    -0.200 F 
ENDBRANCH  63  86
ENDBRANCH  37  38
ENDBRANCH  29  32
ENDBRANCH  27  28
ENDBRANCH  26  27
ENDBRANCH   1  26
TORSDOF 16
