REMARK SMILES C=CCN(CC(=O)NCCCNC(=O)c1ccc(-c2c3nc(c(-c4c(F)c(F)c(F)c(F)c4F)c4ccc([nH]4)c(-c4c(F)c(F)c(F)c(F)c4F)c4nc(c(-c5c(F)c(F)c(F)c(F)c5F)c5ccc2[nH]5)C=C4)C=C3)cc1)C(=O)c1cn(C2C[NH2+]C2)nn1
REMARK SMILES IDX 9 1 8 2 6 3 7 4 5 6 4 7 3 8 2 9 1 10 78 11 79 12 80 13 81 14
REMARK SMILES IDX 88 15 82 16 87 17 83 18 84 19 86 20 85 21 10 24 11 25 12 26
REMARK SMILES IDX 13 27 14 29 15 30 16 31 77 32 17 33 76 34 18 35 19 36 20 37
REMARK SMILES IDX 70 38 21 39 75 40 69 41 71 42 22 43 74 44 68 45 67 46 23 48
REMARK SMILES IDX 55 49 35 50 54 51 36 52 39 53 53 54 72 55 37 56 38 57 52 59
REMARK SMILES IDX 73 60 40 61 24 62 25 63 33 64 26 65 27 66 31 67 34 68 28 69
REMARK SMILES IDX 29 70 32 71 30 72 56 73 57 74 65 75 58 76 59 77 63 78 66 79
REMARK SMILES IDX 60 80 61 81 64 82 62 83 41 84 42 85 50 86 43 87 44 88 48 89
REMARK SMILES IDX 51 90 45 91 46 92 49 93 47 94
REMARK H PARENT 8 5 85 22 85 23 12 28 71 47 39 58
REMARK Flexibility Score: inf
ROOT
ATOM      1  C   UNL     1      -4.427   0.200   1.220  1.00  0.00     0.117 C 
ENDROOT
BRANCH   1   2
ATOM      2  N   UNL     1      -4.610  -0.938   2.100  1.00  0.00    -0.354 N 
ATOM      3  C   UNL     1      -3.715  -1.610   2.878  1.00  0.00     0.239 C 
ATOM      4  O   UNL     1      -4.182  -2.340   3.759  1.00  0.00    -0.273 OA
ATOM      5  H   UNL     1      -5.532  -1.281   2.143  1.00  0.00     0.163 HD
BRANCH   3   6
ATOM      6  C   UNL     1      -2.194  -1.401   2.771  1.00  0.00     0.220 C 
BRANCH   6   7
ATOM      7  N   UNL     1      -1.649  -1.423   1.410  1.00  0.00    -0.324 N 
BRANCH   7   8
ATOM      8  C   UNL     1      -0.965  -0.233   0.924  1.00  0.00     0.147 C 
BRANCH   8   9
ATOM      9  C   UNL     1       0.487  -0.302   1.289  1.00  0.00    -0.014 C 
ATOM     10  C   UNL     1       1.482  -0.224   0.394  1.00  0.00     0.006 C 
ENDBRANCH   8   9
ENDBRANCH   7   8
BRANCH   7  11
ATOM     11  C   UNL     1      -1.562  -2.588   0.634  1.00  0.00     0.276 C 
ATOM     12  O   UNL     1      -1.148  -2.571  -0.526  1.00  0.00    -0.267 OA
BRANCH  11  13
ATOM     13  C   UNL     1      -2.014  -3.833   1.232  1.00  0.00     0.170 A 
ATOM     14  C   UNL     1      -3.302  -4.321   1.312  1.00  0.00     0.145 A 
ATOM     15  N   UNL     1      -1.158  -4.741   1.803  1.00  0.00    -0.125 NA
ATOM     16  N   UNL     1      -3.170  -5.508   1.979  1.00  0.00    -0.237 N 
ATOM     17  N   UNL     1      -1.877  -5.762   2.252  1.00  0.00    -0.066 NA
BRANCH  16  18
ATOM     18  C   UNL     1      -4.204  -6.413   2.386  1.00  0.00     0.218 C 
ATOM     19  C   UNL     1      -5.283  -5.738   3.263  1.00  0.00     0.294 C 
ATOM     20  C   UNL     1      -5.361  -6.586   1.380  1.00  0.00     0.294 C 
ATOM     21  N   UNL     1      -6.319  -6.474   2.502  1.00  0.00    -0.342 N 
ATOM     22  H   UNL     1      -7.154  -5.928   2.290  1.00  0.00     0.346 HD
ATOM     23  H   UNL     1      -6.774  -7.299   2.892  1.00  0.00     0.346 HD
ENDBRANCH  16  18
ENDBRANCH  11  13
ENDBRANCH   7  11
ENDBRANCH   6   7
ENDBRANCH   3   6
ENDBRANCH   1   2
BRANCH   1  24
ATOM     24  C   UNL     1      -4.322  -0.163  -0.260  1.00  0.00     0.042 C 
BRANCH  24  25
ATOM     25  C   UNL     1      -5.563  -0.828  -0.852  1.00  0.00     0.118 C 
BRANCH  25  26
ATOM     26  N   UNL     1      -6.711   0.063  -0.908  1.00  0.00    -0.352 N 
ATOM     27  C   UNL     1      -7.337   0.676  -1.965  1.00  0.00     0.251 C 
ATOM     28  H   UNL     1      -7.111   0.263  -0.030  1.00  0.00     0.163 HD
ATOM     29  O   UNL     1      -8.182   1.538  -1.733  1.00  0.00    -0.269 OA
BRANCH  27  30
ATOM     30  C   UNL     1      -7.014   0.345  -3.374  1.00  0.00     0.039 A 
ATOM     31  C   UNL     1      -6.979   1.388  -4.309  1.00  0.00     0.014 A 
ATOM     32  C   UNL     1      -6.830  -0.970  -3.808  1.00  0.00     0.014 A 
ATOM     33  C   UNL     1      -6.694   1.125  -5.652  1.00  0.00     0.010 A 
ATOM     34  C   UNL     1      -6.492  -1.229  -5.139  1.00  0.00     0.010 A 
ATOM     35  C   UNL     1      -6.415  -0.184  -6.073  1.00  0.00    -0.014 A 
BRANCH  35  36
ATOM     36  C   UNL     1      -6.019  -0.477  -7.474  1.00  0.00     0.031 A 
ATOM     37  C   UNL     1      -6.919  -1.277  -8.372  1.00  0.00     0.074 A 
ATOM     38  C   UNL     1      -4.809  -0.087  -7.919  1.00  0.00     0.049 A 
ATOM     39  N   UNL     1      -6.686  -1.747  -9.573  1.00  0.00    -0.248 NA
ATOM     40  C   UNL     1      -8.252  -1.607  -7.846  1.00  0.00     0.031 C 
ATOM     41  C   UNL     1      -3.830   0.676  -7.144  1.00  0.00     0.029 A 
ATOM     42  N   UNL     1      -4.189  -0.298  -9.126  1.00  0.00    -0.354 N 
ATOM     43  C   UNL     1      -7.826  -2.450  -9.933  1.00  0.00     0.074 A 
ATOM     44  C   UNL     1      -8.749  -2.358  -8.820  1.00  0.00     0.031 C 
ATOM     45  C   UNL     1      -2.734   0.872  -7.894  1.00  0.00     0.029 A 
ATOM     46  C   UNL     1      -2.917   0.216  -9.186  1.00  0.00     0.049 A 
ATOM     47  H   UNL     1      -4.615  -0.772  -9.876  1.00  0.00     0.167 HD
ATOM     48  C   UNL     1      -8.083  -3.107 -11.089  1.00  0.00     0.037 A 
ATOM     49  C   UNL     1      -1.992   0.149 -10.162  1.00  0.00     0.037 A 
ATOM     50  C   UNL     1      -7.189  -3.167 -12.216  1.00  0.00     0.049 A 
ATOM     51  C   UNL     1      -2.302  -0.589 -11.432  1.00  0.00     0.074 A 
ATOM     52  C   UNL     1      -7.400  -3.746 -13.456  1.00  0.00     0.029 A 
ATOM     53  N   UNL     1      -5.913  -2.627 -12.238  1.00  0.00    -0.354 N 
ATOM     54  N   UNL     1      -3.395  -1.224 -11.772  1.00  0.00    -0.248 NA
ATOM     55  C   UNL     1      -1.242  -0.627 -12.451  1.00  0.00     0.031 C 
ATOM     56  C   UNL     1      -6.241  -3.578 -14.222  1.00  0.00     0.029 A 
ATOM     57  C   UNL     1      -5.318  -2.875 -13.465  1.00  0.00     0.049 A 
ATOM     58  H   UNL     1      -5.492  -2.140 -11.494  1.00  0.00     0.167 HD
ATOM     59  C   UNL     1      -3.164  -1.726 -13.044  1.00  0.00     0.074 A 
ATOM     60  C   UNL     1      -1.827  -1.316 -13.422  1.00  0.00     0.031 C 
ATOM     61  C   UNL     1      -3.987  -2.463 -13.826  1.00  0.00     0.037 A 
BRANCH  48  62
ATOM     62  C   UNL     1      -9.393  -3.825 -11.199  1.00  0.00     0.064 A 
ATOM     63  C   UNL     1     -10.587  -3.135 -11.447  1.00  0.00     0.173 A 
ATOM     64  C   UNL     1      -9.445  -5.223 -11.101  1.00  0.00     0.173 A 
ATOM     65  F   UNL     1     -10.586  -1.796 -11.537  1.00  0.00    -0.203 F 
ATOM     66  C   UNL     1     -11.792  -3.819 -11.578  1.00  0.00     0.198 A 
ATOM     67  C   UNL     1     -10.649  -5.905 -11.251  1.00  0.00     0.198 A 
ATOM     68  F   UNL     1      -8.326  -5.927 -10.869  1.00  0.00    -0.203 F 
ATOM     69  F   UNL     1     -12.928  -3.139 -11.787  1.00  0.00    -0.200 F 
ATOM     70  C   UNL     1     -11.822  -5.203 -11.485  1.00  0.00     0.200 A 
ATOM     71  F   UNL     1     -10.675  -7.243 -11.166  1.00  0.00    -0.200 F 
ATOM     72  F   UNL     1     -12.982  -5.860 -11.617  1.00  0.00    -0.200 F 
ENDBRANCH  48  62
BRANCH  49  73
ATOM     73  C   UNL     1      -0.676   0.801  -9.968  1.00  0.00     0.064 A 
ATOM     74  C   UNL     1      -0.373   2.007 -10.613  1.00  0.00     0.173 A 
ATOM     75  C   UNL     1       0.296   0.242  -9.127  1.00  0.00     0.173 A 
ATOM     76  F   UNL     1      -1.267   2.563 -11.444  1.00  0.00    -0.203 F 
ATOM     77  C   UNL     1       0.859   2.629 -10.428  1.00  0.00     0.198 A 
ATOM     78  C   UNL     1       1.521   0.874  -8.929  1.00  0.00     0.198 A 
ATOM     79  F   UNL     1       0.049  -0.912  -8.490  1.00  0.00    -0.203 F 
ATOM     80  F   UNL     1       1.135   3.769 -11.075  1.00  0.00    -0.200 F 
ATOM     81  C   UNL     1       1.803   2.065  -9.582  1.00  0.00     0.200 A 
ATOM     82  F   UNL     1       2.429   0.331  -8.107  1.00  0.00    -0.200 F 
ATOM     83  F   UNL     1       2.986   2.668  -9.400  1.00  0.00    -0.200 F 
ENDBRANCH  49  73
BRANCH  61  84
ATOM     84  C   UNL     1      -3.472  -2.863 -15.174  1.00  0.00     0.064 A 
ATOM     85  C   UNL     1      -2.581  -3.935 -15.322  1.00  0.00     0.173 A 
ATOM     86  C   UNL     1      -3.902  -2.193 -16.328  1.00  0.00     0.173 A 
ATOM     87  F   UNL     1      -2.131  -4.592 -14.243  1.00  0.00    -0.203 F 
ATOM     88  C   UNL     1      -2.129  -4.316 -16.582  1.00  0.00     0.198 A 
ATOM     89  C   UNL     1      -3.459  -2.587 -17.588  1.00  0.00     0.198 A 
ATOM     90  F   UNL     1      -4.754  -1.162 -16.233  1.00  0.00    -0.203 F 
ATOM     91  F   UNL     1      -1.256  -5.326 -16.702  1.00  0.00    -0.200 F 
ATOM     92  C   UNL     1      -2.572  -3.646 -17.713  1.00  0.00     0.200 A 
ATOM     93  F   UNL     1      -3.890  -1.942 -18.680  1.00  0.00    -0.200 F 
ATOM     94  F   UNL     1      -2.137  -4.016 -18.926  1.00  0.00    -0.200 F 
ENDBRANCH  61  84
ENDBRANCH  35  36
ENDBRANCH  27  30
ENDBRANCH  25  26
ENDBRANCH  24  25
ENDBRANCH   1  24
TORSDOF 16
