REMARK SMILES CO[C@H]1C[C@H](C(=O)NCCCNC(=O)c2ccc(-c3c4nc(c(-c5c(F)c(F)c(F)c(F)c5F)c5ccc([nH]5)c(-c5c(F)c(F)c(F)c(F)c5F)c5nc(c(-c6c(F)c(F)c(F)c(F)c6F)c6ccc3[nH]6)C=C5)C=C4)cc2)N(C(=O)[C@H]2C=C[C@@H]([NH3+])C2)C1
REMARK SMILES IDX 9 1 8 2 6 3 7 4 5 6 3 7 4 8 87 9 78 10 2 11 1 12 79 13 80 14
REMARK SMILES IDX 81 15 82 16 86 17 83 18 84 19 85 20 10 24 11 25 12 26 13 27
REMARK SMILES IDX 14 29 15 30 16 31 77 32 17 33 76 34 18 35 19 36 20 37 70 38
REMARK SMILES IDX 21 39 75 40 69 41 71 42 22 43 74 44 68 45 67 46 23 48 55 49
REMARK SMILES IDX 35 50 54 51 36 52 39 53 53 54 72 55 37 56 38 57 52 59 73 60
REMARK SMILES IDX 40 61 24 62 25 63 33 64 26 65 27 66 31 67 34 68 28 69 29 70
REMARK SMILES IDX 32 71 30 72 56 73 57 74 65 75 58 76 59 77 63 78 66 79 60 80
REMARK SMILES IDX 61 81 64 82 62 83 41 84 42 85 50 86 43 87 44 88 48 89 51 90
REMARK SMILES IDX 45 91 46 92 49 93 47 94
REMARK H PARENT 8 5 85 21 85 22 85 23 12 28 71 47 39 58
REMARK Flexibility Score: inf
ROOT
ATOM      1  C   UNL     1      -1.517  -1.479  -0.957  1.00  0.00     0.117 C 
ENDROOT
BRANCH   1   2
ATOM      2  N   UNL     1      -1.794  -0.083  -1.230  1.00  0.00    -0.354 N 
ATOM      3  C   UNL     1      -1.267   0.798  -2.120  1.00  0.00     0.242 C 
ATOM      4  O   UNL     1      -1.554   1.988  -1.923  1.00  0.00    -0.273 OA
ATOM      5  H   UNL     1      -2.500   0.301  -0.661  1.00  0.00     0.163 HD
BRANCH   3   6
ATOM      6  C   UNL     1      -0.222   0.448  -3.208  1.00  0.00     0.177 C 
ATOM      7  C   UNL     1       1.579  -1.052  -2.566  1.00  0.00     0.139 C 
ATOM      8  C   UNL     1       1.195   0.424  -2.632  1.00  0.00     0.069 C 
ATOM      9  C   UNL     1       0.794  -1.679  -3.713  1.00  0.00     0.152 C 
ATOM     10  N   UNL     1      -0.340  -0.799  -3.963  1.00  0.00    -0.327 N 
BRANCH   7  11
ATOM     11  O   UNL     1       2.977  -1.265  -2.722  1.00  0.00    -0.380 OA
ATOM     12  C   UNL     1       3.737  -0.791  -1.616  1.00  0.00     0.195 C 
ENDBRANCH   7  11
BRANCH  10  13
ATOM     13  C   UNL     1      -1.177  -1.110  -5.013  1.00  0.00     0.230 C 
ATOM     14  O   UNL     1      -1.172  -2.256  -5.481  1.00  0.00    -0.274 OA
BRANCH  13  15
ATOM     15  C   UNL     1      -2.074  -0.056  -5.682  1.00  0.00     0.107 C 
ATOM     16  C   UNL     1      -3.031   0.664  -4.791  1.00  0.00    -0.012 C 
ATOM     17  C   UNL     1      -1.294   1.067  -6.383  1.00  0.00     0.087 C 
ATOM     18  C   UNL     1      -3.034   1.980  -5.035  1.00  0.00     0.033 C 
ATOM     19  C   UNL     1      -2.082   2.361  -6.119  1.00  0.00     0.205 C 
BRANCH  19  20
ATOM     20  N   UNL     1      -1.215   3.452  -5.711  1.00  0.00    -0.352 N 
ATOM     21  H   UNL     1      -0.702   3.183  -4.871  1.00  0.00     0.345 HD
ATOM     22  H   UNL     1      -1.779   4.279  -5.515  1.00  0.00     0.345 HD
ATOM     23  H   UNL     1      -0.555   3.660  -6.460  1.00  0.00     0.345 HD
ENDBRANCH  19  20
ENDBRANCH  13  15
ENDBRANCH  10  13
ENDBRANCH   3   6
ENDBRANCH   1   2
BRANCH   1  24
ATOM     24  C   UNL     1      -0.538  -1.630   0.209  1.00  0.00     0.042 C 
BRANCH  24  25
ATOM     25  C   UNL     1      -1.166  -1.462   1.588  1.00  0.00     0.118 C 
BRANCH  25  26
ATOM     26  N   UNL     1      -1.974  -2.609   1.969  1.00  0.00    -0.352 N 
ATOM     27  C   UNL     1      -1.855  -3.475   3.029  1.00  0.00     0.251 C 
ATOM     28  H   UNL     1      -2.732  -2.796   1.369  1.00  0.00     0.163 HD
ATOM     29  O   UNL     1      -2.537  -4.496   3.042  1.00  0.00    -0.269 OA
BRANCH  27  30
ATOM     30  C   UNL     1      -0.920  -3.211   4.150  1.00  0.00     0.039 A 
ATOM     31  C   UNL     1      -0.274  -4.300   4.748  1.00  0.00     0.014 A 
ATOM     32  C   UNL     1      -0.728  -1.929   4.669  1.00  0.00     0.014 A 
ATOM     33  C   UNL     1       0.587  -4.100   5.832  1.00  0.00     0.010 A 
ATOM     34  C   UNL     1       0.188  -1.719   5.701  1.00  0.00     0.010 A 
ATOM     35  C   UNL     1       0.842  -2.804   6.304  1.00  0.00    -0.014 A 
BRANCH  35  36
ATOM     36  C   UNL     1       1.762  -2.568   7.447  1.00  0.00     0.031 A 
ATOM     37  C   UNL     1       1.235  -2.001   8.738  1.00  0.00     0.074 A 
ATOM     38  C   UNL     1       3.079  -2.813   7.310  1.00  0.00     0.049 A 
ATOM     39  N   UNL     1       1.885  -1.655   9.821  1.00  0.00    -0.248 NA
ATOM     40  C   UNL     1      -0.215  -1.764   8.810  1.00  0.00     0.031 C 
ATOM     41  C   UNL     1       3.721  -3.326   6.100  1.00  0.00     0.029 A 
ATOM     42  N   UNL     1       4.117  -2.653   8.195  1.00  0.00    -0.354 N 
ATOM     43  C   UNL     1       0.930  -1.142  10.689  1.00  0.00     0.074 A 
ATOM     44  C   UNL     1      -0.337  -1.176   9.990  1.00  0.00     0.031 C 
ATOM     45  C   UNL     1       5.038  -3.462   6.325  1.00  0.00     0.029 A 
ATOM     46  C   UNL     1       5.338  -3.013   7.681  1.00  0.00     0.049 A 
ATOM     47  H   UNL     1       3.996  -2.314   9.111  1.00  0.00     0.167 HD
ATOM     48  C   UNL     1       1.089  -0.703  11.961  1.00  0.00     0.037 A 
ATOM     49  C   UNL     1       6.563  -2.982   8.241  1.00  0.00     0.037 A 
ATOM     50  C   UNL     1       2.343  -0.704  12.667  1.00  0.00     0.049 A 
ATOM     51  C   UNL     1       6.712  -2.503   9.659  1.00  0.00     0.074 A 
ATOM     52  C   UNL     1       2.599  -0.334  13.976  1.00  0.00     0.029 A 
ATOM     53  N   UNL     1       3.555  -1.099  12.120  1.00  0.00    -0.354 N 
ATOM     54  N   UNL     1       5.793  -2.071  10.488  1.00  0.00    -0.248 NA
ATOM     55  C   UNL     1       8.070  -2.515  10.222  1.00  0.00     0.031 C 
ATOM     56  C   UNL     1       3.971  -0.473  14.211  1.00  0.00     0.029 A 
ATOM     57  C   UNL     1       4.564  -0.969  13.061  1.00  0.00     0.049 A 
ATOM     58  H   UNL     1       3.680  -1.425  11.199  1.00  0.00     0.167 HD
ATOM     59  C   UNL     1       6.453  -1.785  11.675  1.00  0.00     0.074 A 
ATOM     60  C   UNL     1       7.850  -2.106  11.464  1.00  0.00     0.031 C 
ATOM     61  C   UNL     1       5.948  -1.301  12.836  1.00  0.00     0.037 A 
BRANCH  48  62
ATOM     62  C   UNL     1      -0.129  -0.188  12.673  1.00  0.00     0.064 A 
ATOM     63  C   UNL     1      -1.162  -1.046  13.079  1.00  0.00     0.173 A 
ATOM     64  C   UNL     1      -0.254   1.177  12.974  1.00  0.00     0.173 A 
ATOM     65  F   UNL     1      -1.096  -2.358  12.804  1.00  0.00    -0.203 F 
ATOM     66  C   UNL     1      -2.291  -0.553  13.728  1.00  0.00     0.198 A 
ATOM     67  C   UNL     1      -1.371   1.662  13.650  1.00  0.00     0.198 A 
ATOM     68  F   UNL     1       0.707   2.041  12.615  1.00  0.00    -0.203 F 
ATOM     69  F   UNL     1      -3.289  -1.385  14.057  1.00  0.00    -0.200 F 
ATOM     70  C   UNL     1      -2.392   0.799  14.019  1.00  0.00     0.200 A 
ATOM     71  F   UNL     1      -1.462   2.967  13.941  1.00  0.00    -0.200 F 
ATOM     72  F   UNL     1      -3.478   1.271  14.646  1.00  0.00    -0.200 F 
ENDBRANCH  48  62
BRANCH  49  73
ATOM     73  C   UNL     1       7.740  -3.455   7.469  1.00  0.00     0.064 A 
ATOM     74  C   UNL     1       8.376  -4.660   7.798  1.00  0.00     0.173 A 
ATOM     75  C   UNL     1       8.249  -2.721   6.388  1.00  0.00     0.173 A 
ATOM     76  F   UNL     1       7.937  -5.385   8.837  1.00  0.00    -0.203 F 
ATOM     77  C   UNL     1       9.485  -5.107   7.083  1.00  0.00     0.198 A 
ATOM     78  C   UNL     1       9.343  -3.182   5.658  1.00  0.00     0.198 A 
ATOM     79  F   UNL     1       7.673  -1.564   6.030  1.00  0.00    -0.203 F 
ATOM     80  F   UNL     1      10.097  -6.244   7.442  1.00  0.00    -0.200 F 
ATOM     81  C   UNL     1       9.964  -4.371   6.010  1.00  0.00     0.200 A 
ATOM     82  F   UNL     1       9.794  -2.475   4.613  1.00  0.00    -0.200 F 
ATOM     83  F   UNL     1      11.027  -4.804   5.319  1.00  0.00    -0.200 F 
ENDBRANCH  49  73
BRANCH  61  84
ATOM     84  C   UNL     1       6.904  -1.120  13.977  1.00  0.00     0.064 A 
ATOM     85  C   UNL     1       7.844  -0.080  13.991  1.00  0.00     0.173 A 
ATOM     86  C   UNL     1       6.854  -1.978  15.087  1.00  0.00     0.173 A 
ATOM     87  F   UNL     1       7.941   0.755  12.945  1.00  0.00    -0.203 F 
ATOM     88  C   UNL     1       8.715   0.082  15.064  1.00  0.00     0.198 A 
ATOM     89  C   UNL     1       7.708  -1.797  16.170  1.00  0.00     0.198 A 
ATOM     90  F   UNL     1       5.968  -2.985  15.124  1.00  0.00    -0.203 F 
ATOM     91  F   UNL     1       9.636   1.056  15.037  1.00  0.00    -0.200 F 
ATOM     92  C   UNL     1       8.643  -0.772  16.155  1.00  0.00     0.200 A 
ATOM     93  F   UNL     1       7.630  -2.615  17.229  1.00  0.00    -0.200 F 
ATOM     94  F   UNL     1       9.479  -0.611  17.190  1.00  0.00    -0.200 F 
ENDBRANCH  61  84
ENDBRANCH  35  36
ENDBRANCH  27  30
ENDBRANCH  25  26
ENDBRANCH  24  25
ENDBRANCH   1  24
TORSDOF 14
