REMARK SMILES COC(=O)[C@H]1CC[C@]2(C)[C@H]3CC=C4[C@@H]5CC(C)(C)CC[C@@]5(C(=O)NCCCNC(=O)c5ccc(-c6c7nc(c(-c8c(F)c(F)c(F)c(F)c8F)c8ccc([nH]8)c(-c8c(F)c(F)c(F)c(F)c8F)c8nc(c(-c9c(F)c(F)c(F)c(F)c9F)c9ccc6[nH]9)C=C8)C=C7)cc5)CC[C@@]4(C)[C@@]3(C)CC[C@H]2C1(C)C
REMARK SMILES IDX 26 1 25 2 24 3 22 4 23 5 21 7 5 8 6 9 103 10 7 11 102 12
REMARK SMILES IDX 104 13 105 14 8 15 101 16 9 17 10 18 100 19 11 20 98 21
REMARK SMILES IDX 12 22 96 23 99 24 13 25 95 26 97 27 14 28 94 29 15 30 16 31
REMARK SMILES IDX 20 32 17 33 18 34 19 35 3 36 4 37 2 38 1 39 27 40 28 41
REMARK SMILES IDX 29 42 30 44 31 45 32 46 93 47 33 48 92 49 34 50 35 51 36 52
REMARK SMILES IDX 86 53 37 54 91 55 85 56 87 57 38 58 90 59 84 60 83 61 39 63
REMARK SMILES IDX 71 64 51 65 70 66 52 67 55 68 69 69 88 70 53 71 54 72 68 74
REMARK SMILES IDX 89 75 56 76 40 77 41 78 49 79 42 80 43 81 47 82 50 83 44 84
REMARK SMILES IDX 45 85 48 86 46 87 72 88 73 89 81 90 74 91 75 92 79 93 82 94
REMARK SMILES IDX 76 95 77 96 80 97 78 98 57 99 58 100 66 101 59 102 60 103
REMARK SMILES IDX 64 104 67 105 61 106 62 107 65 108 63 109
REMARK H PARENT 24 6 28 43 87 62 55 73
REMARK Flexibility Score: inf
ROOT
ATOM      1  C   UNL     1       1.119   9.980   7.892  1.00  0.00     0.042 C 
ENDROOT
BRANCH   1   2
ATOM      2  C   UNL     1       2.464   9.727   7.207  1.00  0.00     0.117 C 
BRANCH   2   3
ATOM      3  N   UNL     1       2.581  10.229   5.849  1.00  0.00    -0.356 N 
ATOM      4  C   UNL     1       3.346   9.860   4.777  1.00  0.00     0.226 C 
ATOM      5  O   UNL     1       3.392  10.698   3.867  1.00  0.00    -0.274 OA
ATOM      6  H   UNL     1       1.988  10.993   5.663  1.00  0.00     0.163 HD
BRANCH   4   7
ATOM      7  C   UNL     1       4.083   8.495   4.631  1.00  0.00     0.056 C 
ATOM      8  C   UNL     1       0.347   1.426   3.043  1.00  0.00     0.105 C 
ATOM      9  C   UNL     1      -0.526   1.995   1.871  1.00  0.00     0.016 C 
ATOM     10  C   UNL     1       1.438   2.364   3.697  1.00  0.00    -0.019 C 
ATOM     11  C   UNL     1      -0.077   3.304   1.161  1.00  0.00     0.008 C 
ATOM     12  C   UNL     1       1.805   3.477   2.646  1.00  0.00     0.002 C 
ATOM     13  C   UNL     1       1.071   2.912   5.109  1.00  0.00     0.012 C 
ATOM     14  C   UNL     1       2.691   1.483   3.995  1.00  0.00     0.012 C 
ATOM     15  C   UNL     1       0.582   4.321   2.144  1.00  0.00    -0.026 C 
ATOM     16  C   UNL     1       3.018   4.310   2.986  1.00  0.00     0.005 C 
ATOM     17  C   UNL     1      -0.541   4.567   3.191  1.00  0.00     0.012 C 
ATOM     18  C   UNL     1       0.946   5.743   1.408  1.00  0.00     0.006 C 
ATOM     19  C   UNL     1       3.507   5.117   1.796  1.00  0.00     0.008 C 
ATOM     20  C   UNL     1       0.140   6.963   2.037  1.00  0.00     0.032 C 
ATOM     21  C   UNL     1       2.530   6.170   1.210  1.00  0.00    -0.020 C 
ATOM     22  C   UNL     1       0.842   7.450   3.276  1.00  0.00    -0.027 C 
ATOM     23  C   UNL     1       2.819   7.667   1.830  1.00  0.00    -0.006 C 
ATOM     24  C   UNL     1       2.831   6.176  -0.320  1.00  0.00     0.012 C 
ATOM     25  C   UNL     1       2.177   7.590   3.221  1.00  0.00    -0.064 C 
ATOM     26  C   UNL     1       4.294   8.213   1.943  1.00  0.00     0.013 C 
ATOM     27  C   UNL     1       2.181   8.758   0.876  1.00  0.00     0.017 C 
ATOM     28  C   UNL     1       3.117   7.347   4.409  1.00  0.00     0.031 C 
ATOM     29  C   UNL     1       4.962   8.488   3.315  1.00  0.00     0.018 C 
ATOM     30  C   UNL     1       2.517   6.726   5.676  1.00  0.00     0.015 C 
ATOM     31  C   UNL     1       3.579   6.283   6.723  1.00  0.00    -0.035 C 
ATOM     32  C   UNL     1       5.086   8.231   5.792  1.00  0.00     0.018 C 
ATOM     33  C   UNL     1       2.841   5.970   8.046  1.00  0.00     0.011 C 
ATOM     34  C   UNL     1       4.288   4.978   6.293  1.00  0.00     0.011 C 
ATOM     35  C   UNL     1       4.665   7.354   6.977  1.00  0.00     0.007 C 
BRANCH   8  36
ATOM     36  C   UNL     1      -0.488   0.740   4.130  1.00  0.00     0.309 C 
ATOM     37  O   UNL     1      -0.154  -0.302   4.681  1.00  0.00    -0.252 OA
BRANCH  36  38
ATOM     38  O   UNL     1      -1.547   1.504   4.511  1.00  0.00    -0.469 OA
ATOM     39  C   UNL     1      -2.141   1.136   5.758  1.00  0.00     0.282 C 
ENDBRANCH  36  38
ENDBRANCH   8  36
ENDBRANCH   4   7
ENDBRANCH   2   3
ENDBRANCH   1   2
BRANCH   1  40
ATOM     40  C   UNL     1      -0.068   9.296   7.203  1.00  0.00     0.118 C 
BRANCH  40  41
ATOM     41  N   UNL     1      -0.476   8.011   7.772  1.00  0.00    -0.352 N 
ATOM     42  C   UNL     1      -1.126   7.651   8.937  1.00  0.00     0.251 C 
ATOM     43  H   UNL     1      -0.239   7.242   7.205  1.00  0.00     0.163 HD
ATOM     44  O   UNL     1      -1.361   6.474   9.148  1.00  0.00    -0.269 OA
BRANCH  42  45
ATOM     45  C   UNL     1      -1.468   8.658   9.974  1.00  0.00     0.039 A 
ATOM     46  C   UNL     1      -1.336   8.306  11.324  1.00  0.00     0.014 A 
ATOM     47  C   UNL     1      -1.896   9.939   9.650  1.00  0.00     0.014 A 
ATOM     48  C   UNL     1      -1.514   9.271  12.324  1.00  0.00     0.010 A 
ATOM     49  C   UNL     1      -1.946  10.925  10.629  1.00  0.00     0.010 A 
ATOM     50  C   UNL     1      -1.746  10.611  11.980  1.00  0.00    -0.014 A 
BRANCH  50  51
ATOM     51  C   UNL     1      -1.774  11.710  12.987  1.00  0.00     0.031 A 
ATOM     52  C   UNL     1      -2.949  12.655  13.042  1.00  0.00     0.074 A 
ATOM     53  C   UNL     1      -0.690  11.950  13.754  1.00  0.00     0.049 A 
ATOM     54  N   UNL     1      -3.070  13.798  13.669  1.00  0.00    -0.248 NA
ATOM     55  C   UNL     1      -4.120  12.296  12.226  1.00  0.00     0.031 C 
ATOM     56  C   UNL     1       0.547  11.167  13.750  1.00  0.00     0.029 A 
ATOM     57  N   UNL     1      -0.447  12.940  14.675  1.00  0.00    -0.354 N 
ATOM     58  C   UNL     1      -4.295  14.319  13.271  1.00  0.00     0.074 A 
ATOM     59  C   UNL     1      -4.851  13.398  12.305  1.00  0.00     0.031 C 
ATOM     60  C   UNL     1       1.400  11.680  14.651  1.00  0.00     0.029 A 
ATOM     61  C   UNL     1       0.794  12.857  15.261  1.00  0.00     0.049 A 
ATOM     62  H   UNL     1      -1.100  13.643  14.894  1.00  0.00     0.167 HD
ATOM     63  C   UNL     1      -4.916  15.447  13.694  1.00  0.00     0.037 A 
ATOM     64  C   UNL     1       1.379  13.645  16.183  1.00  0.00     0.037 A 
ATOM     65  C   UNL     1      -4.402  16.310  14.724  1.00  0.00     0.049 A 
ATOM     66  C   UNL     1       0.629  14.839  16.707  1.00  0.00     0.074 A 
ATOM     67  C   UNL     1      -4.993  17.424  15.293  1.00  0.00     0.029 A 
ATOM     68  N   UNL     1      -3.182  16.134  15.360  1.00  0.00    -0.354 N 
ATOM     69  N   UNL     1      -0.549  15.294  16.359  1.00  0.00    -0.248 NA
ATOM     70  C   UNL     1       1.288  15.626  17.760  1.00  0.00     0.031 C 
ATOM     71  C   UNL     1      -4.121  17.935  16.261  1.00  0.00     0.029 A 
ATOM     72  C   UNL     1      -3.005  17.116  16.321  1.00  0.00     0.049 A 
ATOM     73  H   UNL     1      -2.538  15.418  15.158  1.00  0.00     0.167 HD
ATOM     74  C   UNL     1      -0.788  16.395  17.170  1.00  0.00     0.074 A 
ATOM     75  C   UNL     1       0.363  16.534  18.036  1.00  0.00     0.031 C 
ATOM     76  C   UNL     1      -1.864  17.218  17.193  1.00  0.00     0.037 A 
BRANCH  63  77
ATOM     77  C   UNL     1      -6.236  15.795  13.063  1.00  0.00     0.064 A 
ATOM     78  C   UNL     1      -7.383  15.014  13.273  1.00  0.00     0.173 A 
ATOM     79  C   UNL     1      -6.362  16.935  12.254  1.00  0.00     0.173 A 
ATOM     80  F   UNL     1      -7.317  13.909  14.031  1.00  0.00    -0.203 F 
ATOM     81  C   UNL     1      -8.593  15.334  12.662  1.00  0.00     0.198 A 
ATOM     82  C   UNL     1      -7.583  17.273  11.674  1.00  0.00     0.198 A 
ATOM     83  F   UNL     1      -5.302  17.725  12.026  1.00  0.00    -0.203 F 
ATOM     84  F   UNL     1      -9.655  14.533  12.826  1.00  0.00    -0.200 F 
ATOM     85  C   UNL     1      -8.694  16.465  11.869  1.00  0.00     0.200 A 
ATOM     86  F   UNL     1      -7.684  18.376  10.920  1.00  0.00    -0.200 F 
ATOM     87  F   UNL     1      -9.860  16.773  11.284  1.00  0.00    -0.200 F 
ENDBRANCH  63  77
BRANCH  64  88
ATOM     88  C   UNL     1       2.724  13.299  16.713  1.00  0.00     0.064 A 
ATOM     89  C   UNL     1       2.872  12.826  18.025  1.00  0.00     0.173 A 
ATOM     90  C   UNL     1       3.882  13.429  15.933  1.00  0.00     0.173 A 
ATOM     91  F   UNL     1       1.795  12.701  18.815  1.00  0.00    -0.203 F 
ATOM     92  C   UNL     1       4.127  12.519  18.545  1.00  0.00     0.198 A 
ATOM     93  C   UNL     1       5.135  13.095  16.445  1.00  0.00     0.198 A 
ATOM     94  F   UNL     1       3.795  13.867  14.669  1.00  0.00    -0.203 F 
ATOM     95  F   UNL     1       4.242  12.113  19.817  1.00  0.00    -0.200 F 
ATOM     96  C   UNL     1       5.257  12.649  17.753  1.00  0.00     0.200 A 
ATOM     97  F   UNL     1       6.224  13.206  15.673  1.00  0.00    -0.200 F 
ATOM     98  F   UNL     1       6.465  12.350  18.252  1.00  0.00    -0.200 F 
ENDBRANCH  64  88
BRANCH  76  99
ATOM     99  C   UNL     1      -1.876  18.306  18.225  1.00  0.00     0.064 A 
ATOM    100  C   UNL     1      -1.059  19.439  18.112  1.00  0.00     0.173 A 
ATOM    101  C   UNL     1      -2.752  18.231  19.319  1.00  0.00     0.173 A 
ATOM    102  F   UNL     1      -0.194  19.549  17.092  1.00  0.00    -0.203 F 
ATOM    103  C   UNL     1      -1.103  20.449  19.069  1.00  0.00     0.198 A 
ATOM    104  C   UNL     1      -2.814  19.255  20.258  1.00  0.00     0.198 A 
ATOM    105  F   UNL     1      -3.558  17.169  19.467  1.00  0.00    -0.203 F 
ATOM    106  F   UNL     1      -0.283  21.504  18.964  1.00  0.00    -0.200 F 
ATOM    107  C   UNL     1      -1.985  20.360  20.136  1.00  0.00     0.200 A 
ATOM    108  F   UNL     1      -3.675  19.174  21.281  1.00  0.00    -0.200 F 
ATOM    109  F   UNL     1      -2.032  21.338  21.051  1.00  0.00    -0.200 F 
ENDBRANCH  76  99
ENDBRANCH  50  51
ENDBRANCH  42  45
ENDBRANCH  40  41
ENDBRANCH   1  40
TORSDOF 12
