REMARK SMILES Cc1ccccc1[C@@H]1[NH2+][C@@H](C(=O)NCCCNC(=O)c2ccc(-c3c4nc(c(-c5c(F)c(F)c(F)c(F)c5F)c5ccc([nH]5)c(-c5c(F)c(F)c(F)c(F)c5F)c5nc(c(-c6c(F)c(F)c(F)c(F)c6F)c6ccc3[nH]6)C=C5)C=C4)cc2)CC2=c3ccccc3=N[C@@H]21
REMARK SMILES IDX 15 1 14 2 13 3 11 4 12 5 10 7 8 8 9 9 92 10 84 13 91 14
REMARK SMILES IDX 83 15 85 16 90 17 86 18 89 19 87 20 88 21 7 22 1 23 2 24
REMARK SMILES IDX 3 25 4 26 6 27 5 28 16 29 17 30 18 31 19 33 20 34 21 35
REMARK SMILES IDX 82 36 22 37 81 38 23 39 24 40 25 41 75 42 26 43 80 44 74 45
REMARK SMILES IDX 76 46 27 47 79 48 73 49 72 50 28 52 60 53 40 54 59 55 41 56
REMARK SMILES IDX 44 57 58 58 77 59 42 60 43 61 57 63 78 64 45 65 29 66 30 67
REMARK SMILES IDX 38 68 31 69 32 70 36 71 39 72 33 73 34 74 37 75 35 76 61 77
REMARK SMILES IDX 62 78 70 79 63 80 64 81 68 82 71 83 65 84 66 85 69 86 67 87
REMARK SMILES IDX 46 88 47 89 55 90 48 91 49 92 53 93 56 94 50 95 51 96 54 97
REMARK SMILES IDX 52 98
REMARK H PARENT 13 6 9 11 9 12 17 32 76 51 44 62
REMARK Flexibility Score: inf
ROOT
ATOM      1  C   UNL     1       3.840   5.391  -1.361  1.00  0.00     0.042 C 
ENDROOT
BRANCH   1   2
ATOM      2  C   UNL     1       2.809   6.543  -1.489  1.00  0.00     0.118 C 
BRANCH   2   3
ATOM      3  N   UNL     1       1.428   6.567  -0.970  1.00  0.00    -0.351 N 
ATOM      4  C   UNL     1       0.923   6.313   0.307  1.00  0.00     0.278 C 
ATOM      5  O   UNL     1      -0.059   6.911   0.735  1.00  0.00    -0.268 OA
ATOM      6  H   UNL     1       0.745   6.803  -1.639  1.00  0.00     0.163 HD
BRANCH   4   7
ATOM      7  C   UNL     1       1.604   5.171   1.035  1.00  0.00     0.277 C 
ATOM      8  C   UNL     1       0.671   2.879   0.720  1.00  0.00     0.243 C 
ATOM      9  N   UNL     1       1.407   4.024   0.129  1.00  0.00    -0.327 N 
ATOM     10  C   UNL     1       1.708   2.295   1.764  1.00  0.00     0.196 C 
ATOM     11  H   UNL     1       0.884   4.350  -0.685  1.00  0.00     0.347 HD
ATOM     12  H   UNL     1       2.338   3.678  -0.102  1.00  0.00     0.347 HD
ATOM     13  C   UNL     1       2.218   3.492   2.613  1.00  0.00    -0.024 C 
ATOM     14  N   UNL     1       2.958   1.809   1.082  1.00  0.00    -0.270 NA
ATOM     15  C   UNL     1       1.389   4.784   2.515  1.00  0.00     0.109 C 
ATOM     16  C   UNL     1       3.560   3.560   2.602  1.00  0.00     0.002 A 
ATOM     17  C   UNL     1       3.908   2.551   1.575  1.00  0.00     0.066 A 
ATOM     18  C   UNL     1       4.440   4.676   2.854  1.00  0.00     0.010 A 
ATOM     19  C   UNL     1       5.296   2.612   1.044  1.00  0.00     0.028 A 
ATOM     20  C   UNL     1       5.625   4.739   2.227  1.00  0.00     0.001 A 
ATOM     21  C   UNL     1       6.067   3.672   1.348  1.00  0.00     0.002 A 
BRANCH   8  22
ATOM     22  C   UNL     1      -0.029   2.134  -0.435  1.00  0.00     0.015 A 
ATOM     23  C   UNL     1      -1.492   0.639   1.058  1.00  0.00     0.045 C 
ATOM     24  C   UNL     1      -1.090   1.216  -0.268  1.00  0.00    -0.042 A 
ATOM     25  C   UNL     1      -1.956   0.933  -1.358  1.00  0.00     0.004 A 
ATOM     26  C   UNL     1      -1.814   1.560  -2.589  1.00  0.00     0.000 A 
ATOM     27  C   UNL     1       0.128   2.672  -1.734  1.00  0.00     0.010 A 
ATOM     28  C   UNL     1      -0.774   2.443  -2.760  1.00  0.00     0.001 A 
ENDBRANCH   8  22
ENDBRANCH   4   7
ENDBRANCH   2   3
ENDBRANCH   1   2
BRANCH   1  29
ATOM     29  C   UNL     1       3.798   4.207  -2.341  1.00  0.00     0.118 C 
BRANCH  29  30
ATOM     30  N   UNL     1       5.132   3.584  -2.467  1.00  0.00    -0.352 N 
ATOM     31  C   UNL     1       5.541   2.467  -3.173  1.00  0.00     0.251 C 
ATOM     32  H   UNL     1       5.847   4.039  -1.966  1.00  0.00     0.163 HD
ATOM     33  O   UNL     1       6.719   2.177  -3.266  1.00  0.00    -0.269 OA
BRANCH  31  34
ATOM     34  C   UNL     1       4.522   1.676  -3.882  1.00  0.00     0.039 A 
ATOM     35  C   UNL     1       4.565   1.628  -5.280  1.00  0.00     0.014 A 
ATOM     36  C   UNL     1       3.450   1.143  -3.173  1.00  0.00     0.014 A 
ATOM     37  C   UNL     1       3.413   1.277  -5.979  1.00  0.00     0.010 A 
ATOM     38  C   UNL     1       2.306   0.797  -3.869  1.00  0.00     0.010 A 
ATOM     39  C   UNL     1       2.255   0.972  -5.259  1.00  0.00    -0.014 A 
BRANCH  39  40
ATOM     40  C   UNL     1       0.925   1.124  -5.847  1.00  0.00     0.031 A 
ATOM     41  C   UNL     1       0.053  -0.007  -6.196  1.00  0.00     0.074 A 
ATOM     42  C   UNL     1       0.416   2.374  -5.936  1.00  0.00     0.049 A 
ATOM     43  N   UNL     1      -0.927   0.089  -7.033  1.00  0.00    -0.248 NA
ATOM     44  C   UNL     1       0.208  -1.339  -5.633  1.00  0.00     0.031 C 
ATOM     45  C   UNL     1      -0.983   2.757  -6.136  1.00  0.00     0.029 A 
ATOM     46  N   UNL     1       1.101   3.597  -5.898  1.00  0.00    -0.354 N 
ATOM     47  C   UNL     1      -1.698  -1.037  -6.901  1.00  0.00     0.074 A 
ATOM     48  C   UNL     1      -0.904  -1.934  -6.083  1.00  0.00     0.031 C 
ATOM     49  C   UNL     1      -1.044   4.066  -6.419  1.00  0.00     0.029 A 
ATOM     50  C   UNL     1       0.316   4.513  -6.634  1.00  0.00     0.049 A 
ATOM     51  H   UNL     1       1.958   3.781  -5.448  1.00  0.00     0.167 HD
ATOM     52  C   UNL     1      -2.977  -1.044  -7.379  1.00  0.00     0.037 A 
ATOM     53  C   UNL     1       0.790   5.018  -7.812  1.00  0.00     0.037 A 
ATOM     54  C   UNL     1      -3.366   0.241  -7.967  1.00  0.00     0.049 A 
ATOM     55  C   UNL     1      -0.024   4.624  -9.032  1.00  0.00     0.074 A 
ATOM     56  C   UNL     1      -4.165   1.296  -7.551  1.00  0.00     0.029 A 
ATOM     57  N   UNL     1      -2.684   0.712  -9.076  1.00  0.00    -0.354 N 
ATOM     58  N   UNL     1      -1.071   3.848  -9.003  1.00  0.00    -0.248 NA
ATOM     59  C   UNL     1       0.354   4.987 -10.398  1.00  0.00     0.031 C 
ATOM     60  C   UNL     1      -3.985   2.385  -8.451  1.00  0.00     0.029 A 
ATOM     61  C   UNL     1      -3.067   1.998  -9.409  1.00  0.00     0.049 A 
ATOM     62  H   UNL     1      -2.007   0.193  -9.569  1.00  0.00     0.167 HD
ATOM     63  C   UNL     1      -1.447   3.535 -10.280  1.00  0.00     0.074 A 
ATOM     64  C   UNL     1      -0.530   4.280 -11.121  1.00  0.00     0.031 C 
ATOM     65  C   UNL     1      -2.446   2.646 -10.552  1.00  0.00     0.037 A 
BRANCH  52  66
ATOM     66  C   UNL     1      -3.953  -2.159  -7.084  1.00  0.00     0.064 A 
ATOM     67  C   UNL     1      -5.334  -1.916  -6.931  1.00  0.00     0.173 A 
ATOM     68  C   UNL     1      -3.569  -3.504  -6.921  1.00  0.00     0.173 A 
ATOM     69  F   UNL     1      -5.869  -0.714  -7.179  1.00  0.00    -0.203 F 
ATOM     70  C   UNL     1      -6.227  -2.905  -6.512  1.00  0.00     0.198 A 
ATOM     71  C   UNL     1      -4.449  -4.481  -6.444  1.00  0.00     0.198 A 
ATOM     72  F   UNL     1      -2.339  -3.916  -7.260  1.00  0.00    -0.203 F 
ATOM     73  F   UNL     1      -7.528  -2.610  -6.373  1.00  0.00    -0.200 F 
ATOM     74  C   UNL     1      -5.777  -4.176  -6.224  1.00  0.00     0.200 A 
ATOM     75  F   UNL     1      -3.998  -5.719  -6.197  1.00  0.00    -0.200 F 
ATOM     76  F   UNL     1      -6.622  -5.108  -5.764  1.00  0.00    -0.200 F 
ENDBRANCH  52  66
BRANCH  53  77
ATOM     77  C   UNL     1       2.271   5.184  -7.788  1.00  0.00     0.064 A 
ATOM     78  C   UNL     1       2.834   6.022  -6.803  1.00  0.00     0.173 A 
ATOM     79  C   UNL     1       3.118   4.261  -8.413  1.00  0.00     0.173 A 
ATOM     80  F   UNL     1       2.062   6.910  -6.154  1.00  0.00    -0.203 F 
ATOM     81  C   UNL     1       4.149   5.856  -6.377  1.00  0.00     0.198 A 
ATOM     82  C   UNL     1       4.443   4.119  -8.003  1.00  0.00     0.198 A 
ATOM     83  F   UNL     1       2.641   3.414  -9.336  1.00  0.00    -0.203 F 
ATOM     84  F   UNL     1       4.609   6.568  -5.338  1.00  0.00    -0.200 F 
ATOM     85  C   UNL     1       4.946   4.890  -6.964  1.00  0.00     0.200 A 
ATOM     86  F   UNL     1       5.207   3.161  -8.548  1.00  0.00    -0.200 F 
ATOM     87  F   UNL     1       6.181   4.663  -6.495  1.00  0.00    -0.200 F 
ENDBRANCH  53  77
BRANCH  65  88
ATOM     88  C   UNL     1      -2.897   2.300 -11.943  1.00  0.00     0.064 A 
ATOM     89  C   UNL     1      -3.056   3.268 -12.947  1.00  0.00     0.173 A 
ATOM     90  C   UNL     1      -3.287   0.987 -12.284  1.00  0.00     0.173 A 
ATOM     91  F   UNL     1      -2.807   4.563 -12.701  1.00  0.00    -0.203 F 
ATOM     92  C   UNL     1      -3.498   2.931 -14.229  1.00  0.00     0.198 A 
ATOM     93  C   UNL     1      -3.780   0.663 -13.546  1.00  0.00     0.198 A 
ATOM     94  F   UNL     1      -3.182  -0.026 -11.413  1.00  0.00    -0.203 F 
ATOM     95  F   UNL     1      -3.570   3.876 -15.176  1.00  0.00    -0.200 F 
ATOM     96  C   UNL     1      -3.865   1.631 -14.525  1.00  0.00     0.200 A 
ATOM     97  F   UNL     1      -4.162  -0.595 -13.807  1.00  0.00    -0.200 F 
ATOM     98  F   UNL     1      -4.302   1.312 -15.751  1.00  0.00    -0.200 F 
ENDBRANCH  65  88
ENDBRANCH  39  40
ENDBRANCH  31  34
ENDBRANCH  29  30
ENDBRANCH   1  29
TORSDOF 11
