REMARK SMILES C[C@@H]1CC[C@H]([N@@H+](CC(=O)NCCCNC(=O)c2ccc(-c3c4nc(c(-c5c(F)c(F)c(F)c(F)c5F)c5ccc([nH]5)c(-c5c(F)c(F)c(F)c(F)c5F)c5nc(c(-c6c(F)c(F)c(F)c(F)c6F)c6ccc3[nH]6)C=C5)C=C4)cc2)CC(F)(F)F)C[C@@H]1C
REMARK SMILES IDX 11 1 10 2 8 3 9 4 7 6 6 7 5 9 1 10 2 11 3 12 86 13 4 14
REMARK SMILES IDX 85 15 87 16 80 17 81 18 82 19 83 20 84 21 12 22 13 23 14 24
REMARK SMILES IDX 15 25 16 27 17 28 18 29 79 30 19 31 78 32 20 33 21 34 22 35
REMARK SMILES IDX 72 36 23 37 77 38 71 39 73 40 24 41 76 42 70 43 69 44 25 46
REMARK SMILES IDX 57 47 37 48 56 49 38 50 41 51 55 52 74 53 39 54 40 55 54 57
REMARK SMILES IDX 75 58 42 59 26 60 27 61 35 62 28 63 29 64 33 65 36 66 30 67
REMARK SMILES IDX 31 68 34 69 32 70 58 71 59 72 67 73 60 74 61 75 65 76 68 77
REMARK SMILES IDX 62 78 63 79 66 80 64 81 43 82 44 83 52 84 45 85 46 86 50 87
REMARK SMILES IDX 53 88 47 89 48 90 51 91 49 92
REMARK H PARENT 10 5 6 8 14 26 73 45 41 56
REMARK Flexibility Score: inf
ROOT
ATOM      1  C   UNL     1      -1.727   3.906  -1.893  1.00  0.00     0.118 C 
ENDROOT
BRANCH   1   2
ATOM      2  N   UNL     1      -1.555   3.895  -0.445  1.00  0.00    -0.351 N 
ATOM      3  C   UNL     1      -0.702   4.578   0.387  1.00  0.00     0.275 C 
ATOM      4  O   UNL     1      -1.059   4.680   1.564  1.00  0.00    -0.269 OA
ATOM      5  H   UNL     1      -2.166   3.282   0.025  1.00  0.00     0.163 HD
BRANCH   3   6
ATOM      6  C   UNL     1       0.674   5.115  -0.073  1.00  0.00     0.364 C 
BRANCH   6   7
ATOM      7  N   UNL     1       1.834   4.211   0.197  1.00  0.00    -0.317 N 
ATOM      8  H   UNL     1       2.530   4.448  -0.510  1.00  0.00     0.349 HD
BRANCH   7   9
ATOM      9  C   UNL     1       1.541   2.812  -0.084  1.00  0.00     0.184 C 
ATOM     10  C   UNL     1       1.879  -1.069   0.638  1.00  0.00     0.008 C 
ATOM     11  C   UNL     1       1.107  -0.109  -0.266  1.00  0.00    -0.011 C 
ATOM     12  C   UNL     1       2.053   0.651  -1.240  1.00  0.00     0.010 C 
ATOM     13  C   UNL     1       0.190   0.853   0.514  1.00  0.00    -0.006 C 
ATOM     14  C   UNL     1       2.667   1.958  -0.685  1.00  0.00     0.065 C 
ATOM     15  C   UNL     1       0.962   2.023   1.091  1.00  0.00     0.068 C 
ATOM     16  C   UNL     1      -0.730   0.248   1.565  1.00  0.00     0.008 C 
ENDBRANCH   7   9
BRANCH   7  17
ATOM     17  C   UNL     1       2.653   4.523   1.395  1.00  0.00     0.379 C 
BRANCH  17  18
ATOM     18  C   UNL     1       2.170   4.492   2.868  1.00  0.00     0.438 C 
ATOM     19  F   UNL     1       1.927   3.245   3.321  1.00  0.00    -0.165 F 
ATOM     20  F   UNL     1       3.147   4.999   3.668  1.00  0.00    -0.165 F 
ATOM     21  F   UNL     1       1.075   5.247   3.071  1.00  0.00    -0.165 F 
ENDBRANCH  17  18
ENDBRANCH   7  17
ENDBRANCH   6   7
ENDBRANCH   3   6
ENDBRANCH   1   2
BRANCH   1  22
ATOM     22  C   UNL     1      -1.506   2.577  -2.643  1.00  0.00     0.042 C 
BRANCH  22  23
ATOM     23  C   UNL     1      -2.143   1.288  -2.097  1.00  0.00     0.118 C 
BRANCH  23  24
ATOM     24  N   UNL     1      -3.512   1.009  -2.466  1.00  0.00    -0.352 N 
ATOM     25  C   UNL     1      -4.150  -0.210  -2.369  1.00  0.00     0.251 C 
ATOM     26  H   UNL     1      -4.040   1.761  -2.819  1.00  0.00     0.163 HD
ATOM     27  O   UNL     1      -5.366  -0.287  -2.580  1.00  0.00    -0.269 OA
BRANCH  25  28
ATOM     28  C   UNL     1      -3.404  -1.459  -2.055  1.00  0.00     0.039 A 
ATOM     29  C   UNL     1      -3.296  -2.442  -3.042  1.00  0.00     0.014 A 
ATOM     30  C   UNL     1      -2.913  -1.730  -0.776  1.00  0.00     0.014 A 
ATOM     31  C   UNL     1      -2.677  -3.672  -2.758  1.00  0.00     0.010 A 
ATOM     32  C   UNL     1      -2.255  -2.949  -0.504  1.00  0.00     0.010 A 
ATOM     33  C   UNL     1      -2.133  -3.945  -1.489  1.00  0.00    -0.014 A 
BRANCH  33  34
ATOM     34  C   UNL     1      -1.451  -5.259  -1.229  1.00  0.00     0.031 A 
ATOM     35  C   UNL     1      -2.015  -6.281  -0.268  1.00  0.00     0.074 A 
ATOM     36  C   UNL     1      -0.305  -5.569  -1.874  1.00  0.00     0.049 A 
ATOM     37  N   UNL     1      -1.593  -7.499  -0.007  1.00  0.00    -0.248 NA
ATOM     38  C   UNL     1      -3.194  -5.884   0.512  1.00  0.00     0.031 C 
ATOM     39  C   UNL     1       0.407  -4.687  -2.796  1.00  0.00     0.029 A 
ATOM     40  N   UNL     1       0.458  -6.718  -1.859  1.00  0.00    -0.354 N 
ATOM     41  C   UNL     1      -2.451  -8.010   0.960  1.00  0.00     0.074 A 
ATOM     42  C   UNL     1      -3.390  -6.952   1.275  1.00  0.00     0.031 C 
ATOM     43  C   UNL     1       1.481  -5.332  -3.281  1.00  0.00     0.029 A 
ATOM     44  C   UNL     1       1.551  -6.668  -2.691  1.00  0.00     0.049 A 
ATOM     45  H   UNL     1       0.240  -7.500  -1.303  1.00  0.00     0.167 HD
ATOM     46  C   UNL     1      -2.478  -9.246   1.520  1.00  0.00     0.037 A 
ATOM     47  C   UNL     1       2.501  -7.586  -2.964  1.00  0.00     0.037 A 
ATOM     48  C   UNL     1      -1.571 -10.324   1.211  1.00  0.00     0.049 A 
ATOM     49  C   UNL     1       2.453  -8.951  -2.329  1.00  0.00     0.074 A 
ATOM     50  C   UNL     1      -1.590 -11.629   1.680  1.00  0.00     0.029 A 
ATOM     51  N   UNL     1      -0.476 -10.226   0.368  1.00  0.00    -0.354 N 
ATOM     52  N   UNL     1       1.573  -9.447  -1.497  1.00  0.00    -0.248 NA
ATOM     53  C   UNL     1       3.531  -9.890  -2.685  1.00  0.00     0.031 C 
ATOM     54  C   UNL     1      -0.480 -12.305   1.160  1.00  0.00     0.029 A 
ATOM     55  C   UNL     1       0.203 -11.436   0.328  1.00  0.00     0.049 A 
ATOM     56  H   UNL     1      -0.217  -9.417  -0.129  1.00  0.00     0.167 HD
ATOM     57  C   UNL     1       1.972 -10.755  -1.251  1.00  0.00     0.074 A 
ATOM     58  C   UNL     1       3.168 -10.985  -2.032  1.00  0.00     0.031 C 
ATOM     59  C   UNL     1       1.392 -11.679  -0.447  1.00  0.00     0.037 A 
BRANCH  46  60
ATOM     60  C   UNL     1      -3.547  -9.525   2.540  1.00  0.00     0.064 A 
ATOM     61  C   UNL     1      -4.891  -9.680   2.168  1.00  0.00     0.173 A 
ATOM     62  C   UNL     1      -3.215  -9.714   3.891  1.00  0.00     0.173 A 
ATOM     63  F   UNL     1      -5.260  -9.514   0.889  1.00  0.00    -0.203 F 
ATOM     64  C   UNL     1      -5.867  -9.985   3.114  1.00  0.00     0.198 A 
ATOM     65  C   UNL     1      -4.189 -10.046   4.830  1.00  0.00     0.198 A 
ATOM     66  F   UNL     1      -1.942  -9.598   4.297  1.00  0.00    -0.203 F 
ATOM     67  F   UNL     1      -7.149 -10.091   2.741  1.00  0.00    -0.200 F 
ATOM     68  C   UNL     1      -5.514 -10.174   4.442  1.00  0.00     0.200 A 
ATOM     69  F   UNL     1      -3.844 -10.248   6.109  1.00  0.00    -0.200 F 
ATOM     70  F   UNL     1      -6.453 -10.479   5.349  1.00  0.00    -0.200 F 
ENDBRANCH  46  60
BRANCH  47  71
ATOM     71  C   UNL     1       3.588  -7.255  -3.923  1.00  0.00     0.064 A 
ATOM     72  C   UNL     1       3.637  -7.852  -5.191  1.00  0.00     0.173 A 
ATOM     73  C   UNL     1       4.603  -6.348  -3.587  1.00  0.00     0.173 A 
ATOM     74  F   UNL     1       2.705  -8.748  -5.545  1.00  0.00    -0.203 F 
ATOM     75  C   UNL     1       4.670  -7.565  -6.081  1.00  0.00     0.198 A 
ATOM     76  C   UNL     1       5.620  -6.042  -4.488  1.00  0.00     0.198 A 
ATOM     77  F   UNL     1       4.600  -5.753  -2.385  1.00  0.00    -0.203 F 
ATOM     78  F   UNL     1       4.717  -8.181  -7.270  1.00  0.00    -0.200 F 
ATOM     79  C   UNL     1       5.656  -6.655  -5.732  1.00  0.00     0.200 A 
ATOM     80  F   UNL     1       6.565  -5.154  -4.151  1.00  0.00    -0.200 F 
ATOM     81  F   UNL     1       6.645  -6.374  -6.590  1.00  0.00    -0.200 F 
ENDBRANCH  47  71
BRANCH  59  82
ATOM     82  C   UNL     1       2.020 -13.043  -0.383  1.00  0.00     0.064 A 
ATOM     83  C   UNL     1       3.238 -13.264   0.278  1.00  0.00     0.173 A 
ATOM     84  C   UNL     1       1.379 -14.152  -0.958  1.00  0.00     0.173 A 
ATOM     85  F   UNL     1       3.901 -12.237   0.832  1.00  0.00    -0.203 F 
ATOM     86  C   UNL     1       3.801 -14.537   0.341  1.00  0.00     0.198 A 
ATOM     87  C   UNL     1       1.931 -15.428  -0.871  1.00  0.00     0.198 A 
ATOM     88  F   UNL     1       0.210 -13.999  -1.598  1.00  0.00    -0.203 F 
ATOM     89  F   UNL     1       4.986 -14.716   0.941  1.00  0.00    -0.200 F 
ATOM     90  C   UNL     1       3.144 -15.619  -0.227  1.00  0.00     0.200 A 
ATOM     91  F   UNL     1       1.290 -16.473  -1.412  1.00  0.00    -0.200 F 
ATOM     92  F   UNL     1       3.684 -16.844  -0.161  1.00  0.00    -0.200 F 
ENDBRANCH  59  82
ENDBRANCH  33  34
ENDBRANCH  25  28
ENDBRANCH  23  24
ENDBRANCH  22  23
ENDBRANCH   1  22
TORSDOF 14
