REMARK SMILES C[C@H](O)[C@H](NC(=O)C[NH3+])C(=O)NCCCNC(=O)c1ccc(-c2c3nc(c(-c4c(F)c(F)c(F)c(F)c4F)c4ccc([nH]4)c(-c4c(F)c(F)c(F)c(F)c4F)c4nc(c(-c5c(F)c(F)c(F)c(F)c5F)c5ccc2[nH]5)C=C4)C=C3)cc1
REMARK SMILES IDX 13 1 12 2 10 3 11 4 4 6 2 7 1 8 3 9 5 11 6 12 7 14 8 15 9 16
REMARK SMILES IDX 14 20 15 21 16 22 17 23 18 25 19 26 20 27 81 28 21 29 80 30
REMARK SMILES IDX 22 31 23 32 24 33 74 34 25 35 79 36 73 37 75 38 26 39 78 40
REMARK SMILES IDX 72 41 71 42 27 44 59 45 39 46 58 47 40 48 43 49 57 50 76 51
REMARK SMILES IDX 41 52 42 53 56 55 77 56 44 57 28 58 29 59 37 60 30 61 31 62
REMARK SMILES IDX 35 63 38 64 32 65 33 66 36 67 34 68 60 69 61 70 69 71 62 72
REMARK SMILES IDX 63 73 67 74 70 75 64 76 65 77 68 78 66 79 45 80 46 81 54 82
REMARK SMILES IDX 47 83 48 84 52 85 55 86 49 87 50 88 53 89 51 90
REMARK H PARENT 12 5 3 10 5 13 9 17 9 18 9 19 16 24 75 43 43 54
REMARK Flexibility Score: inf
ROOT
ATOM      1  C   UNL     1      -0.395   3.412   2.155  1.00  0.00     0.117 C 
ENDROOT
BRANCH   1   2
ATOM      2  N   UNL     1      -0.991   3.688   0.853  1.00  0.00    -0.354 N 
ATOM      3  C   UNL     1      -1.465   2.790  -0.073  1.00  0.00     0.245 C 
ATOM      4  O   UNL     1      -2.134   3.211  -1.017  1.00  0.00    -0.273 OA
ATOM      5  H   UNL     1      -1.063   4.639   0.606  1.00  0.00     0.163 HD
BRANCH   3   6
ATOM      6  C   UNL     1      -1.156   1.288   0.097  1.00  0.00     0.200 C 
BRANCH   6   7
ATOM      7  C   UNL     1      -1.973   0.664   1.265  1.00  0.00     0.143 C 
ATOM      8  C   UNL     1      -2.935  -0.409   0.769  1.00  0.00     0.041 C 
BRANCH   7   9
ATOM      9  O   UNL     1      -2.745   1.614   2.005  1.00  0.00    -0.391 OA
ATOM     10  H   UNL     1      -3.424   1.998   1.428  1.00  0.00     0.211 HD
ENDBRANCH   7   9
ENDBRANCH   6   7
BRANCH   6  11
ATOM     11  N   UNL     1       0.317   1.209   0.226  1.00  0.00    -0.337 N 
ATOM     12  C   UNL     1       1.188   0.179   0.362  1.00  0.00     0.275 C 
ATOM     13  H   UNL     1       0.756   2.090   0.210  1.00  0.00     0.164 HD
ATOM     14  O   UNL     1       2.386   0.459   0.443  1.00  0.00    -0.268 OA
BRANCH  12  15
ATOM     15  C   UNL     1       0.694  -1.257   0.496  1.00  0.00     0.360 C 
BRANCH  15  16
ATOM     16  N   UNL     1       0.515  -1.627   1.906  1.00  0.00    -0.350 N 
ATOM     17  H   UNL     1       1.409  -1.554   2.393  1.00  0.00     0.344 HD
ATOM     18  H   UNL     1       0.173  -2.586   1.966  1.00  0.00     0.344 HD
ATOM     19  H   UNL     1      -0.160  -0.998   2.340  1.00  0.00     0.344 HD
ENDBRANCH  15  16
ENDBRANCH  12  15
ENDBRANCH   6  11
ENDBRANCH   3   6
ENDBRANCH   1   2
BRANCH   1  20
ATOM     20  C   UNL     1       0.908   4.165   2.360  1.00  0.00     0.042 C 
BRANCH  20  21
ATOM     21  C   UNL     1       0.699   5.657   2.557  1.00  0.00     0.118 C 
BRANCH  21  22
ATOM     22  N   UNL     1      -0.015   5.960   3.792  1.00  0.00    -0.352 N 
ATOM     23  C   UNL     1       0.372   6.721   4.868  1.00  0.00     0.251 C 
ATOM     24  H   UNL     1      -0.910   5.557   3.866  1.00  0.00     0.163 HD
ATOM     25  O   UNL     1      -0.283   6.701   5.903  1.00  0.00    -0.269 OA
BRANCH  23  26
ATOM     26  C   UNL     1       1.594   7.546   4.779  1.00  0.00     0.039 A 
ATOM     27  C   UNL     1       2.467   7.583   5.867  1.00  0.00     0.014 A 
ATOM     28  C   UNL     1       1.880   8.274   3.622  1.00  0.00     0.014 A 
ATOM     29  C   UNL     1       3.665   8.292   5.765  1.00  0.00     0.010 A 
ATOM     30  C   UNL     1       3.115   8.894   3.485  1.00  0.00     0.010 A 
ATOM     31  C   UNL     1       4.018   8.917   4.558  1.00  0.00    -0.014 A 
BRANCH  31  32
ATOM     32  C   UNL     1       5.321   9.608   4.396  1.00  0.00     0.031 A 
ATOM     33  C   UNL     1       5.360  11.081   4.097  1.00  0.00     0.074 A 
ATOM     34  C   UNL     1       6.464   8.897   4.450  1.00  0.00     0.049 A 
ATOM     35  N   UNL     1       6.390  11.849   3.846  1.00  0.00    -0.248 NA
ATOM     36  C   UNL     1       4.065  11.779   4.040  1.00  0.00     0.031 C 
ATOM     37  C   UNL     1       6.553   7.454   4.683  1.00  0.00     0.029 A 
ATOM     38  N   UNL     1       7.770   9.289   4.302  1.00  0.00    -0.354 N 
ATOM     39  C   UNL     1       5.867  13.110   3.590  1.00  0.00     0.074 A 
ATOM     40  C   UNL     1       4.427  12.992   3.652  1.00  0.00     0.031 C 
ATOM     41  C   UNL     1       7.844   7.088   4.689  1.00  0.00     0.029 A 
ATOM     42  C   UNL     1       8.671   8.259   4.417  1.00  0.00     0.049 A 
ATOM     43  H   UNL     1       8.037  10.221   4.129  1.00  0.00     0.167 HD
ATOM     44  C   UNL     1       6.529  14.267   3.353  1.00  0.00     0.037 A 
ATOM     45  C   UNL     1      10.013   8.259   4.304  1.00  0.00     0.037 A 
ATOM     46  C   UNL     1       7.963  14.381   3.314  1.00  0.00     0.049 A 
ATOM     47  C   UNL     1      10.724   9.556   4.022  1.00  0.00     0.074 A 
ATOM     48  C   UNL     1       8.733  15.517   3.138  1.00  0.00     0.029 A 
ATOM     49  N   UNL     1       8.844  13.317   3.449  1.00  0.00    -0.354 N 
ATOM     50  N   UNL     1      10.223  10.756   3.855  1.00  0.00    -0.248 NA
ATOM     51  C   UNL     1      12.188   9.498   3.919  1.00  0.00     0.031 C 
ATOM     52  C   UNL     1      10.077  15.133   3.110  1.00  0.00     0.029 A 
ATOM     53  C   UNL     1      10.149  13.768   3.332  1.00  0.00     0.049 A 
ATOM     54  H   UNL     1       8.580  12.382   3.603  1.00  0.00     0.167 HD
ATOM     55  C   UNL     1      11.309  11.599   3.660  1.00  0.00     0.074 A 
ATOM     56  C   UNL     1      12.496  10.775   3.746  1.00  0.00     0.031 C 
ATOM     57  C   UNL     1      11.321  12.935   3.431  1.00  0.00     0.037 A 
BRANCH  44  58
ATOM     58  C   UNL     1       5.707  15.503   3.119  1.00  0.00     0.064 A 
ATOM     59  C   UNL     1       4.948  16.089   4.144  1.00  0.00     0.173 A 
ATOM     60  C   UNL     1       5.704  16.129   1.864  1.00  0.00     0.173 A 
ATOM     61  F   UNL     1       4.905  15.524   5.361  1.00  0.00    -0.203 F 
ATOM     62  C   UNL     1       4.192  17.235   3.912  1.00  0.00     0.198 A 
ATOM     63  C   UNL     1       4.976  17.295   1.645  1.00  0.00     0.198 A 
ATOM     64  F   UNL     1       6.416  15.616   0.849  1.00  0.00    -0.203 F 
ATOM     65  F   UNL     1       3.432  17.744   4.892  1.00  0.00    -0.200 F 
ATOM     66  C   UNL     1       4.213  17.842   2.666  1.00  0.00     0.200 A 
ATOM     67  F   UNL     1       5.009  17.889   0.444  1.00  0.00    -0.200 F 
ATOM     68  F   UNL     1       3.492  18.950   2.447  1.00  0.00    -0.200 F 
ENDBRANCH  44  58
BRANCH  45  69
ATOM     69  C   UNL     1      10.776   6.994   4.480  1.00  0.00     0.064 A 
ATOM     70  C   UNL     1      11.623   6.811   5.583  1.00  0.00     0.173 A 
ATOM     71  C   UNL     1      10.687   5.950   3.548  1.00  0.00     0.173 A 
ATOM     72  F   UNL     1      11.757   7.788   6.492  1.00  0.00    -0.203 F 
ATOM     73  C   UNL     1      12.370   5.645   5.733  1.00  0.00     0.198 A 
ATOM     74  C   UNL     1      11.411   4.771   3.716  1.00  0.00     0.198 A 
ATOM     75  F   UNL     1       9.888   6.071   2.478  1.00  0.00    -0.203 F 
ATOM     76  F   UNL     1      13.212   5.520   6.768  1.00  0.00    -0.200 F 
ATOM     77  C   UNL     1      12.259   4.624   4.802  1.00  0.00     0.200 A 
ATOM     78  F   UNL     1      11.289   3.780   2.822  1.00  0.00    -0.200 F 
ATOM     79  F   UNL     1      12.977   3.502   4.947  1.00  0.00    -0.200 F 
ENDBRANCH  45  69
BRANCH  57  80
ATOM     80  C   UNL     1      12.662  13.600   3.301  1.00  0.00     0.064 A 
ATOM     81  C   UNL     1      13.487  13.391   2.186  1.00  0.00     0.173 A 
ATOM     82  C   UNL     1      13.108  14.492   4.289  1.00  0.00     0.173 A 
ATOM     83  F   UNL     1      13.114  12.537   1.220  1.00  0.00    -0.203 F 
ATOM     84  C   UNL     1      14.721  14.027   2.080  1.00  0.00     0.198 A 
ATOM     85  C   UNL     1      14.326  15.152   4.162  1.00  0.00     0.198 A 
ATOM     86  F   UNL     1      12.354  14.734   5.372  1.00  0.00    -0.203 F 
ATOM     87  F   UNL     1      15.516  13.770   1.032  1.00  0.00    -0.200 F 
ATOM     88  C   UNL     1      15.136  14.913   3.063  1.00  0.00     0.200 A 
ATOM     89  F   UNL     1      14.717  16.021   5.105  1.00  0.00    -0.200 F 
ATOM     90  F   UNL     1      16.320  15.531   2.954  1.00  0.00    -0.200 F 
ENDBRANCH  57  80
ENDBRANCH  31  32
ENDBRANCH  23  26
ENDBRANCH  21  22
ENDBRANCH  20  21
ENDBRANCH   1  20
TORSDOF 15
