REMARK SMILES Cc1cc(C(=O)NCCCNC(=O)c2ccc(-c3c4nc(c(-c5c(F)c(F)c(F)c(F)c5F)c5ccc([nH]5)c(-c5c(F)c(F)c(F)c(F)c5F)c5nc(c(-c6c(F)c(F)c(F)c(F)c6F)c6ccc3[nH]6)C=C5)C=C4)cc2)nn1[C@H]1CCS(=O)(=O)C1
REMARK SMILES IDX 9 1 8 2 7 3 5 4 6 5 4 7 1 8 2 9 3 10 78 11 77 12 79 13 80 14
REMARK SMILES IDX 85 15 81 16 82 17 83 18 84 19 10 20 11 21 12 22 13 24 14 25
REMARK SMILES IDX 15 26 76 27 16 28 75 29 17 30 18 31 19 32 69 33 20 34 74 35
REMARK SMILES IDX 68 36 70 37 21 38 73 39 67 40 66 41 22 43 54 44 34 45 53 46
REMARK SMILES IDX 35 47 38 48 52 49 71 50 36 51 37 52 51 54 72 55 39 56 23 57
REMARK SMILES IDX 24 58 32 59 25 60 26 61 30 62 33 63 27 64 28 65 31 66 29 67
REMARK SMILES IDX 55 68 56 69 64 70 57 71 58 72 62 73 65 74 59 75 60 76 63 77
REMARK SMILES IDX 61 78 40 79 41 80 49 81 42 82 43 83 47 84 50 85 44 86 45 87
REMARK SMILES IDX 48 88 46 89
REMARK H PARENT 7 6 11 23 70 42 38 53
REMARK Flexibility Score: inf
ROOT
ATOM      1  C   UNL     1       1.528   8.156  -4.567  1.00  0.00     0.042 C 
ENDROOT
BRANCH   1   2
ATOM      2  C   UNL     1       1.068   8.536  -3.154  1.00  0.00     0.118 C 
BRANCH   2   3
ATOM      3  N   UNL     1      -0.100   7.793  -2.729  1.00  0.00    -0.351 N 
ATOM      4  C   UNL     1      -0.223   6.617  -2.023  1.00  0.00     0.271 C 
ATOM      5  O   UNL     1      -1.376   6.296  -1.720  1.00  0.00    -0.267 OA
ATOM      6  H   UNL     1      -0.957   8.200  -2.991  1.00  0.00     0.163 HD
BRANCH   4   7
ATOM      7  C   UNL     1       0.947   5.778  -1.687  1.00  0.00     0.150 A 
ATOM      8  C   UNL     1       4.393   4.438  -1.565  1.00  0.00     0.066 C 
ATOM      9  C   UNL     1       2.949   4.764  -1.520  1.00  0.00     0.036 A 
ATOM     10  C   UNL     1       2.304   5.844  -2.088  1.00  0.00     0.059 A 
ATOM     11  N   UNL     1       1.944   4.021  -0.957  1.00  0.00    -0.265 N 
ATOM     12  N   UNL     1       0.788   4.705  -0.890  1.00  0.00    -0.167 NA
BRANCH  11  13
ATOM     13  C   UNL     1       1.804   2.581  -0.803  1.00  0.00     0.123 C 
ATOM     14  C   UNL     1       1.175   2.002  -2.085  1.00  0.00     0.044 C 
ATOM     15  C   UNL     1       3.049   1.754  -0.529  1.00  0.00     0.164 C 
ATOM     16  C   UNL     1       1.145   0.494  -1.932  1.00  0.00     0.139 C 
ATOM     17  S   UNL     1       2.557   0.088  -0.923  1.00  0.00     0.152 S 
ATOM     18  O   UNL     1       2.085  -0.547   0.292  1.00  0.00    -0.229 OA
ATOM     19  O   UNL     1       3.576  -0.500  -1.760  1.00  0.00    -0.229 OA
ENDBRANCH  11  13
ENDBRANCH   4   7
ENDBRANCH   2   3
ENDBRANCH   1   2
BRANCH   1  20
ATOM     20  C   UNL     1       0.771   8.928  -5.638  1.00  0.00     0.118 C 
BRANCH  20  21
ATOM     21  N   UNL     1       1.061  10.366  -5.584  1.00  0.00    -0.352 N 
ATOM     22  C   UNL     1       0.456  11.416  -6.243  1.00  0.00     0.251 C 
ATOM     23  H   UNL     1       1.801  10.620  -4.986  1.00  0.00     0.163 HD
ATOM     24  O   UNL     1       1.008  12.507  -6.322  1.00  0.00    -0.269 OA
BRANCH  22  25
ATOM     25  C   UNL     1      -0.861  11.207  -6.860  1.00  0.00     0.039 A 
ATOM     26  C   UNL     1      -1.180  11.755  -8.108  1.00  0.00     0.014 A 
ATOM     27  C   UNL     1      -1.767  10.403  -6.183  1.00  0.00     0.014 A 
ATOM     28  C   UNL     1      -2.386  11.403  -8.707  1.00  0.00     0.010 A 
ATOM     29  C   UNL     1      -2.845   9.901  -6.856  1.00  0.00     0.010 A 
ATOM     30  C   UNL     1      -3.203  10.452  -8.082  1.00  0.00    -0.014 A 
BRANCH  30  31
ATOM     31  C   UNL     1      -4.397   9.919  -8.727  1.00  0.00     0.031 A 
ATOM     32  C   UNL     1      -4.165   9.298 -10.061  1.00  0.00     0.074 A 
ATOM     33  C   UNL     1      -5.549   9.761  -8.036  1.00  0.00     0.049 A 
ATOM     34  N   UNL     1      -4.711   9.620 -11.187  1.00  0.00    -0.248 NA
ATOM     35  C   UNL     1      -3.115   8.271 -10.186  1.00  0.00     0.031 C 
ATOM     36  C   UNL     1      -5.805  10.069  -6.621  1.00  0.00     0.029 A 
ATOM     37  N   UNL     1      -6.705   9.153  -8.412  1.00  0.00    -0.354 N 
ATOM     38  C   UNL     1      -4.220   8.718 -12.128  1.00  0.00     0.074 A 
ATOM     39  C   UNL     1      -3.121   8.036 -11.500  1.00  0.00     0.031 C 
ATOM     40  C   UNL     1      -6.913   9.419  -6.207  1.00  0.00     0.029 A 
ATOM     41  C   UNL     1      -7.538   8.795  -7.356  1.00  0.00     0.049 A 
ATOM     42  H   UNL     1      -6.935   8.981  -9.354  1.00  0.00     0.167 HD
ATOM     43  C   UNL     1      -4.923   8.438 -13.262  1.00  0.00     0.037 A 
ATOM     44  C   UNL     1      -8.642   8.010  -7.420  1.00  0.00     0.037 A 
ATOM     45  C   UNL     1      -5.930   9.441 -13.504  1.00  0.00     0.049 A 
ATOM     46  C   UNL     1      -9.068   7.979  -8.842  1.00  0.00     0.074 A 
ATOM     47  C   UNL     1      -5.902  10.807 -13.710  1.00  0.00     0.029 A 
ATOM     48  N   UNL     1      -7.229   9.142 -13.171  1.00  0.00    -0.354 N 
ATOM     49  N   UNL     1      -9.548   9.014  -9.473  1.00  0.00    -0.248 NA
ATOM     50  C   UNL     1      -8.515   6.932  -9.689  1.00  0.00     0.031 C 
ATOM     51  C   UNL     1      -7.040  11.307 -13.011  1.00  0.00     0.029 A 
ATOM     52  C   UNL     1      -7.737  10.217 -12.490  1.00  0.00     0.049 A 
ATOM     53  H   UNL     1      -7.706   8.307 -13.383  1.00  0.00     0.167 HD
ATOM     54  C   UNL     1      -8.963   8.960 -10.729  1.00  0.00     0.074 A 
ATOM     55  C   UNL     1      -8.414   7.609 -10.837  1.00  0.00     0.031 C 
ATOM     56  C   UNL     1      -8.714  10.102 -11.434  1.00  0.00     0.037 A 
BRANCH  43  57
ATOM     57  C   UNL     1      -4.970   7.086 -13.935  1.00  0.00     0.064 A 
ATOM     58  C   UNL     1      -5.653   6.959 -15.162  1.00  0.00     0.173 A 
ATOM     59  C   UNL     1      -4.658   5.871 -13.288  1.00  0.00     0.173 A 
ATOM     60  F   UNL     1      -6.008   8.047 -15.863  1.00  0.00    -0.203 F 
ATOM     61  C   UNL     1      -6.077   5.719 -15.648  1.00  0.00     0.198 A 
ATOM     62  C   UNL     1      -5.035   4.632 -13.804  1.00  0.00     0.198 A 
ATOM     63  F   UNL     1      -4.083   5.829 -12.081  1.00  0.00    -0.203 F 
ATOM     64  F   UNL     1      -6.844   5.662 -16.746  1.00  0.00    -0.200 F 
ATOM     65  C   UNL     1      -5.776   4.557 -14.963  1.00  0.00     0.200 A 
ATOM     66  F   UNL     1      -4.745   3.518 -13.116  1.00  0.00    -0.200 F 
ATOM     67  F   UNL     1      -6.239   3.375 -15.388  1.00  0.00    -0.200 F 
ENDBRANCH  43  57
BRANCH  44  68
ATOM     68  C   UNL     1      -9.193   7.090  -6.396  1.00  0.00     0.064 A 
ATOM     69  C   UNL     1     -10.494   6.573  -6.512  1.00  0.00     0.173 A 
ATOM     70  C   UNL     1      -8.368   6.487  -5.425  1.00  0.00     0.173 A 
ATOM     71  F   UNL     1     -11.334   7.061  -7.436  1.00  0.00    -0.203 F 
ATOM     72  C   UNL     1     -10.932   5.499  -5.729  1.00  0.00     0.198 A 
ATOM     73  C   UNL     1      -8.809   5.421  -4.638  1.00  0.00     0.198 A 
ATOM     74  F   UNL     1      -7.087   6.854  -5.285  1.00  0.00    -0.203 F 
ATOM     75  F   UNL     1     -12.158   4.990  -5.917  1.00  0.00    -0.200 F 
ATOM     76  C   UNL     1     -10.085   4.916  -4.801  1.00  0.00     0.200 A 
ATOM     77  F   UNL     1      -7.967   4.844  -3.768  1.00  0.00    -0.200 F 
ATOM     78  F   UNL     1     -10.481   3.847  -4.097  1.00  0.00    -0.200 F 
ENDBRANCH  44  68
BRANCH  56  79
ATOM     79  C   UNL     1      -9.317  11.385 -10.928  1.00  0.00     0.064 A 
ATOM     80  C   UNL     1      -9.006  11.967  -9.686  1.00  0.00     0.173 A 
ATOM     81  C   UNL     1     -10.127  12.126 -11.797  1.00  0.00     0.173 A 
ATOM     82  F   UNL     1      -8.154  11.379  -8.840  1.00  0.00    -0.203 F 
ATOM     83  C   UNL     1      -9.521  13.208  -9.315  1.00  0.00     0.198 A 
ATOM     84  C   UNL     1     -10.610  13.382 -11.441  1.00  0.00     0.198 A 
ATOM     85  F   UNL     1     -10.410  11.650 -13.020  1.00  0.00    -0.203 F 
ATOM     86  F   UNL     1      -9.217  13.732  -8.118  1.00  0.00    -0.200 F 
ATOM     87  C   UNL     1     -10.318  13.917 -10.196  1.00  0.00     0.200 A 
ATOM     88  F   UNL     1     -11.337  14.088 -12.318  1.00  0.00    -0.200 F 
ATOM     89  F   UNL     1     -10.781  15.129  -9.859  1.00  0.00    -0.200 F 
ENDBRANCH  56  79
ENDBRANCH  30  31
ENDBRANCH  22  25
ENDBRANCH  20  21
ENDBRANCH   1  20
TORSDOF 11
