REMARK SMILES Cc1nsc(NC(=O)CC[C@H](C)CC[NH3+])c1C(=O)NCCCNC(=O)c1ccc(-c2c3nc(c(-c4c(F)c(F)c(F)c(F)c4F)c4ccc([nH]4)c(-c4c(F)c(F)c(F)c(F)c4F)c4nc(c(-c5c(F)c(F)c(F)c(F)c5F)c5ccc2[nH]5)C=C4)C=C3)cc1
REMARK SMILES IDX 1 1 2 2 3 3 4 4 5 5 16 6 17 7 18 8 19 9 20 11 21 12 22 13
REMARK SMILES IDX 23 14 24 15 25 17 26 18 27 19 88 20 28 21 87 22 29 23 30 24
REMARK SMILES IDX 31 25 81 26 32 27 86 28 80 29 82 30 33 31 85 32 79 33 78 34
REMARK SMILES IDX 34 36 66 37 46 38 65 39 47 40 50 41 64 42 83 43 48 44 49 45
REMARK SMILES IDX 63 47 84 48 51 49 35 50 36 51 44 52 37 53 38 54 42 55 45 56
REMARK SMILES IDX 39 57 40 58 43 59 41 60 67 61 68 62 76 63 69 64 70 65 74 66
REMARK SMILES IDX 77 67 71 68 72 69 75 70 73 71 52 72 53 73 61 74 54 75 55 76
REMARK SMILES IDX 59 77 62 78 56 79 57 80 60 81 58 82 6 83 7 84 8 86 9 87
REMARK SMILES IDX 10 88 11 89 12 90 13 91 14 92 15 93
REMARK H PARENT 19 10 23 16 82 35 50 46 6 85 15 94 15 95 15 96
REMARK Flexibility Score: inf
ROOT
ATOM      1  C   UNL     1      -5.200   0.557   4.415  1.00  0.00     0.069 C 
ATOM      2  C   UNL     1      -3.911   0.763   5.124  1.00  0.00     0.066 A 
ATOM      3  N   UNL     1      -3.108   1.663   4.550  1.00  0.00    -0.195 NA
ATOM      4  S   UNL     1      -1.613   1.552   5.227  1.00  0.00    -0.017 S 
ATOM      5  C   UNL     1      -1.978   0.199   6.183  1.00  0.00     0.129 A 
ATOM      6  C   UNL     1      -3.366   0.051   6.271  1.00  0.00     0.097 A 
ENDROOT
BRANCH   6   7
ATOM      7  C   UNL     1      -3.947  -0.881   7.244  1.00  0.00     0.256 C 
ATOM      8  O   UNL     1      -3.232  -1.679   7.857  1.00  0.00    -0.269 OA
ATOM      9  N   UNL     1      -5.266  -0.897   7.613  1.00  0.00    -0.352 N 
ATOM     10  H   UNL     1      -5.485  -1.622   8.242  1.00  0.00     0.163 HD
BRANCH   9  11
ATOM     11  C   UNL     1      -6.407  -0.071   7.270  1.00  0.00     0.118 C 
BRANCH  11  12
ATOM     12  C   UNL     1      -7.329  -0.785   6.269  1.00  0.00     0.042 C 
BRANCH  12  13
ATOM     13  C   UNL     1      -8.560  -1.403   6.901  1.00  0.00     0.118 C 
BRANCH  13  14
ATOM     14  N   UNL     1      -9.495  -0.381   7.379  1.00  0.00    -0.352 N 
ATOM     15  C   UNL     1     -10.551  -0.507   8.264  1.00  0.00     0.251 C 
ATOM     16  H   UNL     1      -9.351   0.524   7.019  1.00  0.00     0.163 HD
ATOM     17  O   UNL     1     -11.451   0.312   8.291  1.00  0.00    -0.269 OA
BRANCH  15  18
ATOM     18  C   UNL     1     -10.558  -1.663   9.173  1.00  0.00     0.039 A 
ATOM     19  C   UNL     1     -11.730  -2.370   9.454  1.00  0.00     0.014 A 
ATOM     20  C   UNL     1      -9.332  -2.074   9.680  1.00  0.00     0.014 A 
ATOM     21  C   UNL     1     -11.631  -3.552  10.182  1.00  0.00     0.010 A 
ATOM     22  C   UNL     1      -9.212  -3.336  10.181  1.00  0.00     0.010 A 
ATOM     23  C   UNL     1     -10.359  -4.039  10.519  1.00  0.00    -0.014 A 
BRANCH  23  24
ATOM     24  C   UNL     1     -10.178  -5.339  11.147  1.00  0.00     0.031 A 
ATOM     25  C   UNL     1     -10.792  -6.466  10.401  1.00  0.00     0.074 A 
ATOM     26  C   UNL     1      -9.329  -5.524  12.182  1.00  0.00     0.049 A 
ATOM     27  N   UNL     1     -11.808  -7.178  10.754  1.00  0.00    -0.248 NA
ATOM     28  C   UNL     1     -10.323  -6.736   9.031  1.00  0.00     0.031 C 
ATOM     29  C   UNL     1      -8.409  -4.556  12.796  1.00  0.00     0.029 A 
ATOM     30  N   UNL     1      -9.032  -6.671  12.849  1.00  0.00    -0.354 N 
ATOM     31  C   UNL     1     -11.977  -8.128   9.750  1.00  0.00     0.074 A 
ATOM     32  C   UNL     1     -11.182  -7.680   8.638  1.00  0.00     0.031 C 
ATOM     33  C   UNL     1      -7.507  -5.205  13.564  1.00  0.00     0.029 A 
ATOM     34  C   UNL     1      -7.897  -6.598  13.648  1.00  0.00     0.049 A 
ATOM     35  H   UNL     1      -9.577  -7.487  12.772  1.00  0.00     0.167 HD
ATOM     36  C   UNL     1     -12.543  -9.336  10.030  1.00  0.00     0.037 A 
ATOM     37  C   UNL     1      -7.312  -7.620  14.318  1.00  0.00     0.037 A 
ATOM     38  C   UNL     1     -13.223  -9.293  11.303  1.00  0.00     0.049 A 
ATOM     39  C   UNL     1      -8.325  -8.699  14.435  1.00  0.00     0.074 A 
ATOM     40  C   UNL     1     -14.273  -8.562  11.822  1.00  0.00     0.029 A 
ATOM     41  N   UNL     1     -12.562  -9.819  12.387  1.00  0.00    -0.354 N 
ATOM     42  N   UNL     1      -9.412  -8.595  15.149  1.00  0.00    -0.248 NA
ATOM     43  C   UNL     1      -8.362  -9.702  13.383  1.00  0.00     0.031 C 
ATOM     44  C   UNL     1     -13.906  -8.298  13.176  1.00  0.00     0.029 A 
ATOM     45  C   UNL     1     -12.697  -8.946  13.434  1.00  0.00     0.049 A 
ATOM     46  H   UNL     1     -12.076 -10.675  12.408  1.00  0.00     0.167 HD
ATOM     47  C   UNL     1     -10.399  -9.185  14.373  1.00  0.00     0.074 A 
ATOM     48  C   UNL     1      -9.678  -9.931  13.344  1.00  0.00     0.031 C 
ATOM     49  C   UNL     1     -11.697  -8.769  14.463  1.00  0.00     0.037 A 
BRANCH  36  50
ATOM     50  C   UNL     1     -12.146 -10.648   9.387  1.00  0.00     0.064 A 
ATOM     51  C   UNL     1     -12.857 -11.815   9.740  1.00  0.00     0.173 A 
ATOM     52  C   UNL     1     -10.931 -10.867   8.703  1.00  0.00     0.173 A 
ATOM     53  F   UNL     1     -14.024 -11.732  10.396  1.00  0.00    -0.203 F 
ATOM     54  C   UNL     1     -12.338 -13.094   9.521  1.00  0.00     0.198 A 
ATOM     55  C   UNL     1     -10.443 -12.146   8.438  1.00  0.00     0.198 A 
ATOM     56  F   UNL     1     -10.108  -9.872   8.359  1.00  0.00    -0.203 F 
ATOM     57  F   UNL     1     -12.984 -14.164  10.003  1.00  0.00    -0.200 F 
ATOM     58  C   UNL     1     -11.126 -13.258   8.880  1.00  0.00     0.200 A 
ATOM     59  F   UNL     1      -9.257 -12.283   7.827  1.00  0.00    -0.200 F 
ATOM     60  F   UNL     1     -10.592 -14.477   8.732  1.00  0.00    -0.200 F 
ENDBRANCH  36  50
BRANCH  37  61
ATOM     61  C   UNL     1      -5.873  -7.840  14.588  1.00  0.00     0.064 A 
ATOM     62  C   UNL     1      -5.446  -8.739  15.577  1.00  0.00     0.173 A 
ATOM     63  C   UNL     1      -4.889  -7.382  13.689  1.00  0.00     0.173 A 
ATOM     64  F   UNL     1      -6.329  -9.258  16.441  1.00  0.00    -0.203 F 
ATOM     65  C   UNL     1      -4.117  -9.174  15.649  1.00  0.00     0.198 A 
ATOM     66  C   UNL     1      -3.563  -7.813  13.764  1.00  0.00     0.198 A 
ATOM     67  F   UNL     1      -5.217  -6.584  12.662  1.00  0.00    -0.203 F 
ATOM     68  F   UNL     1      -3.759 -10.080  16.569  1.00  0.00    -0.200 F 
ATOM     69  C   UNL     1      -3.180  -8.719  14.735  1.00  0.00     0.200 A 
ATOM     70  F   UNL     1      -2.677  -7.397  12.848  1.00  0.00    -0.200 F 
ATOM     71  F   UNL     1      -1.923  -9.183  14.764  1.00  0.00    -0.200 F 
ENDBRANCH  37  61
BRANCH  49  72
ATOM     72  C   UNL     1     -12.069  -7.878  15.618  1.00  0.00     0.064 A 
ATOM     73  C   UNL     1     -11.559  -6.583  15.820  1.00  0.00     0.173 A 
ATOM     74  C   UNL     1     -13.092  -8.305  16.474  1.00  0.00     0.173 A 
ATOM     75  F   UNL     1     -10.649  -6.061  14.991  1.00  0.00    -0.203 F 
ATOM     76  C   UNL     1     -12.026  -5.774  16.856  1.00  0.00     0.198 A 
ATOM     77  C   UNL     1     -13.584  -7.482  17.483  1.00  0.00     0.198 A 
ATOM     78  F   UNL     1     -13.655  -9.511  16.297  1.00  0.00    -0.203 F 
ATOM     79  F   UNL     1     -11.515  -4.547  17.034  1.00  0.00    -0.200 F 
ATOM     80  C   UNL     1     -13.044  -6.222  17.681  1.00  0.00     0.200 A 
ATOM     81  F   UNL     1     -14.602  -7.901  18.245  1.00  0.00    -0.200 F 
ATOM     82  F   UNL     1     -13.524  -5.429  18.649  1.00  0.00    -0.200 F 
ENDBRANCH  49  72
ENDBRANCH  23  24
ENDBRANCH  15  18
ENDBRANCH  13  14
ENDBRANCH  12  13
ENDBRANCH  11  12
ENDBRANCH   9  11
ENDBRANCH   6   7
BRANCH   5  83
ATOM     83  N   UNL     1      -0.986  -0.525   6.813  1.00  0.00    -0.316 N 
ATOM     84  C   UNL     1       0.146  -1.075   6.271  1.00  0.00     0.225 C 
ATOM     85  H   UNL     1      -1.108  -0.665   7.780  1.00  0.00     0.170 HD
ATOM     86  O   UNL     1       0.837  -1.795   7.003  1.00  0.00    -0.275 OA
BRANCH  84  87
ATOM     87  C   UNL     1       0.532  -0.932   4.804  1.00  0.00     0.101 C 
BRANCH  87  88
ATOM     88  C   UNL     1      -0.043  -1.972   3.820  1.00  0.00     0.013 C 
BRANCH  88  89
ATOM     89  C   UNL     1      -1.581  -2.079   3.745  1.00  0.00    -0.008 C 
ATOM     90  C   UNL     1      -2.108  -3.065   4.797  1.00  0.00     0.008 C 
BRANCH  89  91
ATOM     91  C   UNL     1      -2.082  -2.526   2.351  1.00  0.00     0.064 C 
BRANCH  91  92
ATOM     92  C   UNL     1      -3.535  -2.101   2.078  1.00  0.00     0.259 C 
BRANCH  92  93
ATOM     93  N   UNL     1      -3.598  -0.731   1.585  1.00  0.00    -0.358 N 
ATOM     94  H   UNL     1      -3.211  -0.099   2.286  1.00  0.00     0.344 HD
ATOM     95  H   UNL     1      -4.570  -0.480   1.401  1.00  0.00     0.344 HD
ATOM     96  H   UNL     1      -3.058  -0.654   0.724  1.00  0.00     0.344 HD
ENDBRANCH  92  93
ENDBRANCH  91  92
ENDBRANCH  89  91
ENDBRANCH  88  89
ENDBRANCH  87  88
ENDBRANCH  84  87
ENDBRANCH   5  83
TORSDOF 17
