REMARK SMILES CCCC[C@H]1CC[C@](CCC2CC2)(C(=O)NCCCNC(=O)c2ccc(-c3c4nc(c(-c5c(F)c(F)c(F)c(F)c5F)c5ccc([nH]5)c(-c5c(F)c(F)c(F)c(F)c5F)c5nc(c(-c6c(F)c(F)c(F)c(F)c6F)c6ccc3[nH]6)C=C5)C=C4)cc2)CC1
REMARK SMILES IDX 17 1 16 2 14 3 15 4 8 6 5 7 87 8 6 9 86 10 7 11 4 12 3 13
REMARK SMILES IDX 2 14 1 15 9 16 10 17 11 18 12 19 13 20 18 21 19 22 20 23
REMARK SMILES IDX 21 24 22 26 23 27 24 28 85 29 25 30 84 31 26 32 27 33 28 34
REMARK SMILES IDX 78 35 29 36 83 37 77 38 79 39 30 40 82 41 76 42 75 43 31 45
REMARK SMILES IDX 63 46 43 47 62 48 44 49 47 50 61 51 80 52 45 53 46 54 60 56
REMARK SMILES IDX 81 57 48 58 32 59 33 60 41 61 34 62 35 63 39 64 42 65 36 66
REMARK SMILES IDX 37 67 40 68 38 69 64 70 65 71 73 72 66 73 67 74 71 75 74 76
REMARK SMILES IDX 68 77 69 78 72 79 70 80 49 81 50 82 58 83 51 84 52 85 56 86
REMARK SMILES IDX 59 87 53 88 54 89 57 90 55 91
REMARK H PARENT 16 5 20 25 79 44 47 55
REMARK Flexibility Score: inf
ROOT
ATOM      1  C   UNL     1      -4.992   4.143   4.712  1.00  0.00     0.117 C 
ENDROOT
BRANCH   1   2
ATOM      2  N   UNL     1      -5.368   3.047   3.836  1.00  0.00    -0.356 N 
ATOM      3  C   UNL     1      -4.818   1.818   3.630  1.00  0.00     0.226 C 
ATOM      4  O   UNL     1      -5.572   0.988   3.110  1.00  0.00    -0.274 OA
ATOM      5  H   UNL     1      -6.167   3.226   3.290  1.00  0.00     0.163 HD
BRANCH   3   6
ATOM      6  C   UNL     1      -3.351   1.476   3.971  1.00  0.00     0.049 C 
ATOM      7  C   UNL     1      -0.664   0.922   2.570  1.00  0.00    -0.011 C 
ATOM      8  C   UNL     1      -1.507  -0.191   3.196  1.00  0.00     0.005 C 
ATOM      9  C   UNL     1      -0.951   2.251   3.272  1.00  0.00     0.005 C 
ATOM     10  C   UNL     1      -2.998   0.171   3.167  1.00  0.00     0.017 C 
ATOM     11  C   UNL     1      -2.434   2.581   3.374  1.00  0.00     0.017 C 
BRANCH   7  12
ATOM     12  C   UNL     1       0.856   0.672   2.620  1.00  0.00     0.003 C 
BRANCH  12  13
ATOM     13  C   UNL     1       1.353  -0.689   2.135  1.00  0.00     0.000 C 
BRANCH  13  14
ATOM     14  C   UNL     1       0.907  -1.112   0.736  1.00  0.00    -0.003 C 
ATOM     15  C   UNL     1       1.330  -0.149  -0.362  1.00  0.00     0.004 C 
ENDBRANCH  13  14
ENDBRANCH  12  13
ENDBRANCH   7  12
BRANCH   6  16
ATOM     16  C   UNL     1      -3.098   1.122   5.474  1.00  0.00     0.017 C 
BRANCH  16  17
ATOM     17  C   UNL     1      -3.740   1.865   6.646  1.00  0.00     0.005 C 
BRANCH  17  18
ATOM     18  C   UNL     1      -5.015   1.327   7.249  1.00  0.00    -0.011 C 
ATOM     19  C   UNL     1      -6.407   1.559   6.704  1.00  0.00     0.004 C 
ATOM     20  C   UNL     1      -5.815   0.182   6.673  1.00  0.00     0.004 C 
ENDBRANCH  17  18
ENDBRANCH  16  17
ENDBRANCH   6  16
ENDBRANCH   3   6
ENDBRANCH   1   2
BRANCH   1  21
ATOM     21  C   UNL     1      -5.583   5.473   4.301  1.00  0.00     0.042 C 
BRANCH  21  22
ATOM     22  C   UNL     1      -7.087   5.525   4.523  1.00  0.00     0.118 C 
BRANCH  22  23
ATOM     23  N   UNL     1      -7.473   5.410   5.932  1.00  0.00    -0.352 N 
ATOM     24  C   UNL     1      -8.066   6.333   6.762  1.00  0.00     0.251 C 
ATOM     25  H   UNL     1      -7.278   4.540   6.348  1.00  0.00     0.163 HD
ATOM     26  O   UNL     1      -8.194   6.115   7.961  1.00  0.00    -0.269 OA
BRANCH  24  27
ATOM     27  C   UNL     1      -8.500   7.617   6.187  1.00  0.00     0.039 A 
ATOM     28  C   UNL     1      -8.059   8.809   6.764  1.00  0.00     0.014 A 
ATOM     29  C   UNL     1      -9.230   7.624   4.998  1.00  0.00     0.014 A 
ATOM     30  C   UNL     1      -8.230  10.004   6.067  1.00  0.00     0.010 A 
ATOM     31  C   UNL     1      -9.292   8.791   4.255  1.00  0.00     0.010 A 
ATOM     32  C   UNL     1      -8.776   9.989   4.773  1.00  0.00    -0.014 A 
BRANCH  32  33
ATOM     33  C   UNL     1      -8.790  11.199   3.915  1.00  0.00     0.031 A 
ATOM     34  C   UNL     1     -10.096  11.716   3.383  1.00  0.00     0.074 A 
ATOM     35  C   UNL     1      -7.626  11.750   3.518  1.00  0.00     0.049 A 
ATOM     36  N   UNL     1     -10.316  12.653   2.497  1.00  0.00    -0.248 NA
ATOM     37  C   UNL     1     -11.316  11.057   3.877  1.00  0.00     0.031 C 
ATOM     38  C   UNL     1      -6.290  11.288   3.902  1.00  0.00     0.029 A 
ATOM     39  N   UNL     1      -7.379  12.812   2.684  1.00  0.00    -0.354 N 
ATOM     40  C   UNL     1     -11.690  12.666   2.302  1.00  0.00     0.074 A 
ATOM     41  C   UNL     1     -12.248  11.611   3.118  1.00  0.00     0.031 C 
ATOM     42  C   UNL     1      -5.367  12.081   3.334  1.00  0.00     0.029 A 
ATOM     43  C   UNL     1      -6.042  13.079   2.512  1.00  0.00     0.049 A 
ATOM     44  H   UNL     1      -8.092  13.334   2.251  1.00  0.00     0.167 HD
ATOM     45  C   UNL     1     -12.423  13.502   1.531  1.00  0.00     0.037 A 
ATOM     46  C   UNL     1      -5.432  14.021   1.768  1.00  0.00     0.037 A 
ATOM     47  C   UNL     1     -11.869  14.589   0.770  1.00  0.00     0.049 A 
ATOM     48  C   UNL     1      -6.273  14.970   0.961  1.00  0.00     0.074 A 
ATOM     49  C   UNL     1     -12.532  15.552   0.032  1.00  0.00     0.029 A 
ATOM     50  N   UNL     1     -10.513  14.861   0.663  1.00  0.00    -0.354 N 
ATOM     51  N   UNL     1      -7.577  15.017   0.836  1.00  0.00    -0.248 NA
ATOM     52  C   UNL     1      -5.558  15.998   0.192  1.00  0.00     0.031 C 
ATOM     53  C   UNL     1     -11.574  16.393  -0.545  1.00  0.00     0.029 A 
ATOM     54  C   UNL     1     -10.318  15.972  -0.140  1.00  0.00     0.049 A 
ATOM     55  H   UNL     1      -9.797  14.341   1.094  1.00  0.00     0.167 HD
ATOM     56  C   UNL     1      -7.841  16.085  -0.009  1.00  0.00     0.074 A 
ATOM     57  C   UNL     1      -6.561  16.671  -0.354  1.00  0.00     0.031 C 
ATOM     58  C   UNL     1      -9.034  16.537  -0.463  1.00  0.00     0.037 A 
BRANCH  45  59
ATOM     59  C   UNL     1     -13.905  13.280   1.493  1.00  0.00     0.064 A 
ATOM     60  C   UNL     1     -14.717  13.562   2.602  1.00  0.00     0.173 A 
ATOM     61  C   UNL     1     -14.523  12.788   0.334  1.00  0.00     0.173 A 
ATOM     62  F   UNL     1     -14.171  14.018   3.740  1.00  0.00    -0.203 F 
ATOM     63  C   UNL     1     -16.089  13.329   2.563  1.00  0.00     0.198 A 
ATOM     64  C   UNL     1     -15.899  12.583   0.289  1.00  0.00     0.198 A 
ATOM     65  F   UNL     1     -13.791  12.504  -0.754  1.00  0.00    -0.203 F 
ATOM     66  F   UNL     1     -16.836  13.553   3.653  1.00  0.00    -0.200 F 
ATOM     67  C   UNL     1     -16.679  12.845   1.405  1.00  0.00     0.200 A 
ATOM     68  F   UNL     1     -16.470  12.122  -0.833  1.00  0.00    -0.200 F 
ATOM     69  F   UNL     1     -18.000  12.621   1.369  1.00  0.00    -0.200 F 
ENDBRANCH  45  59
BRANCH  46  70
ATOM     70  C   UNL     1      -3.951  14.134   1.778  1.00  0.00     0.064 A 
ATOM     71  C   UNL     1      -3.322  15.202   2.433  1.00  0.00     0.173 A 
ATOM     72  C   UNL     1      -3.138  13.186   1.141  1.00  0.00     0.173 A 
ATOM     73  F   UNL     1      -4.061  16.142   3.039  1.00  0.00    -0.203 F 
ATOM     74  C   UNL     1      -1.935  15.328   2.435  1.00  0.00     0.198 A 
ATOM     75  C   UNL     1      -1.749  13.301   1.164  1.00  0.00     0.198 A 
ATOM     76  F   UNL     1      -3.692  12.143   0.507  1.00  0.00    -0.203 F 
ATOM     77  F   UNL     1      -1.361  16.379   3.036  1.00  0.00    -0.200 F 
ATOM     78  C   UNL     1      -1.149  14.375   1.804  1.00  0.00     0.200 A 
ATOM     79  F   UNL     1      -0.992  12.373   0.564  1.00  0.00    -0.200 F 
ATOM     80  F   UNL     1       0.186  14.495   1.809  1.00  0.00    -0.200 F 
ENDBRANCH  46  70
BRANCH  58  81
ATOM     81  C   UNL     1      -9.011  17.733  -1.366  1.00  0.00     0.064 A 
ATOM     82  C   UNL     1      -8.612  17.627  -2.705  1.00  0.00     0.173 A 
ATOM     83  C   UNL     1      -9.437  18.984  -0.898  1.00  0.00     0.173 A 
ATOM     84  F   UNL     1      -8.180  16.453  -3.190  1.00  0.00    -0.203 F 
ATOM     85  C   UNL     1      -8.624  18.739  -3.542  1.00  0.00     0.198 A 
ATOM     86  C   UNL     1      -9.471  20.088  -1.744  1.00  0.00     0.198 A 
ATOM     87  F   UNL     1      -9.832  19.132   0.375  1.00  0.00    -0.203 F 
ATOM     88  F   UNL     1      -8.204  18.626  -4.809  1.00  0.00    -0.200 F 
ATOM     89  C   UNL     1      -9.060  19.966  -3.063  1.00  0.00     0.200 A 
ATOM     90  F   UNL     1      -9.901  21.271  -1.283  1.00  0.00    -0.200 F 
ATOM     91  F   UNL     1      -9.079  21.034  -3.873  1.00  0.00    -0.200 F 
ENDBRANCH  58  81
ENDBRANCH  32  33
ENDBRANCH  24  27
ENDBRANCH  22  23
ENDBRANCH  21  22
ENDBRANCH   1  21
TORSDOF 16
