REMARK SMILES CCCC1(C(=O)NCCCNC(=O)c2ccc(-c3c4nc(c(-c5c(F)c(F)c(F)c(F)c5F)c5ccc([nH]5)c(-c5c(F)c(F)c(F)c(F)c5F)c5nc(c(-c6c(F)c(F)c(F)c(F)c6F)c6ccc3[nH]6)C=C5)C=C4)cc2)CC[NH+]([C@H](C)[C@H](C)O)CC1
REMARK SMILES IDX 8 1 7 2 5 3 6 4 4 6 77 7 86 8 78 9 85 10 79 11 3 13 2 14
REMARK SMILES IDX 1 15 80 16 81 17 82 18 83 19 84 20 9 22 10 23 11 24 12 25
REMARK SMILES IDX 13 27 14 28 15 29 76 30 16 31 75 32 17 33 18 34 19 35 69 36
REMARK SMILES IDX 20 37 74 38 68 39 70 40 21 41 73 42 67 43 66 44 22 46 54 47
REMARK SMILES IDX 34 48 53 49 35 50 38 51 52 52 71 53 36 54 37 55 51 57 72 58
REMARK SMILES IDX 39 59 23 60 24 61 32 62 25 63 26 64 30 65 33 66 27 67 28 68
REMARK SMILES IDX 31 69 29 70 55 71 56 72 64 73 57 74 58 75 62 76 65 77 59 78
REMARK SMILES IDX 60 79 63 80 61 81 40 82 41 83 49 84 42 85 43 86 47 87 50 88
REMARK SMILES IDX 44 89 45 90 48 91 46 92
REMARK H PARENT 7 5 79 12 84 21 11 26 70 45 38 56
REMARK Flexibility Score: inf
ROOT
ATOM      1  C   UNL     1      -0.458  -5.287  -1.255  1.00  0.00     0.117 C 
ENDROOT
BRANCH   1   2
ATOM      2  N   UNL     1      -1.684  -5.017  -0.543  1.00  0.00    -0.356 N 
ATOM      3  C   UNL     1      -2.983  -5.054  -0.941  1.00  0.00     0.226 C 
ATOM      4  O   UNL     1      -3.755  -4.442  -0.194  1.00  0.00    -0.274 OA
ATOM      5  H   UNL     1      -1.557  -4.760   0.399  1.00  0.00     0.163 HD
BRANCH   3   6
ATOM      6  C   UNL     1      -3.474  -5.690  -2.275  1.00  0.00     0.060 C 
ATOM      7  C   UNL     1      -3.068  -4.663  -3.377  1.00  0.00     0.078 C 
ATOM      8  C   UNL     1      -2.902  -7.101  -2.590  1.00  0.00     0.078 C 
ATOM      9  C   UNL     1      -3.134  -5.188  -4.805  1.00  0.00     0.263 C 
ATOM     10  C   UNL     1      -2.911  -7.472  -4.086  1.00  0.00     0.263 C 
ATOM     11  N   UNL     1      -2.408  -6.428  -4.976  1.00  0.00    -0.331 N 
ATOM     12  H   UNL     1      -2.644  -6.628  -5.948  1.00  0.00     0.348 HD
BRANCH   6  13
ATOM     13  C   UNL     1      -5.049  -5.772  -2.230  1.00  0.00     0.017 C 
BRANCH  13  14
ATOM     14  C   UNL     1      -5.725  -6.832  -1.330  1.00  0.00    -0.002 C 
ATOM     15  C   UNL     1      -5.414  -6.774   0.158  1.00  0.00     0.004 C 
ENDBRANCH  13  14
ENDBRANCH   6  13
BRANCH  11  16
ATOM     16  C   UNL     1      -1.011  -6.515  -5.449  1.00  0.00     0.209 C 
ATOM     17  C   UNL     1       0.058  -6.879  -4.409  1.00  0.00     0.078 C 
BRANCH  16  18
ATOM     18  C   UNL     1      -0.426  -5.383  -6.370  1.00  0.00     0.169 C 
ATOM     19  C   UNL     1      -0.321  -3.975  -5.786  1.00  0.00     0.045 C 
BRANCH  18  20
ATOM     20  O   UNL     1      -1.147  -5.314  -7.602  1.00  0.00    -0.387 OA
ATOM     21  H   UNL     1      -2.057  -5.026  -7.428  1.00  0.00     0.211 HD
ENDBRANCH  18  20
ENDBRANCH  16  18
ENDBRANCH  11  16
ENDBRANCH   3   6
ENDBRANCH   1   2
BRANCH   1  22
ATOM     22  C   UNL     1       0.257  -4.016  -1.689  1.00  0.00     0.042 C 
BRANCH  22  23
ATOM     23  C   UNL     1       1.001  -3.324  -0.565  1.00  0.00     0.118 C 
BRANCH  23  24
ATOM     24  N   UNL     1       2.156  -4.089  -0.119  1.00  0.00    -0.352 N 
ATOM     25  C   UNL     1       3.497  -3.801  -0.180  1.00  0.00     0.251 C 
ATOM     26  H   UNL     1       1.941  -4.957   0.294  1.00  0.00     0.163 HD
ATOM     27  O   UNL     1       4.313  -4.684   0.064  1.00  0.00    -0.269 OA
BRANCH  25  28
ATOM     28  C   UNL     1       3.970  -2.448  -0.554  1.00  0.00     0.039 A 
ATOM     29  C   UNL     1       5.144  -2.328  -1.304  1.00  0.00     0.014 A 
ATOM     30  C   UNL     1       3.291  -1.298  -0.146  1.00  0.00     0.014 A 
ATOM     31  C   UNL     1       5.596  -1.065  -1.693  1.00  0.00     0.010 A 
ATOM     32  C   UNL     1       3.680  -0.051  -0.624  1.00  0.00     0.010 A 
ATOM     33  C   UNL     1       4.847   0.082  -1.388  1.00  0.00    -0.014 A 
BRANCH  33  34
ATOM     34  C   UNL     1       5.272   1.431  -1.837  1.00  0.00     0.031 A 
ATOM     35  C   UNL     1       5.586   2.498  -0.825  1.00  0.00     0.074 A 
ATOM     36  C   UNL     1       5.306   1.717  -3.153  1.00  0.00     0.049 A 
ATOM     37  N   UNL     1       5.890   3.758  -1.013  1.00  0.00    -0.248 NA
ATOM     38  C   UNL     1       5.517   2.107   0.592  1.00  0.00     0.031 C 
ATOM     39  C   UNL     1       4.973   0.783  -4.230  1.00  0.00     0.029 A 
ATOM     40  N   UNL     1       5.623   2.880  -3.809  1.00  0.00    -0.354 N 
ATOM     41  C   UNL     1       6.026   4.308   0.255  1.00  0.00     0.074 A 
ATOM     42  C   UNL     1       5.713   3.264   1.205  1.00  0.00     0.031 C 
ATOM     43  C   UNL     1       5.128   1.400  -5.411  1.00  0.00     0.029 A 
ATOM     44  C   UNL     1       5.528   2.784  -5.176  1.00  0.00     0.049 A 
ATOM     45  H   UNL     1       5.893   3.704  -3.344  1.00  0.00     0.167 HD
ATOM     46  C   UNL     1       6.404   5.563   0.597  1.00  0.00     0.037 A 
ATOM     47  C   UNL     1       5.732   3.711  -6.130  1.00  0.00     0.037 A 
ATOM     48  C   UNL     1       6.741   6.590  -0.354  1.00  0.00     0.049 A 
ATOM     49  C   UNL     1       6.149   5.099  -5.726  1.00  0.00     0.074 A 
ATOM     50  C   UNL     1       7.198   7.873  -0.113  1.00  0.00     0.029 A 
ATOM     51  N   UNL     1       6.654   6.448  -1.732  1.00  0.00    -0.354 N 
ATOM     52  N   UNL     1       6.344   5.588  -4.525  1.00  0.00    -0.248 NA
ATOM     53  C   UNL     1       6.381   6.062  -6.811  1.00  0.00     0.031 C 
ATOM     54  C   UNL     1       7.337   8.526  -1.342  1.00  0.00     0.029 A 
ATOM     55  C   UNL     1       7.025   7.630  -2.353  1.00  0.00     0.049 A 
ATOM     56  H   UNL     1       6.371   5.629  -2.199  1.00  0.00     0.167 HD
ATOM     57  C   UNL     1       6.749   6.904  -4.710  1.00  0.00     0.074 A 
ATOM     58  C   UNL     1       6.785   7.131  -6.139  1.00  0.00     0.031 C 
ATOM     59  C   UNL     1       7.062   7.838  -3.779  1.00  0.00     0.037 A 
BRANCH  46  60
ATOM     60  C   UNL     1       6.472   5.894   2.061  1.00  0.00     0.064 A 
ATOM     61  C   UNL     1       7.437   5.321   2.904  1.00  0.00     0.173 A 
ATOM     62  C   UNL     1       5.577   6.816   2.625  1.00  0.00     0.173 A 
ATOM     63  F   UNL     1       8.311   4.425   2.419  1.00  0.00    -0.203 F 
ATOM     64  C   UNL     1       7.480   5.630   4.261  1.00  0.00     0.198 A 
ATOM     65  C   UNL     1       5.645   7.149   3.976  1.00  0.00     0.198 A 
ATOM     66  F   UNL     1       4.638   7.399   1.865  1.00  0.00    -0.203 F 
ATOM     67  F   UNL     1       8.373   5.024   5.056  1.00  0.00    -0.200 F 
ATOM     68  C   UNL     1       6.590   6.548   4.794  1.00  0.00     0.200 A 
ATOM     69  F   UNL     1       4.793   8.048   4.486  1.00  0.00    -0.200 F 
ATOM     70  F   UNL     1       6.636   6.849   6.099  1.00  0.00    -0.200 F 
ENDBRANCH  46  60
BRANCH  47  71
ATOM     71  C   UNL     1       5.571   3.347  -7.562  1.00  0.00     0.064 A 
ATOM     72  C   UNL     1       6.682   3.271  -8.414  1.00  0.00     0.173 A 
ATOM     73  C   UNL     1       4.311   3.061  -8.107  1.00  0.00     0.173 A 
ATOM     74  F   UNL     1       7.906   3.554  -7.945  1.00  0.00    -0.203 F 
ATOM     75  C   UNL     1       6.536   2.942  -9.760  1.00  0.00     0.198 A 
ATOM     76  C   UNL     1       4.170   2.703  -9.446  1.00  0.00     0.198 A 
ATOM     77  F   UNL     1       3.217   3.112  -7.333  1.00  0.00    -0.203 F 
ATOM     78  F   UNL     1       7.610   2.921 -10.562  1.00  0.00    -0.200 F 
ATOM     79  C   UNL     1       5.281   2.652 -10.274  1.00  0.00     0.200 A 
ATOM     80  F   UNL     1       2.957   2.408  -9.934  1.00  0.00    -0.200 F 
ATOM     81  F   UNL     1       5.143   2.329 -11.567  1.00  0.00    -0.200 F 
ENDBRANCH  47  71
BRANCH  59  82
ATOM     82  C   UNL     1       7.510   9.182  -4.276  1.00  0.00     0.064 A 
ATOM     83  C   UNL     1       6.617  10.082  -4.876  1.00  0.00     0.173 A 
ATOM     84  C   UNL     1       8.842   9.591  -4.110  1.00  0.00     0.173 A 
ATOM     85  F   UNL     1       5.336   9.734  -5.071  1.00  0.00    -0.203 F 
ATOM     86  C   UNL     1       7.049  11.331  -5.316  1.00  0.00     0.198 A 
ATOM     87  C   UNL     1       9.262  10.852  -4.521  1.00  0.00     0.198 A 
ATOM     88  F   UNL     1       9.735   8.771  -3.534  1.00  0.00    -0.203 F 
ATOM     89  F   UNL     1       6.190  12.155  -5.933  1.00  0.00    -0.200 F 
ATOM     90  C   UNL     1       8.368  11.718  -5.131  1.00  0.00     0.200 A 
ATOM     91  F   UNL     1      10.533  11.230  -4.326  1.00  0.00    -0.200 F 
ATOM     92  F   UNL     1       8.778  12.924  -5.547  1.00  0.00    -0.200 F 
ENDBRANCH  59  82
ENDBRANCH  33  34
ENDBRANCH  25  28
ENDBRANCH  23  24
ENDBRANCH  22  23
ENDBRANCH   1  22
TORSDOF 15
