REMARK SMILES O=C1NC(=S)S/C1=C\c1ccc(OCc2cn(-c3ccc(C(=O)NCCCNC(=O)c4ccc(-c5c6nc(c(-c7c(F)c(F)c(F)c(F)c7F)c7ccc([nH]7)c(-c7c(F)c(F)c(F)c(F)c7F)c7nc(c(-c8c(F)c(F)c(F)c(F)c8F)c8ccc5[nH]8)C=C7)C=C6)cc4)cc3)nn2)cc1
REMARK SMILES IDX 22 1 23 2 24 3 21 5 18 6 19 7 95 8 20 9 94 10 17 11 15 12
REMARK SMILES IDX 16 13 97 14 96 15 14 16 13 17 12 18 9 19 10 20 99 21 11 22
REMARK SMILES IDX 98 23 8 24 1 25 2 26 3 27 7 28 4 29 6 31 5 32 25 33 26 34
REMARK SMILES IDX 27 35 28 36 29 37 30 39 31 40 32 41 93 42 33 43 92 44 34 45
REMARK SMILES IDX 35 46 36 47 86 48 37 49 91 50 85 51 87 52 38 53 90 54 84 55
REMARK SMILES IDX 83 56 39 58 71 59 51 60 70 61 52 62 55 63 69 64 88 65 53 66
REMARK SMILES IDX 54 67 68 69 89 70 56 71 40 72 41 73 49 74 42 75 43 76 47 77
REMARK SMILES IDX 50 78 44 79 45 80 48 81 46 82 72 83 73 84 81 85 74 86 75 87
REMARK SMILES IDX 79 88 82 89 76 90 77 91 80 92 78 93 57 94 58 95 66 96 59 97
REMARK SMILES IDX 60 98 64 99 67 100 61 101 62 102 65 103 63 104
REMARK H PARENT 24 4 3 30 28 38 87 57 55 68
REMARK Flexibility Score: inf
ROOT
ATOM      1  C   UNL     1       6.471   9.119  -1.018  1.00  0.00     0.251 C 
ATOM      2  O   UNL     1       7.341   8.593  -1.711  1.00  0.00    -0.269 OA
ATOM      3  N   UNL     1       6.824  10.209  -0.257  1.00  0.00    -0.352 N 
ATOM      4  H   UNL     1       7.782  10.435  -0.298  1.00  0.00     0.163 HD
ENDROOT
BRANCH   1   5
ATOM      5  C   UNL     1       5.075   8.600  -1.076  1.00  0.00     0.039 A 
ATOM      6  C   UNL     1       2.417   7.778  -1.378  1.00  0.00     0.066 A 
ATOM      7  C   UNL     1       3.361   7.446  -2.356  1.00  0.00     0.029 A 
ATOM      8  C   UNL     1       2.805   8.441  -0.220  1.00  0.00     0.029 A 
ATOM      9  C   UNL     1       4.681   7.887  -2.217  1.00  0.00     0.016 A 
ATOM     10  C   UNL     1       4.139   8.787  -0.056  1.00  0.00     0.016 A 
BRANCH   6  11
ATOM     11  N   UNL     1       1.067   7.426  -1.538  1.00  0.00    -0.220 N 
ATOM     12  C   UNL     1      -1.101   7.270  -1.400  1.00  0.00     0.120 A 
ATOM     13  C   UNL     1      -0.040   8.058  -1.017  1.00  0.00     0.144 A 
ATOM     14  N   UNL     1      -0.617   6.242  -2.169  1.00  0.00    -0.131 NA
ATOM     15  N   UNL     1       0.693   6.368  -2.278  1.00  0.00    -0.062 NA
BRANCH  12  16
ATOM     16  C   UNL     1      -2.570   7.453  -1.202  1.00  0.00     0.289 C 
BRANCH  16  17
ATOM     17  O   UNL     1      -3.151   6.714  -0.113  1.00  0.00    -0.487 OA
BRANCH  17  18
ATOM     18  C   UNL     1      -3.173   5.348  -0.191  1.00  0.00     0.119 A 
ATOM     19  C   UNL     1      -2.931   2.557  -0.005  1.00  0.00    -0.024 A 
ATOM     20  C   UNL     1      -3.384   3.295   1.091  1.00  0.00     0.012 A 
ATOM     21  C   UNL     1      -2.705   3.209  -1.218  1.00  0.00     0.012 A 
ATOM     22  C   UNL     1      -3.495   4.687   0.997  1.00  0.00     0.047 A 
ATOM     23  C   UNL     1      -2.864   4.591  -1.317  1.00  0.00     0.047 A 
BRANCH  19  24
ATOM     24  C   UNL     1      -2.682   1.118   0.100  1.00  0.00     0.029 C 
ATOM     25  O   UNL     1      -2.187  -1.746   0.145  1.00  0.00    -0.268 OA
ATOM     26  C   UNL     1      -1.294  -0.929   0.109  1.00  0.00     0.263 C 
ATOM     27  N   UNL     1       0.043  -1.230   0.061  1.00  0.00    -0.307 N 
ATOM     28  C   UNL     1      -1.468   0.551   0.091  1.00  0.00     0.080 C 
ATOM     29  C   UNL     1       0.933  -0.202   0.022  1.00  0.00     0.145 C 
ATOM     30  H   UNL     1       0.350  -2.165   0.055  1.00  0.00     0.171 HD
ATOM     31  S   UNL     1       0.078   1.322   0.037  1.00  0.00    -0.055 SA
ATOM     32  S   UNL     1       2.575  -0.415  -0.028  1.00  0.00    -0.052 S 
ENDBRANCH  19  24
ENDBRANCH  17  18
ENDBRANCH  16  17
ENDBRANCH  12  16
ENDBRANCH   6  11
ENDBRANCH   1   5
BRANCH   3  33
ATOM     33  C   UNL     1       6.039  11.089   0.597  1.00  0.00     0.118 C 
BRANCH  33  34
ATOM     34  C   UNL     1       6.027  10.608   2.058  1.00  0.00     0.042 C 
BRANCH  34  35
ATOM     35  C   UNL     1       7.239  11.096   2.818  1.00  0.00     0.118 C 
BRANCH  35  36
ATOM     36  N   UNL     1       7.210  12.547   3.055  1.00  0.00    -0.352 N 
ATOM     37  C   UNL     1       8.158  13.366   3.654  1.00  0.00     0.251 C 
ATOM     38  H   UNL     1       6.397  13.007   2.743  1.00  0.00     0.163 HD
ATOM     39  O   UNL     1       7.858  14.472   4.077  1.00  0.00    -0.269 OA
BRANCH  37  40
ATOM     40  C   UNL     1       9.544  12.882   3.759  1.00  0.00     0.039 A 
ATOM     41  C   UNL     1      10.416  13.180   4.812  1.00  0.00     0.014 A 
ATOM     42  C   UNL     1       9.950  12.023   2.767  1.00  0.00     0.014 A 
ATOM     43  C   UNL     1      11.684  12.594   4.797  1.00  0.00     0.010 A 
ATOM     44  C   UNL     1      10.858  11.094   3.132  1.00  0.00     0.010 A 
ATOM     45  C   UNL     1      11.903  11.562   3.888  1.00  0.00    -0.014 A 
BRANCH  45  46
ATOM     46  C   UNL     1      13.149  10.855   3.670  1.00  0.00     0.031 A 
ATOM     47  C   UNL     1      13.533   9.961   4.779  1.00  0.00     0.074 A 
ATOM     48  C   UNL     1      13.700  10.782   2.433  1.00  0.00     0.049 A 
ATOM     49  N   UNL     1      14.527  10.104   5.587  1.00  0.00    -0.248 NA
ATOM     50  C   UNL     1      12.606   8.882   5.154  1.00  0.00     0.031 C 
ATOM     51  C   UNL     1      13.213  11.335   1.159  1.00  0.00     0.029 A 
ATOM     52  N   UNL     1      14.797  10.079   2.041  1.00  0.00    -0.354 N 
ATOM     53  C   UNL     1      14.461   9.024   6.460  1.00  0.00     0.074 A 
ATOM     54  C   UNL     1      13.153   8.454   6.293  1.00  0.00     0.031 C 
ATOM     55  C   UNL     1      13.883  10.772   0.126  1.00  0.00     0.029 A 
ATOM     56  C   UNL     1      14.938   9.935   0.661  1.00  0.00     0.049 A 
ATOM     57  H   UNL     1      15.443   9.702   2.682  1.00  0.00     0.167 HD
ATOM     58  C   UNL     1      15.582   8.547   7.069  1.00  0.00     0.037 A 
ATOM     59  C   UNL     1      15.832   9.117   0.048  1.00  0.00     0.037 A 
ATOM     60  C   UNL     1      16.680   9.469   6.902  1.00  0.00     0.049 A 
ATOM     61  C   UNL     1      16.900   8.830   1.052  1.00  0.00     0.074 A 
ATOM     62  C   UNL     1      16.899  10.777   7.292  1.00  0.00     0.029 A 
ATOM     63  N   UNL     1      17.566   9.229   5.877  1.00  0.00    -0.354 N 
ATOM     64  N   UNL     1      17.706   9.747   1.521  1.00  0.00    -0.248 NA
ATOM     65  C   UNL     1      16.712   7.669   1.913  1.00  0.00     0.031 C 
ATOM     66  C   UNL     1      17.529  11.392   6.170  1.00  0.00     0.029 A 
ATOM     67  C   UNL     1      17.747  10.411   5.200  1.00  0.00     0.049 A 
ATOM     68  H   UNL     1      17.993   8.367   5.667  1.00  0.00     0.167 HD
ATOM     69  C   UNL     1      17.789   9.489   2.885  1.00  0.00     0.074 A 
ATOM     70  C   UNL     1      17.198   8.162   3.057  1.00  0.00     0.031 C 
ATOM     71  C   UNL     1      18.034  10.489   3.784  1.00  0.00     0.037 A 
BRANCH  58  72
ATOM     72  C   UNL     1      15.797   7.122   7.510  1.00  0.00     0.064 A 
ATOM     73  C   UNL     1      16.951   6.812   8.258  1.00  0.00     0.173 A 
ATOM     74  C   UNL     1      15.081   6.011   7.015  1.00  0.00     0.173 A 
ATOM     75  F   UNL     1      17.709   7.787   8.780  1.00  0.00    -0.203 F 
ATOM     76  C   UNL     1      17.399   5.499   8.417  1.00  0.00     0.198 A 
ATOM     77  C   UNL     1      15.501   4.699   7.223  1.00  0.00     0.198 A 
ATOM     78  F   UNL     1      14.013   6.140   6.220  1.00  0.00    -0.203 F 
ATOM     79  F   UNL     1      18.569   5.266   9.026  1.00  0.00    -0.200 F 
ATOM     80  C   UNL     1      16.678   4.444   7.892  1.00  0.00     0.200 A 
ATOM     81  F   UNL     1      14.791   3.690   6.698  1.00  0.00    -0.200 F 
ATOM     82  F   UNL     1      17.136   3.189   7.989  1.00  0.00    -0.200 F 
ENDBRANCH  58  72
BRANCH  59  83
ATOM     83  C   UNL     1      15.612   8.293  -1.170  1.00  0.00     0.064 A 
ATOM     84  C   UNL     1      16.681   7.675  -1.842  1.00  0.00     0.173 A 
ATOM     85  C   UNL     1      14.319   7.875  -1.549  1.00  0.00     0.173 A 
ATOM     86  F   UNL     1      17.946   7.976  -1.515  1.00  0.00    -0.203 F 
ATOM     87  C   UNL     1      16.468   6.688  -2.815  1.00  0.00     0.198 A 
ATOM     88  C   UNL     1      14.108   6.896  -2.522  1.00  0.00     0.198 A 
ATOM     89  F   UNL     1      13.233   8.339  -0.917  1.00  0.00    -0.203 F 
ATOM     90  F   UNL     1      17.514   6.081  -3.393  1.00  0.00    -0.200 F 
ATOM     91  C   UNL     1      15.182   6.293  -3.147  1.00  0.00     0.200 A 
ATOM     92  F   UNL     1      12.860   6.498  -2.804  1.00  0.00    -0.200 F 
ATOM     93  F   UNL     1      14.980   5.307  -4.032  1.00  0.00    -0.200 F 
ENDBRANCH  59  83
BRANCH  71  94
ATOM     94  C   UNL     1      18.407  11.851   3.252  1.00  0.00     0.064 A 
ATOM     95  C   UNL     1      17.559  12.650   2.465  1.00  0.00     0.173 A 
ATOM     96  C   UNL     1      19.591  12.443   3.710  1.00  0.00     0.173 A 
ATOM     97  F   UNL     1      16.361  12.206   2.074  1.00  0.00    -0.203 F 
ATOM     98  C   UNL     1      17.896  13.959   2.121  1.00  0.00     0.198 A 
ATOM     99  C   UNL     1      19.910  13.763   3.397  1.00  0.00     0.198 A 
ATOM    100  F   UNL     1      20.414  11.757   4.517  1.00  0.00    -0.203 F 
ATOM    101  F   UNL     1      17.064  14.693   1.367  1.00  0.00    -0.200 F 
ATOM    102  C   UNL     1      19.069  14.517   2.595  1.00  0.00     0.200 A 
ATOM    103  F   UNL     1      21.020  14.316   3.905  1.00  0.00    -0.200 F 
ATOM    104  F   UNL     1      19.374  15.790   2.307  1.00  0.00    -0.200 F 
ENDBRANCH  71  94
ENDBRANCH  45  46
ENDBRANCH  37  40
ENDBRANCH  35  36
ENDBRANCH  34  35
ENDBRANCH  33  34
ENDBRANCH   3  33
TORSDOF 15
