REMARK SMILES NC(=O)C[N@@H+]1CCCC[C@H]1C(=O)NCCCNC(=O)c1ccc(-c2c3nc(c(-c4c(F)c(F)c(F)c(F)c4F)c4ccc([nH]4)c(-c4c(F)c(F)c(F)c(F)c4F)c4nc(c(-c5c(F)c(F)c(F)c(F)c5F)c5ccc2[nH]5)C=C4)C=C3)cc1
REMARK SMILES IDX 15 1 14 2 13 3 11 4 12 5 10 7 5 8 6 9 7 11 9 12 8 13 4 14
REMARK SMILES IDX 2 15 1 16 3 19 16 20 17 21 18 22 19 24 20 25 21 26 82 27
REMARK SMILES IDX 22 28 81 29 23 30 24 31 25 32 75 33 26 34 80 35 74 36 76 37
REMARK SMILES IDX 27 38 79 39 73 40 72 41 28 43 60 44 40 45 59 46 41 47 44 48
REMARK SMILES IDX 58 49 77 50 42 51 43 52 57 54 78 55 45 56 29 57 30 58 38 59
REMARK SMILES IDX 31 60 32 61 36 62 39 63 33 64 34 65 37 66 35 67 61 68 62 69
REMARK SMILES IDX 70 70 63 71 64 72 68 73 71 74 65 75 66 76 69 77 67 78 46 79
REMARK SMILES IDX 47 80 55 81 48 82 49 83 53 84 56 85 50 86 51 87 54 88 52 89
REMARK H PARENT 13 6 5 10 1 17 1 18 17 23 76 42 44 53
REMARK Flexibility Score: inf
ROOT
ATOM      1  C   UNL     1      -0.691   0.772   0.278  1.00  0.00     0.042 C 
ENDROOT
BRANCH   1   2
ATOM      2  C   UNL     1      -0.361  -0.698   0.487  1.00  0.00     0.118 C 
BRANCH   2   3
ATOM      3  N   UNL     1       0.715  -1.156  -0.383  1.00  0.00    -0.351 N 
ATOM      4  C   UNL     1       2.009  -1.512  -0.174  1.00  0.00     0.278 C 
ATOM      5  O   UNL     1       2.616  -1.892  -1.187  1.00  0.00    -0.268 OA
ATOM      6  H   UNL     1       0.444  -1.222  -1.328  1.00  0.00     0.163 HD
BRANCH   4   7
ATOM      7  C   UNL     1       2.776  -1.361   1.165  1.00  0.00     0.274 C 
ATOM      8  N   UNL     1       1.911  -1.264   2.346  1.00  0.00    -0.317 N 
ATOM      9  C   UNL     1       1.415  -2.529   2.883  1.00  0.00     0.263 C 
ATOM     10  H   UNL     1       1.054  -0.865   1.963  1.00  0.00     0.349 HD
ATOM     11  C   UNL     1       2.449  -3.641   3.000  1.00  0.00     0.062 C 
ATOM     12  C   UNL     1       3.843  -2.466   1.313  1.00  0.00     0.076 C 
ATOM     13  C   UNL     1       3.220  -3.802   1.699  1.00  0.00     0.012 C 
BRANCH   8  14
ATOM     14  C   UNL     1       2.313  -0.256   3.331  1.00  0.00     0.363 C 
BRANCH  14  15
ATOM     15  C   UNL     1       1.763   1.114   2.896  1.00  0.00     0.272 C 
ATOM     16  N   UNL     1       2.562   1.865   2.080  1.00  0.00    -0.365 N 
ATOM     17  H   UNL     1       2.259   2.749   1.772  1.00  0.00     0.159 HD
ATOM     18  H   UNL     1       3.441   1.521   1.801  1.00  0.00     0.159 HD
ATOM     19  O   UNL     1       0.650   1.529   3.209  1.00  0.00    -0.269 OA
ENDBRANCH  14  15
ENDBRANCH   8  14
ENDBRANCH   4   7
ENDBRANCH   2   3
ENDBRANCH   1   2
BRANCH   1  20
ATOM     20  C   UNL     1      -1.434   1.024  -1.025  1.00  0.00     0.118 C 
BRANCH  20  21
ATOM     21  N   UNL     1      -2.833   0.621  -0.950  1.00  0.00    -0.352 N 
ATOM     22  C   UNL     1      -3.972   1.357  -0.754  1.00  0.00     0.251 C 
ATOM     23  H   UNL     1      -2.986  -0.345  -1.058  1.00  0.00     0.163 HD
ATOM     24  O   UNL     1      -5.028   0.766  -0.492  1.00  0.00    -0.269 OA
BRANCH  22  25
ATOM     25  C   UNL     1      -3.981   2.835  -0.847  1.00  0.00     0.039 A 
ATOM     26  C   UNL     1      -4.852   3.559  -0.025  1.00  0.00     0.014 A 
ATOM     27  C   UNL     1      -3.215   3.516  -1.795  1.00  0.00     0.014 A 
ATOM     28  C   UNL     1      -4.929   4.952  -0.132  1.00  0.00     0.010 A 
ATOM     29  C   UNL     1      -3.213   4.909  -1.830  1.00  0.00     0.010 A 
ATOM     30  C   UNL     1      -4.095   5.642  -1.024  1.00  0.00    -0.014 A 
BRANCH  30  31
ATOM     31  C   UNL     1      -4.180   7.117  -1.194  1.00  0.00     0.031 A 
ATOM     32  C   UNL     1      -4.565   7.694  -2.532  1.00  0.00     0.074 A 
ATOM     33  C   UNL     1      -3.858   7.940  -0.178  1.00  0.00     0.049 A 
ATOM     34  N   UNL     1      -4.581   8.943  -2.927  1.00  0.00    -0.248 NA
ATOM     35  C   UNL     1      -4.952   6.734  -3.579  1.00  0.00     0.031 C 
ATOM     36  C   UNL     1      -3.435   7.515   1.156  1.00  0.00     0.029 A 
ATOM     37  N   UNL     1      -3.829   9.311  -0.115  1.00  0.00    -0.354 N 
ATOM     38  C   UNL     1      -4.938   8.912  -4.270  1.00  0.00     0.074 A 
ATOM     39  C   UNL     1      -5.085   7.520  -4.636  1.00  0.00     0.031 C 
ATOM     40  C   UNL     1      -3.214   8.601   1.914  1.00  0.00     0.029 A 
ATOM     41  C   UNL     1      -3.441   9.798   1.109  1.00  0.00     0.049 A 
ATOM     42  H   UNL     1      -4.064   9.891  -0.875  1.00  0.00     0.167 HD
ATOM     43  C   UNL     1      -5.151   9.948  -5.116  1.00  0.00     0.037 A 
ATOM     44  C   UNL     1      -3.282  11.067   1.532  1.00  0.00     0.037 A 
ATOM     45  C   UNL     1      -5.066  11.333  -4.737  1.00  0.00     0.049 A 
ATOM     46  C   UNL     1      -3.554  12.202   0.582  1.00  0.00     0.074 A 
ATOM     47  C   UNL     1      -5.325  12.456  -5.503  1.00  0.00     0.029 A 
ATOM     48  N   UNL     1      -4.705  11.783  -3.476  1.00  0.00    -0.354 N 
ATOM     49  N   UNL     1      -3.928  12.159  -0.673  1.00  0.00    -0.248 NA
ATOM     50  C   UNL     1      -3.385  13.563   1.111  1.00  0.00     0.031 C 
ATOM     51  C   UNL     1      -5.093  13.587  -4.714  1.00  0.00     0.029 A 
ATOM     52  C   UNL     1      -4.727  13.167  -3.445  1.00  0.00     0.049 A 
ATOM     53  H   UNL     1      -4.469  11.204  -2.716  1.00  0.00     0.167 HD
ATOM     54  C   UNL     1      -4.064  13.480  -1.076  1.00  0.00     0.074 A 
ATOM     55  C   UNL     1      -3.745  14.303   0.072  1.00  0.00     0.031 C 
ATOM     56  C   UNL     1      -4.420  13.969  -2.289  1.00  0.00     0.037 A 
BRANCH  43  57
ATOM     57  C   UNL     1      -5.508   9.621  -6.537  1.00  0.00     0.064 A 
ATOM     58  C   UNL     1      -6.755   9.074  -6.875  1.00  0.00     0.173 A 
ATOM     59  C   UNL     1      -4.604   9.883  -7.577  1.00  0.00     0.173 A 
ATOM     60  F   UNL     1      -7.651   8.793  -5.917  1.00  0.00    -0.203 F 
ATOM     61  C   UNL     1      -7.071   8.774  -8.198  1.00  0.00     0.198 A 
ATOM     62  C   UNL     1      -4.934   9.610  -8.901  1.00  0.00     0.198 A 
ATOM     63  F   UNL     1      -3.400  10.412  -7.309  1.00  0.00    -0.203 F 
ATOM     64  F   UNL     1      -8.249   8.204  -8.491  1.00  0.00    -0.200 F 
ATOM     65  C   UNL     1      -6.164   9.047  -9.210  1.00  0.00     0.200 A 
ATOM     66  F   UNL     1      -4.061   9.886  -9.880  1.00  0.00    -0.200 F 
ATOM     67  F   UNL     1      -6.471   8.762 -10.483  1.00  0.00    -0.200 F 
ENDBRANCH  43  57
BRANCH  44  68
ATOM     68  C   UNL     1      -2.873  11.333   2.934  1.00  0.00     0.064 A 
ATOM     69  C   UNL     1      -3.784  11.868   3.856  1.00  0.00     0.173 A 
ATOM     70  C   UNL     1      -1.573  11.060   3.383  1.00  0.00     0.173 A 
ATOM     71  F   UNL     1      -5.032  12.167   3.465  1.00  0.00    -0.203 F 
ATOM     72  C   UNL     1      -3.406  12.135   5.169  1.00  0.00     0.198 A 
ATOM     73  C   UNL     1      -1.204  11.304   4.705  1.00  0.00     0.198 A 
ATOM     74  F   UNL     1      -0.666  10.546   2.541  1.00  0.00    -0.203 F 
ATOM     75  F   UNL     1      -4.285  12.685   6.018  1.00  0.00    -0.200 F 
ATOM     76  C   UNL     1      -2.118  11.847   5.595  1.00  0.00     0.200 A 
ATOM     77  F   UNL     1       0.039  11.016   5.114  1.00  0.00    -0.200 F 
ATOM     78  F   UNL     1      -1.756  12.102   6.859  1.00  0.00    -0.200 F 
ENDBRANCH  44  68
BRANCH  56  79
ATOM     79  C   UNL     1      -4.519  15.458  -2.429  1.00  0.00     0.064 A 
ATOM     80  C   UNL     1      -3.376  16.267  -2.492  1.00  0.00     0.173 A 
ATOM     81  C   UNL     1      -5.773  16.078  -2.546  1.00  0.00     0.173 A 
ATOM     82  F   UNL     1      -2.156  15.722  -2.371  1.00  0.00    -0.203 F 
ATOM     83  C   UNL     1      -3.484  17.646  -2.646  1.00  0.00     0.198 A 
ATOM     84  C   UNL     1      -5.877  17.454  -2.725  1.00  0.00     0.198 A 
ATOM     85  F   UNL     1      -6.896  15.346  -2.497  1.00  0.00    -0.203 F 
ATOM     86  F   UNL     1      -2.380  18.405  -2.664  1.00  0.00    -0.200 F 
ATOM     87  C   UNL     1      -4.733  18.237  -2.769  1.00  0.00     0.200 A 
ATOM     88  F   UNL     1      -7.083  18.022  -2.855  1.00  0.00    -0.200 F 
ATOM     89  F   UNL     1      -4.835  19.565  -2.924  1.00  0.00    -0.200 F 
ENDBRANCH  56  79
ENDBRANCH  30  31
ENDBRANCH  22  25
ENDBRANCH  20  21
ENDBRANCH   1  20
TORSDOF 12
