REMARK SMILES Cc1ccc(S(=O)(=O)n2cc(C(=O)C(=O)N[C@H](Cc3c[nH]c4ccccc34)C(=O)NCC(=O)NCCCNC(=O)c3ccc(-c4c5nc(c(-c6c(F)c(F)c(F)c(F)c6F)c6ccc([nH]6)c(-c6c(F)c(F)c(F)c(F)c6F)c6nc(c(-c7c(F)c(F)c(F)c(F)c7F)c7ccc4[nH]7)C=C6)C=C5)cc3)c3ccccc32)cc1
REMARK SMILES IDX 32 1 33 2 34 3 31 5 30 6 28 7 29 8 17 10 16 11 14 12 15 13
REMARK SMILES IDX 12 15 13 16 11 17 9 18 10 19 109 20 104 21 108 22 105 23
REMARK SMILES IDX 107 24 106 25 6 26 7 27 8 28 5 29 1 30 2 31 3 32 111 33 4 34
REMARK SMILES IDX 110 35 18 36 19 37 20 38 27 39 21 40 22 41 26 42 23 44 25 45
REMARK SMILES IDX 24 46 35 47 36 48 37 49 38 50 39 51 40 53 41 54 42 55 103 56
REMARK SMILES IDX 43 57 102 58 44 59 45 60 46 61 96 62 47 63 101 64 95 65
REMARK SMILES IDX 97 66 48 67 100 68 94 69 93 70 49 72 81 73 61 74 80 75 62 76
REMARK SMILES IDX 65 77 79 78 98 79 63 80 64 81 78 83 99 84 66 85 50 86 51 87
REMARK SMILES IDX 59 88 52 89 53 90 57 91 60 92 54 93 55 94 58 95 56 96 82 97
REMARK SMILES IDX 83 98 91 99 84 100 85 101 89 102 92 103 86 104 87 105 90 106
REMARK SMILES IDX 88 107 67 108 68 109 76 110 69 111 70 112 74 113 77 114
REMARK SMILES IDX 71 115 72 116 75 117 73 118
REMARK H PARENT 34 4 30 9 16 14 21 43 38 52 97 71 65 82
REMARK Flexibility Score: inf
ROOT
ATOM      1  C   UNL     1     -13.151   4.779  -2.364  1.00  0.00     0.239 C 
ATOM      2  O   UNL     1     -14.061   5.573  -2.617  1.00  0.00    -0.273 OA
ATOM      3  N   UNL     1     -11.921   5.046  -2.894  1.00  0.00    -0.355 N 
ATOM      4  H   UNL     1     -11.894   5.790  -3.538  1.00  0.00     0.163 HD
ENDROOT
BRANCH   1   5
ATOM      5  C   UNL     1     -13.365   3.639  -1.359  1.00  0.00     0.216 C 
BRANCH   5   6
ATOM      6  N   UNL     1     -12.727   2.401  -1.735  1.00  0.00    -0.345 N 
ATOM      7  C   UNL     1     -11.905   1.526  -1.121  1.00  0.00     0.243 C 
ATOM      8  O   UNL     1     -11.620   0.561  -1.842  1.00  0.00    -0.273 OA
ATOM      9  H   UNL     1     -12.942   2.131  -2.657  1.00  0.00     0.164 HD
BRANCH   7  10
ATOM     10  C   UNL     1     -11.319   1.623   0.325  1.00  0.00     0.176 C 
BRANCH  10  11
ATOM     11  N   UNL     1     -12.108   2.281   1.433  1.00  0.00    -0.337 N 
ATOM     12  C   UNL     1     -12.186   3.557   1.986  1.00  0.00     0.293 C 
ATOM     13  O   UNL     1     -12.892   3.750   2.970  1.00  0.00    -0.265 OA
ATOM     14  H   UNL     1     -12.722   1.649   1.874  1.00  0.00     0.164 HD
BRANCH  12  15
ATOM     15  C   UNL     1     -11.439   4.729   1.357  1.00  0.00     0.252 C 
ATOM     16  O   UNL     1     -10.747   4.422   0.387  1.00  0.00    -0.283 OA
BRANCH  15  17
ATOM     17  C   UNL     1     -11.463   6.145   1.773  1.00  0.00     0.054 A 
ATOM     18  N   UNL     1     -11.581   8.212   2.694  1.00  0.00    -0.240 N 
ATOM     19  C   UNL     1     -11.994   6.867   2.846  1.00  0.00     0.117 A 
ATOM     20  C   UNL     1     -10.505   8.183   1.804  1.00  0.00     0.065 A 
ATOM     21  C   UNL     1     -10.869   7.151   0.952  1.00  0.00     0.012 A 
ATOM     22  C   UNL     1      -9.590   9.172   1.432  1.00  0.00     0.028 A 
ATOM     23  C   UNL     1     -10.578   7.273  -0.414  1.00  0.00     0.011 A 
ATOM     24  C   UNL     1      -9.382   9.301   0.054  1.00  0.00     0.002 A 
ATOM     25  C   UNL     1      -9.902   8.396  -0.865  1.00  0.00     0.001 A 
BRANCH  18  26
ATOM     26  S   UNL     1     -12.768   9.497   2.269  1.00  0.00     0.268 S 
ATOM     27  O   UNL     1     -13.909   8.788   1.724  1.00  0.00    -0.201 OA
ATOM     28  O   UNL     1     -12.017  10.447   1.462  1.00  0.00    -0.201 OA
BRANCH  26  29
ATOM     29  C   UNL     1     -13.328  10.461   3.641  1.00  0.00     0.088 A 
ATOM     30  C   UNL     1     -15.237  13.111   6.455  1.00  0.00     0.044 C 
ATOM     31  C   UNL     1     -14.571  12.170   5.493  1.00  0.00    -0.051 A 
ATOM     32  C   UNL     1     -14.076  12.688   4.299  1.00  0.00     0.005 A 
ATOM     33  C   UNL     1     -14.414  10.796   5.761  1.00  0.00     0.005 A 
ATOM     34  C   UNL     1     -13.468  11.840   3.382  1.00  0.00     0.022 A 
ATOM     35  C   UNL     1     -13.797   9.931   4.835  1.00  0.00     0.022 A 
ENDBRANCH  26  29
ENDBRANCH  18  26
ENDBRANCH  15  17
ENDBRANCH  12  15
ENDBRANCH  10  11
BRANCH  10  36
ATOM     36  C   UNL     1      -9.765   1.672   0.506  1.00  0.00     0.072 C 
BRANCH  36  37
ATOM     37  C   UNL     1      -8.806   1.468  -0.650  1.00  0.00    -0.020 A 
ATOM     38  C   UNL     1      -7.817   2.374  -1.008  1.00  0.00     0.087 A 
ATOM     39  C   UNL     1      -8.607   0.323  -1.509  1.00  0.00     0.003 A 
ATOM     40  N   UNL     1      -7.063   1.839  -2.020  1.00  0.00    -0.361 N 
ATOM     41  C   UNL     1      -7.606   0.649  -2.428  1.00  0.00     0.046 A 
ATOM     42  C   UNL     1      -9.191  -0.955  -1.628  1.00  0.00     0.010 A 
ATOM     43  H   UNL     1      -6.251   2.248  -2.397  1.00  0.00     0.166 HD
ATOM     44  C   UNL     1      -7.259  -0.156  -3.521  1.00  0.00     0.026 A 
ATOM     45  C   UNL     1      -8.843  -1.789  -2.703  1.00  0.00     0.001 A 
ATOM     46  C   UNL     1      -7.911  -1.381  -3.652  1.00  0.00     0.002 A 
ENDBRANCH  36  37
ENDBRANCH  10  36
ENDBRANCH   7  10
ENDBRANCH   5   6
ENDBRANCH   1   5
BRANCH   3  47
ATOM     47  C   UNL     1     -10.646   4.392  -2.647  1.00  0.00     0.117 C 
BRANCH  47  48
ATOM     48  C   UNL     1     -10.220   3.547  -3.829  1.00  0.00     0.042 C 
BRANCH  48  49
ATOM     49  C   UNL     1      -9.125   4.230  -4.636  1.00  0.00     0.118 C 
BRANCH  49  50
ATOM     50  N   UNL     1      -7.800   3.899  -4.125  1.00  0.00    -0.352 N 
ATOM     51  C   UNL     1      -6.550   3.824  -4.721  1.00  0.00     0.251 C 
ATOM     52  H   UNL     1      -7.791   3.686  -3.163  1.00  0.00     0.163 HD
ATOM     53  O   UNL     1      -5.619   3.327  -4.124  1.00  0.00    -0.269 OA
BRANCH  51  54
ATOM     54  C   UNL     1      -6.332   4.591  -5.977  1.00  0.00     0.039 A 
ATOM     55  C   UNL     1      -5.484   5.691  -5.807  1.00  0.00     0.014 A 
ATOM     56  C   UNL     1      -7.341   4.617  -6.924  1.00  0.00     0.014 A 
ATOM     57  C   UNL     1      -5.904   6.926  -6.274  1.00  0.00     0.010 A 
ATOM     58  C   UNL     1      -7.840   5.860  -7.261  1.00  0.00     0.010 A 
ATOM     59  C   UNL     1      -7.168   7.018  -6.847  1.00  0.00    -0.014 A 
BRANCH  59  60
ATOM     60  C   UNL     1      -7.894   8.282  -6.928  1.00  0.00     0.031 A 
ATOM     61  C   UNL     1      -8.152   8.878  -8.255  1.00  0.00     0.074 A 
ATOM     62  C   UNL     1      -8.347   8.888  -5.805  1.00  0.00     0.049 A 
ATOM     63  N   UNL     1      -8.383  10.130  -8.464  1.00  0.00    -0.248 NA
ATOM     64  C   UNL     1      -8.102   8.092  -9.481  1.00  0.00     0.031 C 
ATOM     65  C   UNL     1      -9.284  10.008  -5.728  1.00  0.00     0.029 A 
ATOM     66  N   UNL     1      -7.880   8.735  -4.483  1.00  0.00    -0.354 N 
ATOM     67  C   UNL     1      -8.753  10.275  -9.782  1.00  0.00     0.074 A 
ATOM     68  C   UNL     1      -8.518   8.984 -10.381  1.00  0.00     0.031 C 
ATOM     69  C   UNL     1      -9.118  10.632  -4.551  1.00  0.00     0.029 A 
ATOM     70  C   UNL     1      -7.978  10.017  -3.892  1.00  0.00     0.049 A 
ATOM     71  H   UNL     1      -7.553   7.908  -4.059  1.00  0.00     0.167 HD
ATOM     72  C   UNL     1      -9.331  11.443 -10.188  1.00  0.00     0.037 A 
ATOM     73  C   UNL     1      -6.884  10.695  -3.439  1.00  0.00     0.037 A 
ATOM     74  C   UNL     1      -9.311  12.439  -9.120  1.00  0.00     0.049 A 
ATOM     75  C   UNL     1      -6.674  12.032  -4.104  1.00  0.00     0.074 A 
ATOM     76  C   UNL     1     -10.260  12.847  -8.196  1.00  0.00     0.029 A 
ATOM     77  N   UNL     1      -8.090  12.939  -8.674  1.00  0.00    -0.354 N 
ATOM     78  N   UNL     1      -7.212  12.372  -5.242  1.00  0.00    -0.248 NA
ATOM     79  C   UNL     1      -5.806  13.070  -3.558  1.00  0.00     0.031 C 
ATOM     80  C   UNL     1      -9.595  13.553  -7.163  1.00  0.00     0.029 A 
ATOM     81  C   UNL     1      -8.245  13.592  -7.466  1.00  0.00     0.049 A 
ATOM     82  H   UNL     1      -7.236  12.841  -9.153  1.00  0.00     0.167 HD
ATOM     83  C   UNL     1      -6.759  13.613  -5.603  1.00  0.00     0.074 A 
ATOM     84  C   UNL     1      -5.900  14.019  -4.506  1.00  0.00     0.031 C 
ATOM     85  C   UNL     1      -7.111  14.197  -6.786  1.00  0.00     0.037 A 
BRANCH  72  86
ATOM     86  C   UNL     1     -10.190  11.541 -11.433  1.00  0.00     0.064 A 
ATOM     87  C   UNL     1     -11.311  12.397 -11.473  1.00  0.00     0.173 A 
ATOM     88  C   UNL     1     -10.021  10.748 -12.584  1.00  0.00     0.173 A 
ATOM     89  F   UNL     1     -11.529  13.310 -10.520  1.00  0.00    -0.203 F 
ATOM     90  C   UNL     1     -12.260  12.345 -12.499  1.00  0.00     0.198 A 
ATOM     91  C   UNL     1     -11.001  10.646 -13.577  1.00  0.00     0.198 A 
ATOM     92  F   UNL     1      -8.876  10.095 -12.815  1.00  0.00    -0.203 F 
ATOM     93  F   UNL     1     -13.313  13.175 -12.473  1.00  0.00    -0.200 F 
ATOM     94  C   UNL     1     -12.131  11.434 -13.525  1.00  0.00     0.200 A 
ATOM     95  F   UNL     1     -10.838   9.776 -14.585  1.00  0.00    -0.200 F 
ATOM     96  F   UNL     1     -13.070  11.340 -14.476  1.00  0.00    -0.200 F 
ENDBRANCH  72  86
BRANCH  73  97
ATOM     97  C   UNL     1      -5.798   9.825  -2.918  1.00  0.00     0.064 A 
ATOM     98  C   UNL     1      -6.001   9.168  -1.696  1.00  0.00     0.173 A 
ATOM     99  C   UNL     1      -4.784   9.336  -3.741  1.00  0.00     0.173 A 
ATOM    100  F   UNL     1      -6.846   9.690  -0.805  1.00  0.00    -0.203 F 
ATOM    101  C   UNL     1      -5.375   7.963  -1.396  1.00  0.00     0.198 A 
ATOM    102  C   UNL     1      -4.116   8.151  -3.420  1.00  0.00     0.198 A 
ATOM    103  F   UNL     1      -4.513   9.937  -4.908  1.00  0.00    -0.203 F 
ATOM    104  F   UNL     1      -5.705   7.293  -0.282  1.00  0.00    -0.200 F 
ATOM    105  C   UNL     1      -4.453   7.436  -2.279  1.00  0.00     0.200 A 
ATOM    106  F   UNL     1      -3.206   7.651  -4.267  1.00  0.00    -0.200 F 
ATOM    107  F   UNL     1      -3.903   6.238  -2.042  1.00  0.00    -0.200 F 
ENDBRANCH  73  97
BRANCH  85 108
ATOM    108  C   UNL     1      -6.486  15.440  -7.369  1.00  0.00     0.064 A 
ATOM    109  C   UNL     1      -5.147  15.810  -7.164  1.00  0.00     0.173 A 
ATOM    110  C   UNL     1      -7.205  16.234  -8.294  1.00  0.00     0.173 A 
ATOM    111  F   UNL     1      -4.328  15.067  -6.406  1.00  0.00    -0.203 F 
ATOM    112  C   UNL     1      -4.587  16.930  -7.783  1.00  0.00     0.198 A 
ATOM    113  C   UNL     1      -6.626  17.318  -8.954  1.00  0.00     0.198 A 
ATOM    114  F   UNL     1      -8.482  15.966  -8.603  1.00  0.00    -0.203 F 
ATOM    115  F   UNL     1      -3.316  17.267  -7.521  1.00  0.00    -0.200 F 
ATOM    116  C   UNL     1      -5.322  17.677  -8.685  1.00  0.00     0.200 A 
ATOM    117  F   UNL     1      -7.335  17.999  -9.865  1.00  0.00    -0.200 F 
ATOM    118  F   UNL     1      -4.767  18.723  -9.310  1.00  0.00    -0.200 F 
ENDBRANCH  85 108
ENDBRANCH  59  60
ENDBRANCH  51  54
ENDBRANCH  49  50
ENDBRANCH  48  49
ENDBRANCH  47  48
ENDBRANCH   3  47
TORSDOF 19
