REMARK SMILES C[N@@H+]1CC[C@H]2CN(C(=O)c3csc(-c4ccncc4)n3)C[C@@]2(C(=O)NCCCNC(=O)c2ccc(-c3c4nc(c(-c5c(F)c(F)c(F)c(F)c5F)c5ccc([nH]5)c(-c5c(F)c(F)c(F)c(F)c5F)c5nc(c(-c6c(F)c(F)c(F)c(F)c6F)c6ccc3[nH]6)C=C5)C=C4)cc2)C1
REMARK SMILES IDX 26 1 25 2 23 3 24 4 22 6 1 7 2 8 3 9 95 10 4 12 5 13 21 14
REMARK SMILES IDX 6 15 7 16 8 17 9 18 10 19 11 20 20 21 12 22 13 23 14 24
REMARK SMILES IDX 15 25 19 26 16 27 18 28 17 29 27 30 28 31 29 32 30 33 31 35
REMARK SMILES IDX 32 36 33 37 94 38 34 39 93 40 35 41 36 42 37 43 87 44 38 45
REMARK SMILES IDX 92 46 86 47 88 48 39 49 91 50 85 51 84 52 40 54 72 55 52 56
REMARK SMILES IDX 71 57 53 58 56 59 70 60 89 61 54 62 55 63 69 65 90 66 57 67
REMARK SMILES IDX 41 68 42 69 50 70 43 71 44 72 48 73 51 74 45 75 46 76 49 77
REMARK SMILES IDX 47 78 73 79 74 80 82 81 75 82 76 83 80 84 83 85 77 86 78 87
REMARK SMILES IDX 81 88 79 89 58 90 59 91 67 92 60 93 61 94 65 95 68 96 62 97
REMARK SMILES IDX 63 98 66 99 64 100
REMARK H PARENT 25 5 2 11 29 34 88 53 56 64
REMARK Flexibility Score: inf
ROOT
ATOM      1  C   UNL     1      -1.990   3.759   1.714  1.00  0.00     0.117 C 
ENDROOT
BRANCH   1   2
ATOM      2  N   UNL     1      -1.659   2.718   0.737  1.00  0.00    -0.355 N 
ATOM      3  C   UNL     1      -1.839   1.356   0.685  1.00  0.00     0.234 C 
ATOM      4  O   UNL     1      -1.917   0.879  -0.453  1.00  0.00    -0.274 OA
ATOM      5  H   UNL     1      -1.206   3.074  -0.061  1.00  0.00     0.163 HD
BRANCH   3   6
ATOM      6  C   UNL     1      -1.743   0.436   1.919  1.00  0.00     0.120 C 
ATOM      7  C   UNL     1       1.259  -0.049   0.394  1.00  0.00     0.332 C 
ATOM      8  N   UNL     1       0.653  -0.534   1.632  1.00  0.00    -0.336 N 
ATOM      9  C   UNL     1       0.107  -1.878   1.422  1.00  0.00     0.262 C 
ATOM     10  C   UNL     1      -0.240   0.426   2.316  1.00  0.00     0.281 C 
ATOM     11  H   UNL     1       1.394  -0.619   2.328  1.00  0.00     0.347 HD
ATOM     12  C   UNL     1      -1.206  -2.099   2.143  1.00  0.00     0.068 C 
ATOM     13  C   UNL     1      -2.230  -1.051   1.696  1.00  0.00     0.037 C 
ATOM     14  C   UNL     1      -2.714   0.919   3.008  1.00  0.00     0.143 C 
ATOM     15  C   UNL     1      -3.502  -1.249   2.522  1.00  0.00     0.125 C 
ATOM     16  N   UNL     1      -3.888   0.076   2.886  1.00  0.00    -0.336 N 
BRANCH  16  17
ATOM     17  C   UNL     1      -5.204   0.371   3.186  1.00  0.00     0.273 C 
ATOM     18  O   UNL     1      -5.995  -0.496   3.551  1.00  0.00    -0.267 OA
BRANCH  17  19
ATOM     19  C   UNL     1      -5.646   1.753   2.982  1.00  0.00     0.139 A 
ATOM     20  C   UNL     1      -6.481   2.423   3.857  1.00  0.00     0.101 A 
ATOM     21  N   UNL     1      -5.372   2.451   1.800  1.00  0.00    -0.231 NA
ATOM     22  S   UNL     1      -6.920   3.947   3.212  1.00  0.00    -0.122 S 
ATOM     23  C   UNL     1      -6.045   3.583   1.775  1.00  0.00     0.124 A 
BRANCH  23  24
ATOM     24  C   UNL     1      -6.137   4.485   0.628  1.00  0.00     0.013 A 
ATOM     25  C   UNL     1      -6.808   4.074  -0.528  1.00  0.00     0.031 A 
ATOM     26  C   UNL     1      -5.577   5.763   0.663  1.00  0.00     0.031 A 
ATOM     27  C   UNL     1      -6.911   4.965  -1.583  1.00  0.00     0.111 A 
ATOM     28  C   UNL     1      -5.725   6.577  -0.448  1.00  0.00     0.111 A 
ATOM     29  N   UNL     1      -6.385   6.207  -1.566  1.00  0.00    -0.265 NA
ENDBRANCH  23  24
ENDBRANCH  17  19
ENDBRANCH  16  17
ENDBRANCH   3   6
ENDBRANCH   1   2
BRANCH   1  30
ATOM     30  C   UNL     1      -1.028   3.983   2.884  1.00  0.00     0.042 C 
BRANCH  30  31
ATOM     31  C   UNL     1       0.222   4.803   2.548  1.00  0.00     0.118 C 
BRANCH  31  32
ATOM     32  N   UNL     1      -0.103   6.067   1.898  1.00  0.00    -0.352 N 
ATOM     33  C   UNL     1      -0.168   7.356   2.359  1.00  0.00     0.251 C 
ATOM     34  H   UNL     1      -0.318   5.977   0.942  1.00  0.00     0.163 HD
ATOM     35  O   UNL     1      -0.826   8.172   1.717  1.00  0.00    -0.269 OA
BRANCH  33  36
ATOM     36  C   UNL     1       0.551   7.804   3.575  1.00  0.00     0.039 A 
ATOM     37  C   UNL     1       0.032   8.889   4.297  1.00  0.00     0.014 A 
ATOM     38  C   UNL     1       1.790   7.273   3.938  1.00  0.00     0.014 A 
ATOM     39  C   UNL     1       0.733   9.412   5.389  1.00  0.00     0.010 A 
ATOM     40  C   UNL     1       2.454   7.748   5.071  1.00  0.00     0.010 A 
ATOM     41  C   UNL     1       1.943   8.832   5.799  1.00  0.00    -0.014 A 
BRANCH  41  42
ATOM     42  C   UNL     1       2.695   9.358   6.969  1.00  0.00     0.031 A 
ATOM     43  C   UNL     1       4.067   9.950   6.789  1.00  0.00     0.074 A 
ATOM     44  C   UNL     1       2.169   9.242   8.204  1.00  0.00     0.049 A 
ATOM     45  N   UNL     1       4.912  10.380   7.694  1.00  0.00    -0.248 NA
ATOM     46  C   UNL     1       4.571  10.044   5.410  1.00  0.00     0.031 C 
ATOM     47  C   UNL     1       0.869   8.646   8.515  1.00  0.00     0.029 A 
ATOM     48  N   UNL     1       2.668   9.608   9.429  1.00  0.00    -0.354 N 
ATOM     49  C   UNL     1       6.049  10.771   6.997  1.00  0.00     0.074 A 
ATOM     50  C   UNL     1       5.807  10.483   5.600  1.00  0.00     0.031 C 
ATOM     51  C   UNL     1       0.666   8.702   9.841  1.00  0.00     0.029 A 
ATOM     52  C   UNL     1       1.833   9.306  10.476  1.00  0.00     0.049 A 
ATOM     53  H   UNL     1       3.542  10.046   9.546  1.00  0.00     0.167 HD
ATOM     54  C   UNL     1       7.183  11.336   7.477  1.00  0.00     0.037 A 
ATOM     55  C   UNL     1       1.993   9.489  11.801  1.00  0.00     0.037 A 
ATOM     56  C   UNL     1       7.406  11.654   8.864  1.00  0.00     0.049 A 
ATOM     57  C   UNL     1       3.252  10.142  12.304  1.00  0.00     0.074 A 
ATOM     58  C   UNL     1       8.496  12.280   9.443  1.00  0.00     0.029 A 
ATOM     59  N   UNL     1       6.517  11.371   9.890  1.00  0.00    -0.354 N 
ATOM     60  N   UNL     1       4.294  10.562  11.628  1.00  0.00    -0.248 NA
ATOM     61  C   UNL     1       3.350  10.359  13.754  1.00  0.00     0.031 C 
ATOM     62  C   UNL     1       8.283  12.342  10.824  1.00  0.00     0.029 A 
ATOM     63  C   UNL     1       7.038  11.800  11.100  1.00  0.00     0.049 A 
ATOM     64  H   UNL     1       5.644  10.931   9.775  1.00  0.00     0.167 HD
ATOM     65  C   UNL     1       5.154  11.121  12.563  1.00  0.00     0.074 A 
ATOM     66  C   UNL     1       4.505  11.000  13.852  1.00  0.00     0.031 C 
ATOM     67  C   UNL     1       6.372  11.685  12.372  1.00  0.00     0.037 A 
BRANCH  54  68
ATOM     68  C   UNL     1       8.273  11.657   6.492  1.00  0.00     0.064 A 
ATOM     69  C   UNL     1       8.133  12.685   5.548  1.00  0.00     0.173 A 
ATOM     70  C   UNL     1       9.488  10.954   6.519  1.00  0.00     0.173 A 
ATOM     71  F   UNL     1       6.989  13.382   5.473  1.00  0.00    -0.203 F 
ATOM     72  C   UNL     1       9.156  12.978   4.649  1.00  0.00     0.198 A 
ATOM     73  C   UNL     1      10.520  11.271   5.639  1.00  0.00     0.198 A 
ATOM     74  F   UNL     1       9.678   9.966   7.406  1.00  0.00    -0.203 F 
ATOM     75  F   UNL     1       8.979  13.932   3.724  1.00  0.00    -0.200 F 
ATOM     76  C   UNL     1      10.350  12.276   4.700  1.00  0.00     0.200 A 
ATOM     77  F   UNL     1      11.679  10.600   5.699  1.00  0.00    -0.200 F 
ATOM     78  F   UNL     1      11.336  12.565   3.839  1.00  0.00    -0.200 F 
ENDBRANCH  54  68
BRANCH  55  79
ATOM     79  C   UNL     1       0.919   9.079  12.743  1.00  0.00     0.064 A 
ATOM     80  C   UNL     1       0.162  10.038  13.429  1.00  0.00     0.173 A 
ATOM     81  C   UNL     1       0.631   7.727  12.981  1.00  0.00     0.173 A 
ATOM     82  F   UNL     1       0.412  11.343  13.248  1.00  0.00    -0.203 F 
ATOM     83  C   UNL     1      -0.826   9.661  14.337  1.00  0.00     0.198 A 
ATOM     84  C   UNL     1      -0.376   7.351  13.867  1.00  0.00     0.198 A 
ATOM     85  F   UNL     1       1.321   6.770  12.342  1.00  0.00    -0.203 F 
ATOM     86  F   UNL     1      -1.501  10.598  15.015  1.00  0.00    -0.200 F 
ATOM     87  C   UNL     1      -1.098   8.318  14.551  1.00  0.00     0.200 A 
ATOM     88  F   UNL     1      -0.647   6.053  14.059  1.00  0.00    -0.200 F 
ATOM     89  F   UNL     1      -2.050   7.956  15.421  1.00  0.00    -0.200 F 
ENDBRANCH  55  79
BRANCH  67  90
ATOM     90  C   UNL     1       7.060  12.257  13.577  1.00  0.00     0.064 A 
ATOM     91  C   UNL     1       7.602  11.437  14.577  1.00  0.00     0.173 A 
ATOM     92  C   UNL     1       7.200  13.646  13.718  1.00  0.00     0.173 A 
ATOM     93  F   UNL     1       7.481  10.103  14.495  1.00  0.00    -0.203 F 
ATOM     94  C   UNL     1       8.232  11.988  15.690  1.00  0.00     0.198 A 
ATOM     95  C   UNL     1       7.857  14.192  14.817  1.00  0.00     0.198 A 
ATOM     96  F   UNL     1       6.705  14.474  12.786  1.00  0.00    -0.203 F 
ATOM     97  F   UNL     1       8.696  11.187  16.659  1.00  0.00    -0.200 F 
ATOM     98  C   UNL     1       8.365  13.364  15.806  1.00  0.00     0.200 A 
ATOM     99  F   UNL     1       7.996  15.521  14.920  1.00  0.00    -0.200 F 
ATOM    100  F   UNL     1       8.974  13.891  16.876  1.00  0.00    -0.200 F 
ENDBRANCH  67  90
ENDBRANCH  41  42
ENDBRANCH  33  36
ENDBRANCH  31  32
ENDBRANCH  30  31
ENDBRANCH   1  30
TORSDOF 13
