REMARK SMILES N#Cc1nccnc1N(CC(=O)NCCCNC(=O)c1ccc(-c2c3nc(c(-c4c(F)c(F)c(F)c(F)c4F)c4ccc([nH]4)c(-c4c(F)c(F)c(F)c(F)c4F)c4nc(c(-c5c(F)c(F)c(F)c(F)c5F)c5ccc2[nH]5)C=C4)C=C3)cc1)CC(F)(F)F
REMARK SMILES IDX 14 1 13 2 11 3 12 4 10 6 9 7 8 8 3 9 4 10 5 11 7 12 6 13
REMARK SMILES IDX 2 14 1 15 83 16 84 17 85 18 86 19 87 20 15 21 16 22 17 23
REMARK SMILES IDX 18 24 19 26 20 27 21 28 82 29 22 30 81 31 23 32 24 33 25 34
REMARK SMILES IDX 75 35 26 36 80 37 74 38 76 39 27 40 79 41 73 42 72 43 28 45
REMARK SMILES IDX 60 46 40 47 59 48 41 49 44 50 58 51 77 52 42 53 43 54 57 56
REMARK SMILES IDX 78 57 45 58 29 59 30 60 38 61 31 62 32 63 36 64 39 65 33 66
REMARK SMILES IDX 34 67 37 68 35 69 61 70 62 71 70 72 63 73 64 74 68 75 71 76
REMARK SMILES IDX 65 77 66 78 69 79 67 80 46 81 47 82 55 83 48 84 49 85 53 86
REMARK SMILES IDX 56 87 50 88 51 89 54 90 52 91
REMARK H PARENT 13 5 17 25 76 44 44 55
REMARK Flexibility Score: inf
ROOT
ATOM      1  C   UNL     1       4.904  -3.337   2.512  1.00  0.00     0.117 C 
ENDROOT
BRANCH   1   2
ATOM      2  N   UNL     1       4.220  -4.397   1.794  1.00  0.00    -0.354 N 
ATOM      3  C   UNL     1       3.963  -4.500   0.458  1.00  0.00     0.239 C 
ATOM      4  O   UNL     1       3.300  -5.460   0.059  1.00  0.00    -0.273 OA
ATOM      5  H   UNL     1       3.897  -5.144   2.348  1.00  0.00     0.163 HD
BRANCH   3   6
ATOM      6  C   UNL     1       4.477  -3.434  -0.514  1.00  0.00     0.218 C 
BRANCH   6   7
ATOM      7  N   UNL     1       3.677  -2.180  -0.470  1.00  0.00    -0.336 N 
BRANCH   7   8
ATOM      8  C   UNL     1       4.358  -0.983  -0.314  1.00  0.00     0.166 A 
ATOM      9  C   UNL     1       3.864   0.334  -0.419  1.00  0.00     0.183 A 
ATOM     10  N   UNL     1       4.625   1.459  -0.215  1.00  0.00    -0.240 NA
ATOM     11  C   UNL     1       5.918   1.261   0.088  1.00  0.00     0.133 A 
ATOM     12  N   UNL     1       5.681  -1.108  -0.010  1.00  0.00    -0.235 NA
ATOM     13  C   UNL     1       6.439  -0.004   0.183  1.00  0.00     0.133 A 
BRANCH   9  14
ATOM     14  C   UNL     1       2.521   0.668  -0.794  1.00  0.00     0.123 C 
ATOM     15  N   UNL     1       1.430   0.907  -1.110  1.00  0.00    -0.191 NA
ENDBRANCH   9  14
ENDBRANCH   7   8
BRANCH   7  16
ATOM     16  C   UNL     1       2.225  -2.343  -0.775  1.00  0.00     0.234 C 
BRANCH  16  17
ATOM     17  C   UNL     1       1.257  -2.221   0.418  1.00  0.00     0.405 C 
ATOM     18  F   UNL     1       1.474  -1.096   1.137  1.00  0.00    -0.169 F 
ATOM     19  F   UNL     1      -0.026  -2.196  -0.004  1.00  0.00    -0.169 F 
ATOM     20  F   UNL     1       1.379  -3.262   1.273  1.00  0.00    -0.169 F 
ENDBRANCH  16  17
ENDBRANCH   7  16
ENDBRANCH   6   7
ENDBRANCH   3   6
ENDBRANCH   1   2
BRANCH   1  21
ATOM     21  C   UNL     1       3.933  -2.381   3.193  1.00  0.00     0.042 C 
BRANCH  21  22
ATOM     22  C   UNL     1       3.101  -3.043   4.285  1.00  0.00     0.118 C 
BRANCH  22  23
ATOM     23  N   UNL     1       3.903  -3.390   5.454  1.00  0.00    -0.352 N 
ATOM     24  C   UNL     1       3.825  -2.930   6.746  1.00  0.00     0.251 C 
ATOM     25  H   UNL     1       4.609  -4.058   5.291  1.00  0.00     0.163 HD
ATOM     26  O   UNL     1       4.729  -3.172   7.539  1.00  0.00    -0.269 OA
BRANCH  24  27
ATOM     27  C   UNL     1       2.667  -2.116   7.172  1.00  0.00     0.039 A 
ATOM     28  C   UNL     1       1.375  -2.447   6.763  1.00  0.00     0.014 A 
ATOM     29  C   UNL     1       2.878  -0.998   7.984  1.00  0.00     0.014 A 
ATOM     30  C   UNL     1       0.331  -1.560   6.995  1.00  0.00     0.010 A 
ATOM     31  C   UNL     1       1.805  -0.164   8.308  1.00  0.00     0.010 A 
ATOM     32  C   UNL     1       0.532  -0.407   7.769  1.00  0.00    -0.014 A 
BRANCH  32  33
ATOM     33  C   UNL     1      -0.597   0.535   7.994  1.00  0.00     0.031 A 
ATOM     34  C   UNL     1      -0.529   1.951   7.491  1.00  0.00     0.074 A 
ATOM     35  C   UNL     1      -1.711   0.095   8.610  1.00  0.00     0.049 A 
ATOM     36  N   UNL     1      -1.417   2.910   7.593  1.00  0.00    -0.248 NA
ATOM     37  C   UNL     1       0.699   2.349   6.786  1.00  0.00     0.031 C 
ATOM     38  C   UNL     1      -1.910  -1.262   9.118  1.00  0.00     0.029 A 
ATOM     39  N   UNL     1      -2.894   0.732   8.888  1.00  0.00    -0.354 N 
ATOM     40  C   UNL     1      -0.856   4.017   6.968  1.00  0.00     0.074 A 
ATOM     41  C   UNL     1       0.473   3.633   6.547  1.00  0.00     0.031 C 
ATOM     42  C   UNL     1      -3.160  -1.375   9.590  1.00  0.00     0.029 A 
ATOM     43  C   UNL     1      -3.825  -0.081   9.487  1.00  0.00     0.049 A 
ATOM     44  H   UNL     1      -3.060   1.679   8.679  1.00  0.00     0.167 HD
ATOM     45  C   UNL     1      -1.410   5.233   6.742  1.00  0.00     0.037 A 
ATOM     46  C   UNL     1      -5.072   0.186   9.918  1.00  0.00     0.037 A 
ATOM     47  C   UNL     1      -2.735   5.611   7.163  1.00  0.00     0.049 A 
ATOM     48  C   UNL     1      -5.624   1.573   9.750  1.00  0.00     0.074 A 
ATOM     49  C   UNL     1      -3.382   6.822   6.990  1.00  0.00     0.029 A 
ATOM     50  N   UNL     1      -3.617   4.781   7.842  1.00  0.00    -0.354 N 
ATOM     51  N   UNL     1      -5.087   2.610   9.156  1.00  0.00    -0.248 NA
ATOM     52  C   UNL     1      -6.954   1.827  10.319  1.00  0.00     0.031 C 
ATOM     53  C   UNL     1      -4.630   6.745   7.616  1.00  0.00     0.029 A 
ATOM     54  C   UNL     1      -4.791   5.465   8.120  1.00  0.00     0.049 A 
ATOM     55  H   UNL     1      -3.436   3.845   8.089  1.00  0.00     0.167 HD
ATOM     56  C   UNL     1      -6.021   3.632   9.254  1.00  0.00     0.074 A 
ATOM     57  C   UNL     1      -7.166   3.084   9.950  1.00  0.00     0.031 C 
ATOM     58  C   UNL     1      -5.931   4.910   8.809  1.00  0.00     0.037 A 
BRANCH  45  59
ATOM     59  C   UNL     1      -0.581   6.250   6.005  1.00  0.00     0.064 A 
ATOM     60  C   UNL     1      -0.246   6.084   4.652  1.00  0.00     0.173 A 
ATOM     61  C   UNL     1      -0.149   7.423   6.644  1.00  0.00     0.173 A 
ATOM     62  F   UNL     1      -0.625   4.979   3.993  1.00  0.00    -0.203 F 
ATOM     63  C   UNL     1       0.517   7.035   3.977  1.00  0.00     0.198 A 
ATOM     64  C   UNL     1       0.581   8.390   5.956  1.00  0.00     0.198 A 
ATOM     65  F   UNL     1      -0.447   7.641   7.934  1.00  0.00    -0.203 F 
ATOM     66  F   UNL     1       0.873   6.825   2.703  1.00  0.00    -0.200 F 
ATOM     67  C   UNL     1       0.922   8.190   4.627  1.00  0.00     0.200 A 
ATOM     68  F   UNL     1       0.955   9.515   6.580  1.00  0.00    -0.200 F 
ATOM     69  F   UNL     1       1.649   9.109   3.975  1.00  0.00    -0.200 F 
ENDBRANCH  45  59
BRANCH  46  70
ATOM     70  C   UNL     1      -5.885  -0.903  10.519  1.00  0.00     0.064 A 
ATOM     71  C   UNL     1      -7.011  -1.403   9.851  1.00  0.00     0.173 A 
ATOM     72  C   UNL     1      -5.532  -1.498  11.740  1.00  0.00     0.173 A 
ATOM     73  F   UNL     1      -7.400  -0.854   8.691  1.00  0.00    -0.203 F 
ATOM     74  C   UNL     1      -7.751  -2.458  10.380  1.00  0.00     0.198 A 
ATOM     75  C   UNL     1      -6.254  -2.573  12.252  1.00  0.00     0.198 A 
ATOM     76  F   UNL     1      -4.462  -1.058  12.418  1.00  0.00    -0.203 F 
ATOM     77  F   UNL     1      -8.839  -2.899   9.734  1.00  0.00    -0.200 F 
ATOM     78  C   UNL     1      -7.365  -3.050  11.573  1.00  0.00     0.200 A 
ATOM     79  F   UNL     1      -5.866  -3.155  13.394  1.00  0.00    -0.200 F 
ATOM     80  F   UNL     1      -8.065  -4.079  12.069  1.00  0.00    -0.200 F 
ENDBRANCH  46  70
BRANCH  58  81
ATOM     81  C   UNL     1      -7.111   5.813   9.036  1.00  0.00     0.064 A 
ATOM     82  C   UNL     1      -7.451   6.271  10.317  1.00  0.00     0.173 A 
ATOM     83  C   UNL     1      -7.863   6.287   7.950  1.00  0.00     0.173 A 
ATOM     84  F   UNL     1      -6.774   5.838  11.392  1.00  0.00    -0.203 F 
ATOM     85  C   UNL     1      -8.508   7.158  10.504  1.00  0.00     0.198 A 
ATOM     86  C   UNL     1      -8.896   7.202   8.136  1.00  0.00     0.198 A 
ATOM     87  F   UNL     1      -7.577   5.887   6.702  1.00  0.00    -0.203 F 
ATOM     88  F   UNL     1      -8.840   7.551  11.742  1.00  0.00    -0.200 F 
ATOM     89  C   UNL     1      -9.221   7.633   9.413  1.00  0.00     0.200 A 
ATOM     90  F   UNL     1      -9.569   7.676   7.078  1.00  0.00    -0.200 F 
ATOM     91  F   UNL     1     -10.222   8.505   9.593  1.00  0.00    -0.200 F 
ENDBRANCH  58  81
ENDBRANCH  32  33
ENDBRANCH  24  27
ENDBRANCH  22  23
ENDBRANCH  21  22
ENDBRANCH   1  21
TORSDOF 15
