REMARK SMILES CC(=O)c1cn(CC(=O)NCC(=O)NCC(=O)NCCCNC(=O)c2ccc(-c3c4nc(c(-c5c(F)c(F)c(F)c(F)c5F)c5ccc([nH]5)c(-c5c(F)c(F)c(F)c(F)c5F)c5nc(c(-c6c(F)c(F)c(F)c(F)c6F)c6ccc3[nH]6)C=C5)C=C4)cc2)c2ccccc12
REMARK SMILES IDX 16 1 17 2 18 3 15 5 14 6 12 7 13 8 11 10 10 11 8 12 9 13
REMARK SMILES IDX 7 15 6 16 4 17 5 18 93 19 88 20 92 21 89 22 91 23 90 24 2 25
REMARK SMILES IDX 1 26 3 27 19 28 20 29 21 30 22 31 23 32 24 34 25 35 26 36
REMARK SMILES IDX 87 37 27 38 86 39 28 40 29 41 30 42 80 43 31 44 85 45 79 46
REMARK SMILES IDX 81 47 32 48 84 49 78 50 77 51 33 53 65 54 45 55 64 56 46 57
REMARK SMILES IDX 49 58 63 59 82 60 47 61 48 62 62 64 83 65 50 66 34 67 35 68
REMARK SMILES IDX 43 69 36 70 37 71 41 72 44 73 38 74 39 75 42 76 40 77 66 78
REMARK SMILES IDX 67 79 75 80 68 81 69 82 73 83 76 84 70 85 71 86 74 87 72 88
REMARK SMILES IDX 51 89 52 90 60 91 53 92 54 93 58 94 61 95 55 96 56 97 59 98
REMARK SMILES IDX 57 99
REMARK H PARENT 18 4 14 9 10 14 22 33 81 52 49 63
REMARK Flexibility Score: inf
ROOT
ATOM      1  C   UNL     1       2.933   3.459  -4.045  1.00  0.00     0.239 C 
ATOM      2  O   UNL     1       3.989   3.395  -3.430  1.00  0.00    -0.273 OA
ATOM      3  N   UNL     1       2.924   4.086  -5.260  1.00  0.00    -0.355 N 
ATOM      4  H   UNL     1       3.804   4.249  -5.670  1.00  0.00     0.163 HD
ENDROOT
BRANCH   1   5
ATOM      5  C   UNL     1       1.659   2.754  -3.561  1.00  0.00     0.216 C 
BRANCH   5   6
ATOM      6  N   UNL     1       0.494   3.568  -3.277  1.00  0.00    -0.346 N 
ATOM      7  C   UNL     1      -0.815   3.328  -3.582  1.00  0.00     0.239 C 
ATOM      8  O   UNL     1      -1.656   4.046  -3.034  1.00  0.00    -0.273 OA
ATOM      9  H   UNL     1       0.671   4.410  -2.798  1.00  0.00     0.164 HD
BRANCH   7  10
ATOM     10  C   UNL     1      -1.262   2.148  -4.484  1.00  0.00     0.216 C 
BRANCH  10  11
ATOM     11  N   UNL     1      -0.658   2.116  -5.811  1.00  0.00    -0.345 N 
ATOM     12  C   UNL     1       0.047   1.160  -6.479  1.00  0.00     0.240 C 
ATOM     13  O   UNL     1       0.613   1.514  -7.519  1.00  0.00    -0.273 OA
ATOM     14  H   UNL     1      -0.784   2.947  -6.324  1.00  0.00     0.164 HD
BRANCH  12  15
ATOM     15  C   UNL     1       0.062  -0.296  -6.051  1.00  0.00     0.222 C 
BRANCH  15  16
ATOM     16  N   UNL     1       0.745  -0.566  -4.794  1.00  0.00    -0.337 N 
ATOM     17  C   UNL     1       0.966  -0.905  -2.598  1.00  0.00     0.043 A 
ATOM     18  C   UNL     1       0.104  -1.016  -3.673  1.00  0.00     0.099 A 
ATOM     19  C   UNL     1       2.250  -0.568  -3.142  1.00  0.00     0.010 A 
ATOM     20  C   UNL     1       2.087  -0.394  -4.527  1.00  0.00     0.049 A 
ATOM     21  C   UNL     1       3.537  -0.361  -2.596  1.00  0.00     0.011 A 
ATOM     22  C   UNL     1       3.151  -0.019  -5.367  1.00  0.00     0.027 A 
ATOM     23  C   UNL     1       4.596   0.030  -3.422  1.00  0.00     0.001 A 
ATOM     24  C   UNL     1       4.403   0.198  -4.787  1.00  0.00     0.002 A 
BRANCH  17  25
ATOM     25  C   UNL     1       0.514  -1.088  -1.219  1.00  0.00     0.161 C 
ATOM     26  C   UNL     1       1.104  -0.222  -0.137  1.00  0.00     0.093 C 
ATOM     27  O   UNL     1      -0.427  -1.841  -0.959  1.00  0.00    -0.294 OA
ENDBRANCH  17  25
ENDBRANCH  15  16
ENDBRANCH  12  15
ENDBRANCH  10  11
ENDBRANCH   7  10
ENDBRANCH   5   6
ENDBRANCH   1   5
BRANCH   3  28
ATOM     28  C   UNL     1       1.780   4.539  -6.011  1.00  0.00     0.117 C 
BRANCH  28  29
ATOM     29  C   UNL     1       1.479   6.000  -5.709  1.00  0.00     0.042 C 
BRANCH  29  30
ATOM     30  C   UNL     1       2.580   6.930  -6.212  1.00  0.00     0.118 C 
BRANCH  30  31
ATOM     31  N   UNL     1       2.821   6.799  -7.634  1.00  0.00    -0.352 N 
ATOM     32  C   UNL     1       2.237   7.310  -8.756  1.00  0.00     0.251 C 
ATOM     33  H   UNL     1       3.579   6.205  -7.838  1.00  0.00     0.163 HD
ATOM     34  O   UNL     1       2.759   6.999  -9.828  1.00  0.00    -0.269 OA
BRANCH  32  35
ATOM     35  C   UNL     1       1.007   8.147  -8.775  1.00  0.00     0.039 A 
ATOM     36  C   UNL     1       0.250   8.515  -7.663  1.00  0.00     0.014 A 
ATOM     37  C   UNL     1       0.552   8.524 -10.052  1.00  0.00     0.014 A 
ATOM     38  C   UNL     1      -0.985   9.129  -7.824  1.00  0.00     0.010 A 
ATOM     39  C   UNL     1      -0.665   9.168 -10.220  1.00  0.00     0.010 A 
ATOM     40  C   UNL     1      -1.457   9.416  -9.106  1.00  0.00    -0.014 A 
BRANCH  40  41
ATOM     41  C   UNL     1      -2.759  10.057  -9.220  1.00  0.00     0.031 A 
ATOM     42  C   UNL     1      -2.866  11.391  -8.564  1.00  0.00     0.074 A 
ATOM     43  C   UNL     1      -3.772   9.535  -9.939  1.00  0.00     0.049 A 
ATOM     44  N   UNL     1      -3.669  11.759  -7.618  1.00  0.00    -0.248 NA
ATOM     45  C   UNL     1      -1.883  12.416  -8.947  1.00  0.00     0.031 C 
ATOM     46  C   UNL     1      -3.754   8.380 -10.839  1.00  0.00     0.029 A 
ATOM     47  N   UNL     1      -5.043  10.004 -10.068  1.00  0.00    -0.354 N 
ATOM     48  C   UNL     1      -3.400  13.107  -7.386  1.00  0.00     0.074 A 
ATOM     49  C   UNL     1      -2.218  13.425  -8.144  1.00  0.00     0.031 C 
ATOM     50  C   UNL     1      -4.887   8.372 -11.577  1.00  0.00     0.029 A 
ATOM     51  C   UNL     1      -5.763   9.429 -11.104  1.00  0.00     0.049 A 
ATOM     52  H   UNL     1      -5.420  10.692  -9.474  1.00  0.00     0.167 HD
ATOM     53  C   UNL     1      -4.282  13.913  -6.731  1.00  0.00     0.037 A 
ATOM     54  C   UNL     1      -6.967   9.843 -11.571  1.00  0.00     0.037 A 
ATOM     55  C   UNL     1      -5.189  13.150  -5.917  1.00  0.00     0.049 A 
ATOM     56  C   UNL     1      -7.606  10.639 -10.493  1.00  0.00     0.074 A 
ATOM     57  C   UNL     1      -5.039  12.309  -4.831  1.00  0.00     0.029 A 
ATOM     58  N   UNL     1      -6.458  12.917  -6.384  1.00  0.00    -0.354 N 
ATOM     59  N   UNL     1      -8.012  10.135  -9.360  1.00  0.00    -0.248 NA
ATOM     60  C   UNL     1      -7.388  12.078 -10.498  1.00  0.00     0.031 C 
ATOM     61  C   UNL     1      -6.005  11.279  -5.026  1.00  0.00     0.029 A 
ATOM     62  C   UNL     1      -6.712  11.584  -6.190  1.00  0.00     0.049 A 
ATOM     63  H   UNL     1      -7.068  13.579  -6.782  1.00  0.00     0.167 HD
ATOM     64  C   UNL     1      -7.706  11.102  -8.415  1.00  0.00     0.074 A 
ATOM     65  C   UNL     1      -7.397  12.306  -9.182  1.00  0.00     0.031 C 
ATOM     66  C   UNL     1      -7.459  10.767  -7.115  1.00  0.00     0.037 A 
BRANCH  53  67
ATOM     67  C   UNL     1      -4.525  15.361  -7.080  1.00  0.00     0.064 A 
ATOM     68  C   UNL     1      -5.379  16.137  -6.270  1.00  0.00     0.173 A 
ATOM     69  C   UNL     1      -4.197  15.928  -8.331  1.00  0.00     0.173 A 
ATOM     70  F   UNL     1      -5.776  15.692  -5.068  1.00  0.00    -0.203 F 
ATOM     71  C   UNL     1      -5.923  17.347  -6.714  1.00  0.00     0.198 A 
ATOM     72  C   UNL     1      -4.699  17.160  -8.749  1.00  0.00     0.198 A 
ATOM     73  F   UNL     1      -3.472  15.270  -9.243  1.00  0.00    -0.203 F 
ATOM     74  F   UNL     1      -6.829  17.985  -5.961  1.00  0.00    -0.200 F 
ATOM     75  C   UNL     1      -5.587  17.853  -7.956  1.00  0.00     0.200 A 
ATOM     76  F   UNL     1      -4.375  17.624  -9.964  1.00  0.00    -0.200 F 
ATOM     77  F   UNL     1      -6.154  18.978  -8.410  1.00  0.00    -0.200 F 
ENDBRANCH  53  67
BRANCH  54  78
ATOM     78  C   UNL     1      -7.429   9.889 -12.979  1.00  0.00     0.064 A 
ATOM     79  C   UNL     1      -8.781  10.108 -13.292  1.00  0.00     0.173 A 
ATOM     80  C   UNL     1      -6.516  10.003 -14.047  1.00  0.00     0.173 A 
ATOM     81  F   UNL     1      -9.712  10.066 -12.328  1.00  0.00    -0.203 F 
ATOM     82  C   UNL     1      -9.190  10.447 -14.587  1.00  0.00     0.198 A 
ATOM     83  C   UNL     1      -6.926  10.334 -15.339  1.00  0.00     0.198 A 
ATOM     84  F   UNL     1      -5.196   9.893 -13.840  1.00  0.00    -0.203 F 
ATOM     85  F   UNL     1     -10.480  10.713 -14.833  1.00  0.00    -0.200 F 
ATOM     86  C   UNL     1      -8.260  10.570 -15.607  1.00  0.00     0.200 A 
ATOM     87  F   UNL     1      -6.011  10.485 -16.307  1.00  0.00    -0.200 F 
ATOM     88  F   UNL     1      -8.642  10.957 -16.832  1.00  0.00    -0.200 F 
ENDBRANCH  54  78
BRANCH  66  89
ATOM     89  C   UNL     1      -7.734   9.353  -6.685  1.00  0.00     0.064 A 
ATOM     90  C   UNL     1      -7.013   8.245  -7.163  1.00  0.00     0.173 A 
ATOM     91  C   UNL     1      -8.615   9.137  -5.618  1.00  0.00     0.173 A 
ATOM     92  F   UNL     1      -6.083   8.386  -8.114  1.00  0.00    -0.203 F 
ATOM     93  C   UNL     1      -7.186   6.976  -6.612  1.00  0.00     0.198 A 
ATOM     94  C   UNL     1      -8.760   7.875  -5.047  1.00  0.00     0.198 A 
ATOM     95  F   UNL     1      -9.287  10.168  -5.083  1.00  0.00    -0.203 F 
ATOM     96  F   UNL     1      -6.478   5.937  -7.082  1.00  0.00    -0.200 F 
ATOM     97  C   UNL     1      -8.050   6.795  -5.547  1.00  0.00     0.200 A 
ATOM     98  F   UNL     1      -9.560   7.714  -3.983  1.00  0.00    -0.200 F 
ATOM     99  F   UNL     1      -8.174   5.587  -4.979  1.00  0.00    -0.200 F 
ENDBRANCH  66  89
ENDBRANCH  40  41
ENDBRANCH  32  35
ENDBRANCH  30  31
ENDBRANCH  29  30
ENDBRANCH  28  29
ENDBRANCH   3  28
TORSDOF 16
