REMARK SMILES CC(C)[C@@H](C(=O)NCCCNC(=O)c1ccc(-c2c3nc(c(-c4c(F)c(F)c(F)c(F)c4F)c4ccc([nH]4)c(-c4c(F)c(F)c(F)c(F)c4F)c4nc(c(-c5c(F)c(F)c(F)c(F)c5F)c5ccc2[nH]5)C=C4)C=C3)cc1)N1C(=O)/C(=C\c2ccc([N+](=O)[O-])cc2)SC1=S
REMARK SMILES IDX 8 1 7 2 5 3 6 4 4 6 2 7 1 8 3 9 77 10 78 11 92 12 79 13
REMARK SMILES IDX 80 14 91 15 93 16 81 17 82 18 83 19 90 20 84 21 89 22 85 23
REMARK SMILES IDX 86 24 87 25 88 26 9 27 10 28 11 29 12 30 13 32 14 33 15 34
REMARK SMILES IDX 76 35 16 36 75 37 17 38 18 39 19 40 69 41 20 42 74 43 68 44
REMARK SMILES IDX 70 45 21 46 73 47 67 48 66 49 22 51 54 52 34 53 53 54 35 55
REMARK SMILES IDX 38 56 52 57 71 58 36 59 37 60 51 62 72 63 39 64 23 65 24 66
REMARK SMILES IDX 32 67 25 68 26 69 30 70 33 71 27 72 28 73 31 74 29 75 55 76
REMARK SMILES IDX 56 77 64 78 57 79 58 80 62 81 65 82 59 83 60 84 63 85 61 86
REMARK SMILES IDX 40 87 41 88 49 89 42 90 43 91 47 92 50 93 44 94 45 95 48 96
REMARK SMILES IDX 46 97
REMARK H PARENT 7 5 11 31 70 50 38 61
REMARK Flexibility Score: inf
ROOT
ATOM      1  C   UNL     1      -0.622  -0.007   1.591  1.00  0.00     0.117 C 
ENDROOT
BRANCH   1   2
ATOM      2  N   UNL     1      -1.119   1.165   0.892  1.00  0.00    -0.354 N 
ATOM      3  C   UNL     1      -1.289   1.456  -0.425  1.00  0.00     0.243 C 
ATOM      4  O   UNL     1      -2.067   2.396  -0.630  1.00  0.00    -0.273 OA
ATOM      5  H   UNL     1      -1.389   1.896   1.494  1.00  0.00     0.163 HD
BRANCH   3   6
ATOM      6  C   UNL     1      -0.663   0.637  -1.592  1.00  0.00     0.184 C 
BRANCH   6   7
ATOM      7  C   UNL     1       0.868   0.577  -1.873  1.00  0.00     0.015 C 
ATOM      8  C   UNL     1       1.767   0.361  -0.673  1.00  0.00     0.010 C 
ATOM      9  C   UNL     1       1.175  -0.529  -2.903  1.00  0.00     0.010 C 
ENDBRANCH   6   7
BRANCH   6  10
ATOM     10  N   UNL     1      -1.364   1.035  -2.855  1.00  0.00    -0.280 N 
ATOM     11  C   UNL     1      -2.051   0.045  -3.540  1.00  0.00     0.266 C 
ATOM     12  C   UNL     1      -1.286   2.271  -3.482  1.00  0.00     0.149 C 
ATOM     13  O   UNL     1      -2.216  -1.093  -3.136  1.00  0.00    -0.268 OA
ATOM     14  C   UNL     1      -2.481   0.541  -4.882  1.00  0.00     0.081 C 
ATOM     15  S   UNL     1      -2.205   2.235  -4.986  1.00  0.00    -0.054 SA
ATOM     16  S   UNL     1      -0.447   3.654  -3.052  1.00  0.00    -0.052 S 
ATOM     17  C   UNL     1      -2.912  -0.182  -5.927  1.00  0.00     0.029 C 
BRANCH  17  18
ATOM     18  C   UNL     1      -3.047  -1.639  -5.933  1.00  0.00    -0.024 A 
ATOM     19  C   UNL     1      -2.179  -2.413  -6.714  1.00  0.00     0.015 A 
ATOM     20  C   UNL     1      -4.007  -2.268  -5.131  1.00  0.00     0.015 A 
ATOM     21  C   UNL     1      -2.232  -3.808  -6.653  1.00  0.00     0.086 A 
ATOM     22  C   UNL     1      -4.058  -3.661  -5.051  1.00  0.00     0.086 A 
ATOM     23  C   UNL     1      -3.159  -4.426  -5.804  1.00  0.00     0.269 A 
BRANCH  23  24
ATOM     24  N   UNL     1      -3.176  -5.888  -5.682  1.00  0.00     0.062 N 
ATOM     25  O   UNL     1      -2.419  -6.536  -6.420  1.00  0.00    -0.258 OA
ATOM     26  O   UNL     1      -3.941  -6.389  -4.846  1.00  0.00    -0.258 OA
ENDBRANCH  23  24
ENDBRANCH  17  18
ENDBRANCH   6  10
ENDBRANCH   3   6
ENDBRANCH   1   2
BRANCH   1  27
ATOM     27  C   UNL     1       0.573   0.311   2.490  1.00  0.00     0.042 C 
BRANCH  27  28
ATOM     28  C   UNL     1       0.297   1.350   3.571  1.00  0.00     0.118 C 
BRANCH  28  29
ATOM     29  N   UNL     1      -0.289   0.760   4.761  1.00  0.00    -0.352 N 
ATOM     30  C   UNL     1       0.265   0.561   6.003  1.00  0.00     0.251 C 
ATOM     31  H   UNL     1      -1.222   0.459   4.665  1.00  0.00     0.163 HD
ATOM     32  O   UNL     1      -0.305  -0.170   6.809  1.00  0.00    -0.269 OA
BRANCH  30  33
ATOM     33  C   UNL     1       1.549   1.202   6.377  1.00  0.00     0.039 A 
ATOM     34  C   UNL     1       2.468   0.476   7.141  1.00  0.00     0.014 A 
ATOM     35  C   UNL     1       1.835   2.525   6.028  1.00  0.00     0.014 A 
ATOM     36  C   UNL     1       3.684   1.058   7.512  1.00  0.00     0.010 A 
ATOM     37  C   UNL     1       3.085   3.071   6.316  1.00  0.00     0.010 A 
ATOM     38  C   UNL     1       4.015   2.352   7.081  1.00  0.00    -0.014 A 
BRANCH  38  39
ATOM     39  C   UNL     1       5.307   2.986   7.458  1.00  0.00     0.031 A 
ATOM     40  C   UNL     1       5.319   4.232   8.304  1.00  0.00     0.074 A 
ATOM     41  C   UNL     1       6.467   2.471   7.008  1.00  0.00     0.049 A 
ATOM     42  N   UNL     1       6.334   4.959   8.701  1.00  0.00    -0.248 NA
ATOM     43  C   UNL     1       4.011   4.746   8.739  1.00  0.00     0.031 C 
ATOM     44  C   UNL     1       6.593   1.290   6.155  1.00  0.00     0.029 A 
ATOM     45  N   UNL     1       7.764   2.878   7.206  1.00  0.00    -0.354 N 
ATOM     46  C   UNL     1       5.785   6.016   9.417  1.00  0.00     0.074 A 
ATOM     47  C   UNL     1       4.348   5.876   9.339  1.00  0.00     0.031 C 
ATOM     48  C   UNL     1       7.895   1.044   5.935  1.00  0.00     0.029 A 
ATOM     49  C   UNL     1       8.693   2.072   6.596  1.00  0.00     0.049 A 
ATOM     50  H   UNL     1       8.004   3.672   7.736  1.00  0.00     0.167 HD
ATOM     51  C   UNL     1       6.419   6.997  10.104  1.00  0.00     0.037 A 
ATOM     52  C   UNL     1      10.037   2.154   6.572  1.00  0.00     0.037 A 
ATOM     53  C   UNL     1       7.850   7.127  10.193  1.00  0.00     0.049 A 
ATOM     54  C   UNL     1      10.719   3.275   7.310  1.00  0.00     0.074 A 
ATOM     55  C   UNL     1       8.593   8.059  10.895  1.00  0.00     0.029 A 
ATOM     56  N   UNL     1       8.758   6.297   9.549  1.00  0.00    -0.354 N 
ATOM     57  N   UNL     1      10.193   4.233   8.034  1.00  0.00    -0.248 NA
ATOM     58  C   UNL     1      12.186   3.320   7.230  1.00  0.00     0.031 C 
ATOM     59  C   UNL     1       9.948   7.825  10.635  1.00  0.00     0.029 A 
ATOM     60  C   UNL     1      10.053   6.710   9.819  1.00  0.00     0.049 A 
ATOM     61  H   UNL     1       8.517   5.527   8.984  1.00  0.00     0.167 HD
ATOM     62  C   UNL     1      11.261   4.972   8.524  1.00  0.00     0.074 A 
ATOM     63  C   UNL     1      12.467   4.345   8.023  1.00  0.00     0.031 C 
ATOM     64  C   UNL     1      11.245   6.070   9.320  1.00  0.00     0.037 A 
BRANCH  51  65
ATOM     65  C   UNL     1       5.558   8.008  10.811  1.00  0.00     0.064 A 
ATOM     66  C   UNL     1       4.754   7.654  11.907  1.00  0.00     0.173 A 
ATOM     67  C   UNL     1       5.533   9.345  10.389  1.00  0.00     0.173 A 
ATOM     68  F   UNL     1       4.732   6.387  12.347  1.00  0.00    -0.203 F 
ATOM     69  C   UNL     1       3.922   8.588  12.519  1.00  0.00     0.198 A 
ATOM     70  C   UNL     1       4.727  10.285  11.027  1.00  0.00     0.198 A 
ATOM     71  F   UNL     1       6.287   9.743   9.353  1.00  0.00    -0.203 F 
ATOM     72  F   UNL     1       3.110   8.207  13.515  1.00  0.00    -0.200 F 
ATOM     73  C   UNL     1       3.912   9.903  12.082  1.00  0.00     0.200 A 
ATOM     74  F   UNL     1       4.730  11.560  10.614  1.00  0.00    -0.200 F 
ATOM     75  F   UNL     1       3.108  10.800  12.670  1.00  0.00    -0.200 F 
ENDBRANCH  51  65
BRANCH  52  76
ATOM     76  C   UNL     1      10.831   1.117   5.862  1.00  0.00     0.064 A 
ATOM     77  C   UNL     1      11.616   0.203   6.579  1.00  0.00     0.173 A 
ATOM     78  C   UNL     1      10.820   1.010   4.464  1.00  0.00     0.173 A 
ATOM     79  F   UNL     1      11.675   0.278   7.917  1.00  0.00    -0.203 F 
ATOM     80  C   UNL     1      12.372  -0.767   5.925  1.00  0.00     0.198 A 
ATOM     81  C   UNL     1      11.554   0.021   3.812  1.00  0.00     0.198 A 
ATOM     82  F   UNL     1      10.082   1.857   3.731  1.00  0.00    -0.203 F 
ATOM     83  F   UNL     1      13.145  -1.601   6.634  1.00  0.00    -0.200 F 
ATOM     84  C   UNL     1      12.335  -0.862   4.543  1.00  0.00     0.200 A 
ATOM     85  F   UNL     1      11.504  -0.076   2.477  1.00  0.00    -0.200 F 
ATOM     86  F   UNL     1      13.056  -1.800   3.914  1.00  0.00    -0.200 F 
ENDBRANCH  52  76
BRANCH  64  87
ATOM     87  C   UNL     1      12.571   6.638   9.740  1.00  0.00     0.064 A 
ATOM     88  C   UNL     1      13.411   7.303   8.835  1.00  0.00     0.173 A 
ATOM     89  C   UNL     1      12.989   6.544  11.077  1.00  0.00     0.173 A 
ATOM     90  F   UNL     1      13.066   7.406   7.543  1.00  0.00    -0.203 F 
ATOM     91  C   UNL     1      14.633   7.828   9.247  1.00  0.00     0.198 A 
ATOM     92  C   UNL     1      14.196   7.100  11.492  1.00  0.00     0.198 A 
ATOM     93  F   UNL     1      12.220   5.924  11.984  1.00  0.00    -0.203 F 
ATOM     94  F   UNL     1      15.444   8.413   8.354  1.00  0.00    -0.200 F 
ATOM     95  C   UNL     1      15.021   7.734  10.575  1.00  0.00     0.200 A 
ATOM     96  F   UNL     1      14.561   7.021  12.779  1.00  0.00    -0.200 F 
ATOM     97  F   UNL     1      16.194   8.247  10.971  1.00  0.00    -0.200 F 
ENDBRANCH  64  87
ENDBRANCH  38  39
ENDBRANCH  30  33
ENDBRANCH  28  29
ENDBRANCH  27  28
ENDBRANCH   1  27
TORSDOF 14
