REMARK SMILES Cc1c(C(=O)NCCCNC(=O)c2ccc(-c3c4nc(c(-c5c(F)c(F)c(F)c(F)c5F)c5ccc([nH]5)c(-c5c(F)c(F)c(F)c(F)c5F)c5nc(c(-c6c(F)c(F)c(F)c(F)c6F)c6ccc3[nH]6)C=C5)C=C4)cc2)sc2ncn(N3CCCCCC3)c(=O)c12
REMARK SMILES IDX 7 1 6 2 4 3 5 4 3 6 1 7 2 8 90 9 76 10 77 11 88 12 78 13
REMARK SMILES IDX 80 14 89 15 79 16 81 17 82 18 83 19 84 20 87 22 86 23 85 24
REMARK SMILES IDX 8 26 9 27 10 28 11 29 12 31 13 32 14 33 75 34 15 35 74 36
REMARK SMILES IDX 16 37 17 38 18 39 68 40 19 41 73 42 67 43 69 44 20 45 72 46
REMARK SMILES IDX 66 47 65 48 21 50 53 51 33 52 52 53 34 54 37 55 51 56 70 57
REMARK SMILES IDX 35 58 36 59 50 61 71 62 38 63 22 64 23 65 31 66 24 67 25 68
REMARK SMILES IDX 29 69 32 70 26 71 27 72 30 73 28 74 54 75 55 76 63 77 56 78
REMARK SMILES IDX 57 79 61 80 64 81 58 82 59 83 62 84 60 85 39 86 40 87 48 88
REMARK SMILES IDX 41 89 42 90 46 91 49 92 43 93 44 94 47 95 45 96
REMARK H PARENT 6 5 10 30 69 49 37 60
REMARK Flexibility Score: 90.00
ROOT
ATOM      1  C   UNL     1      -1.662   1.285   4.750  1.00  0.00     0.118 C 
ENDROOT
BRANCH   1   2
ATOM      2  N   UNL     1      -1.056   1.928   3.595  1.00  0.00    -0.351 N 
ATOM      3  C   UNL     1      -0.272   1.448   2.570  1.00  0.00     0.261 C 
ATOM      4  O   UNL     1       0.046   2.301   1.737  1.00  0.00    -0.268 OA
ATOM      5  H   UNL     1      -1.243   2.892   3.534  1.00  0.00     0.163 HD
BRANCH   3   6
ATOM      6  C   UNL     1       0.113   0.041   2.447  1.00  0.00     0.098 A 
ATOM      7  C   UNL     1       0.786  -0.026  -0.053  1.00  0.00     0.047 C 
ATOM      8  C   UNL     1       0.529  -0.636   1.295  1.00  0.00    -0.012 A 
ATOM      9  C   UNL     1       0.676  -2.051   1.557  1.00  0.00     0.082 A 
ATOM     10  S   UNL     1       0.246  -0.992   3.809  1.00  0.00    -0.110 S 
ATOM     11  C   UNL     1       0.504  -2.370   2.881  1.00  0.00     0.131 A 
ATOM     12  C   UNL     1       0.993  -3.135   0.637  1.00  0.00     0.281 A 
ATOM     13  N   UNL     1       0.575  -3.593   3.462  1.00  0.00    -0.225 NA
ATOM     14  N   UNL     1       1.127  -4.379   1.286  1.00  0.00    -0.210 N 
ATOM     15  O   UNL     1       1.119  -2.951  -0.564  1.00  0.00    -0.267 OA
ATOM     16  C   UNL     1       0.893  -4.541   2.641  1.00  0.00     0.226 A 
BRANCH  14  17
ATOM     17  N   UNL     1       1.514  -5.481   0.522  1.00  0.00    -0.309 N 
BRANCH  17  18
ATOM     18  C   UNL     1       2.930  -5.661   0.282  1.00  0.00     0.137 C 
BRANCH  18  19
ATOM     19  C   UNL     1       3.270  -5.358  -1.178  1.00  0.00     0.023 C 
BRANCH  19  20
ATOM     20  C   UNL     1       2.707  -6.338  -2.210  1.00  0.00     0.002 CG0
ATOM     21  G   UNL     1       1.216  -6.668  -2.100  1.00  0.00     0.000 G0
ENDBRANCH  19  20
ENDBRANCH  18  19
ENDBRANCH  17  18
BRANCH  17  22
ATOM     22  C   UNL     1       0.581  -6.573   0.370  1.00  0.00     0.137 C 
BRANCH  22  23
ATOM     23  C   UNL     1       0.876  -7.463  -0.837  1.00  0.00     0.023 C 
BRANCH  23  24
ATOM     24  C   UNL     1       1.216  -6.668  -2.100  1.00  0.00     0.002 CG0
ATOM     25  G   UNL     1       2.707  -6.338  -2.210  1.00  0.00     0.000 G0
ENDBRANCH  23  24
ENDBRANCH  22  23
ENDBRANCH  17  22
ENDBRANCH  14  17
ENDBRANCH   3   6
ENDBRANCH   1   2
BRANCH   1  26
ATOM     26  C   UNL     1      -0.735   1.328   5.973  1.00  0.00     0.042 C 
BRANCH  26  27
ATOM     27  C   UNL     1      -0.858   2.652   6.699  1.00  0.00     0.118 C 
BRANCH  27  28
ATOM     28  N   UNL     1      -2.165   2.792   7.339  1.00  0.00    -0.352 N 
ATOM     29  C   UNL     1      -2.638   3.817   8.124  1.00  0.00     0.251 C 
ATOM     30  H   UNL     1      -2.794   2.050   7.186  1.00  0.00     0.163 HD
ATOM     31  O   UNL     1      -3.622   3.656   8.835  1.00  0.00    -0.269 OA
BRANCH  29  32
ATOM     32  C   UNL     1      -1.952   5.116   8.088  1.00  0.00     0.039 A 
ATOM     33  C   UNL     1      -1.835   5.894   9.243  1.00  0.00     0.014 A 
ATOM     34  C   UNL     1      -1.446   5.564   6.868  1.00  0.00     0.014 A 
ATOM     35  C   UNL     1      -1.176   7.113   9.158  1.00  0.00     0.010 A 
ATOM     36  C   UNL     1      -0.653   6.676   6.819  1.00  0.00     0.010 A 
ATOM     37  C   UNL     1      -0.593   7.489   7.938  1.00  0.00    -0.014 A 
BRANCH  37  38
ATOM     38  C   UNL     1       0.171   8.714   7.817  1.00  0.00     0.031 A 
ATOM     39  C   UNL     1       1.381   8.742   8.672  1.00  0.00     0.074 A 
ATOM     40  C   UNL     1      -0.091   9.636   6.867  1.00  0.00     0.049 A 
ATOM     41  N   UNL     1       1.575   9.471   9.719  1.00  0.00    -0.248 NA
ATOM     42  C   UNL     1       2.425   7.729   8.447  1.00  0.00     0.031 C 
ATOM     43  C   UNL     1      -1.056   9.575   5.763  1.00  0.00     0.029 A 
ATOM     44  N   UNL     1       0.528  10.825   6.652  1.00  0.00    -0.354 N 
ATOM     45  C   UNL     1       2.852   9.158  10.170  1.00  0.00     0.074 A 
ATOM     46  C   UNL     1       3.244   7.959   9.476  1.00  0.00     0.031 C 
ATOM     47  C   UNL     1      -0.803  10.572   4.883  1.00  0.00     0.029 A 
ATOM     48  C   UNL     1       0.224  11.432   5.439  1.00  0.00     0.049 A 
ATOM     49  H   UNL     1       1.146  11.226   7.305  1.00  0.00     0.167 HD
ATOM     50  C   UNL     1       3.570  10.063  10.889  1.00  0.00     0.037 A 
ATOM     51  C   UNL     1       0.814  12.547   4.938  1.00  0.00     0.037 A 
ATOM     52  C   UNL     1       2.714  11.109  11.394  1.00  0.00     0.049 A 
ATOM     53  C   UNL     1       1.442  13.252   6.088  1.00  0.00     0.074 A 
ATOM     54  C   UNL     1       1.631  11.141  12.251  1.00  0.00     0.029 A 
ATOM     55  N   UNL     1       2.667  12.288  10.690  1.00  0.00    -0.354 N 
ATOM     56  N   UNL     1       0.759  13.799   7.057  1.00  0.00    -0.248 NA
ATOM     57  C   UNL     1       2.820  12.910   6.406  1.00  0.00     0.031 C 
ATOM     58  C   UNL     1       0.733  12.087  11.674  1.00  0.00     0.029 A 
ATOM     59  C   UNL     1       1.349  12.640  10.551  1.00  0.00     0.049 A 
ATOM     60  H   UNL     1       3.442  12.790  10.346  1.00  0.00     0.167 HD
ATOM     61  C   UNL     1       1.463  13.478   8.208  1.00  0.00     0.074 A 
ATOM     62  C   UNL     1       2.757  12.982   7.739  1.00  0.00     0.031 C 
ATOM     63  C   UNL     1       0.828  13.359   9.410  1.00  0.00     0.037 A 
BRANCH  50  64
ATOM     64  C   UNL     1       5.067  10.222  10.815  1.00  0.00     0.064 A 
ATOM     65  C   UNL     1       5.702  11.115  11.701  1.00  0.00     0.173 A 
ATOM     66  C   UNL     1       5.856   9.774   9.733  1.00  0.00     0.173 A 
ATOM     67  F   UNL     1       5.041  11.620  12.753  1.00  0.00    -0.203 F 
ATOM     68  C   UNL     1       6.999  11.583  11.474  1.00  0.00     0.198 A 
ATOM     69  C   UNL     1       7.168  10.202   9.540  1.00  0.00     0.198 A 
ATOM     70  F   UNL     1       5.364   9.003   8.758  1.00  0.00    -0.203 F 
ATOM     71  F   UNL     1       7.512  12.530  12.271  1.00  0.00    -0.200 F 
ATOM     72  C   UNL     1       7.729  11.131  10.391  1.00  0.00     0.200 A 
ATOM     73  F   UNL     1       7.851   9.767   8.472  1.00  0.00    -0.200 F 
ATOM     74  F   UNL     1       8.947  11.623  10.136  1.00  0.00    -0.200 F 
ENDBRANCH  50  64
BRANCH  51  75
ATOM     75  C   UNL     1       1.194  12.843   3.533  1.00  0.00     0.064 A 
ATOM     76  C   UNL     1       1.598  14.136   3.154  1.00  0.00     0.173 A 
ATOM     77  C   UNL     1       1.470  11.811   2.615  1.00  0.00     0.173 A 
ATOM     78  F   UNL     1       1.411  15.171   3.986  1.00  0.00    -0.203 F 
ATOM     79  C   UNL     1       2.273  14.374   1.951  1.00  0.00     0.198 A 
ATOM     80  C   UNL     1       2.141  12.050   1.414  1.00  0.00     0.198 A 
ATOM     81  F   UNL     1       1.185  10.535   2.912  1.00  0.00    -0.203 F 
ATOM     82  F   UNL     1       2.705  15.609   1.658  1.00  0.00    -0.200 F 
ATOM     83  C   UNL     1       2.557  13.328   1.089  1.00  0.00     0.200 A 
ATOM     84  F   UNL     1       2.444  11.024   0.606  1.00  0.00    -0.200 F 
ATOM     85  F   UNL     1       3.268  13.542  -0.027  1.00  0.00    -0.200 F 
ENDBRANCH  51  75
BRANCH  63  86
ATOM     86  C   UNL     1      -0.604  13.813   9.504  1.00  0.00     0.064 A 
ATOM     87  C   UNL     1      -1.673  13.208   8.818  1.00  0.00     0.173 A 
ATOM     88  C   UNL     1      -0.924  14.782  10.463  1.00  0.00     0.173 A 
ATOM     89  F   UNL     1      -1.461  12.213   7.949  1.00  0.00    -0.203 F 
ATOM     90  C   UNL     1      -2.995  13.575   9.069  1.00  0.00     0.198 A 
ATOM     91  C   UNL     1      -2.246  15.120  10.737  1.00  0.00     0.198 A 
ATOM     92  F   UNL     1       0.050  15.358  11.184  1.00  0.00    -0.203 F 
ATOM     93  F   UNL     1      -3.997  12.980   8.403  1.00  0.00    -0.200 F 
ATOM     94  C   UNL     1      -3.281  14.522  10.037  1.00  0.00     0.200 A 
ATOM     95  F   UNL     1      -2.518  16.002  11.709  1.00  0.00    -0.200 F 
ATOM     96  F   UNL     1      -4.553  14.838  10.317  1.00  0.00    -0.200 F 
ENDBRANCH  63  86
ENDBRANCH  37  38
ENDBRANCH  29  32
ENDBRANCH  27  28
ENDBRANCH  26  27
ENDBRANCH   1  26
TORSDOF 11
