REMARK SMILES C[C@H](NC(=O)OCc1ccccc1)C(=O)NCC(=O)N1CCC[C@H]1C(=O)NCCCNC(=O)c1ccc(-c2c3nc(c(-c4c(F)c(F)c(F)c(F)c4F)c4ccc([nH]4)c(-c4c(F)c(F)c(F)c(F)c4F)c4nc(c(-c5c(F)c(F)c(F)c(F)c5F)c5ccc2[nH]5)C=C4)C=C3)cc1
REMARK SMILES IDX 20 1 21 2 22 3 23 4 24 5 18 6 19 7 17 8 16 9 14 10 15 11
REMARK SMILES IDX 2 13 1 14 3 15 4 16 5 18 6 19 7 20 8 21 9 22 13 23 10 24
REMARK SMILES IDX 12 25 11 26 25 27 26 28 27 29 28 31 29 32 30 33 31 34 32 35
REMARK SMILES IDX 33 37 34 38 35 39 96 40 36 41 95 42 37 43 38 44 39 45 89 46
REMARK SMILES IDX 40 47 94 48 88 49 90 50 41 51 93 52 87 53 86 54 42 56 74 57
REMARK SMILES IDX 54 58 73 59 55 60 58 61 72 62 91 63 56 64 57 65 71 67 92 68
REMARK SMILES IDX 59 69 43 70 44 71 52 72 45 73 46 74 50 75 53 76 47 77 48 78
REMARK SMILES IDX 51 79 49 80 75 81 76 82 84 83 77 84 78 85 82 86 85 87 79 88
REMARK SMILES IDX 80 89 83 90 81 91 60 92 61 93 69 94 62 95 63 96 67 97 70 98
REMARK SMILES IDX 64 99 65 100 68 101 66 102
REMARK H PARENT 16 12 3 17 27 30 31 36 90 55 58 66
REMARK Flexibility Score: inf
ROOT
ATOM      1  N   UNL     1      -0.959  -1.531  -1.982  1.00  0.00    -0.329 N 
ATOM      2  C   UNL     1      -1.119  -1.929  -0.599  1.00  0.00     0.120 C 
ATOM      3  C   UNL     1       0.009  -2.922  -0.351  1.00  0.00     0.024 C 
ATOM      4  C   UNL     1       0.429  -3.446  -1.731  1.00  0.00     0.037 C 
ATOM      5  C   UNL     1      -0.352  -2.622  -2.755  1.00  0.00     0.174 C 
ENDROOT
BRANCH   1   6
ATOM      6  C   UNL     1      -1.252  -0.350  -2.630  1.00  0.00     0.242 C 
ATOM      7  O   UNL     1      -1.296  -0.313  -3.865  1.00  0.00    -0.273 OA
BRANCH   6   8
ATOM      8  C   UNL     1      -1.257   1.002  -1.891  1.00  0.00     0.216 C 
BRANCH   8   9
ATOM      9  N   UNL     1      -1.627   1.104  -0.493  1.00  0.00    -0.345 N 
ATOM     10  C   UNL     1      -0.863   1.384   0.606  1.00  0.00     0.242 C 
ATOM     11  O   UNL     1      -1.457   1.583   1.669  1.00  0.00    -0.273 OA
ATOM     12  H   UNL     1      -2.580   0.945  -0.305  1.00  0.00     0.164 HD
BRANCH  10  13
ATOM     13  C   UNL     1       0.672   1.552   0.506  1.00  0.00     0.171 C 
ATOM     14  C   UNL     1       1.013   2.935  -0.039  1.00  0.00     0.042 C 
BRANCH  13  15
ATOM     15  N   UNL     1       1.241   0.461  -0.274  1.00  0.00    -0.310 N 
ATOM     16  C   UNL     1       2.519   0.224  -0.646  1.00  0.00     0.408 C 
ATOM     17  H   UNL     1       0.590  -0.211  -0.579  1.00  0.00     0.167 HD
ATOM     18  O   UNL     1       2.779  -0.757  -1.333  1.00  0.00    -0.225 OA
BRANCH  16  19
ATOM     19  O   UNL     1       3.388   1.172  -0.243  1.00  0.00    -0.445 OA
BRANCH  19  20
ATOM     20  C   UNL     1       4.685   1.059  -0.841  1.00  0.00     0.270 C 
BRANCH  20  21
ATOM     21  C   UNL     1       5.547   0.039  -0.142  1.00  0.00    -0.011 A 
ATOM     22  C   UNL     1       5.817   0.150   1.228  1.00  0.00     0.007 A 
ATOM     23  C   UNL     1       6.097  -1.032  -0.860  1.00  0.00     0.007 A 
ATOM     24  C   UNL     1       6.630  -0.789   1.865  1.00  0.00     0.000 A 
ATOM     25  C   UNL     1       6.910  -1.969  -0.223  1.00  0.00     0.000 A 
ATOM     26  C   UNL     1       7.178  -1.845   1.139  1.00  0.00     0.000 A 
ENDBRANCH  20  21
ENDBRANCH  19  20
ENDBRANCH  16  19
ENDBRANCH  13  15
ENDBRANCH  10  13
ENDBRANCH   8   9
ENDBRANCH   6   8
ENDBRANCH   1   6
BRANCH   5  27
ATOM     27  C   UNL     1      -1.320  -3.432  -3.654  1.00  0.00     0.242 C 
ATOM     28  O   UNL     1      -1.294  -3.309  -4.884  1.00  0.00    -0.273 OA
ATOM     29  N   UNL     1      -2.247  -4.307  -3.178  1.00  0.00    -0.354 N 
ATOM     30  H   UNL     1      -2.861  -4.648  -3.868  1.00  0.00     0.163 HD
BRANCH  29  31
ATOM     31  C   UNL     1      -2.505  -4.833  -1.857  1.00  0.00     0.117 C 
BRANCH  31  32
ATOM     32  C   UNL     1      -3.863  -4.413  -1.321  1.00  0.00     0.042 C 
BRANCH  32  33
ATOM     33  C   UNL     1      -5.019  -5.093  -2.035  1.00  0.00     0.118 C 
BRANCH  33  34
ATOM     34  N   UNL     1      -4.984  -6.543  -1.882  1.00  0.00    -0.352 N 
ATOM     35  C   UNL     1      -5.824  -7.389  -1.205  1.00  0.00     0.251 C 
ATOM     36  H   UNL     1      -4.235  -6.987  -2.341  1.00  0.00     0.163 HD
ATOM     37  O   UNL     1      -5.476  -8.546  -0.990  1.00  0.00    -0.269 OA
BRANCH  35  38
ATOM     38  C   UNL     1      -7.136  -6.911  -0.723  1.00  0.00     0.039 A 
ATOM     39  C   UNL     1      -7.614  -7.373   0.506  1.00  0.00     0.014 A 
ATOM     40  C   UNL     1      -7.906  -6.030  -1.485  1.00  0.00     0.014 A 
ATOM     41  C   UNL     1      -8.829  -6.896   0.996  1.00  0.00     0.010 A 
ATOM     42  C   UNL     1      -9.059  -5.472  -0.947  1.00  0.00     0.010 A 
ATOM     43  C   UNL     1      -9.539  -5.907   0.294  1.00  0.00    -0.014 A 
BRANCH  43  44
ATOM     44  C   UNL     1     -10.784  -5.320   0.848  1.00  0.00     0.031 A 
ATOM     45  C   UNL     1     -12.085  -5.457   0.105  1.00  0.00     0.074 A 
ATOM     46  C   UNL     1     -10.727  -4.617   1.995  1.00  0.00     0.049 A 
ATOM     47  N   UNL     1     -13.267  -4.985   0.413  1.00  0.00    -0.248 NA
ATOM     48  C   UNL     1     -12.052  -6.198  -1.167  1.00  0.00     0.031 C 
ATOM     49  C   UNL     1      -9.512  -4.364   2.772  1.00  0.00     0.029 A 
ATOM     50  N   UNL     1     -11.713  -3.983   2.708  1.00  0.00    -0.354 N 
ATOM     51  C   UNL     1     -14.107  -5.361  -0.626  1.00  0.00     0.074 A 
ATOM     52  C   UNL     1     -13.292  -6.044  -1.606  1.00  0.00     0.031 C 
ATOM     53  C   UNL     1      -9.829  -3.661   3.870  1.00  0.00     0.029 A 
ATOM     54  C   UNL     1     -11.259  -3.374   3.853  1.00  0.00     0.049 A 
ATOM     55  H   UNL     1     -12.656  -3.966   2.426  1.00  0.00     0.167 HD
ATOM     56  C   UNL     1     -15.444  -5.178  -0.739  1.00  0.00     0.037 A 
ATOM     57  C   UNL     1     -11.923  -2.658   4.780  1.00  0.00     0.037 A 
ATOM     58  C   UNL     1     -16.252  -4.514   0.250  1.00  0.00     0.049 A 
ATOM     59  C   UNL     1     -13.406  -2.462   4.623  1.00  0.00     0.074 A 
ATOM     60  C   UNL     1     -17.624  -4.332   0.262  1.00  0.00     0.029 A 
ATOM     61  N   UNL     1     -15.760  -3.917   1.401  1.00  0.00    -0.354 N 
ATOM     62  N   UNL     1     -14.205  -2.896   3.678  1.00  0.00    -0.248 NA
ATOM     63  C   UNL     1     -14.083  -1.684   5.669  1.00  0.00     0.031 C 
ATOM     64  C   UNL     1     -17.954  -3.571   1.387  1.00  0.00     0.029 A 
ATOM     65  C   UNL     1     -16.797  -3.337   2.114  1.00  0.00     0.049 A 
ATOM     66  H   UNL     1     -14.813  -3.906   1.672  1.00  0.00     0.167 HD
ATOM     67  C   UNL     1     -15.478  -2.468   4.027  1.00  0.00     0.074 A 
ATOM     68  C   UNL     1     -15.349  -1.763   5.286  1.00  0.00     0.031 C 
ATOM     69  C   UNL     1     -16.650  -2.638   3.366  1.00  0.00     0.037 A 
BRANCH  56  70
ATOM     70  C   UNL     1     -16.120  -5.705  -1.973  1.00  0.00     0.064 A 
ATOM     71  C   UNL     1     -16.244  -7.082  -2.217  1.00  0.00     0.173 A 
ATOM     72  C   UNL     1     -16.695  -4.823  -2.901  1.00  0.00     0.173 A 
ATOM     73  F   UNL     1     -15.704  -7.970  -1.369  1.00  0.00    -0.203 F 
ATOM     74  C   UNL     1     -16.893  -7.555  -3.355  1.00  0.00     0.198 A 
ATOM     75  C   UNL     1     -17.373  -5.300  -4.020  1.00  0.00     0.198 A 
ATOM     76  F   UNL     1     -16.610  -3.497  -2.717  1.00  0.00    -0.203 F 
ATOM     77  F   UNL     1     -16.955  -8.873  -3.590  1.00  0.00    -0.200 F 
ATOM     78  C   UNL     1     -17.465  -6.664  -4.250  1.00  0.00     0.200 A 
ATOM     79  F   UNL     1     -17.939  -4.438  -4.876  1.00  0.00    -0.200 F 
ATOM     80  F   UNL     1     -18.102  -7.120  -5.338  1.00  0.00    -0.200 F 
ENDBRANCH  56  70
BRANCH  57  81
ATOM     81  C   UNL     1     -11.195  -2.086   5.944  1.00  0.00     0.064 A 
ATOM     82  C   UNL     1     -11.441  -2.545   7.246  1.00  0.00     0.173 A 
ATOM     83  C   UNL     1     -10.254  -1.059   5.784  1.00  0.00     0.173 A 
ATOM     84  F   UNL     1     -12.345  -3.514   7.455  1.00  0.00    -0.203 F 
ATOM     85  C   UNL     1     -10.798  -1.977   8.344  1.00  0.00     0.198 A 
ATOM     86  C   UNL     1      -9.585  -0.516   6.879  1.00  0.00     0.198 A 
ATOM     87  F   UNL     1      -9.974  -0.588   4.560  1.00  0.00    -0.203 F 
ATOM     88  F   UNL     1     -11.096  -2.395   9.582  1.00  0.00    -0.200 F 
ATOM     89  C   UNL     1      -9.866  -0.967   8.160  1.00  0.00     0.200 A 
ATOM     90  F   UNL     1      -8.671   0.446   6.694  1.00  0.00    -0.200 F 
ATOM     91  F   UNL     1      -9.247  -0.422   9.215  1.00  0.00    -0.200 F 
ENDBRANCH  57  81
BRANCH  69  92
ATOM     92  C   UNL     1     -17.887  -2.079   4.009  1.00  0.00     0.064 A 
ATOM     93  C   UNL     1     -18.103  -0.698   4.120  1.00  0.00     0.173 A 
ATOM     94  C   UNL     1     -18.881  -2.939   4.504  1.00  0.00     0.173 A 
ATOM     95  F   UNL     1     -17.179   0.168   3.676  1.00  0.00    -0.203 F 
ATOM     96  C   UNL     1     -19.247  -0.199   4.737  1.00  0.00     0.198 A 
ATOM     97  C   UNL     1     -20.041  -2.437   5.084  1.00  0.00     0.198 A 
ATOM     98  F   UNL     1     -18.730  -4.270   4.415  1.00  0.00    -0.203 F 
ATOM     99  F   UNL     1     -19.400   1.124   4.890  1.00  0.00    -0.200 F 
ATOM    100  C   UNL     1     -20.218  -1.068   5.212  1.00  0.00     0.200 A 
ATOM    101  F   UNL     1     -20.986  -3.278   5.526  1.00  0.00    -0.200 F 
ATOM    102  F   UNL     1     -21.320  -0.585   5.801  1.00  0.00    -0.200 F 
ENDBRANCH  69  92
ENDBRANCH  43  44
ENDBRANCH  35  38
ENDBRANCH  33  34
ENDBRANCH  32  33
ENDBRANCH  31  32
ENDBRANCH  29  31
ENDBRANCH   5  27
TORSDOF 18
