REMARK SMILES O=C(NCCCNC(=O)[C@H]1CC2=c3ccccc3=N[C@H]2[C@H](c2ccccc2F)[NH2+]1)c1ccc(-c2c3nc(c(-c4c(F)c(F)c(F)c(F)c4F)c4ccc([nH]4)c(-c4c(F)c(F)c(F)c(F)c4F)c4nc(c(-c5c(F)c(F)c(F)c(F)c5F)c5ccc2[nH]5)C=C4)C=C3)cc1
REMARK SMILES IDX 4 1 3 2 1 3 2 4 30 6 31 7 92 8 32 9 91 10 33 11 34 12 35 13
REMARK SMILES IDX 85 14 36 15 90 16 84 17 86 18 37 19 89 20 83 21 82 22 38 24
REMARK SMILES IDX 70 25 50 26 69 27 51 28 54 29 68 30 87 31 52 32 53 33 67 35
REMARK SMILES IDX 88 36 55 37 39 38 40 39 48 40 41 41 42 42 46 43 49 44 43 45
REMARK SMILES IDX 44 46 47 47 45 48 71 49 72 50 80 51 73 52 74 53 78 54 81 55
REMARK SMILES IDX 75 56 76 57 79 58 77 59 56 60 57 61 65 62 58 63 59 64 63 65
REMARK SMILES IDX 66 66 60 67 61 68 64 69 62 70 5 71 6 72 7 73 8 74 9 76 10 77
REMARK SMILES IDX 11 78 29 79 12 80 21 81 13 84 20 85 14 86 18 87 19 88 15 89
REMARK SMILES IDX 17 90 16 91 22 92 23 93 27 94 24 95 26 96 28 97 25 98
REMARK H PARENT 3 5 86 23 54 34 7 75 29 82 29 83
REMARK Flexibility Score: inf
ROOT
ATOM      1  C   UNL     1       4.386  -0.710   1.103  1.00  0.00     0.118 C 
ENDROOT
BRANCH   1   2
ATOM      2  N   UNL     1       3.027  -0.933   0.633  1.00  0.00    -0.352 N 
ATOM      3  O   UNL     1       1.069  -0.351  -0.298  1.00  0.00    -0.269 OA
ATOM      4  C   UNL     1       2.295  -0.239  -0.290  1.00  0.00     0.251 C 
ATOM      5  H   UNL     1       2.565  -1.700   1.042  1.00  0.00     0.163 HD
BRANCH   4   6
ATOM      6  C   UNL     1       2.950   0.621  -1.297  1.00  0.00     0.039 A 
ATOM      7  C   UNL     1       2.324   1.816  -1.671  1.00  0.00     0.014 A 
ATOM      8  C   UNL     1       4.085   0.181  -1.985  1.00  0.00     0.014 A 
ATOM      9  C   UNL     1       2.825   2.562  -2.741  1.00  0.00     0.010 A 
ATOM     10  C   UNL     1       4.617   0.952  -3.016  1.00  0.00     0.010 A 
ATOM     11  C   UNL     1       3.965   2.124  -3.430  1.00  0.00    -0.014 A 
BRANCH  11  12
ATOM     12  C   UNL     1       4.407   2.782  -4.683  1.00  0.00     0.031 A 
ATOM     13  C   UNL     1       4.217   2.061  -5.989  1.00  0.00     0.074 A 
ATOM     14  C   UNL     1       4.985   3.995  -4.657  1.00  0.00     0.049 A 
ATOM     15  N   UNL     1       4.649   2.374  -7.184  1.00  0.00    -0.248 NA
ATOM     16  C   UNL     1       3.451   0.805  -5.935  1.00  0.00     0.031 C 
ATOM     17  C   UNL     1       5.196   4.806  -3.461  1.00  0.00     0.029 A 
ATOM     18  N   UNL     1       5.505   4.752  -5.676  1.00  0.00    -0.354 N 
ATOM     19  C   UNL     1       4.230   1.343  -8.016  1.00  0.00     0.074 A 
ATOM     20  C   UNL     1       3.543   0.378  -7.185  1.00  0.00     0.031 C 
ATOM     21  C   UNL     1       5.780   5.963  -3.817  1.00  0.00     0.029 A 
ATOM     22  C   UNL     1       6.022   5.952  -5.258  1.00  0.00     0.049 A 
ATOM     23  H   UNL     1       5.506   4.463  -6.617  1.00  0.00     0.167 HD
ATOM     24  C   UNL     1       4.388   1.221  -9.355  1.00  0.00     0.037 A 
ATOM     25  C   UNL     1       6.630   6.925  -5.962  1.00  0.00     0.037 A 
ATOM     26  C   UNL     1       5.049   2.193 -10.183  1.00  0.00     0.049 A 
ATOM     27  C   UNL     1       6.833   6.750  -7.442  1.00  0.00     0.074 A 
ATOM     28  C   UNL     1       5.268   2.163 -11.548  1.00  0.00     0.029 A 
ATOM     29  N   UNL     1       5.588   3.384  -9.716  1.00  0.00    -0.354 N 
ATOM     30  N   UNL     1       6.472   5.755  -8.214  1.00  0.00    -0.248 NA
ATOM     31  C   UNL     1       7.540   7.831  -8.144  1.00  0.00     0.031 C 
ATOM     32  C   UNL     1       5.960   3.327 -11.905  1.00  0.00     0.029 A 
ATOM     33  C   UNL     1       6.141   4.097 -10.767  1.00  0.00     0.049 A 
ATOM     34  H   UNL     1       5.578   3.678  -8.777  1.00  0.00     0.167 HD
ATOM     35  C   UNL     1       6.893   6.091  -9.493  1.00  0.00     0.074 A 
ATOM     36  C   UNL     1       7.526   7.392  -9.395  1.00  0.00     0.031 C 
ATOM     37  C   UNL     1       6.770   5.387 -10.645  1.00  0.00     0.037 A 
BRANCH  24  38
ATOM     38  C   UNL     1       3.836  -0.017  -9.997  1.00  0.00     0.064 A 
ATOM     39  C   UNL     1       2.453  -0.213 -10.141  1.00  0.00     0.173 A 
ATOM     40  C   UNL     1       4.694  -1.020 -10.472  1.00  0.00     0.173 A 
ATOM     41  F   UNL     1       1.591   0.708  -9.686  1.00  0.00    -0.203 F 
ATOM     42  C   UNL     1       1.950  -1.382 -10.706  1.00  0.00     0.198 A 
ATOM     43  C   UNL     1       4.188  -2.176 -11.061  1.00  0.00     0.198 A 
ATOM     44  F   UNL     1       6.023  -0.881 -10.361  1.00  0.00    -0.203 F 
ATOM     45  F   UNL     1       0.625  -1.571 -10.781  1.00  0.00    -0.200 F 
ATOM     46  C   UNL     1       2.817  -2.360 -11.169  1.00  0.00     0.200 A 
ATOM     47  F   UNL     1       5.026  -3.117 -11.516  1.00  0.00    -0.200 F 
ATOM     48  F   UNL     1       2.331  -3.486 -11.710  1.00  0.00    -0.200 F 
ENDBRANCH  24  38
BRANCH  25  49
ATOM     49  C   UNL     1       7.060   8.165  -5.271  1.00  0.00     0.064 A 
ATOM     50  C   UNL     1       6.345   9.357  -5.446  1.00  0.00     0.173 A 
ATOM     51  C   UNL     1       8.158   8.180  -4.401  1.00  0.00     0.173 A 
ATOM     52  F   UNL     1       5.300   9.393  -6.286  1.00  0.00    -0.203 F 
ATOM     53  C   UNL     1       6.711  10.520  -4.773  1.00  0.00     0.198 A 
ATOM     54  C   UNL     1       8.512   9.339  -3.713  1.00  0.00     0.198 A 
ATOM     55  F   UNL     1       8.872   7.063  -4.202  1.00  0.00    -0.203 F 
ATOM     56  F   UNL     1       6.021  11.652  -4.970  1.00  0.00    -0.200 F 
ATOM     57  C   UNL     1       7.789  10.508  -3.900  1.00  0.00     0.200 A 
ATOM     58  F   UNL     1       9.547   9.321  -2.862  1.00  0.00    -0.200 F 
ATOM     59  F   UNL     1       8.131  11.623  -3.240  1.00  0.00    -0.200 F 
ENDBRANCH  25  49
BRANCH  37  60
ATOM     60  C   UNL     1       7.317   6.011 -11.893  1.00  0.00     0.064 A 
ATOM     61  C   UNL     1       8.696   6.049 -12.145  1.00  0.00     0.173 A 
ATOM     62  C   UNL     1       6.452   6.532 -12.866  1.00  0.00     0.173 A 
ATOM     63  F   UNL     1       9.562   5.576 -11.236  1.00  0.00    -0.203 F 
ATOM     64  C   UNL     1       9.190   6.602 -13.323  1.00  0.00     0.198 A 
ATOM     65  C   UNL     1       6.949   7.064 -14.052  1.00  0.00     0.198 A 
ATOM     66  F   UNL     1       5.125   6.513 -12.671  1.00  0.00    -0.203 F 
ATOM     67  F   UNL     1      10.513   6.660 -13.530  1.00  0.00    -0.200 F 
ATOM     68  C   UNL     1       8.317   7.103 -14.278  1.00  0.00     0.200 A 
ATOM     69  F   UNL     1       6.105   7.539 -14.978  1.00  0.00    -0.200 F 
ATOM     70  F   UNL     1       8.795   7.629 -15.414  1.00  0.00    -0.200 F 
ENDBRANCH  37  60
ENDBRANCH  11  12
ENDBRANCH   4   6
ENDBRANCH   1   2
BRANCH   1  71
ATOM     71  C   UNL     1       4.417   0.189   2.343  1.00  0.00     0.042 C 
BRANCH  71  72
ATOM     72  C   UNL     1       3.649  -0.380   3.538  1.00  0.00     0.118 C 
BRANCH  72  73
ATOM     73  N   UNL     1       4.137  -1.692   3.897  1.00  0.00    -0.351 N 
ATOM     74  C   UNL     1       5.274  -2.077   4.521  1.00  0.00     0.278 C 
ATOM     75  H   UNL     1       3.539  -2.433   3.644  1.00  0.00     0.163 HD
ATOM     76  O   UNL     1       5.739  -3.155   4.124  1.00  0.00    -0.268 OA
BRANCH  74  77
ATOM     77  C   UNL     1       5.912  -1.355   5.730  1.00  0.00     0.277 C 
ATOM     78  C   UNL     1       5.920   0.187   5.855  1.00  0.00     0.109 C 
ATOM     79  N   UNL     1       5.386  -1.988   6.972  1.00  0.00    -0.327 N 
ATOM     80  C   UNL     1       6.689   0.586   7.090  1.00  0.00    -0.024 C 
ATOM     81  C   UNL     1       6.143  -1.578   8.185  1.00  0.00     0.246 C 
ATOM     82  H   UNL     1       5.448  -3.002   6.875  1.00  0.00     0.347 HD
ATOM     83  H   UNL     1       4.420  -1.681   7.091  1.00  0.00     0.347 HD
ATOM     84  C   UNL     1       6.824   1.744   7.733  1.00  0.00     0.002 A 
ATOM     85  C   UNL     1       7.280  -0.544   7.901  1.00  0.00     0.196 C 
ATOM     86  C   UNL     1       6.392   3.090   7.541  1.00  0.00     0.010 A 
ATOM     87  C   UNL     1       7.548   1.348   8.958  1.00  0.00     0.066 A 
ATOM     88  N   UNL     1       7.805   0.092   9.137  1.00  0.00    -0.270 NA
ATOM     89  C   UNL     1       6.713   4.010   8.469  1.00  0.00     0.001 A 
ATOM     90  C   UNL     1       7.904   2.418   9.908  1.00  0.00     0.028 A 
ATOM     91  C   UNL     1       7.498   3.671   9.646  1.00  0.00     0.002 A 
BRANCH  81  92
ATOM     92  C   UNL     1       6.690  -2.748   8.981  1.00  0.00     0.048 A 
ATOM     93  C   UNL     1       6.833  -2.602  10.376  1.00  0.00     0.013 A 
ATOM     94  C   UNL     1       7.175  -3.921   8.397  1.00  0.00     0.132 A 
ATOM     95  C   UNL     1       7.455  -3.584  11.146  1.00  0.00     0.001 A 
ATOM     96  C   UNL     1       7.774  -4.918   9.166  1.00  0.00     0.040 A 
ATOM     97  F   UNL     1       7.120  -4.107   7.071  1.00  0.00    -0.206 F 
ATOM     98  C   UNL     1       7.926  -4.746  10.541  1.00  0.00     0.003 A 
ENDBRANCH  81  92
ENDBRANCH  74  77
ENDBRANCH  72  73
ENDBRANCH  71  72
ENDBRANCH   1  71
TORSDOF 11
