REMARK SMILES C#CC[N@H+](CC(=O)NCCCNC(=O)c1ccc(-c2c3nc(c(-c4c(F)c(F)c(F)c(F)c4F)c4ccc([nH]4)c(-c4c(F)c(F)c(F)c(F)c4F)c4nc(c(-c5c(F)c(F)c(F)c(F)c5F)c5ccc2[nH]5)C=C4)C=C3)cc1)[C@H](C)c1ccccc1[N+](=O)[O-]
REMARK SMILES IDX 9 1 8 2 6 3 7 4 5 6 4 7 3 9 2 10 1 11 78 12 79 13 80 14
REMARK SMILES IDX 81 15 85 16 82 17 84 18 83 19 86 20 87 21 88 22 10 23 11 24
REMARK SMILES IDX 12 25 13 26 14 28 15 29 16 30 77 31 17 32 76 33 18 34 19 35
REMARK SMILES IDX 20 36 70 37 21 38 75 39 69 40 71 41 22 42 74 43 68 44 67 45
REMARK SMILES IDX 23 47 55 48 35 49 54 50 36 51 39 52 53 53 72 54 37 55 38 56
REMARK SMILES IDX 52 58 73 59 40 60 24 61 25 62 33 63 26 64 27 65 31 66 34 67
REMARK SMILES IDX 28 68 29 69 32 70 30 71 56 72 57 73 65 74 58 75 59 76 63 77
REMARK SMILES IDX 66 78 60 79 61 80 64 81 62 82 41 83 42 84 50 85 43 86 44 87
REMARK SMILES IDX 48 88 51 89 45 90 46 91 49 92 47 93
REMARK H PARENT 8 5 4 8 12 27 71 46 39 57
REMARK Flexibility Score: inf
ROOT
ATOM      1  C   UNL     1      -3.742  -0.519   3.355  1.00  0.00     0.118 C 
ENDROOT
BRANCH   1   2
ATOM      2  N   UNL     1      -4.144   0.821   3.778  1.00  0.00    -0.351 N 
ATOM      3  C   UNL     1      -4.088   2.040   3.142  1.00  0.00     0.275 C 
ATOM      4  O   UNL     1      -4.466   3.025   3.778  1.00  0.00    -0.269 OA
ATOM      5  H   UNL     1      -4.524   0.858   4.686  1.00  0.00     0.163 HD
BRANCH   3   6
ATOM      6  C   UNL     1      -3.593   2.151   1.683  1.00  0.00     0.364 C 
BRANCH   6   7
ATOM      7  N   UNL     1      -2.115   2.385   1.519  1.00  0.00    -0.311 N 
ATOM      8  H   UNL     1      -1.838   3.295   1.887  1.00  0.00     0.349 HD
BRANCH   7   9
ATOM      9  C   UNL     1      -1.383   1.399   2.308  1.00  0.00     0.354 C 
BRANCH   9  10
ATOM     10  C   UNL     1       0.036   1.571   2.631  1.00  0.00    -0.047 C 
ATOM     11  C   UNL     1       1.178   1.528   3.007  1.00  0.00     0.010 C 
ENDBRANCH   9  10
ENDBRANCH   7   9
BRANCH   7  12
ATOM     12  C   UNL     1      -1.756   2.447   0.067  1.00  0.00     0.220 C 
ATOM     13  C   UNL     1      -2.316   1.302  -0.817  1.00  0.00     0.081 C 
BRANCH  12  14
ATOM     14  C   UNL     1      -0.248   2.668  -0.135  1.00  0.00     0.087 A 
ATOM     15  C   UNL     1       0.572   1.544  -0.416  1.00  0.00     0.017 A 
ATOM     16  C   UNL     1       0.415   3.890   0.141  1.00  0.00     0.278 A 
ATOM     17  C   UNL     1       1.965   1.599  -0.329  1.00  0.00     0.001 A 
ATOM     18  C   UNL     1       1.825   3.934   0.226  1.00  0.00     0.086 A 
ATOM     19  C   UNL     1       2.591   2.788   0.017  1.00  0.00     0.007 A 
BRANCH  16  20
ATOM     20  N   UNL     1      -0.293   5.167   0.365  1.00  0.00     0.063 N 
ATOM     21  O   UNL     1       0.336   6.077   0.929  1.00  0.00    -0.258 OA
ATOM     22  O   UNL     1      -1.432   5.309  -0.097  1.00  0.00    -0.258 OA
ENDBRANCH  16  20
ENDBRANCH  12  14
ENDBRANCH   7  12
ENDBRANCH   6   7
ENDBRANCH   3   6
ENDBRANCH   1   2
BRANCH   1  23
ATOM     23  C   UNL     1      -2.488  -1.037   4.074  1.00  0.00     0.042 C 
BRANCH  23  24
ATOM     24  C   UNL     1      -2.674  -1.302   5.556  1.00  0.00     0.118 C 
BRANCH  24  25
ATOM     25  N   UNL     1      -3.203  -2.632   5.781  1.00  0.00    -0.352 N 
ATOM     26  C   UNL     1      -2.561  -3.754   6.244  1.00  0.00     0.251 C 
ATOM     27  H   UNL     1      -4.158  -2.747   5.572  1.00  0.00     0.163 HD
ATOM     28  O   UNL     1      -3.069  -4.855   6.051  1.00  0.00    -0.269 OA
BRANCH  26  29
ATOM     29  C   UNL     1      -1.264  -3.657   6.960  1.00  0.00     0.039 A 
ATOM     30  C   UNL     1      -0.330  -4.685   6.797  1.00  0.00     0.014 A 
ATOM     31  C   UNL     1      -0.981  -2.603   7.834  1.00  0.00     0.014 A 
ATOM     32  C   UNL     1       0.888  -4.638   7.480  1.00  0.00     0.010 A 
ATOM     33  C   UNL     1       0.274  -2.504   8.432  1.00  0.00     0.010 A 
ATOM     34  C   UNL     1       1.215  -3.533   8.283  1.00  0.00    -0.014 A 
BRANCH  34  35
ATOM     35  C   UNL     1       2.519  -3.458   8.995  1.00  0.00     0.031 A 
ATOM     36  C   UNL     1       2.562  -3.403  10.499  1.00  0.00     0.074 A 
ATOM     37  C   UNL     1       3.664  -3.404   8.287  1.00  0.00     0.049 A 
ATOM     38  N   UNL     1       3.596  -3.301  11.297  1.00  0.00    -0.248 NA
ATOM     39  C   UNL     1       1.270  -3.445  11.203  1.00  0.00     0.031 C 
ATOM     40  C   UNL     1       3.755  -3.409   6.827  1.00  0.00     0.029 A 
ATOM     41  N   UNL     1       4.972  -3.329   8.700  1.00  0.00    -0.354 N 
ATOM     42  C   UNL     1       3.080  -3.256  12.586  1.00  0.00     0.074 A 
ATOM     43  C   UNL     1       1.639  -3.277  12.464  1.00  0.00     0.031 C 
ATOM     44  C   UNL     1       5.047  -3.375   6.466  1.00  0.00     0.029 A 
ATOM     45  C   UNL     1       5.875  -3.292   7.665  1.00  0.00     0.049 A 
ATOM     46  H   UNL     1       5.237  -3.305   9.648  1.00  0.00     0.167 HD
ATOM     47  C   UNL     1       3.745  -3.227  13.765  1.00  0.00     0.037 A 
ATOM     48  C   UNL     1       7.218  -3.191   7.681  1.00  0.00     0.037 A 
ATOM     49  C   UNL     1       5.181  -3.218  13.882  1.00  0.00     0.049 A 
ATOM     50  C   UNL     1       7.932  -3.123   9.005  1.00  0.00     0.074 A 
ATOM     51  C   UNL     1       5.952  -3.239  15.030  1.00  0.00     0.029 A 
ATOM     52  N   UNL     1       6.061  -3.174  12.810  1.00  0.00    -0.354 N 
ATOM     53  N   UNL     1       7.435  -3.154  10.218  1.00  0.00    -0.248 NA
ATOM     54  C   UNL     1       9.396  -3.014   8.961  1.00  0.00     0.031 C 
ATOM     55  C   UNL     1       7.295  -3.136  14.656  1.00  0.00     0.029 A 
ATOM     56  C   UNL     1       7.367  -3.132  13.273  1.00  0.00     0.049 A 
ATOM     57  H   UNL     1       5.796  -3.172  11.862  1.00  0.00     0.167 HD
ATOM     58  C   UNL     1       8.523  -3.102  11.079  1.00  0.00     0.074 A 
ATOM     59  C   UNL     1       9.708  -3.056  10.248  1.00  0.00     0.031 C 
ATOM     60  C   UNL     1       8.539  -3.093  12.435  1.00  0.00     0.037 A 
BRANCH  47  61
ATOM     61  C   UNL     1       2.929  -3.193  15.028  1.00  0.00     0.064 A 
ATOM     62  C   UNL     1       2.144  -4.285  15.432  1.00  0.00     0.173 A 
ATOM     63  C   UNL     1       2.962  -2.069  15.868  1.00  0.00     0.173 A 
ATOM     64  F   UNL     1       2.067  -5.383  14.665  1.00  0.00    -0.203 F 
ATOM     65  C   UNL     1       1.397  -4.238  16.607  1.00  0.00     0.198 A 
ATOM     66  C   UNL     1       2.245  -2.040  17.061  1.00  0.00     0.198 A 
ATOM     67  F   UNL     1       3.702  -0.999  15.538  1.00  0.00    -0.203 F 
ATOM     68  F   UNL     1       0.610  -5.270  16.940  1.00  0.00    -0.200 F 
ATOM     69  C   UNL     1       1.455  -3.120  17.425  1.00  0.00     0.200 A 
ATOM     70  F   UNL     1       2.317  -0.966  17.859  1.00  0.00    -0.200 F 
ATOM     71  F   UNL     1       0.744  -3.080  18.560  1.00  0.00    -0.200 F 
ENDBRANCH  47  61
BRANCH  48  72
ATOM     72  C   UNL     1       7.978  -3.156   6.402  1.00  0.00     0.064 A 
ATOM     73  C   UNL     1       8.845  -4.200   6.046  1.00  0.00     0.173 A 
ATOM     74  C   UNL     1       7.866  -2.075   5.515  1.00  0.00     0.173 A 
ATOM     75  F   UNL     1       9.001  -5.249   6.867  1.00  0.00    -0.203 F 
ATOM     76  C   UNL     1       9.590  -4.150   4.870  1.00  0.00     0.198 A 
ATOM     77  C   UNL     1       8.583  -2.043   4.321  1.00  0.00     0.198 A 
ATOM     78  F   UNL     1       7.045  -1.053   5.800  1.00  0.00    -0.203 F 
ATOM     79  F   UNL     1      10.453  -5.134   4.584  1.00  0.00    -0.200 F 
ATOM     80  C   UNL     1       9.454  -3.075   4.005  1.00  0.00     0.200 A 
ATOM     81  F   UNL     1       8.432  -1.012   3.479  1.00  0.00    -0.200 F 
ATOM     82  F   UNL     1      10.167  -3.029   2.872  1.00  0.00    -0.200 F 
ENDBRANCH  48  72
BRANCH  60  83
ATOM     83  C   UNL     1       9.882  -3.079  13.111  1.00  0.00     0.064 A 
ATOM     84  C   UNL     1      10.727  -1.960  13.062  1.00  0.00     0.173 A 
ATOM     85  C   UNL     1      10.312  -4.192  13.852  1.00  0.00     0.173 A 
ATOM     86  F   UNL     1      10.371  -0.875  12.358  1.00  0.00    -0.203 F 
ATOM     87  C   UNL     1      11.965  -1.968  13.701  1.00  0.00     0.198 A 
ATOM     88  C   UNL     1      11.532  -4.181  14.522  1.00  0.00     0.198 A 
ATOM     89  F   UNL     1       9.541  -5.286  13.939  1.00  0.00    -0.203 F 
ATOM     90  F   UNL     1      12.780  -0.911  13.590  1.00  0.00    -0.200 F 
ATOM     91  C   UNL     1      12.362  -3.074  14.437  1.00  0.00     0.200 A 
ATOM     92  F   UNL     1      11.904  -5.244  15.249  1.00  0.00    -0.200 F 
ATOM     93  F   UNL     1      13.549  -3.076  15.059  1.00  0.00    -0.200 F 
ENDBRANCH  60  83
ENDBRANCH  34  35
ENDBRANCH  26  29
ENDBRANCH  24  25
ENDBRANCH  23  24
ENDBRANCH   1  23
TORSDOF 16
