REMARK SMILES Cc1ccc(C(=O)/C(C#N)=C/c2ccccc2OCC(=O)NCCCNC(=O)c2ccc(-c3c4nc(c(-c5c(F)c(F)c(F)c(F)c5F)c5ccc([nH]5)c(-c5c(F)c(F)c(F)c(F)c5F)c5nc(c(-c6c(F)c(F)c(F)c(F)c6F)c6ccc3[nH]6)C=C5)C=C4)cc2)cc1F
REMARK SMILES IDX 20 1 21 2 22 3 19 5 18 6 17 7 12 8 13 9 14 10 16 11 15 12
REMARK SMILES IDX 11 13 8 14 6 15 7 16 5 17 1 18 2 19 3 20 93 21 4 22 92 23
REMARK SMILES IDX 94 24 9 25 10 26 23 27 24 28 25 29 26 30 27 31 28 33 29 34
REMARK SMILES IDX 30 35 91 36 31 37 90 38 32 39 33 40 34 41 84 42 35 43 89 44
REMARK SMILES IDX 83 45 85 46 36 47 88 48 82 49 81 50 37 52 69 53 49 54 68 55
REMARK SMILES IDX 50 56 53 57 67 58 86 59 51 60 52 61 66 63 87 64 54 65 38 66
REMARK SMILES IDX 39 67 47 68 40 69 41 70 45 71 48 72 42 73 43 74 46 75 44 76
REMARK SMILES IDX 70 77 71 78 79 79 72 80 73 81 77 82 80 83 74 84 75 85 78 86
REMARK SMILES IDX 76 87 55 88 56 89 64 90 57 91 58 92 62 93 65 94 59 95 60 96
REMARK SMILES IDX 63 97 61 98
REMARK H PARENT 22 4 26 32 85 51 53 62
REMARK Flexibility Score: inf
ROOT
ATOM      1  C   UNL     1      -3.524   1.990  -2.034  1.00  0.00     0.257 C 
ATOM      2  O   UNL     1      -2.473   1.482  -1.631  1.00  0.00    -0.271 OA
ATOM      3  N   UNL     1      -3.505   3.299  -1.752  1.00  0.00    -0.353 N 
ATOM      4  H   UNL     1      -2.631   3.601  -1.416  1.00  0.00     0.163 HD
ENDROOT
BRANCH   1   5
ATOM      5  C   UNL     1      -4.626   1.063  -2.737  1.00  0.00     0.329 C 
BRANCH   5   6
ATOM      6  O   UNL     1      -6.013   0.931  -2.450  1.00  0.00    -0.483 OA
BRANCH   6   7
ATOM      7  C   UNL     1      -6.807   0.033  -1.764  1.00  0.00     0.127 A 
ATOM      8  C   UNL     1      -6.601  -1.159  -1.002  1.00  0.00     0.018 A 
ATOM      9  C   UNL     1      -7.663  -1.694  -0.216  1.00  0.00     0.012 A 
ATOM     10  C   UNL     1      -8.915  -1.097  -0.172  1.00  0.00     0.001 A 
ATOM     11  C   UNL     1      -8.116   0.556  -1.739  1.00  0.00     0.047 A 
ATOM     12  C   UNL     1      -9.145   0.020  -0.954  1.00  0.00     0.004 A 
BRANCH   8  13
ATOM     13  C   UNL     1      -5.348  -1.873  -0.666  1.00  0.00     0.035 C 
ATOM     14  C   UNL     1      -4.415  -1.258   0.091  1.00  0.00     0.101 C 
BRANCH  14  15
ATOM     15  C   UNL     1      -3.065  -2.003   0.078  1.00  0.00     0.203 C 
ATOM     16  O   UNL     1      -3.058  -3.226   0.250  1.00  0.00    -0.288 OA
BRANCH  15  17
ATOM     17  C   UNL     1      -1.709  -1.378  -0.141  1.00  0.00     0.026 A 
ATOM     18  C   UNL     1       1.883   1.029  -0.118  1.00  0.00     0.047 C 
ATOM     19  C   UNL     1       0.773   0.025  -0.259  1.00  0.00    -0.015 A 
ATOM     20  C   UNL     1      -0.126   0.074  -1.319  1.00  0.00     0.007 A 
ATOM     21  C   UNL     1       0.539  -0.952   0.703  1.00  0.00     0.126 A 
ATOM     22  C   UNL     1      -1.324  -0.690  -1.288  1.00  0.00     0.013 A 
ATOM     23  C   UNL     1      -0.681  -1.645   0.768  1.00  0.00     0.051 A 
ATOM     24  F   UNL     1       1.483  -1.217   1.617  1.00  0.00    -0.207 F 
ENDBRANCH  15  17
ENDBRANCH  14  15
BRANCH  14  25
ATOM     25  C   UNL     1      -4.639   0.245   0.060  1.00  0.00     0.103 C 
ATOM     26  N   UNL     1      -4.825   1.492   0.034  1.00  0.00    -0.192 NA
ENDBRANCH  14  25
ENDBRANCH   8  13
ENDBRANCH   6   7
ENDBRANCH   5   6
ENDBRANCH   1   5
BRANCH   3  27
ATOM     27  C   UNL     1      -4.461   4.359  -1.827  1.00  0.00     0.117 C 
BRANCH  27  28
ATOM     28  C   UNL     1      -5.538   4.295  -0.760  1.00  0.00     0.042 C 
BRANCH  28  29
ATOM     29  C   UNL     1      -5.053   4.235   0.684  1.00  0.00     0.118 C 
BRANCH  29  30
ATOM     30  N   UNL     1      -4.140   5.301   1.010  1.00  0.00    -0.352 N 
ATOM     31  C   UNL     1      -4.378   6.348   1.853  1.00  0.00     0.251 C 
ATOM     32  H   UNL     1      -3.254   5.272   0.581  1.00  0.00     0.163 HD
ATOM     33  O   UNL     1      -3.863   7.431   1.653  1.00  0.00    -0.269 OA
BRANCH  31  34
ATOM     34  C   UNL     1      -5.181   6.092   3.067  1.00  0.00     0.039 A 
ATOM     35  C   UNL     1      -5.692   7.187   3.773  1.00  0.00     0.014 A 
ATOM     36  C   UNL     1      -5.269   4.794   3.587  1.00  0.00     0.014 A 
ATOM     37  C   UNL     1      -6.214   6.992   5.042  1.00  0.00     0.010 A 
ATOM     38  C   UNL     1      -5.885   4.584   4.783  1.00  0.00     0.010 A 
ATOM     39  C   UNL     1      -6.253   5.693   5.538  1.00  0.00    -0.014 A 
BRANCH  39  40
ATOM     40  C   UNL     1      -6.628   5.343   6.884  1.00  0.00     0.031 A 
ATOM     41  C   UNL     1      -8.040   5.388   7.240  1.00  0.00     0.074 A 
ATOM     42  C   UNL     1      -5.647   4.799   7.636  1.00  0.00     0.049 A 
ATOM     43  N   UNL     1      -8.467   5.583   8.432  1.00  0.00    -0.248 NA
ATOM     44  C   UNL     1      -9.107   5.267   6.250  1.00  0.00     0.031 C 
ATOM     45  C   UNL     1      -5.726   4.008   8.849  1.00  0.00     0.029 A 
ATOM     46  N   UNL     1      -4.268   4.969   7.431  1.00  0.00    -0.354 N 
ATOM     47  C   UNL     1      -9.798   5.234   8.427  1.00  0.00     0.074 A 
ATOM     48  C   UNL     1     -10.188   5.238   7.037  1.00  0.00     0.031 C 
ATOM     49  C   UNL     1      -4.517   4.022   9.447  1.00  0.00     0.029 A 
ATOM     50  C   UNL     1      -3.679   4.956   8.710  1.00  0.00     0.049 A 
ATOM     51  H   UNL     1      -3.806   5.075   6.568  1.00  0.00     0.167 HD
ATOM     52  C   UNL     1     -10.339   4.766   9.587  1.00  0.00     0.037 A 
ATOM     53  C   UNL     1      -3.159   6.128   9.194  1.00  0.00     0.037 A 
ATOM     54  C   UNL     1      -9.300   4.681  10.616  1.00  0.00     0.049 A 
ATOM     55  C   UNL     1      -3.953   6.686  10.355  1.00  0.00     0.074 A 
ATOM     56  C   UNL     1      -8.498   3.651  11.078  1.00  0.00     0.029 A 
ATOM     57  N   UNL     1      -8.705   5.845  11.050  1.00  0.00    -0.354 N 
ATOM     58  N   UNL     1      -5.121   6.235  10.720  1.00  0.00    -0.248 NA
ATOM     59  C   UNL     1      -3.531   7.836  11.150  1.00  0.00     0.031 C 
ATOM     60  C   UNL     1      -7.421   4.228  11.816  1.00  0.00     0.029 A 
ATOM     61  C   UNL     1      -7.577   5.603  11.800  1.00  0.00     0.049 A 
ATOM     62  H   UNL     1      -9.047   6.746  10.847  1.00  0.00     0.167 HD
ATOM     63  C   UNL     1      -5.615   6.993  11.742  1.00  0.00     0.074 A 
ATOM     64  C   UNL     1      -4.593   8.004  11.959  1.00  0.00     0.031 C 
ATOM     65  C   UNL     1      -6.832   6.743  12.309  1.00  0.00     0.037 A 
BRANCH  52  66
ATOM     66  C   UNL     1     -11.695   4.129   9.758  1.00  0.00     0.064 A 
ATOM     67  C   UNL     1     -11.952   3.321  10.888  1.00  0.00     0.173 A 
ATOM     68  C   UNL     1     -12.787   4.277   8.882  1.00  0.00     0.173 A 
ATOM     69  F   UNL     1     -11.042   3.159  11.859  1.00  0.00    -0.203 F 
ATOM     70  C   UNL     1     -13.161   2.654  11.082  1.00  0.00     0.198 A 
ATOM     71  C   UNL     1     -13.989   3.583   9.059  1.00  0.00     0.198 A 
ATOM     72  F   UNL     1     -12.760   5.139   7.860  1.00  0.00    -0.203 F 
ATOM     73  F   UNL     1     -13.334   1.902  12.177  1.00  0.00    -0.200 F 
ATOM     74  C   UNL     1     -14.174   2.767  10.156  1.00  0.00     0.200 A 
ATOM     75  F   UNL     1     -14.976   3.723   8.161  1.00  0.00    -0.200 F 
ATOM     76  F   UNL     1     -15.332   2.119  10.335  1.00  0.00    -0.200 F 
ENDBRANCH  52  66
BRANCH  53  77
ATOM     77  C   UNL     1      -2.554   6.944   8.087  1.00  0.00     0.064 A 
ATOM     78  C   UNL     1      -1.529   6.335   7.330  1.00  0.00     0.173 A 
ATOM     79  C   UNL     1      -3.280   7.976   7.477  1.00  0.00     0.173 A 
ATOM     80  F   UNL     1      -0.784   5.359   7.874  1.00  0.00    -0.203 F 
ATOM     81  C   UNL     1      -1.394   6.589   5.967  1.00  0.00     0.198 A 
ATOM     82  C   UNL     1      -3.110   8.257   6.119  1.00  0.00     0.198 A 
ATOM     83  F   UNL     1      -4.241   8.622   8.152  1.00  0.00    -0.203 F 
ATOM     84  F   UNL     1      -0.547   5.855   5.231  1.00  0.00    -0.200 F 
ATOM     85  C   UNL     1      -2.212   7.523   5.356  1.00  0.00     0.200 A 
ATOM     86  F   UNL     1      -3.887   9.177   5.529  1.00  0.00    -0.200 F 
ATOM     87  F   UNL     1      -2.157   7.687   4.028  1.00  0.00    -0.200 F 
ENDBRANCH  53  77
BRANCH  65  88
ATOM     88  C   UNL     1      -7.443   7.587  13.393  1.00  0.00     0.064 A 
ATOM     89  C   UNL     1      -6.697   8.066  14.476  1.00  0.00     0.173 A 
ATOM     90  C   UNL     1      -8.829   7.873  13.426  1.00  0.00     0.173 A 
ATOM     91  F   UNL     1      -5.400   7.753  14.611  1.00  0.00    -0.203 F 
ATOM     92  C   UNL     1      -7.275   8.865  15.465  1.00  0.00     0.198 A 
ATOM     93  C   UNL     1      -9.415   8.607  14.450  1.00  0.00     0.198 A 
ATOM     94  F   UNL     1      -9.665   7.484  12.454  1.00  0.00    -0.203 F 
ATOM     95  F   UNL     1      -6.506   9.378  16.434  1.00  0.00    -0.200 F 
ATOM     96  C   UNL     1      -8.633   9.132  15.453  1.00  0.00     0.200 A 
ATOM     97  F   UNL     1     -10.740   8.815  14.441  1.00  0.00    -0.200 F 
ATOM     98  F   UNL     1      -9.186   9.895  16.404  1.00  0.00    -0.200 F 
ENDBRANCH  65  88
ENDBRANCH  39  40
ENDBRANCH  31  34
ENDBRANCH  29  30
ENDBRANCH  28  29
ENDBRANCH  27  28
ENDBRANCH   3  27
TORSDOF 16
