REMARK SMILES Cc1cc(S(=O)(=O)Nc2ccc(Cl)cc2F)ccc1OCC(=O)NCCCNC(=O)c1ccc(-c2c3nc(c(-c4c(F)c(F)c(F)c(F)c4F)c4ccc([nH]4)c(-c4c(F)c(F)c(F)c(F)c4F)c4nc(c(-c5c(F)c(F)c(F)c(F)c5F)c5ccc2[nH]5)C=C4)C=C3)cc1
REMARK SMILES IDX 22 1 23 2 24 3 21 5 20 6 19 7 1 8 2 9 3 10 4 11 18 12 17 13
REMARK SMILES IDX 5 14 6 15 7 16 8 17 9 19 10 20 15 21 11 22 14 23 16 24 12 25
REMARK SMILES IDX 13 26 25 27 26 28 27 29 28 30 29 31 30 33 31 34 32 35 93 36
REMARK SMILES IDX 33 37 92 38 34 39 35 40 36 41 86 42 37 43 91 44 85 45 87 46
REMARK SMILES IDX 38 47 90 48 84 49 83 50 39 52 71 53 51 54 70 55 52 56 55 57
REMARK SMILES IDX 69 58 88 59 53 60 54 61 68 63 89 64 56 65 40 66 41 67 49 68
REMARK SMILES IDX 42 69 43 70 47 71 50 72 44 73 45 74 48 75 46 76 72 77 73 78
REMARK SMILES IDX 81 79 74 80 75 81 79 82 82 83 76 84 77 85 80 86 78 87 57 88
REMARK SMILES IDX 58 89 66 90 59 91 60 92 64 93 67 94 61 95 62 96 65 97 63 98
REMARK H PARENT 24 4 8 18 28 32 87 51 55 62
REMARK Flexibility Score: inf
ROOT
ATOM      1  C   UNL     1       3.171   2.196   1.391  1.00  0.00     0.257 C 
ATOM      2  O   UNL     1       3.980   1.288   1.590  1.00  0.00    -0.271 OA
ATOM      3  N   UNL     1       2.847   3.013   2.440  1.00  0.00    -0.353 N 
ATOM      4  H   UNL     1       3.232   2.758   3.309  1.00  0.00     0.163 HD
ENDROOT
BRANCH   1   5
ATOM      5  C   UNL     1       2.567   2.449   0.007  1.00  0.00     0.329 C 
BRANCH   5   6
ATOM      6  O   UNL     1       1.179   2.237  -0.134  1.00  0.00    -0.484 OA
BRANCH   6   7
ATOM      7  C   UNL     1       0.607   1.004  -0.009  1.00  0.00     0.123 A 
ATOM      8  C   UNL     1       2.521  -0.581  -0.739  1.00  0.00     0.048 C 
ATOM      9  C   UNL     1       1.114  -0.263  -0.322  1.00  0.00    -0.008 A 
ATOM     10  C   UNL     1       0.235  -1.370  -0.242  1.00  0.00     0.029 A 
ATOM     11  C   UNL     1      -1.097  -1.243   0.175  1.00  0.00     0.088 A 
ATOM     12  C   UNL     1      -0.725   1.107   0.436  1.00  0.00     0.048 A 
ATOM     13  C   UNL     1      -1.551  -0.007   0.596  1.00  0.00     0.026 A 
BRANCH  11  14
ATOM     14  S   UNL     1      -2.119  -2.691   0.009  1.00  0.00     0.262 S 
ATOM     15  O   UNL     1      -1.907  -3.222  -1.317  1.00  0.00    -0.201 OA
ATOM     16  O   UNL     1      -1.833  -3.500   1.182  1.00  0.00    -0.201 OA
BRANCH  14  17
ATOM     17  N   UNL     1      -3.749  -2.332   0.169  1.00  0.00    -0.277 N 
ATOM     18  H   UNL     1      -4.326  -3.031   0.552  1.00  0.00     0.180 HD
BRANCH  17  19
ATOM     19  C   UNL     1      -4.372  -1.108  -0.198  1.00  0.00     0.085 A 
ATOM     20  C   UNL     1      -5.315  -0.617   0.714  1.00  0.00     0.031 A 
ATOM     21  C   UNL     1      -4.061  -0.346  -1.329  1.00  0.00     0.148 A 
ATOM     22  C   UNL     1      -5.849   0.662   0.559  1.00  0.00     0.023 A 
ATOM     23  C   UNL     1      -4.589   0.936  -1.488  1.00  0.00     0.062 A 
ATOM     24  F   UNL     1      -3.179  -0.789  -2.234  1.00  0.00    -0.205 F 
ATOM     25  C   UNL     1      -5.465   1.442  -0.530  1.00  0.00     0.044 A 
ATOM     26  Cl  UNL     1      -6.054   3.051  -0.664  1.00  0.00    -0.084 Cl
ENDBRANCH  17  19
ENDBRANCH  14  17
ENDBRANCH  11  14
ENDBRANCH   6   7
ENDBRANCH   5   6
ENDBRANCH   1   5
BRANCH   3  27
ATOM     27  C   UNL     1       2.015   4.206   2.451  1.00  0.00     0.117 C 
BRANCH  27  28
ATOM     28  C   UNL     1       0.550   3.904   2.729  1.00  0.00     0.042 C 
BRANCH  28  29
ATOM     29  C   UNL     1       0.257   3.494   4.165  1.00  0.00     0.118 C 
BRANCH  29  30
ATOM     30  N   UNL     1      -0.145   4.596   5.031  1.00  0.00    -0.352 N 
ATOM     31  C   UNL     1      -0.437   4.585   6.388  1.00  0.00     0.251 C 
ATOM     32  H   UNL     1      -0.220   5.473   4.590  1.00  0.00     0.163 HD
ATOM     33  O   UNL     1      -0.766   5.603   6.957  1.00  0.00    -0.269 OA
BRANCH  31  34
ATOM     34  C   UNL     1      -0.223   3.331   7.156  1.00  0.00     0.039 A 
ATOM     35  C   UNL     1       0.529   3.403   8.335  1.00  0.00     0.014 A 
ATOM     36  C   UNL     1      -0.590   2.095   6.631  1.00  0.00     0.014 A 
ATOM     37  C   UNL     1       1.117   2.245   8.839  1.00  0.00     0.010 A 
ATOM     38  C   UNL     1       0.067   0.963   7.070  1.00  0.00     0.010 A 
ATOM     39  C   UNL     1       0.973   1.052   8.130  1.00  0.00    -0.014 A 
BRANCH  39  40
ATOM     40  C   UNL     1       1.843  -0.100   8.335  1.00  0.00     0.031 A 
ATOM     41  C   UNL     1       1.367  -1.306   9.038  1.00  0.00     0.074 A 
ATOM     42  C   UNL     1       3.078  -0.088   7.786  1.00  0.00     0.049 A 
ATOM     43  N   UNL     1       2.136  -2.116   9.688  1.00  0.00    -0.248 NA
ATOM     44  C   UNL     1      -0.038  -1.686   9.078  1.00  0.00     0.031 C 
ATOM     45  C   UNL     1       3.996  -1.215   7.644  1.00  0.00     0.029 A 
ATOM     46  N   UNL     1       3.836   1.031   7.396  1.00  0.00    -0.354 N 
ATOM     47  C   UNL     1       1.402  -3.245   9.974  1.00  0.00     0.074 A 
ATOM     48  C   UNL     1       0.038  -2.896   9.642  1.00  0.00     0.031 C 
ATOM     49  C   UNL     1       5.244  -0.739   7.505  1.00  0.00     0.029 A 
ATOM     50  C   UNL     1       5.178   0.699   7.697  1.00  0.00     0.049 A 
ATOM     51  H   UNL     1       3.503   1.867   6.998  1.00  0.00     0.167 HD
ATOM     52  C   UNL     1       2.048  -4.400  10.314  1.00  0.00     0.037 A 
ATOM     53  C   UNL     1       5.900   1.401   8.616  1.00  0.00     0.037 A 
ATOM     54  C   UNL     1       3.496  -4.210  10.348  1.00  0.00     0.049 A 
ATOM     55  C   UNL     1       6.426   0.562   9.754  1.00  0.00     0.074 A 
ATOM     56  C   UNL     1       4.488  -4.488   9.421  1.00  0.00     0.029 A 
ATOM     57  N   UNL     1       4.072  -3.382  11.305  1.00  0.00    -0.354 N 
ATOM     58  N   UNL     1       5.940  -0.601  10.079  1.00  0.00    -0.248 NA
ATOM     59  C   UNL     1       7.498   0.992  10.649  1.00  0.00     0.031 C 
ATOM     60  C   UNL     1       5.659  -3.795   9.804  1.00  0.00     0.029 A 
ATOM     61  C   UNL     1       5.383  -3.101  10.969  1.00  0.00     0.049 A 
ATOM     62  H   UNL     1       3.612  -3.045  12.107  1.00  0.00     0.167 HD
ATOM     63  C   UNL     1       6.571  -1.060  11.205  1.00  0.00     0.074 A 
ATOM     64  C   UNL     1       7.554  -0.039  11.511  1.00  0.00     0.031 C 
ATOM     65  C   UNL     1       6.209  -2.236  11.796  1.00  0.00     0.037 A 
BRANCH  52  66
ATOM     66  C   UNL     1       1.390  -5.766  10.279  1.00  0.00     0.064 A 
ATOM     67  C   UNL     1       2.124  -6.922   9.928  1.00  0.00     0.173 A 
ATOM     68  C   UNL     1       0.024  -5.994  10.521  1.00  0.00     0.173 A 
ATOM     69  F   UNL     1       3.457  -6.900   9.809  1.00  0.00    -0.203 F 
ATOM     70  C   UNL     1       1.515  -8.156   9.686  1.00  0.00     0.198 A 
ATOM     71  C   UNL     1      -0.597  -7.213  10.228  1.00  0.00     0.198 A 
ATOM     72  F   UNL     1      -0.741  -5.058  11.099  1.00  0.00    -0.203 F 
ATOM     73  F   UNL     1       2.265  -9.210   9.335  1.00  0.00    -0.200 F 
ATOM     74  C   UNL     1       0.147  -8.290   9.790  1.00  0.00     0.200 A 
ATOM     75  F   UNL     1      -1.924  -7.335  10.371  1.00  0.00    -0.200 F 
ATOM     76  F   UNL     1      -0.445  -9.457   9.505  1.00  0.00    -0.200 F 
ENDBRANCH  52  66
BRANCH  53  77
ATOM     77  C   UNL     1       5.475   2.819   8.745  1.00  0.00     0.064 A 
ATOM     78  C   UNL     1       5.596   3.663   7.624  1.00  0.00     0.173 A 
ATOM     79  C   UNL     1       4.641   3.242   9.787  1.00  0.00     0.173 A 
ATOM     80  F   UNL     1       6.379   3.302   6.595  1.00  0.00    -0.203 F 
ATOM     81  C   UNL     1       4.829   4.819   7.501  1.00  0.00     0.198 A 
ATOM     82  C   UNL     1       3.886   4.410   9.667  1.00  0.00     0.198 A 
ATOM     83  F   UNL     1       4.468   2.474  10.872  1.00  0.00    -0.203 F 
ATOM     84  F   UNL     1       4.880   5.538   6.370  1.00  0.00    -0.200 F 
ATOM     85  C   UNL     1       3.955   5.177   8.512  1.00  0.00     0.200 A 
ATOM     86  F   UNL     1       3.016   4.742  10.632  1.00  0.00    -0.200 F 
ATOM     87  F   UNL     1       3.148   6.236   8.358  1.00  0.00    -0.200 F 
ENDBRANCH  53  77
BRANCH  65  88
ATOM     88  C   UNL     1       6.669  -2.732  13.144  1.00  0.00     0.064 A 
ATOM     89  C   UNL     1       7.023  -1.889  14.209  1.00  0.00     0.173 A 
ATOM     90  C   UNL     1       6.626  -4.115  13.448  1.00  0.00     0.173 A 
ATOM     91  F   UNL     1       6.987  -0.555  14.084  1.00  0.00    -0.203 F 
ATOM     92  C   UNL     1       7.371  -2.392  15.466  1.00  0.00     0.198 A 
ATOM     93  C   UNL     1       6.918  -4.609  14.719  1.00  0.00     0.198 A 
ATOM     94  F   UNL     1       6.273  -5.024  12.528  1.00  0.00    -0.203 F 
ATOM     95  F   UNL     1       7.742  -1.548  16.438  1.00  0.00    -0.200 F 
ATOM     96  C   UNL     1       7.307  -3.749  15.724  1.00  0.00     0.200 A 
ATOM     97  F   UNL     1       6.800  -5.921  14.966  1.00  0.00    -0.200 F 
ATOM     98  F   UNL     1       7.598  -4.222  16.943  1.00  0.00    -0.200 F 
ENDBRANCH  65  88
ENDBRANCH  39  40
ENDBRANCH  31  34
ENDBRANCH  29  30
ENDBRANCH  28  29
ENDBRANCH  27  28
ENDBRANCH   3  27
TORSDOF 15
