REMARK SMILES C[C@@H](c1ccccc1)[C@@H]1[NH2+][C@@H](C(=O)NCCCNC(=O)c2ccc(-c3c4nc(c(-c5c(F)c(F)c(F)c(F)c5F)c5ccc([nH]5)c(-c5c(F)c(F)c(F)c(F)c5F)c5nc(c(-c6c(F)c(F)c(F)c(F)c6F)c6ccc3[nH]6)C=C5)C=C4)cc2)CS1
REMARK SMILES IDX 16 1 15 2 14 3 12 4 13 5 11 7 9 8 10 9 85 10 84 13 2 14 1 15
REMARK SMILES IDX 3 16 4 17 8 18 5 19 7 20 6 21 17 22 18 23 19 24 20 26 21 27
REMARK SMILES IDX 22 28 83 29 23 30 82 31 24 32 25 33 26 34 76 35 27 36 81 37
REMARK SMILES IDX 75 38 77 39 28 40 80 41 74 42 73 43 29 45 61 46 41 47 60 48
REMARK SMILES IDX 42 49 45 50 59 51 78 52 43 53 44 54 58 56 79 57 46 58 30 59
REMARK SMILES IDX 31 60 39 61 32 62 33 63 37 64 40 65 34 66 35 67 38 68 36 69
REMARK SMILES IDX 62 70 63 71 71 72 64 73 65 74 69 75 72 76 66 77 67 78 70 79
REMARK SMILES IDX 68 80 47 81 48 82 56 83 49 84 50 85 54 86 57 87 51 88 52 89
REMARK SMILES IDX 55 90 53 91
REMARK H PARENT 14 6 10 11 10 12 18 25 77 44 45 55
REMARK Flexibility Score: inf
ROOT
ATOM      1  C   UNL     1      -1.830  -3.917  -0.155  1.00  0.00     0.042 C 
ENDROOT
BRANCH   1   2
ATOM      2  C   UNL     1      -1.471  -3.308  -1.508  1.00  0.00     0.118 C 
BRANCH   2   3
ATOM      3  N   UNL     1      -2.597  -2.629  -2.118  1.00  0.00    -0.351 N 
ATOM      4  C   UNL     1      -2.783  -1.301  -2.372  1.00  0.00     0.279 C 
ATOM      5  O   UNL     1      -3.876  -0.966  -2.829  1.00  0.00    -0.268 OA
ATOM      6  H   UNL     1      -3.341  -3.214  -2.391  1.00  0.00     0.163 HD
BRANCH   4   7
ATOM      7  C   UNL     1      -1.657  -0.291  -2.057  1.00  0.00     0.283 C 
ATOM      8  C   UNL     1      -0.996   1.183  -0.282  1.00  0.00     0.249 C 
ATOM      9  N   UNL     1      -1.539  -0.153  -0.574  1.00  0.00    -0.324 N 
ATOM     10  S   UNL     1      -1.950   2.276  -1.368  1.00  0.00    -0.092 SA
ATOM     11  H   UNL     1      -2.458  -0.255  -0.143  1.00  0.00     0.347 HD
ATOM     12  H   UNL     1      -0.923  -0.875  -0.200  1.00  0.00     0.347 HD
ATOM     13  C   UNL     1      -1.937   1.069  -2.719  1.00  0.00     0.151 C 
BRANCH   8  14
ATOM     14  C   UNL     1       0.572   1.326  -0.312  1.00  0.00     0.085 C 
ATOM     15  C   UNL     1       1.248   0.087   0.302  1.00  0.00     0.020 C 
BRANCH  14  16
ATOM     16  C   UNL     1       1.215   1.776  -1.623  1.00  0.00    -0.038 A 
ATOM     17  C   UNL     1       1.801   0.894  -2.540  1.00  0.00     0.004 A 
ATOM     18  C   UNL     1       1.212   3.150  -1.940  1.00  0.00     0.004 A 
ATOM     19  C   UNL     1       2.330   1.365  -3.747  1.00  0.00     0.000 A 
ATOM     20  C   UNL     1       1.724   3.617  -3.150  1.00  0.00     0.000 A 
ATOM     21  C   UNL     1       2.280   2.722  -4.057  1.00  0.00     0.000 A 
ENDBRANCH  14  16
ENDBRANCH   8  14
ENDBRANCH   4   7
ENDBRANCH   2   3
ENDBRANCH   1   2
BRANCH   1  22
ATOM     22  C   UNL     1      -2.984  -4.918  -0.184  1.00  0.00     0.118 C 
BRANCH  22  23
ATOM     23  N   UNL     1      -2.732  -6.069  -1.040  1.00  0.00    -0.352 N 
ATOM     24  C   UNL     1      -2.818  -7.411  -0.771  1.00  0.00     0.251 C 
ATOM     25  H   UNL     1      -2.456  -5.848  -1.960  1.00  0.00     0.163 HD
ATOM     26  O   UNL     1      -2.428  -8.223  -1.611  1.00  0.00    -0.269 OA
BRANCH  24  27
ATOM     27  C   UNL     1      -3.343  -7.898   0.523  1.00  0.00     0.039 A 
ATOM     28  C   UNL     1      -2.694  -8.967   1.149  1.00  0.00     0.014 A 
ATOM     29  C   UNL     1      -4.476  -7.332   1.112  1.00  0.00     0.014 A 
ATOM     30  C   UNL     1      -3.137  -9.419   2.395  1.00  0.00     0.010 A 
ATOM     31  C   UNL     1      -4.871  -7.732   2.388  1.00  0.00     0.010 A 
ATOM     32  C   UNL     1      -4.205  -8.779   3.044  1.00  0.00    -0.014 A 
BRANCH  32  33
ATOM     33  C   UNL     1      -4.629  -9.187   4.410  1.00  0.00     0.031 A 
ATOM     34  C   UNL     1      -6.002  -9.752   4.645  1.00  0.00     0.074 A 
ATOM     35  C   UNL     1      -3.793  -8.997   5.450  1.00  0.00     0.049 A 
ATOM     36  N   UNL     1      -6.570 -10.110   5.770  1.00  0.00    -0.248 NA
ATOM     37  C   UNL     1      -6.861  -9.917   3.462  1.00  0.00     0.031 C 
ATOM     38  C   UNL     1      -2.451  -8.419   5.362  1.00  0.00     0.029 A 
ATOM     39  N   UNL     1      -3.952  -9.261   6.788  1.00  0.00    -0.354 N 
ATOM     40  C   UNL     1      -7.849 -10.532   5.432  1.00  0.00     0.074 A 
ATOM     41  C   UNL     1      -7.996 -10.332   4.006  1.00  0.00     0.031 C 
ATOM     42  C   UNL     1      -1.899  -8.398   6.585  1.00  0.00     0.029 A 
ATOM     43  C   UNL     1      -2.861  -8.920   7.551  1.00  0.00     0.049 A 
ATOM     44  H   UNL     1      -4.770  -9.659   7.165  1.00  0.00     0.167 HD
ATOM     45  C   UNL     1      -8.805 -11.063   6.232  1.00  0.00     0.037 A 
ATOM     46  C   UNL     1      -2.662  -9.011   8.880  1.00  0.00     0.037 A 
ATOM     47  C   UNL     1      -8.653 -11.275   7.648  1.00  0.00     0.049 A 
ATOM     48  C   UNL     1      -3.752  -9.579   9.749  1.00  0.00     0.074 A 
ATOM     49  C   UNL     1      -9.547 -11.846   8.537  1.00  0.00     0.029 A 
ATOM     50  N   UNL     1      -7.531 -10.921   8.384  1.00  0.00    -0.354 N 
ATOM     51  N   UNL     1      -4.932 -10.034   9.407  1.00  0.00    -0.248 NA
ATOM     52  C   UNL     1      -3.476  -9.651  11.191  1.00  0.00     0.031 C 
ATOM     53  C   UNL     1      -8.987 -11.793   9.818  1.00  0.00     0.029 A 
ATOM     54  C   UNL     1      -7.720 -11.242   9.719  1.00  0.00     0.049 A 
ATOM     55  H   UNL     1      -6.720 -10.504   8.012  1.00  0.00     0.167 HD
ATOM     56  C   UNL     1      -5.525 -10.477  10.582  1.00  0.00     0.074 A 
ATOM     57  C   UNL     1      -4.568 -10.250  11.644  1.00  0.00     0.031 C 
ATOM     58  C   UNL     1      -6.753 -11.023  10.764  1.00  0.00     0.037 A 
BRANCH  45  59
ATOM     59  C   UNL     1     -10.105 -11.459   5.591  1.00  0.00     0.064 A 
ATOM     60  C   UNL     1     -10.188 -12.548   4.709  1.00  0.00     0.173 A 
ATOM     61  C   UNL     1     -11.290 -10.769   5.892  1.00  0.00     0.173 A 
ATOM     62  F   UNL     1      -9.084 -13.235   4.380  1.00  0.00    -0.203 F 
ATOM     63  C   UNL     1     -11.400 -12.912   4.129  1.00  0.00     0.198 A 
ATOM     64  C   UNL     1     -12.507 -11.157   5.335  1.00  0.00     0.198 A 
ATOM     65  F   UNL     1     -11.271  -9.726   6.734  1.00  0.00    -0.203 F 
ATOM     66  F   UNL     1     -11.444 -13.923   3.251  1.00  0.00    -0.200 F 
ATOM     67  C   UNL     1     -12.559 -12.221   4.449  1.00  0.00     0.200 A 
ATOM     68  F   UNL     1     -13.629 -10.498   5.657  1.00  0.00    -0.200 F 
ATOM     69  F   UNL     1     -13.727 -12.578   3.897  1.00  0.00    -0.200 F 
ENDBRANCH  45  59
BRANCH  46  70
ATOM     70  C   UNL     1      -1.370  -8.575   9.473  1.00  0.00     0.064 A 
ATOM     71  C   UNL     1      -0.487  -9.507  10.038  1.00  0.00     0.173 A 
ATOM     72  C   UNL     1      -0.998  -7.223   9.507  1.00  0.00     0.173 A 
ATOM     73  F   UNL     1      -0.807 -10.809  10.049  1.00  0.00    -0.203 F 
ATOM     74  C   UNL     1       0.703  -9.101  10.637  1.00  0.00     0.198 A 
ATOM     75  C   UNL     1       0.207  -6.822  10.079  1.00  0.00     0.198 A 
ATOM     76  F   UNL     1      -1.804  -6.291   8.976  1.00  0.00    -0.203 F 
ATOM     77  F   UNL     1       1.501 -10.008  11.218  1.00  0.00    -0.200 F 
ATOM     78  C   UNL     1       1.052  -7.760  10.653  1.00  0.00     0.200 A 
ATOM     79  F   UNL     1       0.548  -5.526  10.078  1.00  0.00    -0.200 F 
ATOM     80  F   UNL     1       2.197  -7.370  11.230  1.00  0.00    -0.200 F 
ENDBRANCH  46  70
BRANCH  58  81
ATOM     81  C   UNL     1      -7.115 -11.455  12.157  1.00  0.00     0.064 A 
ATOM     82  C   UNL     1      -7.369 -10.526  13.177  1.00  0.00     0.173 A 
ATOM     83  C   UNL     1      -7.240 -12.819  12.465  1.00  0.00     0.173 A 
ATOM     84  F   UNL     1      -7.248  -9.211  12.939  1.00  0.00    -0.203 F 
ATOM     85  C   UNL     1      -7.705 -10.948  14.461  1.00  0.00     0.198 A 
ATOM     86  C   UNL     1      -7.609 -13.235  13.740  1.00  0.00     0.198 A 
ATOM     87  F   UNL     1      -7.015 -13.748  11.524  1.00  0.00    -0.203 F 
ATOM     88  F   UNL     1      -7.891 -10.044  15.433  1.00  0.00    -0.200 F 
ATOM     89  C   UNL     1      -7.832 -12.300  14.739  1.00  0.00     0.200 A 
ATOM     90  F   UNL     1      -7.746 -14.542  14.004  1.00  0.00    -0.200 F 
ATOM     91  F   UNL     1      -8.163 -12.703  15.974  1.00  0.00    -0.200 F 
ENDBRANCH  58  81
ENDBRANCH  32  33
ENDBRANCH  24  27
ENDBRANCH  22  23
ENDBRANCH   1  22
TORSDOF 12
