REMARK SMILES O=C(NCCCNC(=O)c1ccc(-c2c3nc(c(-c4c(F)c(F)c(F)c(F)c4F)c4ccc([nH]4)c(-c4c(F)c(F)c(F)c(F)c4F)c4nc(c(-c5c(F)c(F)c(F)c(F)c5F)c5ccc2[nH]5)C=C4)C=C3)cc1)c1ccc(C#CC#C[C@H]2C[C@@H](O)C2)cc1
REMARK SMILES IDX 4 1 3 2 1 3 2 4 73 6 74 7 87 8 75 9 86 10 76 11 77 12 78 13
REMARK SMILES IDX 79 14 80 15 81 16 85 17 82 18 83 19 84 20 5 22 6 23 7 24
REMARK SMILES IDX 8 25 9 27 10 28 11 29 72 30 12 31 71 32 13 33 14 34 15 35
REMARK SMILES IDX 65 36 16 37 70 38 64 39 66 40 17 41 69 42 63 43 62 44 18 46
REMARK SMILES IDX 50 47 30 48 49 49 31 50 34 51 48 52 67 53 32 54 33 55 47 57
REMARK SMILES IDX 68 58 35 59 19 60 20 61 28 62 21 63 22 64 26 65 29 66 23 67
REMARK SMILES IDX 24 68 27 69 25 70 51 71 52 72 60 73 53 74 54 75 58 76 61 77
REMARK SMILES IDX 55 78 56 79 59 80 57 81 36 82 37 83 45 84 38 85 39 86 43 87
REMARK SMILES IDX 46 88 40 89 41 90 44 91 42 92
REMARK H PARENT 3 5 84 21 7 26 66 45 34 56
REMARK Flexibility Score: inf
ROOT
ATOM      1  C   UNL     1       4.594  -0.990  -0.873  1.00  0.00     0.118 C 
ENDROOT
BRANCH   1   2
ATOM      2  N   UNL     1       3.161  -0.738  -0.824  1.00  0.00    -0.352 N 
ATOM      3  O   UNL     1       1.214   0.073  -0.038  1.00  0.00    -0.269 OA
ATOM      4  C   UNL     1       2.441   0.125  -0.036  1.00  0.00     0.251 C 
ATOM      5  H   UNL     1       2.625  -1.271  -1.454  1.00  0.00     0.163 HD
BRANCH   4   6
ATOM      6  C   UNL     1       3.133   1.091   0.845  1.00  0.00     0.039 A 
ATOM      7  C   UNL     1       4.187   1.881   0.376  1.00  0.00     0.015 A 
ATOM      8  C   UNL     1       2.700   1.214   2.169  1.00  0.00     0.015 A 
ATOM      9  C   UNL     1       4.890   2.699   1.261  1.00  0.00     0.018 A 
ATOM     10  C   UNL     1       3.384   2.058   3.047  1.00  0.00     0.018 A 
ATOM     11  C   UNL     1       4.495   2.778   2.598  1.00  0.00     0.026 A 
BRANCH  11  12
ATOM     12  C   UNL     1       5.231   3.603   3.500  1.00  0.00    -0.053 C 
ATOM     13  C   UNL     1       5.867   4.307   4.237  1.00  0.00    -0.010 C 
BRANCH  13  14
ATOM     14  C   UNL     1       6.682   5.222   5.147  1.00  0.00    -0.015 C 
ATOM     15  C   UNL     1       7.323   5.958   5.846  1.00  0.00    -0.085 C 
BRANCH  15  16
ATOM     16  C   UNL     1       8.097   6.852   6.673  1.00  0.00     0.070 C 
ATOM     17  C   UNL     1       7.803   8.363   6.491  1.00  0.00     0.048 C 
ATOM     18  C   UNL     1       7.607   7.020   8.132  1.00  0.00     0.048 C 
ATOM     19  C   UNL     1       8.003   8.511   8.018  1.00  0.00     0.116 C 
BRANCH  19  20
ATOM     20  O   UNL     1       7.157   9.458   8.691  1.00  0.00    -0.393 OA
ATOM     21  H   UNL     1       6.232   9.295   8.448  1.00  0.00     0.210 HD
ENDBRANCH  19  20
ENDBRANCH  15  16
ENDBRANCH  13  14
ENDBRANCH  11  12
ENDBRANCH   4   6
ENDBRANCH   1   2
BRANCH   1  22
ATOM     22  C   UNL     1       4.976  -2.348  -0.305  1.00  0.00     0.042 C 
BRANCH  22  23
ATOM     23  C   UNL     1       4.445  -3.533  -1.099  1.00  0.00     0.118 C 
BRANCH  23  24
ATOM     24  N   UNL     1       4.917  -3.546  -2.476  1.00  0.00    -0.352 N 
ATOM     25  C   UNL     1       5.679  -4.457  -3.161  1.00  0.00     0.251 C 
ATOM     26  H   UNL     1       4.640  -2.765  -3.008  1.00  0.00     0.163 HD
ATOM     27  O   UNL     1       6.116  -4.156  -4.269  1.00  0.00    -0.269 OA
BRANCH  25  28
ATOM     28  C   UNL     1       6.000  -5.783  -2.586  1.00  0.00     0.039 A 
ATOM     29  C   UNL     1       7.247  -6.346  -2.871  1.00  0.00     0.014 A 
ATOM     30  C   UNL     1       5.082  -6.498  -1.813  1.00  0.00     0.014 A 
ATOM     31  C   UNL     1       7.587  -7.590  -2.339  1.00  0.00     0.010 A 
ATOM     32  C   UNL     1       5.462  -7.688  -1.196  1.00  0.00     0.010 A 
ATOM     33  C   UNL     1       6.714  -8.256  -1.462  1.00  0.00    -0.014 A 
BRANCH  33  34
ATOM     34  C   UNL     1       7.121  -9.535  -0.821  1.00  0.00     0.031 A 
ATOM     35  C   UNL     1       6.349 -10.803  -1.066  1.00  0.00     0.074 A 
ATOM     36  C   UNL     1       8.186  -9.545   0.005  1.00  0.00     0.049 A 
ATOM     37  N   UNL     1       6.583 -12.012  -0.619  1.00  0.00    -0.248 NA
ATOM     38  C   UNL     1       5.142 -10.702  -1.902  1.00  0.00     0.031 C 
ATOM     39  C   UNL     1       8.976  -8.369   0.375  1.00  0.00     0.029 A 
ATOM     40  N   UNL     1       8.794 -10.576   0.676  1.00  0.00    -0.354 N 
ATOM     41  C   UNL     1       5.557 -12.807  -1.113  1.00  0.00     0.074 A 
ATOM     42  C   UNL     1       4.663 -11.936  -1.842  1.00  0.00     0.031 C 
ATOM     43  C   UNL     1       9.989  -8.751   1.168  1.00  0.00     0.029 A 
ATOM     44  C   UNL     1       9.894 -10.187   1.401  1.00  0.00     0.049 A 
ATOM     45  H   UNL     1       8.472 -11.506   0.642  1.00  0.00     0.167 HD
ATOM     46  C   UNL     1       5.390 -14.147  -0.992  1.00  0.00     0.037 A 
ATOM     47  C   UNL     1      10.732 -10.907   2.172  1.00  0.00     0.037 A 
ATOM     48  C   UNL     1       6.291 -15.012  -0.274  1.00  0.00     0.049 A 
ATOM     49  C   UNL     1      10.518 -12.392   2.292  1.00  0.00     0.074 A 
ATOM     50  C   UNL     1       6.244 -16.390  -0.146  1.00  0.00     0.029 A 
ATOM     51  N   UNL     1       7.394 -14.583   0.451  1.00  0.00    -0.354 N 
ATOM     52  N   UNL     1       9.597 -13.145   1.742  1.00  0.00    -0.248 NA
ATOM     53  C   UNL     1      11.472 -13.128   3.131  1.00  0.00     0.031 C 
ATOM     54  C   UNL     1       7.273 -16.786   0.714  1.00  0.00     0.029 A 
ATOM     55  C   UNL     1       8.012 -15.666   1.058  1.00  0.00     0.049 A 
ATOM     56  H   UNL     1       7.693 -13.648   0.523  1.00  0.00     0.167 HD
ATOM     57  C   UNL     1       9.874 -14.444   2.147  1.00  0.00     0.074 A 
ATOM     58  C   UNL     1      11.070 -14.378   2.961  1.00  0.00     0.031 C 
ATOM     59  C   UNL     1       9.198 -15.588   1.873  1.00  0.00     0.037 A 
BRANCH  46  60
ATOM     60  C   UNL     1       4.185 -14.766  -1.644  1.00  0.00     0.064 A 
ATOM     61  C   UNL     1       4.048 -14.831  -3.039  1.00  0.00     0.173 A 
ATOM     62  C   UNL     1       3.180 -15.357  -0.862  1.00  0.00     0.173 A 
ATOM     63  F   UNL     1       4.973 -14.275  -3.836  1.00  0.00    -0.203 F 
ATOM     64  C   UNL     1       2.939 -15.438  -3.625  1.00  0.00     0.198 A 
ATOM     65  C   UNL     1       2.091 -15.995  -1.452  1.00  0.00     0.198 A 
ATOM     66  F   UNL     1       3.260 -15.331   0.477  1.00  0.00    -0.203 F 
ATOM     67  F   UNL     1       2.807 -15.443  -4.959  1.00  0.00    -0.200 F 
ATOM     68  C   UNL     1       1.968 -16.028  -2.832  1.00  0.00     0.200 A 
ATOM     69  F   UNL     1       1.163 -16.581  -0.683  1.00  0.00    -0.200 F 
ATOM     70  F   UNL     1       0.910 -16.626  -3.397  1.00  0.00    -0.200 F 
ENDBRANCH  46  60
BRANCH  47  71
ATOM     71  C   UNL     1      11.855 -10.237   2.883  1.00  0.00     0.064 A 
ATOM     72  C   UNL     1      13.191 -10.517   2.562  1.00  0.00     0.173 A 
ATOM     73  C   UNL     1      11.615  -9.319   3.917  1.00  0.00     0.173 A 
ATOM     74  F   UNL     1      13.476 -11.400   1.593  1.00  0.00    -0.203 F 
ATOM     75  C   UNL     1      14.240  -9.934   3.269  1.00  0.00     0.198 A 
ATOM     76  C   UNL     1      12.665  -8.707   4.597  1.00  0.00     0.198 A 
ATOM     77  F   UNL     1      10.356  -9.008   4.261  1.00  0.00    -0.203 F 
ATOM     78  F   UNL     1      15.505 -10.271   2.984  1.00  0.00    -0.200 F 
ATOM     79  C   UNL     1      13.977  -9.025   4.282  1.00  0.00     0.200 A 
ATOM     80  F   UNL     1      12.405  -7.813   5.561  1.00  0.00    -0.200 F 
ATOM     81  F   UNL     1      14.986  -8.464   4.962  1.00  0.00    -0.200 F 
ENDBRANCH  47  71
BRANCH  59  82
ATOM     82  C   UNL     1       9.761 -16.866   2.434  1.00  0.00     0.064 A 
ATOM     83  C   UNL     1       9.789 -17.121   3.814  1.00  0.00     0.173 A 
ATOM     84  C   UNL     1      10.282 -17.849   1.578  1.00  0.00     0.173 A 
ATOM     85  F   UNL     1       9.314 -16.212   4.680  1.00  0.00    -0.203 F 
ATOM     86  C   UNL     1      10.366 -18.285   4.317  1.00  0.00     0.198 A 
ATOM     87  C   UNL     1      10.816 -19.031   2.082  1.00  0.00     0.198 A 
ATOM     88  F   UNL     1      10.270 -17.665   0.249  1.00  0.00    -0.203 F 
ATOM     89  F   UNL     1      10.454 -18.468   5.642  1.00  0.00    -0.200 F 
ATOM     90  C   UNL     1      10.874 -19.241   3.451  1.00  0.00     0.200 A 
ATOM     91  F   UNL     1      11.287 -19.963   1.242  1.00  0.00    -0.200 F 
ATOM     92  F   UNL     1      11.430 -20.359   3.936  1.00  0.00    -0.200 F 
ENDBRANCH  59  82
ENDBRANCH  33  34
ENDBRANCH  25  28
ENDBRANCH  23  24
ENDBRANCH  22  23
ENDBRANCH   1  22
TORSDOF 14
