REMARK SMILES O=C(NCCCNC(=O)c1csc(CNc2ccc(-n3cccn3)nc2)c1)c1ccc(-c2c3nc(c(-c4c(F)c(F)c(F)c(F)c4F)c4ccc([nH]4)c(-c4c(F)c(F)c(F)c(F)c4F)c4nc(c(-c5c(F)c(F)c(F)c(F)c5F)c5ccc2[nH]5)C=C4)C=C3)cc1
REMARK SMILES IDX 6 1 5 2 4 3 3 4 1 5 2 6 28 8 29 9 90 10 30 11 89 12 31 13
REMARK SMILES IDX 32 14 33 15 83 16 34 17 88 18 82 19 84 20 35 21 87 22 81 23
REMARK SMILES IDX 80 24 36 26 68 27 48 28 67 29 49 30 52 31 66 32 85 33 50 34
REMARK SMILES IDX 51 35 65 37 86 38 53 39 37 40 38 41 46 42 39 43 40 44 44 45
REMARK SMILES IDX 47 46 41 47 42 48 45 49 43 50 69 51 70 52 78 53 71 54 72 55
REMARK SMILES IDX 76 56 79 57 73 58 74 59 77 60 75 61 54 62 55 63 63 64 56 65
REMARK SMILES IDX 57 66 61 67 64 68 58 69 59 70 62 71 60 72 7 73 8 74 9 76
REMARK SMILES IDX 10 77 11 78 27 79 12 80 13 81 14 82 15 83 16 85 17 86 26 87
REMARK SMILES IDX 18 88 25 89 19 90 20 91 21 92 24 93 22 94 23 95
REMARK H PARENT 3 7 84 25 52 36 7 75 15 84
REMARK Flexibility Score: inf
ROOT
ATOM      1  C   UNL     1       4.449   1.282  -3.386  1.00  0.00     0.118 C 
ENDROOT
BRANCH   1   2
ATOM      2  C   UNL     1       4.979   0.359  -2.289  1.00  0.00     0.042 C 
BRANCH   2   3
ATOM      3  C   UNL     1       4.678   0.810  -0.858  1.00  0.00     0.118 C 
BRANCH   3   4
ATOM      4  N   UNL     1       3.275   1.030  -0.571  1.00  0.00    -0.352 N 
ATOM      5  O   UNL     1       1.202   0.836   0.154  1.00  0.00    -0.269 OA
ATOM      6  C   UNL     1       2.235   0.241  -0.165  1.00  0.00     0.251 C 
ATOM      7  H   UNL     1       3.008   1.969  -0.698  1.00  0.00     0.163 HD
BRANCH   6   8
ATOM      8  C   UNL     1       2.235  -1.248  -0.138  1.00  0.00     0.039 A 
ATOM      9  C   UNL     1       3.326  -2.073  -0.412  1.00  0.00     0.014 A 
ATOM     10  C   UNL     1       0.995  -1.853   0.146  1.00  0.00     0.014 A 
ATOM     11  C   UNL     1       3.168  -3.456  -0.488  1.00  0.00     0.010 A 
ATOM     12  C   UNL     1       0.835  -3.234   0.093  1.00  0.00     0.010 A 
ATOM     13  C   UNL     1       1.917  -4.034  -0.263  1.00  0.00    -0.014 A 
BRANCH  13  14
ATOM     14  C   UNL     1       1.808  -5.492  -0.298  1.00  0.00     0.031 A 
ATOM     15  C   UNL     1       2.538  -6.229   0.779  1.00  0.00     0.074 A 
ATOM     16  C   UNL     1       0.969  -6.144  -1.128  1.00  0.00     0.049 A 
ATOM     17  N   UNL     1       3.365  -7.220   0.670  1.00  0.00    -0.248 NA
ATOM     18  C   UNL     1       2.347  -5.764   2.163  1.00  0.00     0.031 C 
ATOM     19  C   UNL     1      -0.038  -5.565  -2.020  1.00  0.00     0.029 A 
ATOM     20  N   UNL     1       0.763  -7.488  -1.258  1.00  0.00    -0.354 N 
ATOM     21  C   UNL     1       3.688  -7.605   1.974  1.00  0.00     0.074 A 
ATOM     22  C   UNL     1       3.115  -6.613   2.845  1.00  0.00     0.031 C 
ATOM     23  C   UNL     1      -0.883  -6.538  -2.427  1.00  0.00     0.029 A 
ATOM     24  C   UNL     1      -0.407  -7.817  -1.927  1.00  0.00     0.049 A 
ATOM     25  H   UNL     1       1.390  -8.163  -0.909  1.00  0.00     0.167 HD
ATOM     26  C   UNL     1       4.248  -8.815   2.254  1.00  0.00     0.037 A 
ATOM     27  C   UNL     1      -0.986  -9.040  -2.000  1.00  0.00     0.037 A 
ATOM     28  C   UNL     1       4.918  -9.366   1.107  1.00  0.00     0.049 A 
ATOM     29  C   UNL     1       0.035 -10.056  -1.653  1.00  0.00     0.074 A 
ATOM     30  C   UNL     1       5.968  -8.963   0.304  1.00  0.00     0.029 A 
ATOM     31  N   UNL     1       4.332 -10.409   0.436  1.00  0.00    -0.354 N 
ATOM     32  N   UNL     1       1.056 -10.362  -2.402  1.00  0.00    -0.248 NA
ATOM     33  C   UNL     1       0.131 -10.475  -0.263  1.00  0.00     0.031 C 
ATOM     34  C   UNL     1       5.640  -9.438  -1.001  1.00  0.00     0.029 A 
ATOM     35  C   UNL     1       4.430 -10.122  -0.898  1.00  0.00     0.049 A 
ATOM     36  H   UNL     1       3.922 -11.209   0.837  1.00  0.00     0.167 HD
ATOM     37  C   UNL     1       2.081 -10.621  -1.507  1.00  0.00     0.074 A 
ATOM     38  C   UNL     1       1.427 -10.785  -0.213  1.00  0.00     0.031 C 
ATOM     39  C   UNL     1       3.384 -10.402  -1.849  1.00  0.00     0.037 A 
BRANCH  26  40
ATOM     40  C   UNL     1       3.897  -9.659   3.463  1.00  0.00     0.064 A 
ATOM     41  C   UNL     1       4.578 -10.879   3.669  1.00  0.00     0.173 A 
ATOM     42  C   UNL     1       2.722  -9.490   4.226  1.00  0.00     0.173 A 
ATOM     43  F   UNL     1       5.712 -11.152   3.005  1.00  0.00    -0.203 F 
ATOM     44  C   UNL     1       4.056 -11.893   4.478  1.00  0.00     0.198 A 
ATOM     45  C   UNL     1       2.232 -10.484   5.073  1.00  0.00     0.198 A 
ATOM     46  F   UNL     1       1.941  -8.411   4.106  1.00  0.00    -0.203 F 
ATOM     47  F   UNL     1       4.663 -13.086   4.522  1.00  0.00    -0.200 F 
ATOM     48  C   UNL     1       2.875 -11.700   5.167  1.00  0.00     0.200 A 
ATOM     49  F   UNL     1       1.081 -10.281   5.729  1.00  0.00    -0.200 F 
ATOM     50  F   UNL     1       2.332 -12.694   5.881  1.00  0.00    -0.200 F 
ENDBRANCH  26  40
BRANCH  27  51
ATOM     51  C   UNL     1      -2.429  -9.367  -2.068  1.00  0.00     0.064 A 
ATOM     52  C   UNL     1      -2.872 -10.628  -2.497  1.00  0.00     0.173 A 
ATOM     53  C   UNL     1      -3.392  -8.539  -1.457  1.00  0.00     0.173 A 
ATOM     54  F   UNL     1      -2.009 -11.497  -3.041  1.00  0.00    -0.203 F 
ATOM     55  C   UNL     1      -4.196 -11.042  -2.311  1.00  0.00     0.198 A 
ATOM     56  C   UNL     1      -4.713  -8.948  -1.282  1.00  0.00     0.198 A 
ATOM     57  F   UNL     1      -3.046  -7.355  -0.931  1.00  0.00    -0.203 F 
ATOM     58  F   UNL     1      -4.568 -12.276  -2.677  1.00  0.00    -0.200 F 
ATOM     59  C   UNL     1      -5.112 -10.204  -1.697  1.00  0.00     0.200 A 
ATOM     60  F   UNL     1      -5.580  -8.142  -0.652  1.00  0.00    -0.200 F 
ATOM     61  F   UNL     1      -6.365 -10.621  -1.466  1.00  0.00    -0.200 F 
ENDBRANCH  27  51
BRANCH  39  62
ATOM     62  C   UNL     1       3.697 -10.159  -3.295  1.00  0.00     0.064 A 
ATOM     63  C   UNL     1       3.212  -9.059  -4.023  1.00  0.00     0.173 A 
ATOM     64  C   UNL     1       4.632 -10.990  -3.925  1.00  0.00     0.173 A 
ATOM     65  F   UNL     1       2.401  -8.158  -3.454  1.00  0.00    -0.203 F 
ATOM     66  C   UNL     1       3.607  -8.835  -5.340  1.00  0.00     0.198 A 
ATOM     67  C   UNL     1       5.054 -10.742  -5.228  1.00  0.00     0.198 A 
ATOM     68  F   UNL     1       5.176 -12.019  -3.256  1.00  0.00    -0.203 F 
ATOM     69  F   UNL     1       3.120  -7.786  -6.019  1.00  0.00    -0.200 F 
ATOM     70  C   UNL     1       4.533  -9.674  -5.939  1.00  0.00     0.200 A 
ATOM     71  F   UNL     1       5.990 -11.524  -5.784  1.00  0.00    -0.200 F 
ATOM     72  F   UNL     1       4.946  -9.434  -7.191  1.00  0.00    -0.200 F 
ENDBRANCH  39  62
ENDBRANCH  13  14
ENDBRANCH   6   8
ENDBRANCH   3   4
ENDBRANCH   2   3
ENDBRANCH   1   2
BRANCH   1  73
ATOM     73  N   UNL     1       4.992   2.625  -3.293  1.00  0.00    -0.352 N 
ATOM     74  C   UNL     1       5.854   3.308  -4.112  1.00  0.00     0.252 C 
ATOM     75  H   UNL     1       4.689   3.133  -2.506  1.00  0.00     0.163 HD
ATOM     76  O   UNL     1       6.363   4.339  -3.684  1.00  0.00    -0.269 OA
BRANCH  74  77
ATOM     77  C   UNL     1       6.165   2.807  -5.447  1.00  0.00     0.050 A 
ATOM     78  C   UNL     1       5.247   2.298  -6.346  1.00  0.00     0.079 A 
ATOM     79  C   UNL     1       7.464   2.894  -6.057  1.00  0.00     0.031 A 
ATOM     80  S   UNL     1       5.948   1.861  -7.841  1.00  0.00    -0.146 S 
ATOM     81  C   UNL     1       7.497   2.398  -7.345  1.00  0.00     0.024 A 
BRANCH  81  82
ATOM     82  C   UNL     1       8.668   2.291  -8.285  1.00  0.00     0.159 C 
BRANCH  82  83
ATOM     83  N   UNL     1       9.027   0.909  -8.575  1.00  0.00    -0.379 N 
ATOM     84  H   UNL     1       9.231   0.293  -7.834  1.00  0.00     0.160 HD
BRANCH  83  85
ATOM     85  C   UNL     1       9.085   0.452  -9.880  1.00  0.00     0.053 A 
ATOM     86  C   UNL     1       9.773   1.127 -10.886  1.00  0.00     0.031 A 
ATOM     87  C   UNL     1       8.388  -0.690 -10.275  1.00  0.00     0.139 A 
ATOM     88  C   UNL     1       9.796   0.624 -12.190  1.00  0.00     0.051 A 
ATOM     89  N   UNL     1       8.339  -1.178 -11.537  1.00  0.00    -0.235 NA
ATOM     90  C   UNL     1       9.068  -0.529 -12.479  1.00  0.00     0.153 A 
BRANCH  90  91
ATOM     91  N   UNL     1       9.088  -1.052 -13.810  1.00  0.00    -0.223 N 
ATOM     92  C   UNL     1      10.087  -0.896 -14.754  1.00  0.00     0.117 A 
ATOM     93  N   UNL     1       8.063  -1.798 -14.305  1.00  0.00    -0.175 NA
ATOM     94  C   UNL     1       9.665  -1.528 -15.899  1.00  0.00     0.042 A 
ATOM     95  C   UNL     1       8.398  -2.033 -15.573  1.00  0.00     0.135 A 
ENDBRANCH  90  91
ENDBRANCH  83  85
ENDBRANCH  82  83
ENDBRANCH  81  82
ENDBRANCH  74  77
ENDBRANCH   1  73
TORSDOF 14
