REMARK SMILES C[C@H]1[C@H](C(=O)NCCCNC(=O)c2ccc(-c3c4nc(c(-c5c(F)c(F)c(F)c(F)c5F)c5ccc([nH]5)c(-c5c(F)c(F)c(F)c(F)c5F)c5nc(c(-c6c(F)c(F)c(F)c(F)c6F)c6ccc3[nH]6)C=C5)C=C4)cc2)CCN1C(=O)COc1ccccc1F
REMARK SMILES IDX 7 1 6 2 4 3 5 4 3 6 1 7 2 8 78 9 76 10 77 11 79 12 80 13
REMARK SMILES IDX 81 14 82 15 83 16 84 17 88 18 85 19 87 20 89 21 86 22 8 23
REMARK SMILES IDX 9 24 10 25 11 26 12 28 13 29 14 30 75 31 15 32 74 33 16 34
REMARK SMILES IDX 17 35 18 36 68 37 19 38 73 39 67 40 69 41 20 42 72 43 66 44
REMARK SMILES IDX 65 45 21 47 53 48 33 49 52 50 34 51 37 52 51 53 70 54 35 55
REMARK SMILES IDX 36 56 50 58 71 59 38 60 22 61 23 62 31 63 24 64 25 65 29 66
REMARK SMILES IDX 32 67 26 68 27 69 30 70 28 71 54 72 55 73 63 74 56 75 57 76
REMARK SMILES IDX 61 77 64 78 58 79 59 80 62 81 60 82 39 83 40 84 48 85 41 86
REMARK SMILES IDX 42 87 46 88 49 89 43 90 44 91 47 92 45 93
REMARK H PARENT 6 5 10 27 69 46 37 57
REMARK Flexibility Score: inf
ROOT
ATOM      1  C   UNL     1      -1.225   0.661   2.897  1.00  0.00     0.117 C 
ENDROOT
BRANCH   1   2
ATOM      2  N   UNL     1      -0.649   1.912   2.433  1.00  0.00    -0.356 N 
ATOM      3  C   UNL     1      -0.132   2.278   1.233  1.00  0.00     0.225 C 
ATOM      4  O   UNL     1       0.330   3.419   1.146  1.00  0.00    -0.275 OA
ATOM      5  H   UNL     1      -0.631   2.624   3.113  1.00  0.00     0.163 HD
BRANCH   3   6
ATOM      6  C   UNL     1      -0.093   1.352   0.031  1.00  0.00     0.102 C 
ATOM      7  C   UNL     1       1.962   0.195  -0.796  1.00  0.00     0.032 C 
ATOM      8  C   UNL     1       0.838   0.141   0.239  1.00  0.00     0.094 C 
ATOM      9  N   UNL     1      -0.046  -1.019   0.100  1.00  0.00    -0.336 N 
ATOM     10  C   UNL     1      -1.461   0.819  -0.395  1.00  0.00     0.037 C 
ATOM     11  C   UNL     1      -1.268  -0.670  -0.599  1.00  0.00     0.121 C 
BRANCH   9  12
ATOM     12  C   UNL     1       0.078  -2.281   0.645  1.00  0.00     0.260 C 
ATOM     13  O   UNL     1      -0.915  -2.994   0.833  1.00  0.00    -0.271 OA
BRANCH  12  14
ATOM     14  C   UNL     1       1.458  -2.810   1.060  1.00  0.00     0.329 C 
BRANCH  14  15
ATOM     15  O   UNL     1       2.619  -2.635   0.279  1.00  0.00    -0.481 OA
BRANCH  15  16
ATOM     16  C   UNL     1       2.744  -3.286  -0.917  1.00  0.00     0.155 A 
ATOM     17  C   UNL     1       4.071  -3.522  -1.300  1.00  0.00     0.049 A 
ATOM     18  C   UNL     1       1.732  -3.623  -1.817  1.00  0.00     0.165 A 
ATOM     19  C   UNL     1       4.372  -4.078  -2.548  1.00  0.00     0.004 A 
ATOM     20  C   UNL     1       2.027  -4.164  -3.068  1.00  0.00     0.043 A 
ATOM     21  F   UNL     1       0.443  -3.398  -1.555  1.00  0.00    -0.203 F 
ATOM     22  C   UNL     1       3.349  -4.392  -3.438  1.00  0.00     0.003 A 
ENDBRANCH  15  16
ENDBRANCH  14  15
ENDBRANCH  12  14
ENDBRANCH   9  12
ENDBRANCH   3   6
ENDBRANCH   1   2
BRANCH   1  23
ATOM     23  C   UNL     1      -0.335  -0.036   3.918  1.00  0.00     0.042 C 
BRANCH  23  24
ATOM     24  C   UNL     1      -0.163   0.738   5.219  1.00  0.00     0.118 C 
BRANCH  24  25
ATOM     25  N   UNL     1      -1.415   0.906   5.943  1.00  0.00    -0.352 N 
ATOM     26  C   UNL     1      -1.771   0.505   7.204  1.00  0.00     0.251 C 
ATOM     27  H   UNL     1      -2.119   1.384   5.447  1.00  0.00     0.163 HD
ATOM     28  O   UNL     1      -2.948   0.587   7.557  1.00  0.00    -0.269 OA
BRANCH  26  29
ATOM     29  C   UNL     1      -0.765  -0.038   8.140  1.00  0.00     0.039 A 
ATOM     30  C   UNL     1      -1.117  -1.124   8.948  1.00  0.00     0.014 A 
ATOM     31  C   UNL     1       0.504   0.535   8.258  1.00  0.00     0.014 A 
ATOM     32  C   UNL     1      -0.181  -1.668   9.828  1.00  0.00     0.010 A 
ATOM     33  C   UNL     1       1.462  -0.057   9.078  1.00  0.00     0.010 A 
ATOM     34  C   UNL     1       1.127  -1.159   9.877  1.00  0.00    -0.014 A 
BRANCH  34  35
ATOM     35  C   UNL     1       2.151  -1.766  10.763  1.00  0.00     0.031 A 
ATOM     36  C   UNL     1       2.742  -0.972  11.895  1.00  0.00     0.074 A 
ATOM     37  C   UNL     1       2.592  -3.013  10.510  1.00  0.00     0.049 A 
ATOM     38  N   UNL     1       3.683  -1.310  12.741  1.00  0.00    -0.248 NA
ATOM     39  C   UNL     1       2.226   0.392  12.085  1.00  0.00     0.031 C 
ATOM     40  C   UNL     1       2.140  -3.861   9.406  1.00  0.00     0.029 A 
ATOM     41  N   UNL     1       3.527  -3.780  11.158  1.00  0.00    -0.354 N 
ATOM     42  C   UNL     1       3.880  -0.199  13.550  1.00  0.00     0.074 A 
ATOM     43  C   UNL     1       3.001   0.842  13.061  1.00  0.00     0.031 C 
ATOM     44  C   UNL     1       2.782  -5.038   9.466  1.00  0.00     0.029 A 
ATOM     45  C   UNL     1       3.711  -5.017  10.591  1.00  0.00     0.049 A 
ATOM     46  H   UNL     1       4.019  -3.473  11.954  1.00  0.00     0.167 HD
ATOM     47  C   UNL     1       4.700  -0.067  14.620  1.00  0.00     0.037 A 
ATOM     48  C   UNL     1       4.537  -6.021  10.940  1.00  0.00     0.037 A 
ATOM     49  C   UNL     1       5.554  -1.112  15.120  1.00  0.00     0.049 A 
ATOM     50  C   UNL     1       5.422  -5.858  12.145  1.00  0.00     0.074 A 
ATOM     51  C   UNL     1       6.381  -1.097  16.230  1.00  0.00     0.029 A 
ATOM     52  N   UNL     1       5.688  -2.365  14.540  1.00  0.00    -0.354 N 
ATOM     53  N   UNL     1       5.552  -4.825  12.942  1.00  0.00    -0.248 NA
ATOM     54  C   UNL     1       6.265  -7.005  12.506  1.00  0.00     0.031 C 
ATOM     55  C   UNL     1       7.043  -2.328  16.300  1.00  0.00     0.029 A 
ATOM     56  C   UNL     1       6.596  -3.126  15.260  1.00  0.00     0.049 A 
ATOM     57  H   UNL     1       5.209  -2.669  13.735  1.00  0.00     0.167 HD
ATOM     58  C   UNL     1       6.475  -5.202  13.907  1.00  0.00     0.074 A 
ATOM     59  C   UNL     1       6.856  -6.568  13.608  1.00  0.00     0.031 C 
ATOM     60  C   UNL     1       6.965  -4.483  14.946  1.00  0.00     0.037 A 
BRANCH  47  61
ATOM     61  C   UNL     1       4.704   1.257  15.328  1.00  0.00     0.064 A 
ATOM     62  C   UNL     1       3.605   1.685  16.089  1.00  0.00     0.173 A 
ATOM     63  C   UNL     1       5.827   2.096  15.269  1.00  0.00     0.173 A 
ATOM     64  F   UNL     1       2.502   0.925  16.167  1.00  0.00    -0.203 F 
ATOM     65  C   UNL     1       3.618   2.917  16.738  1.00  0.00     0.198 A 
ATOM     66  C   UNL     1       5.847   3.314  15.944  1.00  0.00     0.198 A 
ATOM     67  F   UNL     1       6.906   1.733  14.560  1.00  0.00    -0.203 F 
ATOM     68  F   UNL     1       2.537   3.326  17.416  1.00  0.00    -0.200 F 
ATOM     69  C   UNL     1       4.741   3.727  16.670  1.00  0.00     0.200 A 
ATOM     70  F   UNL     1       6.938   4.091  15.887  1.00  0.00    -0.200 F 
ATOM     71  F   UNL     1       4.753   4.910  17.299  1.00  0.00    -0.200 F 
ENDBRANCH  47  61
BRANCH  48  72
ATOM     72  C   UNL     1       4.541  -7.280  10.153  1.00  0.00     0.064 A 
ATOM     73  C   UNL     1       4.005  -8.461  10.683  1.00  0.00     0.173 A 
ATOM     74  C   UNL     1       5.071  -7.326   8.855  1.00  0.00     0.173 A 
ATOM     75  F   UNL     1       3.505  -8.470  11.927  1.00  0.00    -0.203 F 
ATOM     76  C   UNL     1       4.015  -9.647   9.952  1.00  0.00     0.198 A 
ATOM     77  C   UNL     1       5.056  -8.507   8.115  1.00  0.00     0.198 A 
ATOM     78  F   UNL     1       5.590  -6.221   8.301  1.00  0.00    -0.203 F 
ATOM     79  F   UNL     1       3.533 -10.772  10.498  1.00  0.00    -0.200 F 
ATOM     80  C   UNL     1       4.535  -9.667   8.666  1.00  0.00     0.200 A 
ATOM     81  F   UNL     1       5.547  -8.519   6.868  1.00  0.00    -0.200 F 
ATOM     82  F   UNL     1       4.539 -10.807   7.961  1.00  0.00    -0.200 F 
ENDBRANCH  48  72
BRANCH  60  83
ATOM     83  C   UNL     1       7.951  -5.167  15.845  1.00  0.00     0.064 A 
ATOM     84  C   UNL     1       9.264  -5.433  15.427  1.00  0.00     0.173 A 
ATOM     85  C   UNL     1       7.587  -5.538  17.148  1.00  0.00     0.173 A 
ATOM     86  F   UNL     1       9.654  -5.112  14.185  1.00  0.00    -0.203 F 
ATOM     87  C   UNL     1      10.167  -6.072  16.272  1.00  0.00     0.198 A 
ATOM     88  C   UNL     1       8.502  -6.152  18.000  1.00  0.00     0.198 A 
ATOM     89  F   UNL     1       6.346  -5.300  17.598  1.00  0.00    -0.203 F 
ATOM     90  F   UNL     1      11.400  -6.362  15.834  1.00  0.00    -0.200 F 
ATOM     91  C   UNL     1       9.788  -6.426  17.558  1.00  0.00     0.200 A 
ATOM     92  F   UNL     1       8.138  -6.482  19.246  1.00  0.00    -0.200 F 
ATOM     93  F   UNL     1      10.660  -7.039  18.370  1.00  0.00    -0.200 F 
ENDBRANCH  60  83
ENDBRANCH  34  35
ENDBRANCH  26  29
ENDBRANCH  24  25
ENDBRANCH  23  24
ENDBRANCH   1  23
TORSDOF 14
