REMARK SMILES Cc1ccc(Br)cc1S(=O)(=O)N[C@H]1C=C[C@H](C(=O)NCCCNC(=O)c2ccc(-c3c4nc(c(-c5c(F)c(F)c(F)c(F)c5F)c5ccc([nH]5)c(-c5c(F)c(F)c(F)c(F)c5F)c5nc(c(-c6c(F)c(F)c(F)c(F)c6F)c6ccc3[nH]6)C=C5)C=C4)cc2)C1
REMARK SMILES IDX 20 1 19 2 17 3 18 4 16 6 13 7 14 8 89 9 15 10 12 11 9 13
REMARK SMILES IDX 10 14 11 15 8 16 1 17 2 18 3 19 4 20 7 21 5 22 6 23 21 24
REMARK SMILES IDX 22 25 23 26 24 27 25 29 26 30 27 31 88 32 28 33 87 34 29 35
REMARK SMILES IDX 30 36 31 37 81 38 32 39 86 40 80 41 82 42 33 43 85 44 79 45
REMARK SMILES IDX 78 46 34 48 66 49 46 50 65 51 47 52 50 53 64 54 83 55 48 56
REMARK SMILES IDX 49 57 63 59 84 60 51 61 35 62 36 63 44 64 37 65 38 66 42 67
REMARK SMILES IDX 45 68 39 69 40 70 43 71 41 72 67 73 68 74 76 75 69 76 70 77
REMARK SMILES IDX 74 78 77 79 71 80 72 81 75 82 73 83 52 84 53 85 61 86 54 87
REMARK SMILES IDX 55 88 59 89 62 90 56 91 57 92 60 93 58 94
REMARK H PARENT 19 5 12 12 23 28 82 47 50 58
REMARK Flexibility Score: inf
ROOT
ATOM      1  C   UNL     1       3.232  -0.029  -3.770  1.00  0.00     0.117 C 
ENDROOT
BRANCH   1   2
ATOM      2  N   UNL     1       4.359  -0.908  -4.034  1.00  0.00    -0.356 N 
ATOM      3  C   UNL     1       5.547  -1.157  -3.434  1.00  0.00     0.226 C 
ATOM      4  O   UNL     1       6.330  -1.857  -4.091  1.00  0.00    -0.274 OA
ATOM      5  H   UNL     1       4.228  -1.452  -4.844  1.00  0.00     0.163 HD
BRANCH   3   6
ATOM      6  C   UNL     1       5.996  -0.641  -2.063  1.00  0.00     0.103 C 
ATOM      7  C   UNL     1       5.007   1.400  -1.189  1.00  0.00     0.093 C 
ATOM      8  C   UNL     1       6.413   1.635  -1.633  1.00  0.00    -0.011 C 
ATOM      9  C   UNL     1       4.985  -0.127  -1.053  1.00  0.00     0.042 C 
ATOM     10  C   UNL     1       6.942   0.521  -2.159  1.00  0.00    -0.016 C 
BRANCH   7  11
ATOM     11  N   UNL     1       4.746   2.035   0.080  1.00  0.00    -0.204 NA
ATOM     12  H   UNL     1       4.977   1.351   0.801  1.00  0.00     0.142 HD
BRANCH  11  13
ATOM     13  S   UNL     1       3.220   2.615   0.442  1.00  0.00     0.241 S 
ATOM     14  O   UNL     1       2.788   3.376  -0.717  1.00  0.00    -0.207 OA
ATOM     15  O   UNL     1       3.286   3.206   1.752  1.00  0.00    -0.207 OA
BRANCH  13  16
ATOM     16  C   UNL     1       2.182   1.164   0.555  1.00  0.00     0.086 A 
ATOM     17  C   UNL     1       3.708  -0.083   2.229  1.00  0.00     0.046 C 
ATOM     18  C   UNL     1       2.526   0.025   1.308  1.00  0.00    -0.031 A 
ATOM     19  C   UNL     1       1.685  -1.103   1.228  1.00  0.00     0.006 A 
ATOM     20  C   UNL     1       0.511  -1.083   0.473  1.00  0.00     0.016 A 
ATOM     21  C   UNL     1       0.986   1.189  -0.185  1.00  0.00     0.037 A 
ATOM     22  C   UNL     1       0.155   0.072  -0.210  1.00  0.00     0.019 A 
ATOM     23  Br  UNL     1      -1.467   0.127  -1.178  1.00  0.00    -0.051 Br
ENDBRANCH  13  16
ENDBRANCH  11  13
ENDBRANCH   7  11
ENDBRANCH   3   6
ENDBRANCH   1   2
BRANCH   1  24
ATOM     24  C   UNL     1       3.366   1.295  -4.511  1.00  0.00     0.042 C 
BRANCH  24  25
ATOM     25  C   UNL     1       3.212   1.150  -6.019  1.00  0.00     0.118 C 
BRANCH  25  26
ATOM     26  N   UNL     1       1.855   0.783  -6.404  1.00  0.00    -0.352 N 
ATOM     27  C   UNL     1       0.931   1.474  -7.147  1.00  0.00     0.251 C 
ATOM     28  H   UNL     1       1.556  -0.097  -6.082  1.00  0.00     0.163 HD
ATOM     29  O   UNL     1      -0.233   1.086  -7.187  1.00  0.00    -0.269 OA
BRANCH  27  30
ATOM     30  C   UNL     1       1.328   2.686  -7.894  1.00  0.00     0.039 A 
ATOM     31  C   UNL     1       0.465   3.784  -7.915  1.00  0.00     0.014 A 
ATOM     32  C   UNL     1       2.533   2.729  -8.599  1.00  0.00     0.014 A 
ATOM     33  C   UNL     1       0.837   4.946  -8.595  1.00  0.00     0.010 A 
ATOM     34  C   UNL     1       2.943   3.914  -9.198  1.00  0.00     0.010 A 
ATOM     35  C   UNL     1       2.092   5.030  -9.216  1.00  0.00    -0.014 A 
BRANCH  35  36
ATOM     36  C   UNL     1       2.532   6.258  -9.924  1.00  0.00     0.031 A 
ATOM     37  C   UNL     1       2.814   6.206 -11.401  1.00  0.00     0.074 A 
ATOM     38  C   UNL     1       2.757   7.388  -9.230  1.00  0.00     0.049 A 
ATOM     39  N   UNL     1       3.325   7.124 -12.182  1.00  0.00    -0.248 NA
ATOM     40  C   UNL     1       2.522   4.935 -12.084  1.00  0.00     0.031 C 
ATOM     41  C   UNL     1       2.572   7.548  -7.787  1.00  0.00     0.029 A 
ATOM     42  N   UNL     1       3.205   8.617  -9.645  1.00  0.00    -0.354 N 
ATOM     43  C   UNL     1       3.450   6.530 -13.430  1.00  0.00     0.074 A 
ATOM     44  C   UNL     1       3.005   5.160 -13.296  1.00  0.00     0.031 C 
ATOM     45  C   UNL     1       2.880   8.808  -7.441  1.00  0.00     0.029 A 
ATOM     46  C   UNL     1       3.318   9.534  -8.629  1.00  0.00     0.049 A 
ATOM     47  H   UNL     1       3.426   8.822 -10.582  1.00  0.00     0.167 HD
ATOM     48  C   UNL     1       3.878   7.083 -14.590  1.00  0.00     0.037 A 
ATOM     49  C   UNL     1       3.731  10.814  -8.656  1.00  0.00     0.037 A 
ATOM     50  C   UNL     1       4.260   8.463 -14.731  1.00  0.00     0.049 A 
ATOM     51  C   UNL     1       4.152  11.421  -9.967  1.00  0.00     0.074 A 
ATOM     52  C   UNL     1       4.626   9.145 -15.878  1.00  0.00     0.029 A 
ATOM     53  N   UNL     1       4.312   9.375 -13.687  1.00  0.00    -0.354 N 
ATOM     54  N   UNL     1       4.212  10.866 -11.153  1.00  0.00    -0.248 NA
ATOM     55  C   UNL     1       4.558  12.833  -9.943  1.00  0.00     0.031 C 
ATOM     56  C   UNL     1       4.927  10.464 -15.523  1.00  0.00     0.029 A 
ATOM     57  C   UNL     1       4.713  10.612 -14.162  1.00  0.00     0.049 A 
ATOM     58  H   UNL     1       4.095   9.172 -12.748  1.00  0.00     0.167 HD
ATOM     59  C   UNL     1       4.636  11.864 -12.019  1.00  0.00     0.074 A 
ATOM     60  C   UNL     1       4.807  13.062 -11.224  1.00  0.00     0.031 C 
ATOM     61  C   UNL     1       4.865  11.794 -13.353  1.00  0.00     0.037 A 
BRANCH  48  62
ATOM     62  C   UNL     1       3.945   6.196 -15.798  1.00  0.00     0.064 A 
ATOM     63  C   UNL     1       2.785   5.731 -16.436  1.00  0.00     0.173 A 
ATOM     64  C   UNL     1       5.185   5.825 -16.340  1.00  0.00     0.173 A 
ATOM     65  F   UNL     1       1.575   6.046 -15.950  1.00  0.00    -0.203 F 
ATOM     66  C   UNL     1       2.864   4.902 -17.552  1.00  0.00     0.198 A 
ATOM     67  C   UNL     1       5.260   5.019 -17.473  1.00  0.00     0.198 A 
ATOM     68  F   UNL     1       6.325   6.246 -15.771  1.00  0.00    -0.203 F 
ATOM     69  F   UNL     1       1.743   4.428 -18.112  1.00  0.00    -0.200 F 
ATOM     70  C   UNL     1       4.100   4.551 -18.073  1.00  0.00     0.200 A 
ATOM     71  F   UNL     1       6.455   4.690 -17.982  1.00  0.00    -0.200 F 
ATOM     72  F   UNL     1       4.174   3.756 -19.148  1.00  0.00    -0.200 F 
ENDBRANCH  48  62
BRANCH  49  73
ATOM     73  C   UNL     1       3.727  11.620  -7.410  1.00  0.00     0.064 A 
ATOM     74  C   UNL     1       2.779  12.635  -7.219  1.00  0.00     0.173 A 
ATOM     75  C   UNL     1       4.657  11.394  -6.386  1.00  0.00     0.173 A 
ATOM     76  F   UNL     1       1.882  12.902  -8.181  1.00  0.00    -0.203 F 
ATOM     77  C   UNL     1       2.772  13.405  -6.059  1.00  0.00     0.198 A 
ATOM     78  C   UNL     1       4.634  12.149  -5.215  1.00  0.00     0.198 A 
ATOM     79  F   UNL     1       5.581  10.431  -6.519  1.00  0.00    -0.203 F 
ATOM     80  F   UNL     1       1.879  14.395  -5.920  1.00  0.00    -0.200 F 
ATOM     81  C   UNL     1       3.696  13.158  -5.055  1.00  0.00     0.200 A 
ATOM     82  F   UNL     1       5.522  11.901  -4.242  1.00  0.00    -0.200 F 
ATOM     83  F   UNL     1       3.687  13.897  -3.937  1.00  0.00    -0.200 F 
ENDBRANCH  49  73
BRANCH  61  84
ATOM     84  C   UNL     1       5.292  13.055 -14.041  1.00  0.00     0.064 A 
ATOM     85  C   UNL     1       6.591  13.563 -13.898  1.00  0.00     0.173 A 
ATOM     86  C   UNL     1       4.404  13.738 -14.885  1.00  0.00     0.173 A 
ATOM     87  F   UNL     1       7.469  12.953 -13.088  1.00  0.00    -0.203 F 
ATOM     88  C   UNL     1       6.979  14.724 -14.561  1.00  0.00     0.198 A 
ATOM     89  C   UNL     1       4.804  14.884 -15.566  1.00  0.00     0.198 A 
ATOM     90  F   UNL     1       3.153  13.286 -15.058  1.00  0.00    -0.203 F 
ATOM     91  F   UNL     1       8.213  15.215 -14.380  1.00  0.00    -0.200 F 
ATOM     92  C   UNL     1       6.089  15.379 -15.399  1.00  0.00     0.200 A 
ATOM     93  F   UNL     1       3.946  15.510 -16.383  1.00  0.00    -0.200 F 
ATOM     94  F   UNL     1       6.467  16.492 -16.041  1.00  0.00    -0.200 F 
ENDBRANCH  61  84
ENDBRANCH  35  36
ENDBRANCH  27  30
ENDBRANCH  25  26
ENDBRANCH  24  25
ENDBRANCH   1  24
TORSDOF 13
