REMARK SMILES O=C(Cc1cn2ccsc2n1)N[C@@H]1C=C[C@H](C(=O)NCCCNC(=O)c2ccc(-c3c4nc(c(-c5c(F)c(F)c(F)c(F)c5F)c5ccc([nH]5)c(-c5c(F)c(F)c(F)c(F)c5F)c5nc(c(-c6c(F)c(F)c(F)c(F)c6F)c6ccc3[nH]6)C=C5)C=C4)cc2)C1
REMARK SMILES IDX 20 1 19 2 17 3 18 4 16 6 13 7 14 8 89 9 15 10 12 11 1 12
REMARK SMILES IDX 2 13 3 15 4 16 5 17 11 18 6 19 10 20 7 21 9 22 8 23 21 24
REMARK SMILES IDX 22 25 23 26 24 27 25 29 26 30 27 31 88 32 28 33 87 34 29 35
REMARK SMILES IDX 30 36 31 37 81 38 32 39 86 40 80 41 82 42 33 43 85 44 79 45
REMARK SMILES IDX 78 46 34 48 66 49 46 50 65 51 47 52 50 53 64 54 83 55 48 56
REMARK SMILES IDX 49 57 63 59 84 60 51 61 35 62 36 63 44 64 37 65 38 66 42 67
REMARK SMILES IDX 45 68 39 69 40 70 43 71 41 72 67 73 68 74 76 75 69 76 70 77
REMARK SMILES IDX 74 78 77 79 71 80 72 81 75 82 73 83 52 84 53 85 61 86 54 87
REMARK SMILES IDX 55 88 59 89 62 90 56 91 57 92 60 93 58 94
REMARK H PARENT 19 5 12 14 23 28 82 47 50 58
REMARK Flexibility Score: inf
ROOT
ATOM      1  C   UNL     1       2.299   8.019   1.185  1.00  0.00     0.117 C 
ENDROOT
BRANCH   1   2
ATOM      2  N   UNL     1       1.200   7.092   1.378  1.00  0.00    -0.356 N 
ATOM      3  C   UNL     1       1.209   5.751   1.632  1.00  0.00     0.227 C 
ATOM      4  O   UNL     1       0.159   5.259   2.052  1.00  0.00    -0.274 OA
ATOM      5  H   UNL     1       0.304   7.495   1.316  1.00  0.00     0.163 HD
BRANCH   3   6
ATOM      6  C   UNL     1       2.496   4.944   1.435  1.00  0.00     0.103 C 
ATOM      7  C   UNL     1       2.099   2.572   0.938  1.00  0.00     0.106 C 
ATOM      8  C   UNL     1       2.547   2.782   2.354  1.00  0.00    -0.006 C 
ATOM      9  C   UNL     1       2.406   3.928   0.291  1.00  0.00     0.047 C 
ATOM     10  C   UNL     1       2.757   4.074   2.629  1.00  0.00    -0.016 C 
BRANCH   7  11
ATOM     11  N   UNL     1       0.742   2.088   1.001  1.00  0.00    -0.350 N 
ATOM     12  O   UNL     1      -0.405   3.603  -0.332  1.00  0.00    -0.275 OA
ATOM     13  C   UNL     1      -0.375   2.599   0.372  1.00  0.00     0.226 C 
ATOM     14  H   UNL     1       0.594   1.293   1.563  1.00  0.00     0.164 HD
BRANCH  13  15
ATOM     15  C   UNL     1      -1.616   1.743   0.580  1.00  0.00     0.157 C 
BRANCH  15  16
ATOM     16  C   UNL     1      -1.796   0.811  -0.569  1.00  0.00     0.070 A 
ATOM     17  C   UNL     1      -2.981   0.319  -1.109  1.00  0.00     0.118 A 
ATOM     18  N   UNL     1      -0.695   0.317  -1.260  1.00  0.00    -0.223 NA
ATOM     19  N   UNL     1      -2.585  -0.403  -2.194  1.00  0.00    -0.297 N 
ATOM     20  C   UNL     1      -1.226  -0.357  -2.238  1.00  0.00     0.193 A 
ATOM     21  C   UNL     1      -3.186  -1.112  -3.207  1.00  0.00     0.104 A 
ATOM     22  S   UNL     1      -0.609  -1.215  -3.613  1.00  0.00    -0.105 S 
ATOM     23  C   UNL     1      -2.278  -1.611  -4.064  1.00  0.00     0.087 A 
ENDBRANCH  15  16
ENDBRANCH  13  15
ENDBRANCH   7  11
ENDBRANCH   3   6
ENDBRANCH   1   2
BRANCH   1  24
ATOM     24  C   UNL     1       2.213   8.776  -0.133  1.00  0.00     0.042 C 
BRANCH  24  25
ATOM     25  C   UNL     1       0.956   9.627  -0.289  1.00  0.00     0.118 C 
BRANCH  25  26
ATOM     26  N   UNL     1       0.826  10.650   0.742  1.00  0.00    -0.352 N 
ATOM     27  C   UNL     1       0.840  12.022   0.650  1.00  0.00     0.251 C 
ATOM     28  H   UNL     1       0.709  10.301   1.655  1.00  0.00     0.163 HD
ATOM     29  O   UNL     1       0.885  12.703   1.667  1.00  0.00    -0.269 OA
BRANCH  27  30
ATOM     30  C   UNL     1       0.832  12.681  -0.673  1.00  0.00     0.039 A 
ATOM     31  C   UNL     1       1.702  13.752  -0.898  1.00  0.00     0.014 A 
ATOM     32  C   UNL     1      -0.026  12.252  -1.687  1.00  0.00     0.014 A 
ATOM     33  C   UNL     1       1.782  14.325  -2.169  1.00  0.00     0.010 A 
ATOM     34  C   UNL     1       0.109  12.770  -2.972  1.00  0.00     0.010 A 
ATOM     35  C   UNL     1       1.026  13.800  -3.230  1.00  0.00    -0.014 A 
BRANCH  35  36
ATOM     36  C   UNL     1       1.209  14.277  -4.625  1.00  0.00     0.031 A 
ATOM     37  C   UNL     1       0.070  14.921  -5.362  1.00  0.00     0.074 A 
ATOM     38  C   UNL     1       2.373  14.035  -5.259  1.00  0.00     0.049 A 
ATOM     39  N   UNL     1      -0.005  15.282  -6.618  1.00  0.00    -0.248 NA
ATOM     40  C   UNL     1      -1.158  15.171  -4.591  1.00  0.00     0.031 C 
ATOM     41  C   UNL     1       3.539  13.379  -4.664  1.00  0.00     0.029 A 
ATOM     42  N   UNL     1       2.761  14.289  -6.552  1.00  0.00    -0.354 N 
ATOM     43  C   UNL     1      -1.288  15.784  -6.792  1.00  0.00     0.074 A 
ATOM     44  C   UNL     1      -1.972  15.641  -5.525  1.00  0.00     0.031 C 
ATOM     45  C   UNL     1       4.512  13.291  -5.583  1.00  0.00     0.029 A 
ATOM     46  C   UNL     1       4.024  13.834  -6.847  1.00  0.00     0.049 A 
ATOM     47  H   UNL     1       2.189  14.752  -7.205  1.00  0.00     0.167 HD
ATOM     48  C   UNL     1      -1.837  16.328  -7.904  1.00  0.00     0.037 A 
ATOM     49  C   UNL     1       4.703  13.830  -8.010  1.00  0.00     0.037 A 
ATOM     50  C   UNL     1      -1.143  16.483  -9.156  1.00  0.00     0.049 A 
ATOM     51  C   UNL     1       4.056  14.411  -9.239  1.00  0.00     0.074 A 
ATOM     52  C   UNL     1      -1.588  17.089 -10.318  1.00  0.00     0.029 A 
ATOM     53  N   UNL     1       0.139  16.019  -9.414  1.00  0.00    -0.354 N 
ATOM     54  N   UNL     1       2.871  14.953  -9.372  1.00  0.00    -0.248 NA
ATOM     55  C   UNL     1       4.842  14.378 -10.481  1.00  0.00     0.031 C 
ATOM     56  C   UNL     1      -0.601  16.938 -11.296  1.00  0.00     0.029 A 
ATOM     57  C   UNL     1       0.485  16.291 -10.728  1.00  0.00     0.049 A 
ATOM     58  H   UNL     1       0.717  15.564  -8.760  1.00  0.00     0.167 HD
ATOM     59  C   UNL     1       2.776  15.345 -10.700  1.00  0.00     0.074 A 
ATOM     60  C   UNL     1       4.032  14.996 -11.329  1.00  0.00     0.031 C 
ATOM     61  C   UNL     1       1.741  15.940 -11.341  1.00  0.00     0.037 A 
BRANCH  48  62
ATOM     62  C   UNL     1      -3.262  16.792  -7.824  1.00  0.00     0.064 A 
ATOM     63  C   UNL     1      -3.632  17.913  -7.066  1.00  0.00     0.173 A 
ATOM     64  C   UNL     1      -4.264  16.138  -8.558  1.00  0.00     0.173 A 
ATOM     65  F   UNL     1      -2.715  18.570  -6.340  1.00  0.00    -0.203 F 
ATOM     66  C   UNL     1      -4.955  18.346  -7.024  1.00  0.00     0.198 A 
ATOM     67  C   UNL     1      -5.580  16.592  -8.538  1.00  0.00     0.198 A 
ATOM     68  F   UNL     1      -3.965  15.066  -9.306  1.00  0.00    -0.203 F 
ATOM     69  F   UNL     1      -5.292  19.391  -6.256  1.00  0.00    -0.200 F 
ATOM     70  C   UNL     1      -5.926  17.691  -7.766  1.00  0.00     0.200 A 
ATOM     71  F   UNL     1      -6.514  15.968  -9.269  1.00  0.00    -0.200 F 
ATOM     72  F   UNL     1      -7.197  18.115  -7.733  1.00  0.00    -0.200 F 
ENDBRANCH  48  62
BRANCH  49  73
ATOM     73  C   UNL     1       6.071  13.251  -8.070  1.00  0.00     0.064 A 
ATOM     74  C   UNL     1       7.190  14.066  -8.293  1.00  0.00     0.173 A 
ATOM     75  C   UNL     1       6.289  11.874  -7.916  1.00  0.00     0.173 A 
ATOM     76  F   UNL     1       7.031  15.386  -8.469  1.00  0.00    -0.203 F 
ATOM     77  C   UNL     1       8.470  13.524  -8.380  1.00  0.00     0.198 A 
ATOM     78  C   UNL     1       7.574  11.337  -7.971  1.00  0.00     0.198 A 
ATOM     79  F   UNL     1       5.254  11.050  -7.697  1.00  0.00    -0.203 F 
ATOM     80  F   UNL     1       9.515  14.320  -8.643  1.00  0.00    -0.200 F 
ATOM     81  C   UNL     1       8.662  12.161  -8.213  1.00  0.00     0.200 A 
ATOM     82  F   UNL     1       7.756  10.021  -7.793  1.00  0.00    -0.200 F 
ATOM     83  F   UNL     1       9.895  11.641  -8.292  1.00  0.00    -0.200 F 
ENDBRANCH  49  73
BRANCH  61  84
ATOM     84  C   UNL     1       1.925  16.276 -12.792  1.00  0.00     0.064 A 
ATOM     85  C   UNL     1       1.946  15.281 -13.780  1.00  0.00     0.173 A 
ATOM     86  C   UNL     1       2.023  17.614 -13.205  1.00  0.00     0.173 A 
ATOM     87  F   UNL     1       1.873  13.986 -13.436  1.00  0.00    -0.203 F 
ATOM     88  C   UNL     1       2.075  15.612 -15.127  1.00  0.00     0.198 A 
ATOM     89  C   UNL     1       2.119  17.943 -14.554  1.00  0.00     0.198 A 
ATOM     90  F   UNL     1       2.003  18.604 -12.300  1.00  0.00    -0.203 F 
ATOM     91  F   UNL     1       2.133  14.643 -16.050  1.00  0.00    -0.200 F 
ATOM     92  C   UNL     1       2.151  16.942 -15.513  1.00  0.00     0.200 A 
ATOM     93  F   UNL     1       2.177  19.229 -14.926  1.00  0.00    -0.200 F 
ATOM     94  F   UNL     1       2.259  17.259 -16.811  1.00  0.00    -0.200 F 
ENDBRANCH  61  84
ENDBRANCH  35  36
ENDBRANCH  27  30
ENDBRANCH  25  26
ENDBRANCH  24  25
ENDBRANCH   1  24
TORSDOF 13
