REMARK SMILES COc1ccc(CCc2nnc(NC(=O)[C@@H]3[C@@H](C(=O)NCCCNC(=O)c4ccc(-c5c6nc(c(-c7c(F)c(F)c(F)c(F)c7F)c7ccc([nH]7)c(-c7c(F)c(F)c(F)c(F)c7F)c7nc(c(-c8c(F)c(F)c(F)c(F)c8F)c8ccc5[nH]8)C=C7)C=C6)cc4)C3(C)C)s2)cc1
REMARK SMILES IDX 18 1 19 2 20 3 17 5 16 6 90 7 91 8 92 9 14 10 13 11 15 13
REMARK SMILES IDX 12 14 9 15 10 16 93 17 11 18 8 19 7 20 6 21 3 22 4 23 95 24
REMARK SMILES IDX 5 25 94 26 2 27 1 28 21 29 22 30 23 31 24 32 25 33 26 35
REMARK SMILES IDX 27 36 28 37 89 38 29 39 88 40 30 41 31 42 32 43 82 44 33 45
REMARK SMILES IDX 87 46 81 47 83 48 34 49 86 50 80 51 79 52 35 54 67 55 47 56
REMARK SMILES IDX 66 57 48 58 51 59 65 60 84 61 49 62 50 63 64 65 85 66 52 67
REMARK SMILES IDX 36 68 37 69 45 70 38 71 39 72 43 73 46 74 40 75 41 76 44 77
REMARK SMILES IDX 42 78 68 79 69 80 77 81 70 82 71 83 75 84 78 85 72 86 73 87
REMARK SMILES IDX 76 88 74 89 53 90 54 91 62 92 55 93 56 94 60 95 63 96 57 97
REMARK SMILES IDX 58 98 61 99 59 100
REMARK H PARENT 20 4 13 12 24 34 83 53 51 64
REMARK Flexibility Score: inf
ROOT
ATOM      1  C   UNL     1      -2.086  -6.041  -3.646  1.00  0.00     0.224 C 
ATOM      2  O   UNL     1      -0.860  -6.094  -3.761  1.00  0.00    -0.275 OA
ATOM      3  N   UNL     1      -2.578  -4.950  -2.998  1.00  0.00    -0.356 N 
ATOM      4  H   UNL     1      -1.877  -4.300  -2.760  1.00  0.00     0.163 HD
ENDROOT
BRANCH   1   5
ATOM      5  C   UNL     1      -2.867  -7.134  -4.265  1.00  0.00     0.098 C 
ATOM      6  C   UNL     1      -4.335  -7.186  -4.603  1.00  0.00     0.098 C 
ATOM      7  C   UNL     1      -3.748  -8.141  -3.553  1.00  0.00    -0.011 C 
ATOM      8  C   UNL     1      -4.141  -7.914  -2.110  1.00  0.00     0.013 C 
ATOM      9  C   UNL     1      -3.563  -9.601  -3.889  1.00  0.00     0.013 C 
BRANCH   6  10
ATOM     10  C   UNL     1      -4.637  -7.514  -6.029  1.00  0.00     0.230 C 
ATOM     11  N   UNL     1      -4.586  -6.511  -6.969  1.00  0.00    -0.300 N 
ATOM     12  H   UNL     1      -4.576  -6.776  -7.917  1.00  0.00     0.172 HD
ATOM     13  O   UNL     1      -4.882  -8.664  -6.370  1.00  0.00    -0.274 OA
BRANCH  11  14
ATOM     14  C   UNL     1      -4.548  -5.175  -6.688  1.00  0.00     0.212 A 
ATOM     15  C   UNL     1      -4.809  -2.832  -6.907  1.00  0.00     0.119 A 
ATOM     16  N   UNL     1      -4.765  -3.216  -5.648  1.00  0.00    -0.142 NA
ATOM     17  S   UNL     1      -4.494  -4.115  -8.026  1.00  0.00    -0.080 S 
ATOM     18  N   UNL     1      -4.619  -4.576  -5.528  1.00  0.00    -0.120 NA
BRANCH  15  19
ATOM     19  C   UNL     1      -5.106  -1.427  -7.321  1.00  0.00     0.074 C 
BRANCH  19  20
ATOM     20  C   UNL     1      -6.222  -1.255  -8.361  1.00  0.00     0.043 C 
BRANCH  20  21
ATOM     21  C   UNL     1      -7.638  -1.620  -7.955  1.00  0.00    -0.047 A 
ATOM     22  C   UNL     1     -10.325  -2.313  -7.449  1.00  0.00     0.118 A 
ATOM     23  C   UNL     1      -9.324  -3.268  -7.334  1.00  0.00     0.046 A 
ATOM     24  C   UNL     1      -9.992  -1.000  -7.770  1.00  0.00     0.046 A 
ATOM     25  C   UNL     1      -7.997  -2.928  -7.603  1.00  0.00     0.007 A 
ATOM     26  C   UNL     1      -8.657  -0.657  -8.024  1.00  0.00     0.007 A 
BRANCH  22  27
ATOM     27  O   UNL     1     -11.599  -2.729  -7.181  1.00  0.00    -0.497 OA
ATOM     28  C   UNL     1     -12.524  -2.373  -8.205  1.00  0.00     0.278 C 
ENDBRANCH  22  27
ENDBRANCH  20  21
ENDBRANCH  19  20
ENDBRANCH  15  19
ENDBRANCH  11  14
ENDBRANCH   6  10
ENDBRANCH   1   5
BRANCH   3  29
ATOM     29  C   UNL     1      -3.899  -4.526  -2.578  1.00  0.00     0.117 C 
BRANCH  29  30
ATOM     30  C   UNL     1      -3.990  -4.407  -1.064  1.00  0.00     0.042 C 
BRANCH  30  31
ATOM     31  C   UNL     1      -3.170  -3.256  -0.503  1.00  0.00     0.118 C 
BRANCH  31  32
ATOM     32  N   UNL     1      -3.747  -1.958  -0.822  1.00  0.00    -0.352 N 
ATOM     33  C   UNL     1      -4.367  -1.040  -0.011  1.00  0.00     0.251 C 
ATOM     34  H   UNL     1      -3.682  -1.697  -1.769  1.00  0.00     0.163 HD
ATOM     35  O   UNL     1      -4.977  -0.098  -0.510  1.00  0.00    -0.269 OA
BRANCH  33  36
ATOM     36  C   UNL     1      -4.325  -1.187   1.460  1.00  0.00     0.039 A 
ATOM     37  C   UNL     1      -5.470  -0.882   2.202  1.00  0.00     0.014 A 
ATOM     38  C   UNL     1      -3.162  -1.594   2.116  1.00  0.00     0.014 A 
ATOM     39  C   UNL     1      -5.462  -1.043   3.589  1.00  0.00     0.010 A 
ATOM     40  C   UNL     1      -3.188  -1.858   3.482  1.00  0.00     0.010 A 
ATOM     41  C   UNL     1      -4.332  -1.568   4.238  1.00  0.00    -0.014 A 
BRANCH  41  42
ATOM     42  C   UNL     1      -4.322  -1.796   5.706  1.00  0.00     0.031 A 
ATOM     43  C   UNL     1      -3.337  -1.066   6.579  1.00  0.00     0.074 A 
ATOM     44  C   UNL     1      -5.165  -2.698   6.248  1.00  0.00     0.049 A 
ATOM     45  N   UNL     1      -3.142  -1.163   7.871  1.00  0.00    -0.248 NA
ATOM     46  C   UNL     1      -2.429  -0.122   5.909  1.00  0.00     0.031 C 
ATOM     47  C   UNL     1      -6.130  -3.507   5.503  1.00  0.00     0.029 A 
ATOM     48  N   UNL     1      -5.341  -3.089   7.552  1.00  0.00    -0.354 N 
ATOM     49  C   UNL     1      -2.087  -0.307   8.159  1.00  0.00     0.074 A 
ATOM     50  C   UNL     1      -1.638   0.251   6.903  1.00  0.00     0.031 C 
ATOM     51  C   UNL     1      -6.819  -4.273   6.363  1.00  0.00     0.029 A 
ATOM     52  C   UNL     1      -6.316  -4.043   7.713  1.00  0.00     0.049 A 
ATOM     53  H   UNL     1      -4.819  -2.720   8.300  1.00  0.00     0.167 HD
ATOM     54  C   UNL     1      -1.558   0.008   9.366  1.00  0.00     0.037 A 
ATOM     55  C   UNL     1      -6.751  -4.666   8.825  1.00  0.00     0.037 A 
ATOM     56  C   UNL     1      -2.023  -0.533  10.616  1.00  0.00     0.049 A 
ATOM     57  C   UNL     1      -6.138  -4.307  10.153  1.00  0.00     0.074 A 
ATOM     58  C   UNL     1      -1.594  -0.236  11.898  1.00  0.00     0.029 A 
ATOM     59  N   UNL     1      -3.020  -1.490  10.740  1.00  0.00    -0.354 N 
ATOM     60  N   UNL     1      -5.192  -3.440  10.422  1.00  0.00    -0.248 NA
ATOM     61  C   UNL     1      -6.661  -5.008  11.333  1.00  0.00     0.031 C 
ATOM     62  C   UNL     1      -2.290  -1.054  12.792  1.00  0.00     0.029 A 
ATOM     63  C   UNL     1      -3.201  -1.813  12.075  1.00  0.00     0.049 A 
ATOM     64  H   UNL     1      -3.525  -1.881   9.991  1.00  0.00     0.167 HD
ATOM     65  C   UNL     1      -5.029  -3.467  11.800  1.00  0.00     0.074 A 
ATOM     66  C   UNL     1      -5.986  -4.425  12.313  1.00  0.00     0.031 C 
ATOM     67  C   UNL     1      -4.165  -2.762  12.572  1.00  0.00     0.037 A 
BRANCH  54  68
ATOM     68  C   UNL     1      -0.417   0.986   9.393  1.00  0.00     0.064 A 
ATOM     69  C   UNL     1      -0.595   2.338   9.060  1.00  0.00     0.173 A 
ATOM     70  C   UNL     1       0.864   0.575   9.790  1.00  0.00     0.173 A 
ATOM     71  F   UNL     1      -1.797   2.784   8.662  1.00  0.00    -0.203 F 
ATOM     72  C   UNL     1       0.472   3.232   9.091  1.00  0.00     0.198 A 
ATOM     73  C   UNL     1       1.921   1.480   9.855  1.00  0.00     0.198 A 
ATOM     74  F   UNL     1       1.091  -0.704  10.126  1.00  0.00    -0.203 F 
ATOM     75  F   UNL     1       0.288   4.506   8.715  1.00  0.00    -0.200 F 
ATOM     76  C   UNL     1       1.726   2.805   9.497  1.00  0.00     0.200 A 
ATOM     77  F   UNL     1       3.130   1.068  10.263  1.00  0.00    -0.200 F 
ATOM     78  F   UNL     1       2.750   3.669   9.536  1.00  0.00    -0.200 F 
ENDBRANCH  54  68
BRANCH  55  79
ATOM     79  C   UNL     1      -7.840  -5.675   8.736  1.00  0.00     0.064 A 
ATOM     80  C   UNL     1      -9.102  -5.426   9.294  1.00  0.00     0.173 A 
ATOM     81  C   UNL     1      -7.641  -6.911   8.102  1.00  0.00     0.173 A 
ATOM     82  F   UNL     1      -9.337  -4.268   9.928  1.00  0.00    -0.203 F 
ATOM     83  C   UNL     1     -10.114  -6.383   9.245  1.00  0.00     0.198 A 
ATOM     84  C   UNL     1      -8.664  -7.854   8.024  1.00  0.00     0.198 A 
ATOM     85  F   UNL     1      -6.455  -7.198   7.547  1.00  0.00    -0.203 F 
ATOM     86  F   UNL     1     -11.293  -6.139   9.834  1.00  0.00    -0.200 F 
ATOM     87  C   UNL     1      -9.896  -7.594   8.605  1.00  0.00     0.200 A 
ATOM     88  F   UNL     1      -8.454  -9.015   7.391  1.00  0.00    -0.200 F 
ATOM     89  F   UNL     1     -10.870  -8.512   8.555  1.00  0.00    -0.200 F 
ENDBRANCH  55  79
BRANCH  67  90
ATOM     90  C   UNL     1      -4.245  -2.965  14.059  1.00  0.00     0.064 A 
ATOM     91  C   UNL     1      -3.835  -4.161  14.666  1.00  0.00     0.173 A 
ATOM     92  C   UNL     1      -4.702  -1.930  14.890  1.00  0.00     0.173 A 
ATOM     93  F   UNL     1      -3.403  -5.186  13.916  1.00  0.00    -0.203 F 
ATOM     94  C   UNL     1      -3.910  -4.324  16.047  1.00  0.00     0.198 A 
ATOM     95  C   UNL     1      -4.740  -2.084  16.272  1.00  0.00     0.198 A 
ATOM     96  F   UNL     1      -5.097  -0.762  14.361  1.00  0.00    -0.203 F 
ATOM     97  F   UNL     1      -3.566  -5.496  16.600  1.00  0.00    -0.200 F 
ATOM     98  C   UNL     1      -4.354  -3.284  16.849  1.00  0.00     0.200 A 
ATOM     99  F   UNL     1      -5.153  -1.071  17.046  1.00  0.00    -0.200 F 
ATOM    100  F   UNL     1      -4.417  -3.440  18.178  1.00  0.00    -0.200 F 
ENDBRANCH  67  90
ENDBRANCH  41  42
ENDBRANCH  33  36
ENDBRANCH  31  32
ENDBRANCH  30  31
ENDBRANCH  29  30
ENDBRANCH   3  29
TORSDOF 16
