REMARK SMILES CN(CC(C)(C)O)C(=O)NC[C@@H](C(=O)NCCCNC(=O)c1ccc(-c2c3nc(c(-c4c(F)c(F)c(F)c(F)c4F)c4ccc([nH]4)c(-c4c(F)c(F)c(F)c(F)c4F)c4nc(c(-c5c(F)c(F)c(F)c(F)c5F)c5ccc2[nH]5)C=C4)C=C3)cc1)c1ccccc1
REMARK SMILES IDX 13 1 14 2 15 3 12 5 11 6 10 7 8 8 9 9 2 11 1 12 3 13 4 14
REMARK SMILES IDX 5 15 6 16 7 17 85 19 86 20 90 21 87 22 89 23 88 24 16 25
REMARK SMILES IDX 17 26 18 27 19 28 20 29 21 31 22 32 23 33 84 34 24 35 83 36
REMARK SMILES IDX 25 37 26 38 27 39 77 40 28 41 82 42 76 43 78 44 29 45 81 46
REMARK SMILES IDX 75 47 74 48 30 50 62 51 42 52 61 53 43 54 46 55 60 56 79 57
REMARK SMILES IDX 44 58 45 59 59 61 80 62 47 63 31 64 32 65 40 66 33 67 34 68
REMARK SMILES IDX 38 69 41 70 35 71 36 72 39 73 37 74 63 75 64 76 72 77 65 78
REMARK SMILES IDX 66 79 70 80 73 81 67 82 68 83 71 84 69 85 48 86 49 87 57 88
REMARK SMILES IDX 50 89 51 90 55 91 58 92 52 93 53 94 56 95 54 96
REMARK H PARENT 15 4 10 10 7 18 19 30 78 49 46 60
REMARK Flexibility Score: inf
ROOT
ATOM      1  C   UNL     1      -1.167   5.730   3.132  1.00  0.00     0.229 C 
ATOM      2  O   UNL     1      -1.116   6.957   3.228  1.00  0.00    -0.274 OA
ATOM      3  N   UNL     1      -0.909   5.017   4.270  1.00  0.00    -0.355 N 
ATOM      4  H   UNL     1      -0.963   5.538   5.104  1.00  0.00     0.163 HD
ENDROOT
BRANCH   1   5
ATOM      5  C   UNL     1      -1.548   4.998   1.839  1.00  0.00     0.128 C 
BRANCH   5   6
ATOM      6  C   UNL     1      -0.356   4.723   0.885  1.00  0.00     0.136 C 
BRANCH   6   7
ATOM      7  N   UNL     1       0.587   3.684   1.288  1.00  0.00    -0.337 N 
ATOM      8  C   UNL     1       0.898   2.397   1.075  1.00  0.00     0.317 C 
ATOM      9  O   UNL     1       1.758   1.964   1.853  1.00  0.00    -0.249 OA
ATOM     10  H   UNL     1       1.215   4.059   1.947  1.00  0.00     0.165 HD
BRANCH   8  11
ATOM     11  N   UNL     1       0.356   1.598   0.117  1.00  0.00    -0.325 N 
ATOM     12  C   UNL     1       0.771   0.196   0.143  1.00  0.00     0.148 C 
BRANCH  11  13
ATOM     13  C   UNL     1      -0.558   1.942  -0.973  1.00  0.00     0.155 C 
BRANCH  13  14
ATOM     14  C   UNL     1      -2.023   1.470  -0.770  1.00  0.00     0.077 C 
ATOM     15  C   UNL     1      -2.515   1.637   0.661  1.00  0.00     0.043 C 
ATOM     16  C   UNL     1      -2.928   2.243  -1.736  1.00  0.00     0.043 C 
BRANCH  14  17
ATOM     17  O   UNL     1      -2.127   0.077  -1.092  1.00  0.00    -0.389 OA
ATOM     18  H   UNL     1      -1.563  -0.436  -0.494  1.00  0.00     0.211 HD
ENDBRANCH  14  17
ENDBRANCH  13  14
ENDBRANCH  11  13
ENDBRANCH   8  11
ENDBRANCH   6   7
ENDBRANCH   5   6
BRANCH   5  19
ATOM     19  C   UNL     1      -2.613   5.753   1.026  1.00  0.00    -0.034 A 
ATOM     20  C   UNL     1      -2.352   7.031   0.502  1.00  0.00     0.004 A 
ATOM     21  C   UNL     1      -3.822   5.129   0.679  1.00  0.00     0.004 A 
ATOM     22  C   UNL     1      -3.247   7.643  -0.376  1.00  0.00     0.000 A 
ATOM     23  C   UNL     1      -4.707   5.733  -0.218  1.00  0.00     0.000 A 
ATOM     24  C   UNL     1      -4.414   6.985  -0.752  1.00  0.00     0.000 A 
ENDBRANCH   5  19
ENDBRANCH   1   5
BRANCH   3  25
ATOM     25  C   UNL     1      -0.566   3.614   4.448  1.00  0.00     0.117 C 
BRANCH  25  26
ATOM     26  C   UNL     1       0.939   3.446   4.620  1.00  0.00     0.042 C 
BRANCH  26  27
ATOM     27  C   UNL     1       1.503   4.084   5.876  1.00  0.00     0.118 C 
BRANCH  27  28
ATOM     28  N   UNL     1       1.244   3.304   7.071  1.00  0.00    -0.352 N 
ATOM     29  C   UNL     1       2.137   2.719   7.933  1.00  0.00     0.251 C 
ATOM     30  H   UNL     1       0.294   3.175   7.295  1.00  0.00     0.163 HD
ATOM     31  O   UNL     1       1.729   1.941   8.797  1.00  0.00    -0.269 OA
BRANCH  29  32
ATOM     32  C   UNL     1       3.588   2.995   7.820  1.00  0.00     0.039 A 
ATOM     33  C   UNL     1       4.490   1.943   7.995  1.00  0.00     0.014 A 
ATOM     34  C   UNL     1       4.067   4.282   7.555  1.00  0.00     0.014 A 
ATOM     35  C   UNL     1       5.861   2.170   7.853  1.00  0.00     0.010 A 
ATOM     36  C   UNL     1       5.421   4.484   7.308  1.00  0.00     0.010 A 
ATOM     37  C   UNL     1       6.338   3.437   7.476  1.00  0.00    -0.014 A 
BRANCH  37  38
ATOM     38  C   UNL     1       7.790   3.694   7.293  1.00  0.00     0.031 A 
ATOM     39  C   UNL     1       8.490   4.705   8.162  1.00  0.00     0.074 A 
ATOM     40  C   UNL     1       8.468   3.062   6.315  1.00  0.00     0.049 A 
ATOM     41  N   UNL     1       9.734   5.114   8.124  1.00  0.00    -0.248 NA
ATOM     42  C   UNL     1       7.676   5.372   9.191  1.00  0.00     0.031 C 
ATOM     43  C   UNL     1       7.894   2.098   5.375  1.00  0.00     0.029 A 
ATOM     44  N   UNL     1       9.788   3.139   5.946  1.00  0.00    -0.354 N 
ATOM     45  C   UNL     1       9.840   6.096   9.100  1.00  0.00     0.074 A 
ATOM     46  C   UNL     1       8.524   6.266   9.675  1.00  0.00     0.031 C 
ATOM     47  C   UNL     1       8.863   1.645   4.563  1.00  0.00     0.029 A 
ATOM     48  C   UNL     1      10.116   2.318   4.895  1.00  0.00     0.049 A 
ATOM     49  H   UNL     1      10.439   3.727   6.394  1.00  0.00     0.167 HD
ATOM     50  C   UNL     1      10.940   6.777   9.501  1.00  0.00     0.037 A 
ATOM     51  C   UNL     1      11.293   2.132   4.268  1.00  0.00     0.037 A 
ATOM     52  C   UNL     1      12.256   6.576   8.955  1.00  0.00     0.049 A 
ATOM     53  C   UNL     1      12.501   2.902   4.733  1.00  0.00     0.074 A 
ATOM     54  C   UNL     1      13.450   7.156   9.345  1.00  0.00     0.029 A 
ATOM     55  N   UNL     1      12.549   5.728   7.897  1.00  0.00    -0.354 N 
ATOM     56  N   UNL     1      12.605   3.770   5.709  1.00  0.00    -0.248 NA
ATOM     57  C   UNL     1      13.757   2.660   4.009  1.00  0.00     0.031 C 
ATOM     58  C   UNL     1      14.456   6.702   8.487  1.00  0.00     0.029 A 
ATOM     59  C   UNL     1      13.901   5.792   7.601  1.00  0.00     0.049 A 
ATOM     60  H   UNL     1      11.894   5.164   7.426  1.00  0.00     0.167 HD
ATOM     61  C   UNL     1      13.939   4.153   5.739  1.00  0.00     0.074 A 
ATOM     62  C   UNL     1      14.609   3.412   4.690  1.00  0.00     0.031 C 
ATOM     63  C   UNL     1      14.555   5.040   6.560  1.00  0.00     0.037 A 
BRANCH  50  64
ATOM     64  C   UNL     1      10.768   7.805  10.584  1.00  0.00     0.064 A 
ATOM     65  C   UNL     1      10.459   7.445  11.905  1.00  0.00     0.173 A 
ATOM     66  C   UNL     1      10.945   9.168  10.302  1.00  0.00     0.173 A 
ATOM     67  F   UNL     1      10.269   6.157  12.227  1.00  0.00    -0.203 F 
ATOM     68  C   UNL     1      10.300   8.412  12.894  1.00  0.00     0.198 A 
ATOM     69  C   UNL     1      10.819  10.130  11.301  1.00  0.00     0.198 A 
ATOM     70  F   UNL     1      11.247   9.569   9.058  1.00  0.00    -0.203 F 
ATOM     71  F   UNL     1       9.949   8.048  14.135  1.00  0.00    -0.200 F 
ATOM     72  C   UNL     1      10.487   9.753  12.593  1.00  0.00     0.200 A 
ATOM     73  F   UNL     1      11.015  11.424  11.012  1.00  0.00    -0.200 F 
ATOM     74  F   UNL     1      10.340  10.682  13.548  1.00  0.00    -0.200 F 
ENDBRANCH  50  64
BRANCH  51  75
ATOM     75  C   UNL     1      11.398   1.152   3.155  1.00  0.00     0.064 A 
ATOM     76  C   UNL     1      12.132  -0.033   3.309  1.00  0.00     0.173 A 
ATOM     77  C   UNL     1      10.779   1.378   1.917  1.00  0.00     0.173 A 
ATOM     78  F   UNL     1      12.761  -0.284   4.467  1.00  0.00    -0.203 F 
ATOM     79  C   UNL     1      12.261  -0.944   2.263  1.00  0.00     0.198 A 
ATOM     80  C   UNL     1      10.883   0.452   0.880  1.00  0.00     0.198 A 
ATOM     81  F   UNL     1      10.064   2.494   1.717  1.00  0.00    -0.203 F 
ATOM     82  F   UNL     1      13.009  -2.043   2.423  1.00  0.00    -0.200 F 
ATOM     83  C   UNL     1      11.631  -0.703   1.051  1.00  0.00     0.200 A 
ATOM     84  F   UNL     1      10.264   0.682  -0.285  1.00  0.00    -0.200 F 
ATOM     85  F   UNL     1      11.754  -1.580   0.045  1.00  0.00    -0.200 F 
ENDBRANCH  51  75
BRANCH  63  86
ATOM     86  C   UNL     1      16.034   5.228   6.388  1.00  0.00     0.064 A 
ATOM     87  C   UNL     1      16.570   5.889   5.273  1.00  0.00     0.173 A 
ATOM     88  C   UNL     1      16.925   4.776   7.374  1.00  0.00     0.173 A 
ATOM     89  F   UNL     1      15.762   6.328   4.296  1.00  0.00    -0.203 F 
ATOM     90  C   UNL     1      17.944   6.067   5.140  1.00  0.00     0.198 A 
ATOM     91  C   UNL     1      18.295   4.985   7.253  1.00  0.00     0.198 A 
ATOM     92  F   UNL     1      16.463   4.144   8.464  1.00  0.00    -0.203 F 
ATOM     93  F   UNL     1      18.438   6.657   4.042  1.00  0.00    -0.200 F 
ATOM     94  C   UNL     1      18.805   5.623   6.133  1.00  0.00     0.200 A 
ATOM     95  F   UNL     1      19.123   4.570   8.222  1.00  0.00    -0.200 F 
ATOM     96  F   UNL     1      20.126   5.804   6.007  1.00  0.00    -0.200 F 
ENDBRANCH  63  86
ENDBRANCH  37  38
ENDBRANCH  29  32
ENDBRANCH  27  28
ENDBRANCH  26  27
ENDBRANCH  25  26
ENDBRANCH   3  25
TORSDOF 17
