REMARK SMILES O=C(NCCCNC(=O)c1ccc(-c2c3nc(c(-c4c(F)c(F)c(F)c(F)c4F)c4ccc([nH]4)c(-c4c(F)c(F)c(F)c(F)c4F)c4nc(c(-c5c(F)c(F)c(F)c(F)c5F)c5ccc2[nH]5)C=C4)C=C3)cc1)c1ccc(CNC(=O)c2ccccc2I)cc1
REMARK SMILES IDX 4 1 3 2 1 3 2 4 73 6 74 7 89 8 75 9 88 10 76 11 77 12 78 13
REMARK SMILES IDX 79 14 80 16 81 17 82 18 86 19 83 20 85 21 87 22 84 23 5 24
REMARK SMILES IDX 6 25 7 26 8 27 9 29 10 30 11 31 72 32 12 33 71 34 13 35
REMARK SMILES IDX 14 36 15 37 65 38 16 39 70 40 64 41 66 42 17 43 69 44 63 45
REMARK SMILES IDX 62 46 18 48 50 49 30 50 49 51 31 52 34 53 48 54 67 55 32 56
REMARK SMILES IDX 33 57 47 59 68 60 35 61 19 62 20 63 28 64 21 65 22 66 26 67
REMARK SMILES IDX 29 68 23 69 24 70 27 71 25 72 51 73 52 74 60 75 53 76 54 77
REMARK SMILES IDX 58 78 61 79 55 80 56 81 59 82 57 83 36 84 37 85 45 86 38 87
REMARK SMILES IDX 39 88 43 89 46 90 40 91 41 92 44 93 42 94
REMARK H PARENT 3 5 78 15 7 28 66 47 34 58
REMARK Flexibility Score: inf
ROOT
ATOM      1  C   UNL     1       4.613   0.008   1.302  1.00  0.00     0.118 C 
ENDROOT
BRANCH   1   2
ATOM      2  N   UNL     1       3.172  -0.110   1.137  1.00  0.00    -0.352 N 
ATOM      3  O   UNL     1       1.204  -0.011   0.038  1.00  0.00    -0.269 OA
ATOM      4  C   UNL     1       2.427  -0.107  -0.015  1.00  0.00     0.251 C 
ATOM      5  H   UNL     1       2.659  -0.206   1.971  1.00  0.00     0.163 HD
BRANCH   4   6
ATOM      6  C   UNL     1       3.103  -0.195  -1.323  1.00  0.00     0.039 A 
ATOM      7  C   UNL     1       4.019  -1.219  -1.584  1.00  0.00     0.014 A 
ATOM      8  C   UNL     1       2.800   0.750  -2.304  1.00  0.00     0.014 A 
ATOM      9  C   UNL     1       4.701  -1.243  -2.798  1.00  0.00     0.006 A 
ATOM     10  C   UNL     1       3.472   0.712  -3.527  1.00  0.00     0.006 A 
ATOM     11  C   UNL     1       4.439  -0.274  -3.776  1.00  0.00    -0.029 A 
BRANCH  11  12
ATOM     12  C   UNL     1       5.159  -0.328  -5.096  1.00  0.00     0.152 C 
BRANCH  12  13
ATOM     13  N   UNL     1       6.571  -0.032  -4.954  1.00  0.00    -0.348 N 
ATOM     14  C   UNL     1       7.657  -0.802  -5.280  1.00  0.00     0.252 C 
ATOM     15  H   UNL     1       6.780   0.849  -4.567  1.00  0.00     0.164 HD
ATOM     16  O   UNL     1       8.796  -0.398  -5.068  1.00  0.00    -0.269 OA
BRANCH  14  17
ATOM     17  C   UNL     1       7.461  -2.174  -5.789  1.00  0.00     0.053 A 
ATOM     18  C   UNL     1       7.870  -3.207  -4.931  1.00  0.00     0.015 A 
ATOM     19  C   UNL     1       6.923  -2.482  -7.045  1.00  0.00     0.026 A 
ATOM     20  C   UNL     1       7.682  -4.539  -5.294  1.00  0.00     0.001 A 
ATOM     21  C   UNL     1       6.709  -3.823  -7.389  1.00  0.00     0.015 A 
ATOM     22  I   UNL     1       6.483  -1.042  -8.505  1.00  0.00    -0.043 I 
ATOM     23  C   UNL     1       7.080  -4.846  -6.513  1.00  0.00     0.001 A 
ENDBRANCH  14  17
ENDBRANCH  12  13
ENDBRANCH  11  12
ENDBRANCH   4   6
ENDBRANCH   1   2
BRANCH   1  24
ATOM     24  C   UNL     1       5.027   1.381   1.813  1.00  0.00     0.042 C 
BRANCH  24  25
ATOM     25  C   UNL     1       4.494   1.716   3.199  1.00  0.00     0.118 C 
BRANCH  25  26
ATOM     26  N   UNL     1       4.939   0.775   4.218  1.00  0.00    -0.352 N 
ATOM     27  C   UNL     1       5.701   0.963   5.342  1.00  0.00     0.251 C 
ATOM     28  H   UNL     1       4.641  -0.153   4.076  1.00  0.00     0.163 HD
ATOM     29  O   UNL     1       6.106  -0.014   5.966  1.00  0.00    -0.269 OA
BRANCH  27  30
ATOM     30  C   UNL     1       6.054   2.323   5.806  1.00  0.00     0.039 A 
ATOM     31  C   UNL     1       7.325   2.538   6.349  1.00  0.00     0.014 A 
ATOM     32  C   UNL     1       5.133   3.372   5.759  1.00  0.00     0.014 A 
ATOM     33  C   UNL     1       7.687   3.812   6.794  1.00  0.00     0.010 A 
ATOM     34  C   UNL     1       5.523   4.659   6.118  1.00  0.00     0.010 A 
ATOM     35  C   UNL     1       6.798   4.889   6.656  1.00  0.00    -0.014 A 
BRANCH  35  36
ATOM     36  C   UNL     1       7.164   6.255   7.105  1.00  0.00     0.031 A 
ATOM     37  C   UNL     1       6.393   6.912   8.218  1.00  0.00     0.074 A 
ATOM     38  C   UNL     1       8.144   6.929   6.473  1.00  0.00     0.049 A 
ATOM     39  N   UNL     1       6.500   8.125   8.699  1.00  0.00    -0.248 NA
ATOM     40  C   UNL     1       5.338   6.106   8.854  1.00  0.00     0.031 C 
ATOM     41  C   UNL     1       8.930   6.423   5.347  1.00  0.00     0.029 A 
ATOM     42  N   UNL     1       8.638   8.192   6.684  1.00  0.00    -0.354 N 
ATOM     43  C   UNL     1       5.512   8.235   9.668  1.00  0.00     0.074 A 
ATOM     44  C   UNL     1       4.783   6.985   9.675  1.00  0.00     0.031 C 
ATOM     45  C   UNL     1       9.823   7.356   4.981  1.00  0.00     0.029 A 
ATOM     46  C   UNL     1       9.652   8.536   5.824  1.00  0.00     0.049 A 
ATOM     47  H   UNL     1       8.299   8.794   7.385  1.00  0.00     0.167 HD
ATOM     48  C   UNL     1       5.250   9.274  10.497  1.00  0.00     0.037 A 
ATOM     49  C   UNL     1      10.362   9.676   5.728  1.00  0.00     0.037 A 
ATOM     50  C   UNL     1       6.004  10.499  10.519  1.00  0.00     0.049 A 
ATOM     51  C   UNL     1      10.078  10.800   6.686  1.00  0.00     0.074 A 
ATOM     52  C   UNL     1       5.856  11.590  11.358  1.00  0.00     0.029 A 
ATOM     53  N   UNL     1       7.057  10.791   9.665  1.00  0.00    -0.354 N 
ATOM     54  N   UNL     1       9.178  10.872   7.636  1.00  0.00    -0.248 NA
ATOM     55  C   UNL     1      10.918  12.000   6.564  1.00  0.00     0.031 C 
ATOM     56  C   UNL     1       6.802  12.555  10.992  1.00  0.00     0.029 A 
ATOM     57  C   UNL     1       7.565  12.047   9.952  1.00  0.00     0.049 A 
ATOM     58  H   UNL     1       7.394  10.194   8.959  1.00  0.00     0.167 HD
ATOM     59  C   UNL     1       9.363  12.106   8.244  1.00  0.00     0.074 A 
ATOM     60  C   UNL     1      10.470  12.745   7.563  1.00  0.00     0.031 C 
ATOM     61  C   UNL     1       8.677  12.660   9.273  1.00  0.00     0.037 A 
BRANCH  48  62
ATOM     62  C   UNL     1       4.104   9.123  11.454  1.00  0.00     0.064 A 
ATOM     63  C   UNL     1       4.170   8.246  12.547  1.00  0.00     0.173 A 
ATOM     64  C   UNL     1       2.934   9.880  11.291  1.00  0.00     0.173 A 
ATOM     65  F   UNL     1       5.261   7.489  12.739  1.00  0.00    -0.203 F 
ATOM     66  C   UNL     1       3.096   8.108  13.422  1.00  0.00     0.198 A 
ATOM     67  C   UNL     1       1.873   9.762  12.185  1.00  0.00     0.198 A 
ATOM     68  F   UNL     1       2.821  10.738  10.265  1.00  0.00    -0.203 F 
ATOM     69  F   UNL     1       3.162   7.224  14.427  1.00  0.00    -0.200 F 
ATOM     70  C   UNL     1       1.952   8.870  13.244  1.00  0.00     0.200 A 
ATOM     71  F   UNL     1       0.772  10.507  12.018  1.00  0.00    -0.200 F 
ATOM     72  F   UNL     1       0.920   8.739  14.089  1.00  0.00    -0.200 F 
ENDBRANCH  48  62
BRANCH  49  73
ATOM     73  C   UNL     1      11.440   9.794   4.713  1.00  0.00     0.064 A 
ATOM     74  C   UNL     1      12.788   9.797   5.098  1.00  0.00     0.173 A 
ATOM     75  C   UNL     1      11.149   9.911   3.347  1.00  0.00     0.173 A 
ATOM     76  F   UNL     1      13.113   9.708   6.396  1.00  0.00    -0.203 F 
ATOM     77  C   UNL     1      13.805   9.934   4.156  1.00  0.00     0.198 A 
ATOM     78  C   UNL     1      12.168  10.022   2.403  1.00  0.00     0.198 A 
ATOM     79  F   UNL     1       9.875   9.908   2.929  1.00  0.00    -0.203 F 
ATOM     80  F   UNL     1      15.083   9.978   4.555  1.00  0.00    -0.200 F 
ATOM     81  C   UNL     1      13.494  10.041   2.809  1.00  0.00     0.200 A 
ATOM     82  F   UNL     1      11.865  10.114   1.101  1.00  0.00    -0.200 F 
ATOM     83  F   UNL     1      14.473  10.171   1.903  1.00  0.00    -0.200 F 
ENDBRANCH  49  73
BRANCH  61  84
ATOM     84  C   UNL     1       9.133  14.006   9.753  1.00  0.00     0.064 A 
ATOM     85  C   UNL     1       8.906  15.171   9.006  1.00  0.00     0.173 A 
ATOM     86  C   UNL     1       9.784  14.133  10.990  1.00  0.00     0.173 A 
ATOM     87  F   UNL     1       8.302  15.098   7.810  1.00  0.00    -0.203 F 
ATOM     88  C   UNL     1       9.338  16.411   9.467  1.00  0.00     0.198 A 
ATOM     89  C   UNL     1      10.190  15.378  11.460  1.00  0.00     0.198 A 
ATOM     90  F   UNL     1      10.019  13.050  11.745  1.00  0.00    -0.203 F 
ATOM     91  F   UNL     1       9.154  17.504   8.714  1.00  0.00    -0.200 F 
ATOM     92  C   UNL     1       9.974  16.515  10.695  1.00  0.00     0.200 A 
ATOM     93  F   UNL     1      10.794  15.478  12.652  1.00  0.00    -0.200 F 
ATOM     94  F   UNL     1      10.388  17.710  11.138  1.00  0.00    -0.200 F 
ENDBRANCH  61  84
ENDBRANCH  35  36
ENDBRANCH  27  30
ENDBRANCH  25  26
ENDBRANCH  24  25
ENDBRANCH   1  24
TORSDOF 13
