REMARK SMILES O=C(NCCCNC(=O)[C@@H]1CN(c2ncccn2)CCN1C(=O)C1CCOCC1)c1ccc(-c2c3nc(c(-c4c(F)c(F)c(F)c(F)c4F)c4ccc([nH]4)c(-c4c(F)c(F)c(F)c(F)c4F)c4nc(c(-c5c(F)c(F)c(F)c(F)c5F)c5ccc2[nH]5)C=C4)C=C3)cc1
REMARK SMILES IDX 5 1 4 2 3 3 1 4 2 5 30 7 31 8 92 9 32 10 91 11 33 12 34 13
REMARK SMILES IDX 35 14 85 15 36 16 90 17 84 18 86 19 37 20 89 21 83 22 82 23
REMARK SMILES IDX 38 25 70 26 50 27 69 28 51 29 54 30 68 31 87 32 52 33 53 34
REMARK SMILES IDX 67 36 88 37 55 38 39 39 40 40 48 41 41 42 42 43 46 44 49 45
REMARK SMILES IDX 43 46 44 47 47 48 45 49 71 50 72 51 80 52 73 53 74 54 78 55
REMARK SMILES IDX 81 56 75 57 76 58 79 59 77 60 56 61 57 62 65 63 58 64 59 65
REMARK SMILES IDX 63 66 66 67 60 68 61 69 64 70 62 71 6 72 7 73 8 74 9 76
REMARK SMILES IDX 10 77 11 78 21 79 12 80 20 81 19 82 22 83 23 84 24 85 25 86
REMARK SMILES IDX 29 87 26 88 28 89 27 90 13 91 14 92 18 93 15 94 17 95 16 96
REMARK H PARENT 3 6 86 24 54 35 7 75
REMARK Flexibility Score: inf
ROOT
ATOM      1  C   UNL     1       3.421   0.566  -3.395  1.00  0.00     0.042 C 
ENDROOT
BRANCH   1   2
ATOM      2  C   UNL     1       3.410   0.369  -1.875  1.00  0.00     0.118 C 
BRANCH   2   3
ATOM      3  N   UNL     1       2.139   0.415  -1.193  1.00  0.00    -0.352 N 
ATOM      4  O   UNL     1       0.676  -0.114   0.450  1.00  0.00    -0.269 OA
ATOM      5  C   UNL     1       1.792  -0.252  -0.030  1.00  0.00     0.251 C 
ATOM      6  H   UNL     1       1.443   0.982  -1.599  1.00  0.00     0.163 HD
BRANCH   5   7
ATOM      7  C   UNL     1       2.762  -1.168   0.635  1.00  0.00     0.039 A 
ATOM      8  C   UNL     1       3.997  -0.713   1.103  1.00  0.00     0.014 A 
ATOM      9  C   UNL     1       2.392  -2.500   0.854  1.00  0.00     0.014 A 
ATOM     10  C   UNL     1       4.885  -1.606   1.721  1.00  0.00     0.010 A 
ATOM     11  C   UNL     1       3.266  -3.383   1.508  1.00  0.00     0.010 A 
ATOM     12  C   UNL     1       4.530  -2.951   1.941  1.00  0.00    -0.014 A 
BRANCH  12  13
ATOM     13  C   UNL     1       5.448  -3.865   2.690  1.00  0.00     0.031 A 
ATOM     14  C   UNL     1       6.086  -5.064   2.033  1.00  0.00     0.074 A 
ATOM     15  C   UNL     1       5.711  -3.616   3.990  1.00  0.00     0.049 A 
ATOM     16  N   UNL     1       6.904  -5.955   2.546  1.00  0.00    -0.248 NA
ATOM     17  C   UNL     1       5.759  -5.302   0.621  1.00  0.00     0.031 C 
ATOM     18  C   UNL     1       5.135  -2.516   4.765  1.00  0.00     0.029 A 
ATOM     19  N   UNL     1       6.524  -4.264   4.890  1.00  0.00    -0.354 N 
ATOM     20  C   UNL     1       7.192  -6.851   1.522  1.00  0.00     0.074 A 
ATOM     21  C   UNL     1       6.427  -6.421   0.369  1.00  0.00     0.031 C 
ATOM     22  C   UNL     1       5.631  -2.548   6.011  1.00  0.00     0.029 A 
ATOM     23  C   UNL     1       6.519  -3.699   6.144  1.00  0.00     0.049 A 
ATOM     24  H   UNL     1       7.058  -5.058   4.659  1.00  0.00     0.167 HD
ATOM     25  C   UNL     1       8.027  -7.921   1.535  1.00  0.00     0.037 A 
ATOM     26  C   UNL     1       7.141  -4.069   7.280  1.00  0.00     0.037 A 
ATOM     27  C   UNL     1       8.787  -8.358   2.683  1.00  0.00     0.049 A 
ATOM     28  C   UNL     1       8.037  -5.279   7.273  1.00  0.00     0.074 A 
ATOM     29  C   UNL     1       9.672  -9.419   2.781  1.00  0.00     0.029 A 
ATOM     30  N   UNL     1       8.748  -7.761   3.935  1.00  0.00    -0.354 N 
ATOM     31  N   UNL     1       8.334  -6.084   6.283  1.00  0.00    -0.248 NA
ATOM     32  C   UNL     1       8.690  -5.627   8.543  1.00  0.00     0.031 C 
ATOM     33  C   UNL     1      10.130  -9.496   4.101  1.00  0.00     0.029 A 
ATOM     34  C   UNL     1       9.578  -8.445   4.814  1.00  0.00     0.049 A 
ATOM     35  H   UNL     1       8.211  -6.969   4.167  1.00  0.00     0.167 HD
ATOM     36  C   UNL     1       9.219  -7.019   6.804  1.00  0.00     0.074 A 
ATOM     37  C   UNL     1       9.439  -6.660   8.188  1.00  0.00     0.031 C 
ATOM     38  C   UNL     1       9.790  -8.086   6.192  1.00  0.00     0.037 A 
BRANCH  25  39
ATOM     39  C   UNL     1       8.180  -8.712   0.264  1.00  0.00     0.064 A 
ATOM     40  C   UNL     1       8.865  -8.191  -0.845  1.00  0.00     0.173 A 
ATOM     41  C   UNL     1       7.717 -10.035   0.181  1.00  0.00     0.173 A 
ATOM     42  F   UNL     1       9.327  -6.932  -0.822  1.00  0.00    -0.203 F 
ATOM     43  C   UNL     1       9.063  -8.956  -1.993  1.00  0.00     0.198 A 
ATOM     44  C   UNL     1       7.943 -10.807  -0.957  1.00  0.00     0.198 A 
ATOM     45  F   UNL     1       7.068 -10.591   1.215  1.00  0.00    -0.203 F 
ATOM     46  F   UNL     1       9.691  -8.424  -3.051  1.00  0.00    -0.200 F 
ATOM     47  C   UNL     1       8.611 -10.265  -2.045  1.00  0.00     0.200 A 
ATOM     48  F   UNL     1       7.522 -12.079  -0.998  1.00  0.00    -0.200 F 
ATOM     49  F   UNL     1       8.818 -11.005  -3.143  1.00  0.00    -0.200 F 
ENDBRANCH  25  39
BRANCH  26  50
ATOM     50  C   UNL     1       6.926  -3.296   8.534  1.00  0.00     0.064 A 
ATOM     51  C   UNL     1       7.973  -2.588   9.142  1.00  0.00     0.173 A 
ATOM     52  C   UNL     1       5.674  -3.276   9.168  1.00  0.00     0.173 A 
ATOM     53  F   UNL     1       9.196  -2.595   8.591  1.00  0.00    -0.203 F 
ATOM     54  C   UNL     1       7.783  -1.917  10.349  1.00  0.00     0.198 A 
ATOM     55  C   UNL     1       5.476  -2.572  10.353  1.00  0.00     0.198 A 
ATOM     56  F   UNL     1       4.638  -3.936   8.629  1.00  0.00    -0.203 F 
ATOM     57  F   UNL     1       8.817  -1.304  10.942  1.00  0.00    -0.200 F 
ATOM     58  C   UNL     1       6.533  -1.904  10.950  1.00  0.00     0.200 A 
ATOM     59  F   UNL     1       4.262  -2.549  10.920  1.00  0.00    -0.200 F 
ATOM     60  F   UNL     1       6.351  -1.258  12.110  1.00  0.00    -0.200 F 
ENDBRANCH  26  50
BRANCH  38  61
ATOM     61  C   UNL     1      10.731  -8.922   7.015  1.00  0.00     0.064 A 
ATOM     62  C   UNL     1      10.276  -9.714   8.081  1.00  0.00     0.173 A 
ATOM     63  C   UNL     1      12.107  -8.928   6.739  1.00  0.00     0.173 A 
ATOM     64  F   UNL     1       8.972  -9.735   8.398  1.00  0.00    -0.203 F 
ATOM     65  C   UNL     1      11.166 -10.443   8.866  1.00  0.00     0.198 A 
ATOM     66  C   UNL     1      12.991  -9.687   7.504  1.00  0.00     0.198 A 
ATOM     67  F   UNL     1      12.598  -8.197   5.727  1.00  0.00    -0.203 F 
ATOM     68  F   UNL     1      10.715 -11.133   9.922  1.00  0.00    -0.200 F 
ATOM     69  C   UNL     1      12.522 -10.432   8.575  1.00  0.00     0.200 A 
ATOM     70  F   UNL     1      14.299  -9.687   7.211  1.00  0.00    -0.200 F 
ATOM     71  F   UNL     1      13.378 -11.129   9.334  1.00  0.00    -0.200 F 
ENDBRANCH  38  61
ENDBRANCH  12  13
ENDBRANCH   5   7
ENDBRANCH   2   3
ENDBRANCH   1   2
BRANCH   1  72
ATOM     72  C   UNL     1       2.887   1.802  -4.145  1.00  0.00     0.117 C 
BRANCH  72  73
ATOM     73  N   UNL     1       3.133   3.166  -3.706  1.00  0.00    -0.354 N 
ATOM     74  C   UNL     1       4.004   4.145  -4.096  1.00  0.00     0.244 C 
ATOM     75  H   UNL     1       2.546   3.445  -2.967  1.00  0.00     0.163 HD
ATOM     76  O   UNL     1       3.620   5.309  -3.912  1.00  0.00    -0.273 OA
BRANCH  74  77
ATOM     77  C   UNL     1       5.424   3.913  -4.655  1.00  0.00     0.193 C 
ATOM     78  C   UNL     1       5.494   4.651  -6.032  1.00  0.00     0.155 C 
ATOM     79  N   UNL     1       5.921   2.535  -4.568  1.00  0.00    -0.327 N 
ATOM     80  N   UNL     1       6.067   3.845  -7.104  1.00  0.00    -0.336 N 
ATOM     81  C   UNL     1       6.184   1.812  -5.844  1.00  0.00     0.142 C 
ATOM     82  C   UNL     1       5.635   2.467  -7.130  1.00  0.00     0.141 C 
BRANCH  79  83
ATOM     83  C   UNL     1       6.423   1.962  -3.404  1.00  0.00     0.226 C 
ATOM     84  O   UNL     1       7.010   0.871  -3.489  1.00  0.00    -0.275 OA
BRANCH  83  85
ATOM     85  C   UNL     1       6.294   2.548  -1.962  1.00  0.00     0.083 C 
ATOM     86  C   UNL     1       5.166   3.471  -1.499  1.00  0.00     0.042 C 
ATOM     87  C   UNL     1       7.617   3.122  -1.449  1.00  0.00     0.042 C 
ATOM     88  C   UNL     1       5.191   3.721   0.001  1.00  0.00     0.161 C 
ATOM     89  C   UNL     1       7.521   3.353   0.062  1.00  0.00     0.161 C 
ATOM     90  O   UNL     1       6.454   4.244   0.383  1.00  0.00    -0.381 OA
ENDBRANCH  83  85
ENDBRANCH  79  83
BRANCH  80  91
ATOM     91  C   UNL     1       6.316   4.549  -8.259  1.00  0.00     0.225 A 
ATOM     92  N   UNL     1       5.553   4.363  -9.348  1.00  0.00    -0.221 NA
ATOM     93  N   UNL     1       7.300   5.464  -8.200  1.00  0.00    -0.221 NA
ATOM     94  C   UNL     1       5.786   5.181 -10.401  1.00  0.00     0.117 A 
ATOM     95  C   UNL     1       7.526   6.218  -9.290  1.00  0.00     0.117 A 
ATOM     96  C   UNL     1       6.774   6.135 -10.431  1.00  0.00     0.040 A 
ENDBRANCH  80  91
ENDBRANCH  74  77
ENDBRANCH  72  73
ENDBRANCH   1  72
TORSDOF 13
