REMARK SMILES COc1ccc2cc([C@H](C)C(=O)NCCCNC(=O)c3ccc(-c4c5nc(c(-c6c(F)c(F)c(F)c(F)c6F)c6ccc([nH]6)c(-c6c(F)c(F)c(F)c(F)c6F)c6nc(c(-c7c(F)c(F)c(F)c(F)c7F)c7ccc4[nH]7)C=C6)C=C5)cc3)ccc2c1
REMARK SMILES IDX 15 1 14 2 13 3 11 4 12 5 9 7 10 8 8 9 3 10 4 11 86 12 5 13
REMARK SMILES IDX 85 14 6 15 84 16 7 17 83 18 2 19 1 20 16 21 17 22 18 23
REMARK SMILES IDX 19 25 20 26 21 27 82 28 22 29 81 30 23 31 24 32 25 33 75 34
REMARK SMILES IDX 26 35 80 36 74 37 76 38 27 39 79 40 73 41 72 42 28 44 60 45
REMARK SMILES IDX 40 46 59 47 41 48 44 49 58 50 77 51 42 52 43 53 57 55 78 56
REMARK SMILES IDX 45 57 29 58 30 59 38 60 31 61 32 62 36 63 39 64 33 65 34 66
REMARK SMILES IDX 37 67 35 68 61 69 62 70 70 71 63 72 64 73 68 74 71 75 65 76
REMARK SMILES IDX 66 77 69 78 67 79 46 80 47 81 55 82 48 83 49 84 53 85 56 86
REMARK SMILES IDX 50 87 51 88 54 89 52 90
REMARK H PARENT 13 6 17 24 76 43 44 54
REMARK Flexibility Score: inf
ROOT
ATOM      1  C   UNL     1       4.419   3.770  -5.001  1.00  0.00     0.042 C 
ENDROOT
BRANCH   1   2
ATOM      2  C   UNL     1       4.075   5.106  -5.633  1.00  0.00     0.117 C 
BRANCH   2   3
ATOM      3  N   UNL     1       3.581   4.952  -6.992  1.00  0.00    -0.356 N 
ATOM      4  C   UNL     1       2.445   5.447  -7.566  1.00  0.00     0.227 C 
ATOM      5  O   UNL     1       2.283   5.247  -8.772  1.00  0.00    -0.274 OA
ATOM      6  H   UNL     1       4.150   4.410  -7.586  1.00  0.00     0.163 HD
BRANCH   4   7
ATOM      7  C   UNL     1       1.395   6.192  -6.736  1.00  0.00     0.105 C 
ATOM      8  C   UNL     1       0.692   5.165  -5.834  1.00  0.00     0.023 C 
BRANCH   7   9
ATOM      9  C   UNL     1       1.911   7.450  -6.033  1.00  0.00    -0.035 A 
ATOM     10  C   UNL     1       2.740  11.383  -2.900  1.00  0.00     0.119 A 
ATOM     11  C   UNL     1       1.487  10.876  -2.562  1.00  0.00     0.047 A 
ATOM     12  C   UNL     1       3.454  10.800  -3.947  1.00  0.00     0.055 A 
ATOM     13  C   UNL     1       0.967   9.772  -3.249  1.00  0.00     0.012 A 
ATOM     14  C   UNL     1       2.938   9.705  -4.653  1.00  0.00    -0.015 A 
ATOM     15  C   UNL     1       1.686   9.167  -4.292  1.00  0.00    -0.018 A 
ATOM     16  C   UNL     1       3.637   9.149  -5.727  1.00  0.00     0.009 A 
ATOM     17  C   UNL     1       1.190   8.044  -4.984  1.00  0.00     0.013 A 
ATOM     18  C   UNL     1       3.111   8.066  -6.430  1.00  0.00     0.005 A 
BRANCH  10  19
ATOM     19  O   UNL     1       3.350  12.462  -2.324  1.00  0.00    -0.497 OA
ATOM     20  C   UNL     1       2.925  12.799  -1.010  1.00  0.00     0.278 C 
ENDBRANCH  10  19
ENDBRANCH   7   9
ENDBRANCH   4   7
ENDBRANCH   2   3
ENDBRANCH   1   2
BRANCH   1  21
ATOM     21  C   UNL     1       5.612   3.092  -5.654  1.00  0.00     0.118 C 
BRANCH  21  22
ATOM     22  N   UNL     1       6.855   3.829  -5.458  1.00  0.00    -0.352 N 
ATOM     23  C   UNL     1       8.024   3.427  -4.862  1.00  0.00     0.251 C 
ATOM     24  H   UNL     1       6.856   4.750  -5.805  1.00  0.00     0.163 HD
ATOM     25  O   UNL     1       8.908   4.245  -4.622  1.00  0.00    -0.269 OA
BRANCH  23  26
ATOM     26  C   UNL     1       8.205   2.011  -4.484  1.00  0.00     0.039 A 
ATOM     27  C   UNL     1       8.763   1.706  -3.242  1.00  0.00     0.014 A 
ATOM     28  C   UNL     1       7.807   0.988  -5.348  1.00  0.00     0.014 A 
ATOM     29  C   UNL     1       8.856   0.373  -2.838  1.00  0.00     0.010 A 
ATOM     30  C   UNL     1       7.803  -0.327  -4.904  1.00  0.00     0.010 A 
ATOM     31  C   UNL     1       8.337  -0.651  -3.648  1.00  0.00    -0.014 A 
BRANCH  31  32
ATOM     32  C   UNL     1       8.356  -2.068  -3.209  1.00  0.00     0.031 A 
ATOM     33  C   UNL     1       9.121  -3.090  -4.005  1.00  0.00     0.074 A 
ATOM     34  C   UNL     1       7.636  -2.444  -2.135  1.00  0.00     0.049 A 
ATOM     35  N   UNL     1       9.205  -4.384  -3.829  1.00  0.00    -0.248 NA
ATOM     36  C   UNL     1       9.867  -2.597  -5.175  1.00  0.00     0.031 C 
ATOM     37  C   UNL     1       6.812  -1.555  -1.314  1.00  0.00     0.029 A 
ATOM     38  N   UNL     1       7.472  -3.677  -1.554  1.00  0.00    -0.354 N 
ATOM     39  C   UNL     1       9.997  -4.856  -4.867  1.00  0.00     0.074 A 
ATOM     40  C   UNL     1      10.315  -3.723  -5.707  1.00  0.00     0.031 C 
ATOM     41  C   UNL     1       6.256  -2.264  -0.319  1.00  0.00     0.029 A 
ATOM     42  C   UNL     1       6.645  -3.663  -0.457  1.00  0.00     0.049 A 
ATOM     43  H   UNL     1       7.907  -4.493  -1.891  1.00  0.00     0.167 HD
ATOM     44  C   UNL     1      10.444  -6.115  -5.084  1.00  0.00     0.037 A 
ATOM     45  C   UNL     1       6.242  -4.670   0.342  1.00  0.00     0.037 A 
ATOM     46  C   UNL     1      10.143  -7.234  -4.231  1.00  0.00     0.049 A 
ATOM     47  C   UNL     1       6.743  -6.063   0.070  1.00  0.00     0.074 A 
ATOM     48  C   UNL     1      10.588  -8.540  -4.332  1.00  0.00     0.029 A 
ATOM     49  N   UNL     1       9.317  -7.178  -3.118  1.00  0.00    -0.354 N 
ATOM     50  N   UNL     1       7.550  -6.485  -0.874  1.00  0.00    -0.248 NA
ATOM     51  C   UNL     1       6.285  -7.120   0.982  1.00  0.00     0.031 C 
ATOM     52  C   UNL     1       9.989  -9.286  -3.313  1.00  0.00     0.029 A 
ATOM     53  C   UNL     1       9.222  -8.432  -2.537  1.00  0.00     0.049 A 
ATOM     54  H   UNL     1       8.865  -6.367  -2.789  1.00  0.00     0.167 HD
ATOM     55  C   UNL     1       7.725  -7.844  -0.648  1.00  0.00     0.074 A 
ATOM     56  C   UNL     1       6.951  -8.173   0.530  1.00  0.00     0.031 C 
ATOM     57  C   UNL     1       8.460  -8.739  -1.353  1.00  0.00     0.037 A 
BRANCH  44  58
ATOM     58  C   UNL     1      11.312  -6.350  -6.287  1.00  0.00     0.064 A 
ATOM     59  C   UNL     1      12.612  -5.826  -6.372  1.00  0.00     0.173 A 
ATOM     60  C   UNL     1      10.855  -7.141  -7.352  1.00  0.00     0.173 A 
ATOM     61  F   UNL     1      13.094  -5.052  -5.387  1.00  0.00    -0.203 F 
ATOM     62  C   UNL     1      13.410  -6.063  -7.488  1.00  0.00     0.198 A 
ATOM     63  C   UNL     1      11.669  -7.404  -8.451  1.00  0.00     0.198 A 
ATOM     64  F   UNL     1       9.623  -7.671  -7.322  1.00  0.00    -0.203 F 
ATOM     65  F   UNL     1      14.628  -5.509  -7.568  1.00  0.00    -0.200 F 
ATOM     66  C   UNL     1      12.941  -6.858  -8.522  1.00  0.00     0.200 A 
ATOM     67  F   UNL     1      11.220  -8.186  -9.443  1.00  0.00    -0.200 F 
ATOM     68  F   UNL     1      13.715  -7.095  -9.591  1.00  0.00    -0.200 F 
ENDBRANCH  44  58
BRANCH  45  69
ATOM     69  C   UNL     1       5.333  -4.398   1.487  1.00  0.00     0.064 A 
ATOM     70  C   UNL     1       5.776  -4.545   2.810  1.00  0.00     0.173 A 
ATOM     71  C   UNL     1       4.001  -4.006   1.287  1.00  0.00     0.173 A 
ATOM     72  F   UNL     1       7.036  -4.935   3.054  1.00  0.00    -0.203 F 
ATOM     73  C   UNL     1       4.915  -4.340   3.886  1.00  0.00     0.198 A 
ATOM     74  C   UNL     1       3.150  -3.769   2.365  1.00  0.00     0.198 A 
ATOM     75  F   UNL     1       3.528  -3.843   0.043  1.00  0.00    -0.203 F 
ATOM     76  F   UNL     1       5.349  -4.545   5.137  1.00  0.00    -0.200 F 
ATOM     77  C   UNL     1       3.604  -3.948   3.663  1.00  0.00     0.200 A 
ATOM     78  F   UNL     1       1.889  -3.374   2.145  1.00  0.00    -0.200 F 
ATOM     79  F   UNL     1       2.775  -3.752   4.698  1.00  0.00    -0.200 F 
ENDBRANCH  45  69
BRANCH  57  80
ATOM     80  C   UNL     1       8.510 -10.149  -0.838  1.00  0.00     0.064 A 
ATOM     81  C   UNL     1       7.398 -11.001  -0.900  1.00  0.00     0.173 A 
ATOM     82  C   UNL     1       9.704 -10.666  -0.311  1.00  0.00     0.173 A 
ATOM     83  F   UNL     1       6.229 -10.552  -1.382  1.00  0.00    -0.203 F 
ATOM     84  C   UNL     1       7.470 -12.308  -0.426  1.00  0.00     0.198 A 
ATOM     85  C   UNL     1       9.783 -11.984   0.128  1.00  0.00     0.198 A 
ATOM     86  F   UNL     1      10.800  -9.896  -0.237  1.00  0.00    -0.203 F 
ATOM     87  F   UNL     1       6.380 -13.087  -0.445  1.00  0.00    -0.200 F 
ATOM     88  C   UNL     1       8.664 -12.801   0.079  1.00  0.00     0.200 A 
ATOM     89  F   UNL     1      10.943 -12.463   0.600  1.00  0.00    -0.200 F 
ATOM     90  F   UNL     1       8.734 -14.062   0.526  1.00  0.00    -0.200 F 
ENDBRANCH  57  80
ENDBRANCH  31  32
ENDBRANCH  23  26
ENDBRANCH  21  22
ENDBRANCH   1  21
TORSDOF 12
