REMARK SMILES O=C(Nc1c(F)cc(F)cc1F)N[C@H]1C=C[C@H](C(=O)NCCCNC(=O)c2ccc(-c3c4nc(c(-c5c(F)c(F)c(F)c(F)c5F)c5ccc([nH]5)c(-c5c(F)c(F)c(F)c(F)c5F)c5nc(c(-c6c(F)c(F)c(F)c(F)c6F)c6ccc3[nH]6)C=C5)C=C4)cc2)C1
REMARK SMILES IDX 22 1 21 2 20 3 18 4 19 5 17 7 14 8 15 9 90 10 16 11 13 12
REMARK SMILES IDX 1 13 2 14 3 15 4 18 5 19 11 20 6 21 7 22 10 23 12 24 8 25
REMARK SMILES IDX 9 26 23 27 24 28 25 29 26 31 27 32 28 33 89 34 29 35 88 36
REMARK SMILES IDX 30 37 31 38 32 39 82 40 33 41 87 42 81 43 83 44 34 45 86 46
REMARK SMILES IDX 80 47 79 48 35 50 67 51 47 52 66 53 48 54 51 55 65 56 84 57
REMARK SMILES IDX 49 58 50 59 64 61 85 62 52 63 36 64 37 65 45 66 38 67 39 68
REMARK SMILES IDX 43 69 46 70 40 71 41 72 44 73 42 74 68 75 69 76 77 77 70 78
REMARK SMILES IDX 71 79 75 80 78 81 72 82 73 83 76 84 74 85 53 86 54 87 62 88
REMARK SMILES IDX 55 89 56 90 60 91 63 92 57 93 58 94 61 95 59 96
REMARK H PARENT 20 6 3 16 13 17 24 30 83 49 51 60
REMARK Flexibility Score: inf
ROOT
ATOM      1  C   UNL     1      -2.359   5.168  -0.293  1.00  0.00     0.042 C 
ENDROOT
BRANCH   1   2
ATOM      2  C   UNL     1      -1.440   4.397  -1.237  1.00  0.00     0.117 C 
BRANCH   2   3
ATOM      3  N   UNL     1      -0.297   5.193  -1.646  1.00  0.00    -0.356 N 
ATOM      4  C   UNL     1       0.982   5.266  -1.204  1.00  0.00     0.227 C 
ATOM      5  O   UNL     1       1.704   6.096  -1.772  1.00  0.00    -0.274 OA
ATOM      6  H   UNL     1      -0.490   5.801  -2.396  1.00  0.00     0.163 HD
BRANCH   4   7
ATOM      7  C   UNL     1       1.593   4.368  -0.118  1.00  0.00     0.103 C 
ATOM      8  C   UNL     1       1.847   1.991  -0.695  1.00  0.00     0.107 C 
ATOM      9  C   UNL     1       0.877   2.202   0.421  1.00  0.00    -0.006 C 
ATOM     10  C   UNL     1       2.552   3.353  -0.767  1.00  0.00     0.047 C 
ATOM     11  C   UNL     1       0.738   3.494   0.737  1.00  0.00    -0.016 C 
BRANCH   8  12
ATOM     12  N   UNL     1       2.761   0.933  -0.352  1.00  0.00    -0.332 N 
ATOM     13  O   UNL     1       1.273  -0.772  -0.476  1.00  0.00    -0.248 OA
ATOM     14  C   UNL     1       2.415  -0.369  -0.259  1.00  0.00     0.319 C 
ATOM     15  N   UNL     1       3.376  -1.280   0.045  1.00  0.00    -0.303 N 
ATOM     16  H   UNL     1       3.036  -2.204   0.038  1.00  0.00     0.172 HD
ATOM     17  H   UNL     1       3.699   1.174  -0.174  1.00  0.00     0.165 HD
BRANCH  15  18
ATOM     18  C   UNL     1       4.750  -1.212   0.368  1.00  0.00     0.115 A 
ATOM     19  C   UNL     1       5.478  -0.074   0.732  1.00  0.00     0.152 A 
ATOM     20  C   UNL     1       5.453  -2.425   0.307  1.00  0.00     0.152 A 
ATOM     21  F   UNL     1       4.889   1.116   0.900  1.00  0.00    -0.204 F 
ATOM     22  C   UNL     1       6.852  -0.128   0.959  1.00  0.00     0.081 A 
ATOM     23  C   UNL     1       6.825  -2.499   0.522  1.00  0.00     0.081 A 
ATOM     24  F   UNL     1       4.793  -3.552  -0.005  1.00  0.00    -0.204 F 
ATOM     25  C   UNL     1       7.516  -1.339   0.836  1.00  0.00     0.129 A 
ATOM     26  F   UNL     1       8.839  -1.387   1.026  1.00  0.00    -0.207 F 
ENDBRANCH  15  18
ENDBRANCH   8  12
ENDBRANCH   4   7
ENDBRANCH   2   3
ENDBRANCH   1   2
BRANCH   1  27
ATOM     27  C   UNL     1      -3.208   6.217  -1.009  1.00  0.00     0.118 C 
BRANCH  27  28
ATOM     28  N   UNL     1      -4.160   5.615  -1.936  1.00  0.00    -0.352 N 
ATOM     29  C   UNL     1      -5.531   5.636  -1.954  1.00  0.00     0.251 C 
ATOM     30  H   UNL     1      -3.748   5.109  -2.674  1.00  0.00     0.163 HD
ATOM     31  O   UNL     1      -6.137   4.871  -2.698  1.00  0.00    -0.269 OA
BRANCH  29  32
ATOM     32  C   UNL     1      -6.287   6.565  -1.090  1.00  0.00     0.039 A 
ATOM     33  C   UNL     1      -7.476   6.121  -0.502  1.00  0.00     0.014 A 
ATOM     34  C   UNL     1      -5.866   7.884  -0.902  1.00  0.00     0.014 A 
ATOM     35  C   UNL     1      -8.210   6.980   0.318  1.00  0.00     0.010 A 
ATOM     36  C   UNL     1      -6.555   8.714  -0.023  1.00  0.00     0.010 A 
ATOM     37  C   UNL     1      -7.737   8.273   0.590  1.00  0.00    -0.014 A 
BRANCH  37  38
ATOM     38  C   UNL     1      -8.462   9.183   1.511  1.00  0.00     0.031 A 
ATOM     39  C   UNL     1      -9.047  10.468   0.997  1.00  0.00     0.074 A 
ATOM     40  C   UNL     1      -8.533   8.882   2.821  1.00  0.00     0.049 A 
ATOM     41  N   UNL     1      -9.632  11.434   1.659  1.00  0.00    -0.248 NA
ATOM     42  C   UNL     1      -8.933  10.715  -0.449  1.00  0.00     0.031 C 
ATOM     43  C   UNL     1      -7.969   7.683   3.442  1.00  0.00     0.029 A 
ATOM     44  N   UNL     1      -9.101   9.563   3.868  1.00  0.00    -0.354 N 
ATOM     45  C   UNL     1      -9.937  12.406   0.717  1.00  0.00     0.074 A 
ATOM     46  C   UNL     1      -9.429  11.940  -0.554  1.00  0.00     0.031 C 
ATOM     47  C   UNL     1      -8.245   7.697   4.755  1.00  0.00     0.029 A 
ATOM     48  C   UNL     1      -8.968   8.924   5.076  1.00  0.00     0.049 A 
ATOM     49  H   UNL     1      -9.560  10.428   3.763  1.00  0.00     0.167 HD
ATOM     50  C   UNL     1     -10.604  13.572   0.893  1.00  0.00     0.037 A 
ATOM     51  C   UNL     1      -9.379   9.289   6.305  1.00  0.00     0.037 A 
ATOM     52  C   UNL     1     -11.136  14.014   2.155  1.00  0.00     0.049 A 
ATOM     53  C   UNL     1     -10.115  10.589   6.477  1.00  0.00     0.074 A 
ATOM     54  C   UNL     1     -11.878  15.149   2.427  1.00  0.00     0.029 A 
ATOM     55  N   UNL     1     -10.986  13.336   3.357  1.00  0.00    -0.354 N 
ATOM     56  N   UNL     1     -10.438  11.479   5.571  1.00  0.00    -0.248 NA
ATOM     57  C   UNL     1     -10.542  10.935   7.840  1.00  0.00     0.031 C 
ATOM     58  C   UNL     1     -12.141  15.181   3.800  1.00  0.00     0.029 A 
ATOM     59  C   UNL     1     -11.604  14.040   4.377  1.00  0.00     0.049 A 
ATOM     60  H   UNL     1     -10.510  12.481   3.468  1.00  0.00     0.167 HD
ATOM     61  C   UNL     1     -11.121  12.481   6.247  1.00  0.00     0.074 A 
ATOM     62  C   UNL     1     -11.178  12.081   7.638  1.00  0.00     0.031 C 
ATOM     63  C   UNL     1     -11.651  13.628   5.757  1.00  0.00     0.037 A 
BRANCH  50  64
ATOM     64  C   UNL     1     -10.806  14.449  -0.308  1.00  0.00     0.064 A 
ATOM     65  C   UNL     1     -10.155  15.688  -0.405  1.00  0.00     0.173 A 
ATOM     66  C   UNL     1     -11.680  14.085  -1.344  1.00  0.00     0.173 A 
ATOM     67  F   UNL     1      -9.314  16.088   0.560  1.00  0.00    -0.203 F 
ATOM     68  C   UNL     1     -10.377  16.532  -1.491  1.00  0.00     0.198 A 
ATOM     69  C   UNL     1     -11.875  14.917  -2.443  1.00  0.00     0.198 A 
ATOM     70  F   UNL     1     -12.318  12.905  -1.305  1.00  0.00    -0.203 F 
ATOM     71  F   UNL     1      -9.763  17.722  -1.550  1.00  0.00    -0.200 F 
ATOM     72  C   UNL     1     -11.230  16.142  -2.512  1.00  0.00     0.200 A 
ATOM     73  F   UNL     1     -12.680  14.527  -3.441  1.00  0.00    -0.200 F 
ATOM     74  F   UNL     1     -11.428  16.947  -3.566  1.00  0.00    -0.200 F 
ENDBRANCH  50  64
BRANCH  51  75
ATOM     75  C   UNL     1      -9.137   8.381   7.454  1.00  0.00     0.064 A 
ATOM     76  C   UNL     1      -7.848   8.171   7.965  1.00  0.00     0.173 A 
ATOM     77  C   UNL     1     -10.194   7.663   8.031  1.00  0.00     0.173 A 
ATOM     78  F   UNL     1      -6.803   8.829   7.443  1.00  0.00    -0.203 F 
ATOM     79  C   UNL     1      -7.623   7.260   8.995  1.00  0.00     0.198 A 
ATOM     80  C   UNL     1      -9.971   6.771   9.077  1.00  0.00     0.198 A 
ATOM     81  F   UNL     1     -11.446   7.846   7.587  1.00  0.00    -0.203 F 
ATOM     82  F   UNL     1      -6.377   7.049   9.440  1.00  0.00    -0.200 F 
ATOM     83  C   UNL     1      -8.685   6.562   9.551  1.00  0.00     0.200 A 
ATOM     84  F   UNL     1     -11.002   6.113   9.625  1.00  0.00    -0.200 F 
ATOM     85  F   UNL     1      -8.469   5.689  10.545  1.00  0.00    -0.200 F 
ENDBRANCH  51  75
BRANCH  63  86
ATOM     86  C   UNL     1     -12.353  14.535   6.723  1.00  0.00     0.064 A 
ATOM     87  C   UNL     1     -13.748  14.685   6.672  1.00  0.00     0.173 A 
ATOM     88  C   UNL     1     -11.640  15.316   7.643  1.00  0.00     0.173 A 
ATOM     89  F   UNL     1     -14.474  13.965   5.804  1.00  0.00    -0.203 F 
ATOM     90  C   UNL     1     -14.400  15.597   7.496  1.00  0.00     0.198 A 
ATOM     91  C   UNL     1     -12.298  16.208   8.484  1.00  0.00     0.198 A 
ATOM     92  F   UNL     1     -10.307  15.198   7.737  1.00  0.00    -0.203 F 
ATOM     93  F   UNL     1     -15.728  15.750   7.406  1.00  0.00    -0.200 F 
ATOM     94  C   UNL     1     -13.675  16.356   8.403  1.00  0.00     0.200 A 
ATOM     95  F   UNL     1     -11.600  16.925   9.376  1.00  0.00    -0.200 F 
ATOM     96  F   UNL     1     -14.305  17.229   9.201  1.00  0.00    -0.200 F 
ENDBRANCH  63  86
ENDBRANCH  37  38
ENDBRANCH  29  32
ENDBRANCH  27  28
ENDBRANCH   1  27
TORSDOF 12
