REMARK SMILES CCC[C@@H]([NH2+]Cc1cc(Cl)cs1)C(=O)NCCCNC(=O)c1ccc(-c2c3nc(c(-c4c(F)c(F)c(F)c(F)c4F)c4ccc([nH]4)c(-c4c(F)c(F)c(F)c(F)c4F)c4nc(c(-c5c(F)c(F)c(F)c(F)c5F)c5ccc2[nH]5)C=C4)C=C3)cc1
REMARK SMILES IDX 16 1 15 2 13 3 14 4 4 6 3 7 2 8 1 9 5 10 6 13 7 14 8 15
REMARK SMILES IDX 12 16 9 17 11 18 10 19 17 20 18 21 19 22 20 23 21 25 22 26
REMARK SMILES IDX 23 27 84 28 24 29 83 30 25 31 26 32 27 33 77 34 28 35 82 36
REMARK SMILES IDX 76 37 78 38 29 39 81 40 75 41 74 42 30 44 62 45 42 46 61 47
REMARK SMILES IDX 43 48 46 49 60 50 79 51 44 52 45 53 59 55 80 56 47 57 31 58
REMARK SMILES IDX 32 59 40 60 33 61 34 62 38 63 41 64 35 65 36 66 39 67 37 68
REMARK SMILES IDX 63 69 64 70 72 71 65 72 66 73 70 74 73 75 67 76 68 77 71 78
REMARK SMILES IDX 69 79 48 80 49 81 57 82 50 83 51 84 55 85 58 86 52 87 53 88
REMARK SMILES IDX 56 89 54 90
REMARK H PARENT 15 5 5 11 5 12 19 24 78 43 46 54
REMARK Flexibility Score: inf
ROOT
ATOM      1  C   UNL     1      -0.549   5.116  -1.400  1.00  0.00     0.118 C 
ENDROOT
BRANCH   1   2
ATOM      2  N   UNL     1       0.424   4.646  -2.368  1.00  0.00    -0.351 N 
ATOM      3  C   UNL     1       0.892   3.387  -2.604  1.00  0.00     0.278 C 
ATOM      4  O   UNL     1       1.715   3.248  -3.514  1.00  0.00    -0.268 OA
ATOM      5  H   UNL     1       0.807   5.346  -2.946  1.00  0.00     0.163 HD
BRANCH   3   6
ATOM      6  C   UNL     1       0.408   2.168  -1.786  1.00  0.00     0.272 C 
BRANCH   6   7
ATOM      7  C   UNL     1       0.937   2.244  -0.341  1.00  0.00     0.075 C 
BRANCH   7   8
ATOM      8  C   UNL     1       0.554   1.079   0.577  1.00  0.00     0.003 C 
ATOM      9  C   UNL     1       1.010  -0.280   0.073  1.00  0.00     0.004 C 
ENDBRANCH   7   8
ENDBRANCH   6   7
BRANCH   6  10
ATOM     10  N   UNL     1      -1.066   2.020  -1.848  1.00  0.00    -0.332 N 
ATOM     11  H   UNL     1      -1.490   2.844  -1.422  1.00  0.00     0.347 HD
ATOM     12  H   UNL     1      -1.300   1.160  -1.351  1.00  0.00     0.347 HD
BRANCH  10  13
ATOM     13  C   UNL     1      -1.590   1.881  -3.214  1.00  0.00     0.309 C 
BRANCH  13  14
ATOM     14  C   UNL     1      -1.149   0.610  -3.873  1.00  0.00     0.060 A 
ATOM     15  C   UNL     1      -0.175   0.446  -4.841  1.00  0.00     0.041 A 
ATOM     16  S   UNL     1      -1.857  -0.889  -3.433  1.00  0.00    -0.141 S 
ATOM     17  C   UNL     1       0.007  -0.918  -5.195  1.00  0.00     0.052 A 
ATOM     18  C   UNL     1      -0.840  -1.752  -4.504  1.00  0.00     0.085 A 
ATOM     19  Cl  UNL     1       1.162  -1.430  -6.344  1.00  0.00    -0.083 Cl
ENDBRANCH  13  14
ENDBRANCH  10  13
ENDBRANCH   6  10
ENDBRANCH   3   6
ENDBRANCH   1   2
BRANCH   1  20
ATOM     20  C   UNL     1       0.096   5.975  -0.318  1.00  0.00     0.042 C 
BRANCH  20  21
ATOM     21  C   UNL     1       0.692   7.280  -0.831  1.00  0.00     0.118 C 
BRANCH  21  22
ATOM     22  N   UNL     1      -0.318   8.195  -1.341  1.00  0.00    -0.352 N 
ATOM     23  C   UNL     1      -0.579   9.495  -0.998  1.00  0.00     0.251 C 
ATOM     24  H   UNL     1      -0.903   7.823  -2.040  1.00  0.00     0.163 HD
ATOM     25  O   UNL     1      -1.597  10.042  -1.427  1.00  0.00    -0.269 OA
BRANCH  23  26
ATOM     26  C   UNL     1       0.334  10.248  -0.112  1.00  0.00     0.039 A 
ATOM     27  C   UNL     1      -0.218  11.106   0.845  1.00  0.00     0.014 A 
ATOM     28  C   UNL     1       1.722  10.158  -0.247  1.00  0.00     0.014 A 
ATOM     29  C   UNL     1       0.618  11.840   1.690  1.00  0.00     0.010 A 
ATOM     30  C   UNL     1       2.554  10.834   0.643  1.00  0.00     0.010 A 
ATOM     31  C   UNL     1       2.011  11.695   1.609  1.00  0.00    -0.014 A 
BRANCH  31  32
ATOM     32  C   UNL     1       2.917  12.467   2.497  1.00  0.00     0.031 A 
ATOM     33  C   UNL     1       3.848  13.494   1.910  1.00  0.00     0.074 A 
ATOM     34  C   UNL     1       2.943  12.207   3.818  1.00  0.00     0.049 A 
ATOM     35  N   UNL     1       4.764  14.217   2.503  1.00  0.00    -0.248 NA
ATOM     36  C   UNL     1       3.757  13.718   0.458  1.00  0.00     0.031 C 
ATOM     37  C   UNL     1       2.127  11.201   4.500  1.00  0.00     0.029 A 
ATOM     38  N   UNL     1       3.696  12.760   4.824  1.00  0.00    -0.354 N 
ATOM     39  C   UNL     1       5.375  14.953   1.497  1.00  0.00     0.074 A 
ATOM     40  C   UNL     1       4.753  14.566   0.250  1.00  0.00     0.031 C 
ATOM     41  C   UNL     1       2.415  11.217   5.812  1.00  0.00     0.029 A 
ATOM     42  C   UNL     1       3.454  12.213   6.060  1.00  0.00     0.049 A 
ATOM     43  H   UNL     1       4.349  13.482   4.673  1.00  0.00     0.167 HD
ATOM     44  C   UNL     1       6.353  15.884   1.606  1.00  0.00     0.037 A 
ATOM     45  C   UNL     1       4.010  12.482   7.256  1.00  0.00     0.037 A 
ATOM     46  C   UNL     1       6.932  16.308   2.853  1.00  0.00     0.049 A 
ATOM     47  C   UNL     1       5.057  13.560   7.353  1.00  0.00     0.074 A 
ATOM     48  C   UNL     1       7.878  17.294   3.074  1.00  0.00     0.029 A 
ATOM     49  N   UNL     1       6.611  15.776   4.092  1.00  0.00    -0.354 N 
ATOM     50  N   UNL     1       5.575  14.299   6.403  1.00  0.00    -0.248 NA
ATOM     51  C   UNL     1       5.584  13.853   8.694  1.00  0.00     0.031 C 
ATOM     52  C   UNL     1       8.151  17.339   4.445  1.00  0.00     0.029 A 
ATOM     53  C   UNL     1       7.345  16.410   5.081  1.00  0.00     0.049 A 
ATOM     54  H   UNL     1       5.958  15.055   4.246  1.00  0.00     0.167 HD
ATOM     55  C   UNL     1       6.458  15.165   7.033  1.00  0.00     0.074 A 
ATOM     56  C   UNL     1       6.398  14.869   8.448  1.00  0.00     0.031 C 
ATOM     57  C   UNL     1       7.249  16.121   6.487  1.00  0.00     0.037 A 
BRANCH  44  58
ATOM     58  C   UNL     1       6.856  16.522   0.346  1.00  0.00     0.064 A 
ATOM     59  C   UNL     1       6.086  17.455  -0.364  1.00  0.00     0.173 A 
ATOM     60  C   UNL     1       8.151  16.247  -0.121  1.00  0.00     0.173 A 
ATOM     61  F   UNL     1       4.838  17.743   0.036  1.00  0.00    -0.203 F 
ATOM     62  C   UNL     1       6.587  18.077  -1.505  1.00  0.00     0.198 A 
ATOM     63  C   UNL     1       8.657  16.890  -1.247  1.00  0.00     0.198 A 
ATOM     64  F   UNL     1       8.930  15.366   0.524  1.00  0.00    -0.203 F 
ATOM     65  F   UNL     1       5.820  18.939  -2.186  1.00  0.00    -0.200 F 
ATOM     66  C   UNL     1       7.874  17.801  -1.940  1.00  0.00     0.200 A 
ATOM     67  F   UNL     1       9.906  16.632  -1.660  1.00  0.00    -0.200 F 
ATOM     68  F   UNL     1       8.360  18.412  -3.030  1.00  0.00    -0.200 F 
ENDBRANCH  44  58
BRANCH  45  69
ATOM     69  C   UNL     1       3.574  11.741   8.468  1.00  0.00     0.064 A 
ATOM     70  C   UNL     1       2.841  12.381   9.478  1.00  0.00     0.173 A 
ATOM     71  C   UNL     1       3.905  10.392   8.656  1.00  0.00     0.173 A 
ATOM     72  F   UNL     1       2.519  13.677   9.352  1.00  0.00    -0.203 F 
ATOM     73  C   UNL     1       2.483  11.708  10.644  1.00  0.00     0.198 A 
ATOM     74  C   UNL     1       3.522   9.712   9.810  1.00  0.00     0.198 A 
ATOM     75  F   UNL     1       4.599   9.733   7.717  1.00  0.00    -0.203 F 
ATOM     76  F   UNL     1       1.833  12.359  11.618  1.00  0.00    -0.200 F 
ATOM     77  C   UNL     1       2.821  10.373  10.808  1.00  0.00     0.200 A 
ATOM     78  F   UNL     1       3.839   8.419   9.960  1.00  0.00    -0.200 F 
ATOM     79  F   UNL     1       2.482   9.728  11.932  1.00  0.00    -0.200 F 
ENDBRANCH  45  69
BRANCH  57  80
ATOM     80  C   UNL     1       8.068  16.954   7.427  1.00  0.00     0.064 A 
ATOM     81  C   UNL     1       9.197  16.438   8.078  1.00  0.00     0.173 A 
ATOM     82  C   UNL     1       7.736  18.300   7.649  1.00  0.00     0.173 A 
ATOM     83  F   UNL     1       9.546  15.154   7.908  1.00  0.00    -0.203 F 
ATOM     84  C   UNL     1       9.950  17.232   8.939  1.00  0.00     0.198 A 
ATOM     85  C   UNL     1       8.507  19.097   8.489  1.00  0.00     0.198 A 
ATOM     86  F   UNL     1       6.669  18.842   7.043  1.00  0.00    -0.203 F 
ATOM     87  F   UNL     1      10.998  16.705   9.588  1.00  0.00    -0.200 F 
ATOM     88  C   UNL     1       9.608  18.561   9.139  1.00  0.00     0.200 A 
ATOM     89  F   UNL     1       8.182  20.385   8.672  1.00  0.00    -0.200 F 
ATOM     90  F   UNL     1      10.336  19.324   9.966  1.00  0.00    -0.200 F 
ENDBRANCH  57  80
ENDBRANCH  31  32
ENDBRANCH  23  26
ENDBRANCH  21  22
ENDBRANCH  20  21
ENDBRANCH   1  20
TORSDOF 15
