REMARK SMILES Cc1ncccc1C(=O)N1CC[C@H](C(=O)NCCCNC(=O)c2ccc(-c3c4nc(c(-c5c(F)c(F)c(F)c(F)c5F)c5ccc([nH]5)c(-c5c(F)c(F)c(F)c(F)c5F)c5nc(c(-c6c(F)c(F)c(F)c(F)c6F)c6ccc3[nH]6)C=C5)C=C4)cc2)C1
REMARK SMILES IDX 18 1 17 2 16 3 14 4 15 5 13 7 10 8 11 9 86 10 12 11 8 12
REMARK SMILES IDX 9 13 7 14 1 15 2 16 3 17 4 18 6 19 5 20 19 21 20 22 21 23
REMARK SMILES IDX 22 25 23 26 24 27 85 28 25 29 84 30 26 31 27 32 28 33 78 34
REMARK SMILES IDX 29 35 83 36 77 37 79 38 30 39 82 40 76 41 75 42 31 44 63 45
REMARK SMILES IDX 43 46 62 47 44 48 47 49 61 50 80 51 45 52 46 53 60 55 81 56
REMARK SMILES IDX 48 57 32 58 33 59 41 60 34 61 35 62 39 63 42 64 36 65 37 66
REMARK SMILES IDX 40 67 38 68 64 69 65 70 73 71 66 72 67 73 71 74 74 75 68 76
REMARK SMILES IDX 69 77 72 78 70 79 49 80 50 81 58 82 51 83 52 84 56 85 59 86
REMARK SMILES IDX 53 87 54 88 57 89 55 90
REMARK H PARENT 16 6 20 24 79 43 47 54
REMARK Flexibility Score: inf
ROOT
ATOM      1  C   UNL     1       3.708   0.446  -2.666  1.00  0.00     0.042 C 
ENDROOT
BRANCH   1   2
ATOM      2  C   UNL     1       3.545  -1.061  -2.821  1.00  0.00     0.117 C 
BRANCH   2   3
ATOM      3  N   UNL     1       4.808  -1.772  -2.724  1.00  0.00    -0.356 N 
ATOM      4  C   UNL     1       5.296  -2.677  -1.836  1.00  0.00     0.224 C 
ATOM      5  O   UNL     1       6.427  -3.115  -2.076  1.00  0.00    -0.275 OA
ATOM      6  H   UNL     1       5.438  -1.555  -3.449  1.00  0.00     0.163 HD
BRANCH   4   7
ATOM      7  C   UNL     1       4.582  -3.125  -0.567  1.00  0.00     0.099 C 
ATOM      8  N   UNL     1       2.371  -2.620   0.091  1.00  0.00    -0.338 N 
ATOM      9  C   UNL     1       3.205  -2.221   1.204  1.00  0.00     0.120 C 
ATOM     10  C   UNL     1       3.128  -3.551  -0.742  1.00  0.00     0.133 C 
ATOM     11  C   UNL     1       4.577  -2.070   0.552  1.00  0.00     0.037 C 
BRANCH   8  12
ATOM     12  C   UNL     1       1.059  -2.340  -0.238  1.00  0.00     0.255 C 
ATOM     13  O   UNL     1       0.478  -3.082  -1.039  1.00  0.00    -0.269 OA
BRANCH  12  14
ATOM     14  C   UNL     1       0.281  -1.149   0.226  1.00  0.00     0.061 A 
ATOM     15  C   UNL     1       2.141   0.632   0.382  1.00  0.00     0.067 C 
ATOM     16  C   UNL     1       0.724   0.171   0.386  1.00  0.00     0.050 A 
ATOM     17  N   UNL     1      -0.138   1.222   0.548  1.00  0.00    -0.261 NA
ATOM     18  C   UNL     1      -1.463   0.989   0.501  1.00  0.00     0.111 A 
ATOM     19  C   UNL     1      -1.118  -1.340   0.228  1.00  0.00     0.017 A 
ATOM     20  C   UNL     1      -1.999  -0.269   0.354  1.00  0.00     0.021 A 
ENDBRANCH  12  14
ENDBRANCH   8  12
ENDBRANCH   4   7
ENDBRANCH   2   3
ENDBRANCH   1   2
BRANCH   1  21
ATOM     21  C   UNL     1       4.342   1.143  -3.860  1.00  0.00     0.118 C 
BRANCH  21  22
ATOM     22  N   UNL     1       3.446   1.203  -5.005  1.00  0.00    -0.352 N 
ATOM     23  C   UNL     1       2.831   2.268  -5.612  1.00  0.00     0.251 C 
ATOM     24  H   UNL     1       3.248   0.330  -5.415  1.00  0.00     0.163 HD
ATOM     25  O   UNL     1       1.953   2.050  -6.450  1.00  0.00    -0.269 OA
BRANCH  23  26
ATOM     26  C   UNL     1       3.186   3.670  -5.288  1.00  0.00     0.039 A 
ATOM     27  C   UNL     1       2.178   4.642  -5.319  1.00  0.00     0.014 A 
ATOM     28  C   UNL     1       4.503   4.061  -5.039  1.00  0.00     0.014 A 
ATOM     29  C   UNL     1       2.482   5.983  -5.064  1.00  0.00     0.010 A 
ATOM     30  C   UNL     1       4.793   5.382  -4.699  1.00  0.00     0.010 A 
ATOM     31  C   UNL     1       3.790   6.362  -4.730  1.00  0.00    -0.014 A 
BRANCH  31  32
ATOM     32  C   UNL     1       4.147   7.781  -4.467  1.00  0.00     0.031 A 
ATOM     33  C   UNL     1       5.117   8.492  -5.373  1.00  0.00     0.074 A 
ATOM     34  C   UNL     1       3.654   8.414  -3.385  1.00  0.00     0.049 A 
ATOM     35  N   UNL     1       5.641   9.687  -5.257  1.00  0.00    -0.248 NA
ATOM     36  C   UNL     1       5.583   7.747  -6.553  1.00  0.00     0.031 C 
ATOM     37  C   UNL     1       2.736   7.829  -2.407  1.00  0.00     0.029 A 
ATOM     38  N   UNL     1       3.869   9.688  -2.919  1.00  0.00    -0.354 N 
ATOM     39  C   UNL     1       6.519   9.820  -6.326  1.00  0.00     0.074 A 
ATOM     40  C   UNL     1       6.490   8.571  -7.055  1.00  0.00     0.031 C 
ATOM     41  C   UNL     1       2.452   8.746  -1.468  1.00  0.00     0.029 A 
ATOM     42  C   UNL     1       3.195   9.970  -1.756  1.00  0.00     0.049 A 
ATOM     43  H   UNL     1       4.451  10.337  -3.376  1.00  0.00     0.167 HD
ATOM     44  C   UNL     1       7.265  10.894  -6.681  1.00  0.00     0.037 A 
ATOM     45  C   UNL     1       3.184  11.087  -1.004  1.00  0.00     0.037 A 
ATOM     46  C   UNL     1       7.255  12.153  -5.986  1.00  0.00     0.049 A 
ATOM     47  C   UNL     1       4.002  12.275  -1.434  1.00  0.00     0.074 A 
ATOM     48  C   UNL     1       7.927  13.321  -6.304  1.00  0.00     0.029 A 
ATOM     49  N   UNL     1       6.529  12.411  -4.833  1.00  0.00    -0.354 N 
ATOM     50  N   UNL     1       4.790  12.405  -2.473  1.00  0.00    -0.248 NA
ATOM     51  C   UNL     1       3.923  13.474  -0.587  1.00  0.00     0.031 C 
ATOM     52  C   UNL     1       7.631  14.277  -5.326  1.00  0.00     0.029 A 
ATOM     53  C   UNL     1       6.744  13.716  -4.421  1.00  0.00     0.049 A 
ATOM     54  H   UNL     1       5.947  11.763  -4.375  1.00  0.00     0.167 HD
ATOM     55  C   UNL     1       5.278  13.704  -2.421  1.00  0.00     0.074 A 
ATOM     56  C   UNL     1       4.688  14.326  -1.255  1.00  0.00     0.031 C 
ATOM     57  C   UNL     1       6.138  14.324  -3.265  1.00  0.00     0.037 A 
BRANCH  44  58
ATOM     58  C   UNL     1       8.152  10.755  -7.884  1.00  0.00     0.064 A 
ATOM     59  C   UNL     1       7.625  10.684  -9.182  1.00  0.00     0.173 A 
ATOM     60  C   UNL     1       9.547  10.721  -7.739  1.00  0.00     0.173 A 
ATOM     61  F   UNL     1       6.298  10.700  -9.374  1.00  0.00    -0.203 F 
ATOM     62  C   UNL     1       8.461  10.556 -10.289  1.00  0.00     0.198 A 
ATOM     63  C   UNL     1      10.381  10.622  -8.850  1.00  0.00     0.198 A 
ATOM     64  F   UNL     1      10.103  10.791  -6.520  1.00  0.00    -0.203 F 
ATOM     65  F   UNL     1       7.933  10.440 -11.515  1.00  0.00    -0.200 F 
ATOM     66  C   UNL     1       9.837  10.531 -10.122  1.00  0.00     0.200 A 
ATOM     67  F   UNL     1      11.711  10.610  -8.688  1.00  0.00    -0.200 F 
ATOM     68  F   UNL     1      10.640  10.412 -11.188  1.00  0.00    -0.200 F 
ENDBRANCH  44  58
BRANCH  45  69
ATOM     69  C   UNL     1       2.345  11.146   0.220  1.00  0.00     0.064 A 
ATOM     70  C   UNL     1       1.189  11.938   0.259  1.00  0.00     0.173 A 
ATOM     71  C   UNL     1       2.679  10.419   1.371  1.00  0.00     0.173 A 
ATOM     72  F   UNL     1       0.843  12.669  -0.811  1.00  0.00    -0.203 F 
ATOM     73  C   UNL     1       0.408  12.015   1.409  1.00  0.00     0.198 A 
ATOM     74  C   UNL     1       1.883  10.477   2.513  1.00  0.00     0.198 A 
ATOM     75  F   UNL     1       3.774   9.645   1.383  1.00  0.00    -0.203 F 
ATOM     76  F   UNL     1      -0.669  12.812   1.434  1.00  0.00    -0.200 F 
ATOM     77  C   UNL     1       0.752  11.280   2.534  1.00  0.00     0.200 A 
ATOM     78  F   UNL     1       2.213   9.758   3.595  1.00  0.00    -0.200 F 
ATOM     79  F   UNL     1      -0.001  11.352   3.640  1.00  0.00    -0.200 F 
ENDBRANCH  45  69
BRANCH  57  80
ATOM     80  C   UNL     1       6.463  15.761  -2.982  1.00  0.00     0.064 A 
ATOM     81  C   UNL     1       7.306  16.128  -1.923  1.00  0.00     0.173 A 
ATOM     82  C   UNL     1       5.959  16.777  -3.807  1.00  0.00     0.173 A 
ATOM     83  F   UNL     1       7.801  15.192  -1.099  1.00  0.00    -0.203 F 
ATOM     84  C   UNL     1       7.615  17.465  -1.688  1.00  0.00     0.198 A 
ATOM     85  C   UNL     1       6.291  18.110  -3.583  1.00  0.00     0.198 A 
ATOM     86  F   UNL     1       5.153  16.476  -4.836  1.00  0.00    -0.203 F 
ATOM     87  F   UNL     1       8.390  17.797  -0.645  1.00  0.00    -0.200 F 
ATOM     88  C   UNL     1       7.114  18.453  -2.521  1.00  0.00     0.200 A 
ATOM     89  F   UNL     1       5.814  19.064  -4.396  1.00  0.00    -0.200 F 
ATOM     90  F   UNL     1       7.418  19.739  -2.296  1.00  0.00    -0.200 F 
ENDBRANCH  57  80
ENDBRANCH  31  32
ENDBRANCH  23  26
ENDBRANCH  21  22
ENDBRANCH   1  21
TORSDOF 12
