REMARK SMILES C[C@H]1CCC[C@H](C(C)(C)C(=O)NCCCNC(=O)c2ccc(-c3c4nc(c(-c5c(F)c(F)c(F)c(F)c5F)c5ccc([nH]5)c(-c5c(F)c(F)c(F)c(F)c5F)c5nc(c(-c6c(F)c(F)c(F)c(F)c6F)c6ccc3[nH]6)C=C5)C=C4)cc2)C1
REMARK SMILES IDX 14 1 13 2 12 3 10 4 11 5 7 7 8 8 9 9 6 10 1 11 2 12 3 13
REMARK SMILES IDX 82 14 4 15 5 16 15 17 16 18 17 19 18 21 19 22 20 23 81 24
REMARK SMILES IDX 21 25 80 26 22 27 23 28 24 29 74 30 25 31 79 32 73 33 75 34
REMARK SMILES IDX 26 35 78 36 72 37 71 38 27 40 59 41 39 42 58 43 40 44 43 45
REMARK SMILES IDX 57 46 76 47 41 48 42 49 56 51 77 52 44 53 28 54 29 55 37 56
REMARK SMILES IDX 30 57 31 58 35 59 38 60 32 61 33 62 36 63 34 64 60 65 61 66
REMARK SMILES IDX 69 67 62 68 63 69 67 70 70 71 64 72 65 73 68 74 66 75 45 76
REMARK SMILES IDX 46 77 54 78 47 79 48 80 52 81 55 82 49 83 50 84 53 85 51 86
REMARK H PARENT 12 6 16 20 75 39 43 50
REMARK Flexibility Score: inf
ROOT
ATOM      1  C   UNL     1      -0.332  -1.423   5.856  1.00  0.00     0.042 C 
ENDROOT
BRANCH   1   2
ATOM      2  C   UNL     1      -1.562  -0.979   5.070  1.00  0.00     0.117 C 
BRANCH   2   3
ATOM      3  N   UNL     1      -1.213  -0.006   4.055  1.00  0.00    -0.356 N 
ATOM      4  C   UNL     1      -0.983  -0.053   2.722  1.00  0.00     0.225 C 
ATOM      5  O   UNL     1      -0.456   0.976   2.300  1.00  0.00    -0.275 OA
ATOM      6  H   UNL     1      -1.121   0.903   4.421  1.00  0.00     0.163 HD
BRANCH   4   7
ATOM      7  C   UNL     1      -1.366  -1.244   1.816  1.00  0.00     0.046 C 
ATOM      8  C   UNL     1      -2.892  -1.468   1.959  1.00  0.00     0.022 C 
ATOM      9  C   UNL     1      -0.624  -2.516   2.279  1.00  0.00     0.022 C 
BRANCH   7  10
ATOM     10  C   UNL     1      -1.061  -1.037   0.261  1.00  0.00     0.004 C 
ATOM     11  C   UNL     1       2.610   0.014  -0.625  1.00  0.00     0.007 C 
ATOM     12  C   UNL     1       1.198   0.180  -0.055  1.00  0.00    -0.014 C 
ATOM     13  C   UNL     1       0.485   1.351  -0.746  1.00  0.00     0.003 C 
ATOM     14  C   UNL     1       0.409  -1.119  -0.204  1.00  0.00     0.008 C 
ATOM     15  C   UNL     1      -1.012   1.468  -0.463  1.00  0.00     0.001 C 
ATOM     16  C   UNL     1      -1.759   0.138  -0.459  1.00  0.00     0.005 C 
ENDBRANCH   7  10
ENDBRANCH   4   7
ENDBRANCH   2   3
ENDBRANCH   1   2
BRANCH   1  17
ATOM     17  C   UNL     1       0.478  -0.274   6.456  1.00  0.00     0.118 C 
BRANCH  17  18
ATOM     18  N   UNL     1      -0.314   0.579   7.332  1.00  0.00    -0.352 N 
ATOM     19  C   UNL     1      -0.237   0.782   8.684  1.00  0.00     0.251 C 
ATOM     20  H   UNL     1      -1.020   1.094   6.878  1.00  0.00     0.163 HD
ATOM     21  O   UNL     1      -1.134   1.399   9.261  1.00  0.00    -0.269 OA
BRANCH  19  22
ATOM     22  C   UNL     1       0.899   0.252   9.463  1.00  0.00     0.039 A 
ATOM     23  C   UNL     1       0.646  -0.343  10.702  1.00  0.00     0.014 A 
ATOM     24  C   UNL     1       2.211   0.365   8.996  1.00  0.00     0.014 A 
ATOM     25  C   UNL     1       1.700  -0.886  11.438  1.00  0.00     0.010 A 
ATOM     26  C   UNL     1       3.250  -0.246   9.692  1.00  0.00     0.010 A 
ATOM     27  C   UNL     1       3.006  -0.875  10.921  1.00  0.00    -0.014 A 
BRANCH  27  28
ATOM     28  C   UNL     1       4.123  -1.524  11.653  1.00  0.00     0.031 A 
ATOM     29  C   UNL     1       5.273  -0.704  12.166  1.00  0.00     0.074 A 
ATOM     30  C   UNL     1       4.128  -2.863  11.800  1.00  0.00     0.049 A 
ATOM     31  N   UNL     1       6.360  -1.096  12.783  1.00  0.00    -0.248 NA
ATOM     32  C   UNL     1       5.208   0.747  11.932  1.00  0.00     0.031 C 
ATOM     33  C   UNL     1       3.097  -3.772  11.296  1.00  0.00     0.029 A 
ATOM     34  N   UNL     1       5.034  -3.693  12.410  1.00  0.00    -0.354 N 
ATOM     35  C   UNL     1       7.110   0.052  12.994  1.00  0.00     0.074 A 
ATOM     36  C   UNL     1       6.382   1.150  12.395  1.00  0.00     0.031 C 
ATOM     37  C   UNL     1       3.415  -5.030  11.639  1.00  0.00     0.029 A 
ATOM     38  C   UNL     1       4.687  -5.021  12.355  1.00  0.00     0.049 A 
ATOM     39  H   UNL     1       5.855  -3.369  12.845  1.00  0.00     0.167 HD
ATOM     40  C   UNL     1       8.288   0.183  13.650  1.00  0.00     0.037 A 
ATOM     41  C   UNL     1       5.324  -6.109  12.828  1.00  0.00     0.037 A 
ATOM     42  C   UNL     1       8.995  -0.907  14.270  1.00  0.00     0.049 A 
ATOM     43  C   UNL     1       6.625  -5.934  13.563  1.00  0.00     0.074 A 
ATOM     44  C   UNL     1      10.161  -0.868  15.015  1.00  0.00     0.029 A 
ATOM     45  N   UNL     1       8.601  -2.236  14.213  1.00  0.00    -0.354 N 
ATOM     46  N   UNL     1       7.288  -4.833  13.822  1.00  0.00    -0.248 NA
ATOM     47  C   UNL     1       7.261  -7.153  14.078  1.00  0.00     0.031 C 
ATOM     48  C   UNL     1      10.495  -2.179  15.373  1.00  0.00     0.029 A 
ATOM     49  C   UNL     1       9.512  -3.029  14.892  1.00  0.00     0.049 A 
ATOM     50  H   UNL     1       7.793  -2.567  13.757  1.00  0.00     0.167 HD
ATOM     51  C   UNL     1       8.404  -5.222  14.550  1.00  0.00     0.074 A 
ATOM     52  C   UNL     1       8.318  -6.659  14.707  1.00  0.00     0.031 C 
ATOM     53  C   UNL     1       9.411  -4.458  15.041  1.00  0.00     0.037 A 
BRANCH  40  54
ATOM     54  C   UNL     1       8.884   1.559  13.738  1.00  0.00     0.064 A 
ATOM     55  C   UNL     1       8.305   2.562  14.529  1.00  0.00     0.173 A 
ATOM     56  C   UNL     1      10.068   1.868  13.051  1.00  0.00     0.173 A 
ATOM     57  F   UNL     1       7.166   2.322  15.197  1.00  0.00    -0.203 F 
ATOM     58  C   UNL     1       8.871   3.832  14.606  1.00  0.00     0.198 A 
ATOM     59  C   UNL     1      10.648   3.130  13.154  1.00  0.00     0.198 A 
ATOM     60  F   UNL     1      10.667   0.944  12.285  1.00  0.00    -0.203 F 
ATOM     61  F   UNL     1       8.272   4.789  15.329  1.00  0.00    -0.200 F 
ATOM     62  C   UNL     1      10.045   4.113  13.924  1.00  0.00     0.200 A 
ATOM     63  F   UNL     1      11.790   3.396  12.505  1.00  0.00    -0.200 F 
ATOM     64  F   UNL     1      10.593   5.333  14.005  1.00  0.00    -0.200 F 
ENDBRANCH  40  54
BRANCH  41  65
ATOM     65  C   UNL     1       4.725  -7.456  12.648  1.00  0.00     0.064 A 
ATOM     66  C   UNL     1       4.208  -8.164  13.741  1.00  0.00     0.173 A 
ATOM     67  C   UNL     1       4.657  -8.063  11.385  1.00  0.00     0.173 A 
ATOM     68  F   UNL     1       4.269  -7.633  14.971  1.00  0.00    -0.203 F 
ATOM     69  C   UNL     1       3.664  -9.437  13.583  1.00  0.00     0.198 A 
ATOM     70  C   UNL     1       4.087  -9.324  11.224  1.00  0.00     0.198 A 
ATOM     71  F   UNL     1       5.131  -7.424  10.306  1.00  0.00    -0.203 F 
ATOM     72  F   UNL     1       3.218 -10.110  14.652  1.00  0.00    -0.200 F 
ATOM     73  C   UNL     1       3.599 -10.014  12.324  1.00  0.00     0.200 A 
ATOM     74  F   UNL     1       4.012  -9.872  10.003  1.00  0.00    -0.200 F 
ATOM     75  F   UNL     1       3.072 -11.236  12.171  1.00  0.00    -0.200 F 
ENDBRANCH  41  65
BRANCH  53  76
ATOM     76  C   UNL     1      10.485  -5.161  15.818  1.00  0.00     0.064 A 
ATOM     77  C   UNL     1      11.425  -5.990  15.189  1.00  0.00     0.173 A 
ATOM     78  C   UNL     1      10.590  -4.982  17.206  1.00  0.00     0.173 A 
ATOM     79  F   UNL     1      11.356  -6.206  13.866  1.00  0.00    -0.203 F 
ATOM     80  C   UNL     1      12.414  -6.637  15.925  1.00  0.00     0.198 A 
ATOM     81  C   UNL     1      11.599  -5.606  17.934  1.00  0.00     0.198 A 
ATOM     82  F   UNL     1       9.719  -4.195  17.855  1.00  0.00    -0.203 F 
ATOM     83  F   UNL     1      13.270  -7.465  15.310  1.00  0.00    -0.200 F 
ATOM     84  C   UNL     1      12.504  -6.440  17.294  1.00  0.00     0.200 A 
ATOM     85  F   UNL     1      11.692  -5.405  19.256  1.00  0.00    -0.200 F 
ATOM     86  F   UNL     1      13.459  -7.061  18.000  1.00  0.00    -0.200 F 
ENDBRANCH  53  76
ENDBRANCH  27  28
ENDBRANCH  19  22
ENDBRANCH  17  18
ENDBRANCH   1  17
TORSDOF 11
