REMARK SMILES Cc1ccccc1-n1nc(Cl)c(C(=O)NCCCNC(=O)c2ccc(-c3c4nc(c(-c5c(F)c(F)c(F)c(F)c5F)c5ccc([nH]5)c(-c5c(F)c(F)c(F)c(F)c5F)c5nc(c(-c6c(F)c(F)c(F)c(F)c6F)c6ccc3[nH]6)C=C5)C=C4)cc2)n1
REMARK SMILES IDX 17 1 16 2 15 3 13 4 14 5 12 7 8 8 9 9 85 10 10 11 11 12 7 13
REMARK SMILES IDX 1 14 2 15 3 16 4 17 6 18 5 19 18 20 19 21 20 22 21 24 22 25
REMARK SMILES IDX 23 26 84 27 24 28 83 29 25 30 26 31 27 32 77 33 28 34 82 35
REMARK SMILES IDX 76 36 78 37 29 38 81 39 75 40 74 41 30 43 62 44 42 45 61 46
REMARK SMILES IDX 43 47 46 48 60 49 79 50 44 51 45 52 59 54 80 55 47 56 31 57
REMARK SMILES IDX 32 58 40 59 33 60 34 61 38 62 41 63 35 64 36 65 39 66 37 67
REMARK SMILES IDX 63 68 64 69 72 70 65 71 66 72 70 73 73 74 67 75 68 76 71 77
REMARK SMILES IDX 69 78 48 79 49 80 57 81 50 82 51 83 55 84 58 85 52 86 53 87
REMARK SMILES IDX 56 88 54 89
REMARK H PARENT 15 6 19 23 78 42 46 53
REMARK Flexibility Score: inf
ROOT
ATOM      1  C   UNL     1       2.644   2.241  -3.621  1.00  0.00     0.042 C 
ENDROOT
BRANCH   1   2
ATOM      2  C   UNL     1       3.930   2.510  -2.833  1.00  0.00     0.118 C 
BRANCH   2   3
ATOM      3  N   UNL     1       4.067   3.904  -2.419  1.00  0.00    -0.350 N 
ATOM      4  C   UNL     1       3.423   4.603  -1.412  1.00  0.00     0.275 C 
ATOM      5  O   UNL     1       3.756   5.777  -1.248  1.00  0.00    -0.267 OA
ATOM      6  H   UNL     1       4.719   4.428  -2.937  1.00  0.00     0.163 HD
BRANCH   4   7
ATOM      7  C   UNL     1       2.365   3.977  -0.616  1.00  0.00     0.189 A 
ATOM      8  N   UNL     1       0.996   2.555   0.153  1.00  0.00    -0.149 N 
ATOM      9  N   UNL     1       0.548   3.707   0.704  1.00  0.00    -0.135 NA
ATOM     10  N   UNL     1       2.088   2.662  -0.638  1.00  0.00    -0.141 NA
ATOM     11  C   UNL     1       1.457   4.588   0.276  1.00  0.00     0.184 A 
ATOM     12  Cl  UNL     1       1.373   6.202   0.774  1.00  0.00    -0.058 Cl
BRANCH   8  13
ATOM     13  C   UNL     1       0.291   1.326   0.262  1.00  0.00     0.089 A 
ATOM     14  C   UNL     1       2.426  -0.110   0.027  1.00  0.00     0.047 C 
ATOM     15  C   UNL     1       0.934   0.077   0.103  1.00  0.00    -0.023 A 
ATOM     16  C   UNL     1       0.140  -1.082   0.048  1.00  0.00     0.006 A 
ATOM     17  C   UNL     1      -1.245  -1.014   0.195  1.00  0.00     0.000 A 
ATOM     18  C   UNL     1      -1.100   1.379   0.468  1.00  0.00     0.030 A 
ATOM     19  C   UNL     1      -1.862   0.212   0.422  1.00  0.00     0.002 A 
ENDBRANCH   8  13
ENDBRANCH   4   7
ENDBRANCH   2   3
ENDBRANCH   1   2
BRANCH   1  20
ATOM     20  C   UNL     1       2.855   2.235  -5.131  1.00  0.00     0.118 C 
BRANCH  20  21
ATOM     21  N   UNL     1       3.050   0.902  -5.704  1.00  0.00    -0.352 N 
ATOM     22  C   UNL     1       3.388   0.560  -7.005  1.00  0.00     0.251 C 
ATOM     23  H   UNL     1       2.925   0.148  -5.083  1.00  0.00     0.163 HD
ATOM     24  O   UNL     1       3.508  -0.604  -7.344  1.00  0.00    -0.269 OA
BRANCH  22  25
ATOM     25  C   UNL     1       3.723   1.652  -7.946  1.00  0.00     0.039 A 
ATOM     26  C   UNL     1       5.004   1.660  -8.507  1.00  0.00     0.014 A 
ATOM     27  C   UNL     1       2.894   2.768  -8.036  1.00  0.00     0.014 A 
ATOM     28  C   UNL     1       5.553   2.872  -8.911  1.00  0.00     0.010 A 
ATOM     29  C   UNL     1       3.467   3.983  -8.355  1.00  0.00     0.010 A 
ATOM     30  C   UNL     1       4.824   4.041  -8.699  1.00  0.00    -0.014 A 
BRANCH  30  31
ATOM     31  C   UNL     1       5.441   5.362  -8.628  1.00  0.00     0.031 A 
ATOM     32  C   UNL     1       5.188   6.373  -9.673  1.00  0.00     0.074 A 
ATOM     33  C   UNL     1       6.162   5.686  -7.529  1.00  0.00     0.049 A 
ATOM     34  N   UNL     1       5.819   7.495  -9.751  1.00  0.00    -0.248 NA
ATOM     35  C   UNL     1       4.254   6.165 -10.776  1.00  0.00     0.031 C 
ATOM     36  C   UNL     1       6.586   7.017  -7.095  1.00  0.00     0.029 A 
ATOM     37  N   UNL     1       6.878   4.810  -6.691  1.00  0.00    -0.354 N 
ATOM     38  C   UNL     1       5.213   8.254 -10.718  1.00  0.00     0.074 A 
ATOM     39  C   UNL     1       4.335   7.343 -11.405  1.00  0.00     0.031 C 
ATOM     40  C   UNL     1       7.686   6.893  -6.338  1.00  0.00     0.029 A 
ATOM     41  C   UNL     1       8.080   5.498  -6.385  1.00  0.00     0.049 A 
ATOM     42  H   UNL     1       6.604   3.915  -6.385  1.00  0.00     0.167 HD
ATOM     43  C   UNL     1       5.462   9.593 -10.738  1.00  0.00     0.037 A 
ATOM     44  C   UNL     1       9.282   5.037  -6.839  1.00  0.00     0.037 A 
ATOM     45  C   UNL     1       6.675   9.907  -9.979  1.00  0.00     0.049 A 
ATOM     46  C   UNL     1      10.017   5.981  -7.770  1.00  0.00     0.074 A 
ATOM     47  C   UNL     1       6.968  10.514  -8.770  1.00  0.00     0.029 A 
ATOM     48  N   UNL     1       7.859   9.329 -10.410  1.00  0.00    -0.354 N 
ATOM     49  N   UNL     1       9.541   7.121  -8.189  1.00  0.00    -0.248 NA
ATOM     50  C   UNL     1      11.310   5.663  -8.378  1.00  0.00     0.031 C 
ATOM     51  C   UNL     1       8.337  10.231  -8.457  1.00  0.00     0.029 A 
ATOM     52  C   UNL     1       8.873   9.481  -9.489  1.00  0.00     0.049 A 
ATOM     53  H   UNL     1       7.963   8.865 -11.272  1.00  0.00     0.167 HD
ATOM     54  C   UNL     1      10.400   7.663  -9.105  1.00  0.00     0.074 A 
ATOM     55  C   UNL     1      11.492   6.713  -9.197  1.00  0.00     0.031 C 
ATOM     56  C   UNL     1      10.147   8.835  -9.755  1.00  0.00     0.037 A 
BRANCH  43  57
ATOM     57  C   UNL     1       4.567  10.646 -11.361  1.00  0.00     0.064 A 
ATOM     58  C   UNL     1       4.935  12.009 -11.310  1.00  0.00     0.173 A 
ATOM     59  C   UNL     1       3.285  10.409 -11.904  1.00  0.00     0.173 A 
ATOM     60  F   UNL     1       6.114  12.394 -10.802  1.00  0.00    -0.203 F 
ATOM     61  C   UNL     1       4.091  13.035 -11.755  1.00  0.00     0.198 A 
ATOM     62  C   UNL     1       2.466  11.430 -12.396  1.00  0.00     0.198 A 
ATOM     63  F   UNL     1       2.730   9.195 -11.931  1.00  0.00    -0.203 F 
ATOM     64  F   UNL     1       4.472  14.314 -11.625  1.00  0.00    -0.200 F 
ATOM     65  C   UNL     1       2.861  12.745 -12.309  1.00  0.00     0.200 A 
ATOM     66  F   UNL     1       1.272  11.121 -12.924  1.00  0.00    -0.200 F 
ATOM     67  F   UNL     1       2.053  13.723 -12.734  1.00  0.00    -0.200 F 
ENDBRANCH  43  57
BRANCH  44  68
ATOM     68  C   UNL     1       9.344   3.552  -6.888  1.00  0.00     0.064 A 
ATOM     69  C   UNL     1       9.147   2.838  -5.687  1.00  0.00     0.173 A 
ATOM     70  C   UNL     1       9.216   2.845  -8.087  1.00  0.00     0.173 A 
ATOM     71  F   UNL     1       9.257   3.468  -4.506  1.00  0.00    -0.203 F 
ATOM     72  C   UNL     1       8.712   1.516  -5.693  1.00  0.00     0.198 A 
ATOM     73  C   UNL     1       8.802   1.512  -8.088  1.00  0.00     0.198 A 
ATOM     74  F   UNL     1       9.368   3.470  -9.264  1.00  0.00    -0.203 F 
ATOM     75  F   UNL     1       8.405   0.908  -4.538  1.00  0.00    -0.200 F 
ATOM     76  C   UNL     1       8.514   0.862  -6.896  1.00  0.00     0.200 A 
ATOM     77  F   UNL     1       8.581   0.886  -9.253  1.00  0.00    -0.200 F 
ATOM     78  F   UNL     1       8.000  -0.376  -6.911  1.00  0.00    -0.200 F 
ENDBRANCH  44  68
BRANCH  56  79
ATOM     79  C   UNL     1      11.110   9.448 -10.727  1.00  0.00     0.064 A 
ATOM     80  C   UNL     1      12.470   9.612 -10.423  1.00  0.00     0.173 A 
ATOM     81  C   UNL     1      10.670   9.995 -11.949  1.00  0.00     0.173 A 
ATOM     82  F   UNL     1      12.970   9.162  -9.262  1.00  0.00    -0.203 F 
ATOM     83  C   UNL     1      13.343  10.254 -11.302  1.00  0.00     0.198 A 
ATOM     84  C   UNL     1      11.533  10.678 -12.803  1.00  0.00     0.198 A 
ATOM     85  F   UNL     1       9.399   9.856 -12.356  1.00  0.00    -0.203 F 
ATOM     86  F   UNL     1      14.645  10.348 -10.997  1.00  0.00    -0.200 F 
ATOM     87  C   UNL     1      12.872  10.798 -12.485  1.00  0.00     0.200 A 
ATOM     88  F   UNL     1      11.062  11.211 -13.939  1.00  0.00    -0.200 F 
ATOM     89  F   UNL     1      13.708  11.433 -13.318  1.00  0.00    -0.200 F 
ENDBRANCH  56  79
ENDBRANCH  30  31
ENDBRANCH  22  25
ENDBRANCH  20  21
ENDBRANCH   1  20
TORSDOF 11
