REMARK SMILES O=C(NCCCNC(=O)c1nccnc1C(=O)Nc1ccc2c(c1)OCO2)c1ccc(-c2c3nc(c(-c4c(F)c(F)c(F)c(F)c4F)c4ccc([nH]4)c(-c4c(F)c(F)c(F)c(F)c4F)c4nc(c(-c5c(F)c(F)c(F)c(F)c5F)c5ccc2[nH]5)C=C4)C=C3)cc1
REMARK SMILES IDX 5 1 4 2 3 3 1 4 2 5 28 7 29 8 90 9 30 10 89 11 31 12 32 13
REMARK SMILES IDX 33 14 83 15 34 16 88 17 82 18 84 19 35 20 87 21 81 22 80 23
REMARK SMILES IDX 36 25 68 26 48 27 67 28 49 29 52 30 66 31 85 32 50 33 51 34
REMARK SMILES IDX 65 36 86 37 53 38 37 39 38 40 46 41 39 42 40 43 44 44 47 45
REMARK SMILES IDX 41 46 42 47 45 48 43 49 69 50 70 51 78 52 71 53 72 54 76 55
REMARK SMILES IDX 79 56 73 57 74 58 77 59 75 60 54 61 55 62 63 63 56 64 57 65
REMARK SMILES IDX 61 66 64 67 58 68 59 69 62 70 60 71 6 72 7 73 8 74 9 76
REMARK SMILES IDX 10 77 11 78 15 79 12 80 14 81 13 82 16 83 17 84 18 85 19 87
REMARK SMILES IDX 20 88 24 89 21 90 23 91 22 92 25 93 27 94 26 95
REMARK H PARENT 3 6 84 24 52 35 7 75 18 86
REMARK Flexibility Score: inf
ROOT
ATOM      1  C   UNL     1       4.775   3.108  -1.207  1.00  0.00     0.042 C 
ENDROOT
BRANCH   1   2
ATOM      2  C   UNL     1       4.361   1.659  -0.913  1.00  0.00     0.118 C 
BRANCH   2   3
ATOM      3  N   UNL     1       3.047   1.415  -0.354  1.00  0.00    -0.352 N 
ATOM      4  O   UNL     1       1.233   0.131   0.089  1.00  0.00    -0.269 OA
ATOM      5  C   UNL     1       2.397   0.199  -0.270  1.00  0.00     0.251 C 
ATOM      6  H   UNL     1       2.567   2.197   0.002  1.00  0.00     0.163 HD
BRANCH   5   7
ATOM      7  C   UNL     1       3.133  -1.032  -0.638  1.00  0.00     0.039 A 
ATOM      8  C   UNL     1       4.297  -1.384   0.049  1.00  0.00     0.014 A 
ATOM      9  C   UNL     1       2.640  -1.853  -1.655  1.00  0.00     0.014 A 
ATOM     10  C   UNL     1       5.018  -2.513  -0.340  1.00  0.00     0.010 A 
ATOM     11  C   UNL     1       3.341  -3.010  -2.015  1.00  0.00     0.010 A 
ATOM     12  C   UNL     1       4.546  -3.342  -1.372  1.00  0.00    -0.014 A 
BRANCH  12  13
ATOM     13  C   UNL     1       5.285  -4.586  -1.719  1.00  0.00     0.031 A 
ATOM     14  C   UNL     1       5.994  -4.731  -3.037  1.00  0.00     0.074 A 
ATOM     15  C   UNL     1       5.314  -5.597  -0.829  1.00  0.00     0.049 A 
ATOM     16  N   UNL     1       6.677  -5.749  -3.500  1.00  0.00    -0.248 NA
ATOM     17  C   UNL     1       5.926  -3.588  -3.960  1.00  0.00     0.031 C 
ATOM     18  C   UNL     1       4.653  -5.585   0.477  1.00  0.00     0.029 A 
ATOM     19  N   UNL     1       5.919  -6.828  -0.884  1.00  0.00    -0.354 N 
ATOM     20  C   UNL     1       7.110  -5.377  -4.766  1.00  0.00     0.074 A 
ATOM     21  C   UNL     1       6.595  -4.046  -5.011  1.00  0.00     0.031 C 
ATOM     22  C   UNL     1       4.901  -6.745   1.105  1.00  0.00     0.029 A 
ATOM     23  C   UNL     1       5.696  -7.601   0.230  1.00  0.00     0.049 A 
ATOM     24  H   UNL     1       6.461  -7.129  -1.649  1.00  0.00     0.167 HD
ATOM     25  C   UNL     1       7.873  -6.081  -5.638  1.00  0.00     0.037 A 
ATOM     26  C   UNL     1       6.067  -8.864   0.508  1.00  0.00     0.037 A 
ATOM     27  C   UNL     1       8.398  -7.400  -5.387  1.00  0.00     0.049 A 
ATOM     28  C   UNL     1       6.886  -9.629  -0.495  1.00  0.00     0.074 A 
ATOM     29  C   UNL     1       9.230  -8.163  -6.189  1.00  0.00     0.029 A 
ATOM     30  N   UNL     1       8.135  -8.156  -4.255  1.00  0.00    -0.354 N 
ATOM     31  N   UNL     1       7.341  -9.240  -1.661  1.00  0.00    -0.248 NA
ATOM     32  C   UNL     1       7.243 -11.011  -0.143  1.00  0.00     0.031 C 
ATOM     33  C   UNL     1       9.426  -9.401  -5.569  1.00  0.00     0.029 A 
ATOM     34  C   UNL     1       8.761  -9.389  -4.354  1.00  0.00     0.049 A 
ATOM     35  H   UNL     1       7.585  -7.861  -3.493  1.00  0.00     0.167 HD
ATOM     36  C   UNL     1       8.052 -10.318  -2.171  1.00  0.00     0.074 A 
ATOM     37  C   UNL     1       7.990 -11.368  -1.177  1.00  0.00     0.031 C 
ATOM     38  C   UNL     1       8.694 -10.428  -3.359  1.00  0.00     0.037 A 
BRANCH  25  39
ATOM     39  C   UNL     1       8.192  -5.455  -6.966  1.00  0.00     0.064 A 
ATOM     40  C   UNL     1       9.120  -4.410  -7.083  1.00  0.00     0.173 A 
ATOM     41  C   UNL     1       7.639  -5.977  -8.146  1.00  0.00     0.173 A 
ATOM     42  F   UNL     1       9.673  -3.872  -5.986  1.00  0.00    -0.203 F 
ATOM     43  C   UNL     1       9.477  -3.906  -8.332  1.00  0.00     0.198 A 
ATOM     44  C   UNL     1       8.016  -5.487  -9.394  1.00  0.00     0.198 A 
ATOM     45  F   UNL     1       6.753  -6.983  -8.090  1.00  0.00    -0.203 F 
ATOM     46  F   UNL     1      10.349  -2.893  -8.420  1.00  0.00    -0.200 F 
ATOM     47  C   UNL     1       8.933  -4.452  -9.486  1.00  0.00     0.200 A 
ATOM     48  F   UNL     1       7.501  -6.026 -10.508  1.00  0.00    -0.200 F 
ATOM     49  F   UNL     1       9.293  -3.979 -10.687  1.00  0.00    -0.200 F 
ENDBRANCH  25  39
BRANCH  26  50
ATOM     50  C   UNL     1       5.651  -9.498   1.787  1.00  0.00     0.064 A 
ATOM     51  C   UNL     1       6.591  -9.834   2.770  1.00  0.00     0.173 A 
ATOM     52  C   UNL     1       4.305  -9.804   2.039  1.00  0.00     0.173 A 
ATOM     53  F   UNL     1       7.893  -9.584   2.564  1.00  0.00    -0.203 F 
ATOM     54  C   UNL     1       6.205 -10.475   3.945  1.00  0.00     0.198 A 
ATOM     55  C   UNL     1       3.916 -10.414   3.229  1.00  0.00     0.198 A 
ATOM     56  F   UNL     1       3.365  -9.503   1.131  1.00  0.00    -0.203 F 
ATOM     57  F   UNL     1       7.132 -10.837   4.843  1.00  0.00    -0.200 F 
ATOM     58  C   UNL     1       4.868 -10.759   4.176  1.00  0.00     0.200 A 
ATOM     59  F   UNL     1       2.621 -10.674   3.454  1.00  0.00    -0.200 F 
ATOM     60  F   UNL     1       4.497 -11.376   5.307  1.00  0.00    -0.200 F 
ENDBRANCH  26  50
BRANCH  38  61
ATOM     61  C   UNL     1       9.403 -11.722  -3.638  1.00  0.00     0.064 A 
ATOM     62  C   UNL     1       8.696 -12.903  -3.909  1.00  0.00     0.173 A 
ATOM     63  C   UNL     1      10.805 -11.776  -3.658  1.00  0.00     0.173 A 
ATOM     64  F   UNL     1       7.355 -12.907  -3.886  1.00  0.00    -0.203 F 
ATOM     65  C   UNL     1       9.367 -14.097  -4.160  1.00  0.00     0.198 A 
ATOM     66  C   UNL     1      11.472 -12.965  -3.940  1.00  0.00     0.198 A 
ATOM     67  F   UNL     1      11.528 -10.674  -3.411  1.00  0.00    -0.203 F 
ATOM     68  F   UNL     1       8.671 -15.224  -4.364  1.00  0.00    -0.200 F 
ATOM     69  C   UNL     1      10.753 -14.126  -4.182  1.00  0.00     0.200 A 
ATOM     70  F   UNL     1      12.812 -12.988  -3.973  1.00  0.00    -0.200 F 
ATOM     71  F   UNL     1      11.397 -15.275  -4.427  1.00  0.00    -0.200 F 
ENDBRANCH  38  61
ENDBRANCH  12  13
ENDBRANCH   5   7
ENDBRANCH   2   3
ENDBRANCH   1   2
BRANCH   1  72
ATOM     72  C   UNL     1       3.908   4.261  -0.711  1.00  0.00     0.118 C 
BRANCH  72  73
ATOM     73  N   UNL     1       4.125   4.666   0.673  1.00  0.00    -0.351 N 
ATOM     74  C   UNL     1       4.954   5.656   1.185  1.00  0.00     0.272 C 
ATOM     75  H   UNL     1       3.607   4.165   1.343  1.00  0.00     0.163 HD
ATOM     76  O   UNL     1       4.784   6.070   2.328  1.00  0.00    -0.267 OA
BRANCH  74  77
ATOM     77  C   UNL     1       5.983   6.291   0.337  1.00  0.00     0.159 A 
ATOM     78  N   UNL     1       5.405   6.934  -0.740  1.00  0.00    -0.247 NA
ATOM     79  C   UNL     1       7.344   6.389   0.621  1.00  0.00     0.159 A 
ATOM     80  C   UNL     1       6.204   7.694  -1.508  1.00  0.00     0.132 A 
ATOM     81  N   UNL     1       8.132   7.123  -0.245  1.00  0.00    -0.247 NA
ATOM     82  C   UNL     1       7.550   7.783  -1.267  1.00  0.00     0.132 A 
BRANCH  79  83
ATOM     83  C   UNL     1       8.178   5.959   1.816  1.00  0.00     0.276 C 
ATOM     84  O   UNL     1       9.334   6.402   1.896  1.00  0.00    -0.267 OA
ATOM     85  N   UNL     1       7.781   5.258   2.926  1.00  0.00    -0.320 N 
ATOM     86  H   UNL     1       8.275   5.515   3.738  1.00  0.00     0.170 HD
BRANCH  85  87
ATOM     87  C   UNL     1       6.838   4.267   3.158  1.00  0.00     0.045 A 
ATOM     88  C   UNL     1       6.590   3.232   2.245  1.00  0.00     0.030 A 
ATOM     89  C   UNL     1       6.127   4.353   4.363  1.00  0.00     0.076 A 
ATOM     90  C   UNL     1       5.540   2.340   2.485  1.00  0.00     0.053 A 
ATOM     91  C   UNL     1       5.035   3.533   4.507  1.00  0.00     0.167 A 
ATOM     92  C   UNL     1       4.737   2.565   3.581  1.00  0.00     0.165 A 
ATOM     93  O   UNL     1       4.094   3.619   5.486  1.00  0.00    -0.454 OA
ATOM     94  O   UNL     1       3.563   1.935   3.853  1.00  0.00    -0.454 OA
ATOM     95  C   UNL     1       3.073   2.766   4.930  1.00  0.00     0.468 C 
ENDBRANCH  85  87
ENDBRANCH  79  83
ENDBRANCH  74  77
ENDBRANCH  72  73
ENDBRANCH   1  72
TORSDOF 12
