REMARK SMILES CS(=O)(=O)c1ccc(-n2nc(C(F)(F)F)cc2-c2ccc(CC(=O)NCCCNC(=O)c3ccc(-c4c5nc(c(-c6c(F)c(F)c(F)c(F)c6F)c6ccc([nH]6)c(-c6c(F)c(F)c(F)c(F)c6F)c6nc(c(-c7c(F)c(F)c(F)c(F)c7F)c7ccc4[nH]7)C=C6)C=C5)cc3)cc2)cc1
REMARK SMILES IDX 26 1 25 2 23 3 24 4 22 6 21 7 18 8 19 9 96 10 20 11 95 12
REMARK SMILES IDX 17 13 9 14 10 15 11 16 16 17 8 18 5 19 6 20 98 21 7 22 97 23
REMARK SMILES IDX 2 24 1 25 3 26 4 27 12 28 13 29 14 30 15 31 27 32 28 33
REMARK SMILES IDX 29 34 30 35 31 37 32 38 33 39 94 40 34 41 93 42 35 43 36 44
REMARK SMILES IDX 37 45 87 46 38 47 92 48 86 49 88 50 39 51 91 52 85 53 84 54
REMARK SMILES IDX 40 56 72 57 52 58 71 59 53 60 56 61 70 62 89 63 54 64 55 65
REMARK SMILES IDX 69 67 90 68 57 69 41 70 42 71 50 72 43 73 44 74 48 75 51 76
REMARK SMILES IDX 45 77 46 78 49 79 47 80 73 81 74 82 82 83 75 84 76 85 80 86
REMARK SMILES IDX 83 87 77 88 78 89 81 90 79 91 58 92 59 93 67 94 60 95 61 96
REMARK SMILES IDX 65 97 68 98 62 99 63 100 66 101 64 102
REMARK H PARENT 25 5 29 36 88 55 56 66
REMARK Flexibility Score: inf
ROOT
ATOM      1  C   UNL     1      -2.581  -6.857  -4.317  1.00  0.00     0.117 C 
ENDROOT
BRANCH   1   2
ATOM      2  N   UNL     1      -3.565  -5.817  -4.064  1.00  0.00    -0.356 N 
ATOM      3  C   UNL     1      -4.104  -4.910  -4.933  1.00  0.00     0.224 C 
ATOM      4  O   UNL     1      -4.932  -4.106  -4.502  1.00  0.00    -0.275 OA
ATOM      5  H   UNL     1      -3.888  -5.758  -3.136  1.00  0.00     0.163 HD
BRANCH   3   6
ATOM      6  C   UNL     1      -3.711  -4.933  -6.400  1.00  0.00     0.135 C 
BRANCH   6   7
ATOM      7  C   UNL     1      -2.295  -4.477  -6.660  1.00  0.00    -0.039 A 
ATOM      8  C   UNL     1       0.385  -3.671  -7.032  1.00  0.00     0.000 A 
ATOM      9  C   UNL     1      -0.571  -2.779  -6.522  1.00  0.00     0.010 A 
ATOM     10  C   UNL     1      -0.028  -4.952  -7.407  1.00  0.00     0.010 A 
ATOM     11  C   UNL     1      -1.894  -3.181  -6.322  1.00  0.00     0.005 A 
ATOM     12  C   UNL     1      -1.357  -5.346  -7.235  1.00  0.00     0.005 A 
BRANCH   8  13
ATOM     13  C   UNL     1       1.792  -3.277  -7.175  1.00  0.00     0.075 A 
ATOM     14  N   UNL     1       2.550  -2.616  -6.214  1.00  0.00    -0.233 N 
ATOM     15  N   UNL     1       3.717  -2.144  -6.712  1.00  0.00    -0.163 NA
ATOM     16  C   UNL     1       3.812  -2.691  -7.939  1.00  0.00     0.167 A 
ATOM     17  C   UNL     1       2.623  -3.386  -8.273  1.00  0.00     0.064 A 
BRANCH  14  18
ATOM     18  C   UNL     1       2.181  -2.349  -4.875  1.00  0.00     0.065 A 
ATOM     19  C   UNL     1       0.921  -1.681  -2.510  1.00  0.00     0.067 A 
ATOM     20  C   UNL     1       0.953  -3.018  -2.917  1.00  0.00     0.022 A 
ATOM     21  C   UNL     1       1.613  -0.694  -3.217  1.00  0.00     0.022 A 
ATOM     22  C   UNL     1       1.573  -3.354  -4.114  1.00  0.00     0.030 A 
ATOM     23  C   UNL     1       2.277  -1.037  -4.396  1.00  0.00     0.030 A 
BRANCH  19  24
ATOM     24  S   UNL     1      -0.100  -1.267  -1.122  1.00  0.00     0.175 S 
ATOM     25  C   UNL     1       0.744   0.025  -0.258  1.00  0.00     0.163 C 
ATOM     26  O   UNL     1      -0.108  -2.442  -0.266  1.00  0.00    -0.224 OA
ATOM     27  O   UNL     1      -1.333  -0.738  -1.655  1.00  0.00    -0.224 OA
ENDBRANCH  19  24
ENDBRANCH  14  18
BRANCH  16  28
ATOM     28  C   UNL     1       5.029  -2.536  -8.811  1.00  0.00     0.435 C 
ATOM     29  F   UNL     1       5.458  -1.251  -8.899  1.00  0.00    -0.164 F 
ATOM     30  F   UNL     1       6.075  -3.280  -8.360  1.00  0.00    -0.164 F 
ATOM     31  F   UNL     1       4.788  -2.951 -10.086  1.00  0.00    -0.164 F 
ENDBRANCH  16  28
ENDBRANCH   8  13
ENDBRANCH   6   7
ENDBRANCH   3   6
ENDBRANCH   1   2
BRANCH   1  32
ATOM     32  C   UNL     1      -1.169  -6.460  -3.877  1.00  0.00     0.042 C 
BRANCH  32  33
ATOM     33  C   UNL     1      -1.004  -6.483  -2.367  1.00  0.00     0.118 C 
BRANCH  33  34
ATOM     34  N   UNL     1      -1.072  -7.832  -1.800  1.00  0.00    -0.352 N 
ATOM     35  C   UNL     1      -0.896  -8.217  -0.484  1.00  0.00     0.251 C 
ATOM     36  H   UNL     1      -1.267  -8.556  -2.437  1.00  0.00     0.163 HD
ATOM     37  O   UNL     1      -0.621  -9.378  -0.204  1.00  0.00    -0.269 OA
BRANCH  35  38
ATOM     38  C   UNL     1      -1.049  -7.213   0.584  1.00  0.00     0.039 A 
ATOM     39  C   UNL     1      -0.261  -7.234   1.739  1.00  0.00     0.014 A 
ATOM     40  C   UNL     1      -2.011  -6.228   0.407  1.00  0.00     0.014 A 
ATOM     41  C   UNL     1      -0.417  -6.218   2.682  1.00  0.00     0.010 A 
ATOM     42  C   UNL     1      -2.008  -5.127   1.215  1.00  0.00     0.010 A 
ATOM     43  C   UNL     1      -1.286  -5.154   2.402  1.00  0.00    -0.014 A 
BRANCH  43  44
ATOM     44  C   UNL     1      -1.386  -3.975   3.263  1.00  0.00     0.031 A 
ATOM     45  C   UNL     1      -0.089  -3.250   3.490  1.00  0.00     0.074 A 
ATOM     46  C   UNL     1      -2.612  -3.469   3.567  1.00  0.00     0.049 A 
ATOM     47  N   UNL     1       0.317  -2.659   4.565  1.00  0.00    -0.248 NA
ATOM     48  C   UNL     1       0.921  -3.213   2.412  1.00  0.00     0.031 C 
ATOM     49  C   UNL     1      -3.933  -3.967   3.145  1.00  0.00     0.029 A 
ATOM     50  N   UNL     1      -2.951  -2.314   4.206  1.00  0.00    -0.354 N 
ATOM     51  C   UNL     1       1.542  -2.058   4.265  1.00  0.00     0.074 A 
ATOM     52  C   UNL     1       1.883  -2.447   2.927  1.00  0.00     0.031 C 
ATOM     53  C   UNL     1      -4.867  -3.004   3.302  1.00  0.00     0.029 A 
ATOM     54  C   UNL     1      -4.263  -1.881   3.988  1.00  0.00     0.049 A 
ATOM     55  H   UNL     1      -2.320  -1.822   4.779  1.00  0.00     0.167 HD
ATOM     56  C   UNL     1       2.106  -1.166   5.122  1.00  0.00     0.037 A 
ATOM     57  C   UNL     1      -4.784  -0.667   4.315  1.00  0.00     0.037 A 
ATOM     58  C   UNL     1       1.674  -1.439   6.467  1.00  0.00     0.049 A 
ATOM     59  C   UNL     1      -3.848  -0.052   5.292  1.00  0.00     0.074 A 
ATOM     60  C   UNL     1       1.783  -2.557   7.274  1.00  0.00     0.029 A 
ATOM     61  N   UNL     1       0.649  -0.694   6.995  1.00  0.00    -0.354 N 
ATOM     62  N   UNL     1      -3.678  -0.497   6.505  1.00  0.00    -0.248 NA
ATOM     63  C   UNL     1      -2.751   0.731   4.742  1.00  0.00     0.031 C 
ATOM     64  C   UNL     1       0.498  -2.692   7.871  1.00  0.00     0.029 A 
ATOM     65  C   UNL     1      -0.264  -1.583   7.503  1.00  0.00     0.049 A 
ATOM     66  H   UNL     1       0.582   0.288   7.007  1.00  0.00     0.167 HD
ATOM     67  C   UNL     1      -2.307  -0.448   6.697  1.00  0.00     0.074 A 
ATOM     68  C   UNL     1      -1.790   0.361   5.592  1.00  0.00     0.031 C 
ATOM     69  C   UNL     1      -1.678  -1.315   7.541  1.00  0.00     0.037 A 
BRANCH  56  70
ATOM     70  C   UNL     1       2.683   0.163   4.702  1.00  0.00     0.064 A 
ATOM     71  C   UNL     1       3.150   1.046   5.698  1.00  0.00     0.173 A 
ATOM     72  C   UNL     1       2.465   0.738   3.434  1.00  0.00     0.173 A 
ATOM     73  F   UNL     1       3.420   0.602   6.935  1.00  0.00    -0.203 F 
ATOM     74  C   UNL     1       3.241   2.423   5.479  1.00  0.00     0.198 A 
ATOM     75  C   UNL     1       2.586   2.109   3.210  1.00  0.00     0.198 A 
ATOM     76  F   UNL     1       2.038   0.017   2.393  1.00  0.00    -0.203 F 
ATOM     77  F   UNL     1       3.549   3.238   6.497  1.00  0.00    -0.200 F 
ATOM     78  C   UNL     1       2.934   2.956   4.241  1.00  0.00     0.200 A 
ATOM     79  F   UNL     1       2.279   2.606   2.002  1.00  0.00    -0.200 F 
ATOM     80  F   UNL     1       2.935   4.282   4.052  1.00  0.00    -0.200 F 
ENDBRANCH  56  70
BRANCH  57  81
ATOM     81  C   UNL     1      -5.845   0.143   3.656  1.00  0.00     0.064 A 
ATOM     82  C   UNL     1      -6.384   1.277   4.296  1.00  0.00     0.173 A 
ATOM     83  C   UNL     1      -6.132   0.016   2.283  1.00  0.00     0.173 A 
ATOM     84  F   UNL     1      -6.142   1.496   5.597  1.00  0.00    -0.203 F 
ATOM     85  C   UNL     1      -7.112   2.247   3.596  1.00  0.00     0.198 A 
ATOM     86  C   UNL     1      -6.864   0.984   1.587  1.00  0.00     0.198 A 
ATOM     87  F   UNL     1      -5.627  -0.998   1.567  1.00  0.00    -0.203 F 
ATOM     88  F   UNL     1      -7.540   3.349   4.230  1.00  0.00    -0.200 F 
ATOM     89  C   UNL     1      -7.336   2.108   2.238  1.00  0.00     0.200 A 
ATOM     90  F   UNL     1      -7.051   0.854   0.266  1.00  0.00    -0.200 F 
ATOM     91  F   UNL     1      -7.966   3.072   1.553  1.00  0.00    -0.200 F 
ENDBRANCH  57  81
BRANCH  69  92
ATOM     92  C   UNL     1      -2.510  -2.195   8.432  1.00  0.00     0.064 A 
ATOM     93  C   UNL     1      -3.474  -3.116   7.982  1.00  0.00     0.173 A 
ATOM     94  C   UNL     1      -2.192  -2.217   9.797  1.00  0.00     0.173 A 
ATOM     95  F   UNL     1      -3.758  -3.245   6.681  1.00  0.00    -0.203 F 
ATOM     96  C   UNL     1      -4.120  -3.977   8.869  1.00  0.00     0.198 A 
ATOM     97  C   UNL     1      -2.805  -3.107  10.671  1.00  0.00     0.198 A 
ATOM     98  F   UNL     1      -1.240  -1.403  10.279  1.00  0.00    -0.203 F 
ATOM     99  F   UNL     1      -5.048  -4.835   8.419  1.00  0.00    -0.200 F 
ATOM    100  C   UNL     1      -3.779  -3.976  10.211  1.00  0.00     0.200 A 
ATOM    101  F   UNL     1      -2.427  -3.141  11.956  1.00  0.00    -0.200 F 
ATOM    102  F   UNL     1      -4.370  -4.832  11.057  1.00  0.00    -0.200 F 
ENDBRANCH  69  92
ENDBRANCH  43  44
ENDBRANCH  35  38
ENDBRANCH  33  34
ENDBRANCH  32  33
ENDBRANCH   1  32
TORSDOF 15
