REMARK SMILES C[C@H](C(=O)NCCCNC(=O)c1ccc(-c2c3nc(c(-c4c(F)c(F)c(F)c(F)c4F)c4ccc([nH]4)c(-c4c(F)c(F)c(F)c(F)c4F)c4nc(c(-c5c(F)c(F)c(F)c(F)c5F)c5ccc2[nH]5)C=C4)C=C3)cc1)[C@@H](C)[NH2+]Cc1ccc(F)c(F)c1
REMARK SMILES IDX 6 1 5 2 3 3 4 4 2 6 1 7 75 8 76 9 77 10 78 13 79 14 80 15
REMARK SMILES IDX 86 16 81 17 84 18 82 19 85 20 83 21 7 22 8 23 9 24 10 25
REMARK SMILES IDX 11 27 12 28 13 29 74 30 14 31 73 32 15 33 16 34 17 35 67 36
REMARK SMILES IDX 18 37 72 38 66 39 68 40 19 41 71 42 65 43 64 44 20 46 52 47
REMARK SMILES IDX 32 48 51 49 33 50 36 51 50 52 69 53 34 54 35 55 49 57 70 58
REMARK SMILES IDX 37 59 21 60 22 61 30 62 23 63 24 64 28 65 31 66 25 67 26 68
REMARK SMILES IDX 29 69 27 70 53 71 54 72 62 73 55 74 56 75 60 76 63 77 57 78
REMARK SMILES IDX 58 79 61 80 59 81 38 82 39 83 47 84 40 85 41 86 45 87 48 88
REMARK SMILES IDX 42 89 43 90 46 91 44 92
REMARK H PARENT 5 5 77 11 77 12 9 26 68 45 36 56
REMARK Flexibility Score: inf
ROOT
ATOM      1  C   UNL     1      -0.716  -1.520  -0.342  1.00  0.00     0.117 C 
ENDROOT
BRANCH   1   2
ATOM      2  N   UNL     1       0.631  -0.963  -0.392  1.00  0.00    -0.356 N 
ATOM      3  C   UNL     1       1.226   0.222  -0.105  1.00  0.00     0.228 C 
ATOM      4  O   UNL     1       2.465   0.195  -0.155  1.00  0.00    -0.275 OA
ATOM      5  H   UNL     1       1.283  -1.623  -0.721  1.00  0.00     0.163 HD
BRANCH   3   6
ATOM      6  C   UNL     1       0.536   1.566   0.196  1.00  0.00     0.133 C 
ATOM      7  C   UNL     1       0.679   2.445  -1.050  1.00  0.00     0.024 C 
BRANCH   6   8
ATOM      8  C   UNL     1      -0.899   1.502   0.747  1.00  0.00     0.191 C 
ATOM      9  C   UNL     1      -0.864   0.736   2.088  1.00  0.00     0.076 C 
BRANCH   8  10
ATOM     10  N   UNL     1      -1.534   2.829   0.917  1.00  0.00    -0.340 N 
ATOM     11  H   UNL     1      -1.134   3.466   0.229  1.00  0.00     0.346 HD
ATOM     12  H   UNL     1      -1.351   3.121   1.877  1.00  0.00     0.346 HD
BRANCH  10  13
ATOM     13  C   UNL     1      -2.998   2.822   0.747  1.00  0.00     0.297 C 
BRANCH  13  14
ATOM     14  C   UNL     1      -3.721   1.965   1.762  1.00  0.00     0.009 A 
ATOM     15  C   UNL     1      -3.802   2.375   3.104  1.00  0.00     0.013 A 
ATOM     16  C   UNL     1      -4.185   0.685   1.408  1.00  0.00     0.052 A 
ATOM     17  C   UNL     1      -4.261   1.494   4.086  1.00  0.00     0.043 A 
ATOM     18  C   UNL     1      -4.626  -0.190   2.397  1.00  0.00     0.159 A 
ATOM     19  C   UNL     1      -4.648   0.206   3.728  1.00  0.00     0.158 A 
ATOM     20  F   UNL     1      -4.963  -1.442   2.058  1.00  0.00    -0.204 F 
ATOM     21  F   UNL     1      -5.013  -0.659   4.684  1.00  0.00    -0.204 F 
ENDBRANCH  13  14
ENDBRANCH  10  13
ENDBRANCH   8  10
ENDBRANCH   6   8
ENDBRANCH   3   6
ENDBRANCH   1   2
BRANCH   1  22
ATOM     22  C   UNL     1      -1.189  -2.041  -1.693  1.00  0.00     0.042 C 
BRANCH  22  23
ATOM     23  C   UNL     1      -0.490  -3.324  -2.130  1.00  0.00     0.118 C 
BRANCH  23  24
ATOM     24  N   UNL     1      -0.815  -4.464  -1.279  1.00  0.00    -0.352 N 
ATOM     25  C   UNL     1      -1.444  -5.653  -1.570  1.00  0.00     0.251 C 
ATOM     26  H   UNL     1      -0.538  -4.366  -0.339  1.00  0.00     0.163 HD
ATOM     27  O   UNL     1      -1.757  -6.412  -0.664  1.00  0.00    -0.269 OA
BRANCH  25  28
ATOM     28  C   UNL     1      -1.775  -6.003  -2.969  1.00  0.00     0.039 A 
ATOM     29  C   UNL     1      -3.034  -6.545  -3.245  1.00  0.00     0.014 A 
ATOM     30  C   UNL     1      -0.863  -5.796  -4.005  1.00  0.00     0.014 A 
ATOM     31  C   UNL     1      -3.417  -6.774  -4.569  1.00  0.00     0.010 A 
ATOM     32  C   UNL     1      -1.271  -5.950  -5.327  1.00  0.00     0.010 A 
ATOM     33  C   UNL     1      -2.561  -6.416  -5.623  1.00  0.00    -0.014 A 
BRANCH  33  34
ATOM     34  C   UNL     1      -3.019  -6.447  -7.037  1.00  0.00     0.031 A 
ATOM     35  C   UNL     1      -2.342  -7.336  -8.041  1.00  0.00     0.074 A 
ATOM     36  C   UNL     1      -3.981  -5.589  -7.433  1.00  0.00     0.049 A 
ATOM     37  N   UNL     1      -2.522  -7.404  -9.336  1.00  0.00    -0.248 NA
ATOM     38  C   UNL     1      -1.311  -8.253  -7.530  1.00  0.00     0.031 C 
ATOM     39  C   UNL     1      -4.679  -4.640  -6.562  1.00  0.00     0.029 A 
ATOM     40  N   UNL     1      -4.522  -5.355  -8.674  1.00  0.00    -0.354 N 
ATOM     41  C   UNL     1      -1.617  -8.352  -9.795  1.00  0.00     0.074 A 
ATOM     42  C   UNL     1      -0.865  -8.811  -8.648  1.00  0.00     0.031 C 
ATOM     43  C   UNL     1      -5.556  -3.933  -7.291  1.00  0.00     0.029 A 
ATOM     44  C   UNL     1      -5.450  -4.340  -8.688  1.00  0.00     0.049 A 
ATOM     45  H   UNL     1      -4.270  -5.865  -9.477  1.00  0.00     0.167 HD
ATOM     46  C   UNL     1      -1.443  -8.804 -11.059  1.00  0.00     0.037 A 
ATOM     47  C   UNL     1      -6.119  -3.779  -9.714  1.00  0.00     0.037 A 
ATOM     48  C   UNL     1      -2.220  -8.372 -12.192  1.00  0.00     0.049 A 
ATOM     49  C   UNL     1      -5.885  -4.293 -11.109  1.00  0.00     0.074 A 
ATOM     50  C   UNL     1      -2.189  -8.852 -13.489  1.00  0.00     0.029 A 
ATOM     51  N   UNL     1      -3.158  -7.352 -12.165  1.00  0.00    -0.354 N 
ATOM     52  N   UNL     1      -5.099  -5.260 -11.514  1.00  0.00    -0.248 NA
ATOM     53  C   UNL     1      -6.628  -3.633 -12.193  1.00  0.00     0.031 C 
ATOM     54  C   UNL     1      -3.064  -8.082 -14.262  1.00  0.00     0.029 A 
ATOM     55  C   UNL     1      -3.678  -7.157 -13.434  1.00  0.00     0.049 A 
ATOM     56  H   UNL     1      -3.416  -6.842 -11.363  1.00  0.00     0.167 HD
ATOM     57  C   UNL     1      -5.267  -5.338 -12.889  1.00  0.00     0.074 A 
ATOM     58  C   UNL     1      -6.249  -4.337 -13.249  1.00  0.00     0.031 C 
ATOM     59  C   UNL     1      -4.656  -6.158 -13.777  1.00  0.00     0.037 A 
BRANCH  46  60
ATOM     60  C   UNL     1      -0.375  -9.828 -11.307  1.00  0.00     0.064 A 
ATOM     61  C   UNL     1      -0.525 -11.161 -10.899  1.00  0.00     0.173 A 
ATOM     62  C   UNL     1       0.765  -9.493 -12.054  1.00  0.00     0.173 A 
ATOM     63  F   UNL     1      -1.594 -11.530 -10.177  1.00  0.00    -0.203 F 
ATOM     64  C   UNL     1       0.431 -12.120 -11.224  1.00  0.00     0.198 A 
ATOM     65  C   UNL     1       1.705 -10.460 -12.399  1.00  0.00     0.198 A 
ATOM     66  F   UNL     1       0.951  -8.233 -12.475  1.00  0.00    -0.203 F 
ATOM     67  F   UNL     1       0.277 -13.384 -10.806  1.00  0.00    -0.200 F 
ATOM     68  C   UNL     1       1.538 -11.772 -11.983  1.00  0.00     0.200 A 
ATOM     69  F   UNL     1       2.767 -10.124 -13.146  1.00  0.00    -0.200 F 
ATOM     70  F   UNL     1       2.444 -12.702 -12.316  1.00  0.00    -0.200 F 
ENDBRANCH  46  60
BRANCH  47  71
ATOM     71  C   UNL     1      -7.056  -2.649  -9.474  1.00  0.00     0.064 A 
ATOM     72  C   UNL     1      -8.433  -2.793  -9.696  1.00  0.00     0.173 A 
ATOM     73  C   UNL     1      -6.592  -1.391  -9.062  1.00  0.00     0.173 A 
ATOM     74  F   UNL     1      -8.924  -3.970 -10.112  1.00  0.00    -0.203 F 
ATOM     75  C   UNL     1      -9.304  -1.715  -9.549  1.00  0.00     0.198 A 
ATOM     76  C   UNL     1      -7.468  -0.322  -8.882  1.00  0.00     0.198 A 
ATOM     77  F   UNL     1      -5.285  -1.198  -8.832  1.00  0.00    -0.203 F 
ATOM     78  F   UNL     1     -10.605  -1.865  -9.831  1.00  0.00    -0.200 F 
ATOM     79  C   UNL     1      -8.821  -0.481  -9.139  1.00  0.00     0.200 A 
ATOM     80  F   UNL     1      -6.999   0.864  -8.471  1.00  0.00    -0.200 F 
ATOM     81  F   UNL     1      -9.657   0.557  -9.004  1.00  0.00    -0.200 F 
ENDBRANCH  47  71
BRANCH  59  82
ATOM     82  C   UNL     1      -5.037  -6.018 -15.221  1.00  0.00     0.064 A 
ATOM     83  C   UNL     1      -4.630  -4.911 -15.980  1.00  0.00     0.173 A 
ATOM     84  C   UNL     1      -5.776  -7.022 -15.866  1.00  0.00     0.173 A 
ATOM     85  F   UNL     1      -3.937  -3.916 -15.405  1.00  0.00    -0.203 F 
ATOM     86  C   UNL     1      -4.965  -4.805 -17.327  1.00  0.00     0.198 A 
ATOM     87  C   UNL     1      -6.082  -6.927 -17.220  1.00  0.00     0.198 A 
ATOM     88  F   UNL     1      -6.185  -8.103 -15.185  1.00  0.00    -0.203 F 
ATOM     89  F   UNL     1      -4.602  -3.718 -18.022  1.00  0.00    -0.200 F 
ATOM     90  C   UNL     1      -5.682  -5.817 -17.948  1.00  0.00     0.200 A 
ATOM     91  F   UNL     1      -6.763  -7.913 -17.822  1.00  0.00    -0.200 F 
ATOM     92  F   UNL     1      -5.993  -5.719 -19.248  1.00  0.00    -0.200 F 
ENDBRANCH  59  82
ENDBRANCH  33  34
ENDBRANCH  25  28
ENDBRANCH  23  24
ENDBRANCH  22  23
ENDBRANCH   1  22
TORSDOF 14
