REMARK SMILES Cc1ccc(C)c(-n2nc(C)c(/C=C(/C#N)C(=O)NCCCNC(=O)c3ccc(-c4c5nc(c(-c6c(F)c(F)c(F)c(F)c6F)c6ccc([nH]6)c(-c6c(F)c(F)c(F)c(F)c6F)c6nc(c(-c7c(F)c(F)c(F)c(F)c7F)c7ccc4[nH]7)C=C6)C=C5)cc3)c2Cl)c1
REMARK SMILES IDX 21 1 20 2 19 3 17 4 18 5 14 7 13 8 12 9 8 10 9 11 89 12
REMARK SMILES IDX 10 13 90 14 11 15 7 16 1 17 2 18 3 19 91 20 4 21 5 22 6 23
REMARK SMILES IDX 15 24 16 25 22 26 23 27 24 28 25 30 26 31 27 32 88 33 28 34
REMARK SMILES IDX 87 35 29 36 30 37 31 38 81 39 32 40 86 41 80 42 82 43 33 44
REMARK SMILES IDX 85 45 79 46 78 47 34 49 66 50 46 51 65 52 47 53 50 54 64 55
REMARK SMILES IDX 83 56 48 57 49 58 63 60 84 61 51 62 35 63 36 64 44 65 37 66
REMARK SMILES IDX 38 67 42 68 45 69 39 70 40 71 43 72 41 73 67 74 68 75 76 76
REMARK SMILES IDX 69 77 70 78 74 79 77 80 71 81 72 82 75 83 73 84 52 85 53 86
REMARK SMILES IDX 61 87 54 88 55 89 59 90 62 91 56 92 57 93 60 94 58 95
REMARK H PARENT 19 6 23 29 82 48 50 59
REMARK Flexibility Score: inf
ROOT
ATOM      1  C   UNL     1      -5.379  10.006  -1.542  1.00  0.00     0.042 C 
ENDROOT
BRANCH   1   2
ATOM      2  C   UNL     1      -4.601   9.393  -0.353  1.00  0.00     0.118 C 
BRANCH   2   3
ATOM      3  N   UNL     1      -4.879   7.955  -0.161  1.00  0.00    -0.351 N 
ATOM      4  C   UNL     1      -4.306   6.801  -0.639  1.00  0.00     0.261 C 
ATOM      5  O   UNL     1      -4.913   5.751  -0.440  1.00  0.00    -0.268 OA
ATOM      6  H   UNL     1      -5.641   7.787   0.441  1.00  0.00     0.163 HD
BRANCH   4   7
ATOM      7  C   UNL     1      -3.024   6.816  -1.421  1.00  0.00     0.117 C 
ATOM      8  C   UNL     1      -2.057   5.886  -1.385  1.00  0.00     0.038 C 
BRANCH   8   9
ATOM      9  C   UNL     1      -1.953   4.668  -0.620  1.00  0.00     0.036 A 
ATOM     10  N   UNL     1      -1.383   2.555  -0.144  1.00  0.00    -0.221 N 
ATOM     11  N   UNL     1      -2.182   2.938   0.880  1.00  0.00    -0.171 NA
ATOM     12  C   UNL     1      -1.213   3.583  -1.044  1.00  0.00     0.140 A 
ATOM     13  C   UNL     1      -2.473   4.225   0.638  1.00  0.00     0.069 A 
ATOM     14  Cl  UNL     1      -0.326   3.343  -2.491  1.00  0.00    -0.061 Cl
ATOM     15  C   UNL     1      -3.248   4.925   1.695  1.00  0.00     0.069 C 
BRANCH  10  16
ATOM     16  C   UNL     1      -0.741   1.293  -0.088  1.00  0.00     0.069 A 
ATOM     17  C   UNL     1       2.859   0.031  -0.021  1.00  0.00     0.044 C 
ATOM     18  C   UNL     1       1.359   0.061  -0.018  1.00  0.00    -0.049 A 
ATOM     19  C   UNL     1       0.635  -1.128   0.095  1.00  0.00     0.004 A 
ATOM     20  C   UNL     1       0.665   1.270  -0.121  1.00  0.00     0.032 A 
ATOM     21  C   UNL     1      -0.762  -1.108   0.130  1.00  0.00     0.006 A 
ATOM     22  C   UNL     1      -1.476   0.101   0.051  1.00  0.00    -0.025 A 
ATOM     23  C   UNL     1      -2.977   0.013   0.045  1.00  0.00     0.047 C 
ENDBRANCH  10  16
ENDBRANCH   8   9
BRANCH   7  24
ATOM     24  C   UNL     1      -3.058   7.979  -2.401  1.00  0.00     0.105 C 
ATOM     25  N   UNL     1      -3.086   8.943  -3.213  1.00  0.00    -0.192 NA
ENDBRANCH   7  24
ENDBRANCH   4   7
ENDBRANCH   2   3
ENDBRANCH   1   2
BRANCH   1  26
ATOM     26  C   UNL     1      -6.785  10.563  -1.294  1.00  0.00     0.118 C 
BRANCH  26  27
ATOM     27  N   UNL     1      -6.797  11.710  -0.378  1.00  0.00    -0.352 N 
ATOM     28  C   UNL     1      -7.435  11.986   0.826  1.00  0.00     0.251 C 
ATOM     29  H   UNL     1      -6.225  12.450  -0.685  1.00  0.00     0.163 HD
ATOM     30  O   UNL     1      -7.445  13.125   1.250  1.00  0.00    -0.269 OA
BRANCH  28  31
ATOM     31  C   UNL     1      -8.104  10.915   1.602  1.00  0.00     0.039 A 
ATOM     32  C   UNL     1      -8.975  11.152   2.671  1.00  0.00     0.014 A 
ATOM     33  C   UNL     1      -7.857   9.611   1.252  1.00  0.00     0.014 A 
ATOM     34  C   UNL     1      -9.475  10.051   3.379  1.00  0.00     0.010 A 
ATOM     35  C   UNL     1      -8.735   8.643   1.597  1.00  0.00     0.010 A 
ATOM     36  C   UNL     1      -9.285   8.776   2.843  1.00  0.00    -0.014 A 
BRANCH  36  37
ATOM     37  C   UNL     1      -9.656   7.523   3.472  1.00  0.00     0.031 A 
ATOM     38  C   UNL     1     -11.097   7.230   3.421  1.00  0.00     0.074 A 
ATOM     39  C   UNL     1      -8.772   6.527   3.720  1.00  0.00     0.049 A 
ATOM     40  N   UNL     1     -11.930   7.221   4.403  1.00  0.00    -0.248 NA
ATOM     41  C   UNL     1     -11.714   7.059   2.097  1.00  0.00     0.031 C 
ATOM     42  C   UNL     1      -7.342   6.449   3.390  1.00  0.00     0.029 A 
ATOM     43  N   UNL     1      -9.024   5.288   4.225  1.00  0.00    -0.354 N 
ATOM     44  C   UNL     1     -13.150   6.863   3.846  1.00  0.00     0.074 A 
ATOM     45  C   UNL     1     -13.005   7.011   2.422  1.00  0.00     0.031 C 
ATOM     46  C   UNL     1      -6.922   5.168   3.513  1.00  0.00     0.029 A 
ATOM     47  C   UNL     1      -8.007   4.362   4.044  1.00  0.00     0.049 A 
ATOM     48  H   UNL     1      -9.866   5.066   4.684  1.00  0.00     0.167 HD
ATOM     49  C   UNL     1     -14.098   6.219   4.578  1.00  0.00     0.037 A 
ATOM     50  C   UNL     1      -8.095   3.023   4.257  1.00  0.00     0.037 A 
ATOM     51  C   UNL     1     -13.785   6.252   5.987  1.00  0.00     0.049 A 
ATOM     52  C   UNL     1      -9.295   2.792   5.111  1.00  0.00     0.074 A 
ATOM     53  C   UNL     1     -13.502   7.266   6.886  1.00  0.00     0.029 A 
ATOM     54  N   UNL     1     -13.307   5.104   6.577  1.00  0.00    -0.354 N 
ATOM     55  N   UNL     1      -9.391   3.163   6.359  1.00  0.00    -0.248 NA
ATOM     56  C   UNL     1     -10.565   2.561   4.434  1.00  0.00     0.031 C 
ATOM     57  C   UNL     1     -12.425   6.764   7.677  1.00  0.00     0.029 A 
ATOM     58  C   UNL     1     -12.172   5.456   7.265  1.00  0.00     0.049 A 
ATOM     59  H   UNL     1     -13.702   4.204   6.517  1.00  0.00     0.167 HD
ATOM     60  C   UNL     1     -10.693   3.624   6.493  1.00  0.00     0.074 A 
ATOM     61  C   UNL     1     -11.393   3.143   5.305  1.00  0.00     0.031 C 
ATOM     62  C   UNL     1     -11.014   4.601   7.393  1.00  0.00     0.037 A 
BRANCH  49  63
ATOM     63  C   UNL     1     -15.113   5.269   4.000  1.00  0.00     0.064 A 
ATOM     64  C   UNL     1     -16.188   4.851   4.807  1.00  0.00     0.173 A 
ATOM     65  C   UNL     1     -14.944   4.555   2.794  1.00  0.00     0.173 A 
ATOM     66  F   UNL     1     -16.423   5.441   5.989  1.00  0.00    -0.203 F 
ATOM     67  C   UNL     1     -16.991   3.763   4.459  1.00  0.00     0.198 A 
ATOM     68  C   UNL     1     -15.789   3.513   2.418  1.00  0.00     0.198 A 
ATOM     69  F   UNL     1     -13.894   4.750   1.987  1.00  0.00    -0.203 F 
ATOM     70  F   UNL     1     -17.919   3.323   5.319  1.00  0.00    -0.200 F 
ATOM     71  C   UNL     1     -16.792   3.096   3.265  1.00  0.00     0.200 A 
ATOM     72  F   UNL     1     -15.566   2.869   1.264  1.00  0.00    -0.200 F 
ATOM     73  F   UNL     1     -17.527   2.021   2.954  1.00  0.00    -0.200 F 
ENDBRANCH  49  63
BRANCH  50  74
ATOM     74  C   UNL     1      -7.390   1.919   3.555  1.00  0.00     0.064 A 
ATOM     75  C   UNL     1      -7.387   0.613   4.075  1.00  0.00     0.173 A 
ATOM     76  C   UNL     1      -6.927   2.058   2.231  1.00  0.00     0.173 A 
ATOM     77  F   UNL     1      -7.859   0.377   5.309  1.00  0.00    -0.203 F 
ATOM     78  C   UNL     1      -6.969  -0.484   3.313  1.00  0.00     0.198 A 
ATOM     79  C   UNL     1      -6.499   0.964   1.475  1.00  0.00     0.198 A 
ATOM     80  F   UNL     1      -6.977   3.242   1.606  1.00  0.00    -0.203 F 
ATOM     81  F   UNL     1      -7.048  -1.722   3.822  1.00  0.00    -0.200 F 
ATOM     82  C   UNL     1      -6.531  -0.308   2.011  1.00  0.00     0.200 A 
ATOM     83  F   UNL     1      -6.124   1.141   0.200  1.00  0.00    -0.200 F 
ATOM     84  F   UNL     1      -6.187  -1.364   1.260  1.00  0.00    -0.200 F 
ENDBRANCH  50  74
BRANCH  62  85
ATOM     85  C   UNL     1      -9.992   4.995   8.424  1.00  0.00     0.064 A 
ATOM     86  C   UNL     1      -8.715   5.500   8.118  1.00  0.00     0.173 A 
ATOM     87  C   UNL     1     -10.378   5.011   9.772  1.00  0.00     0.173 A 
ATOM     88  F   UNL     1      -8.307   5.630   6.851  1.00  0.00    -0.203 F 
ATOM     89  C   UNL     1      -7.853   5.949   9.117  1.00  0.00     0.198 A 
ATOM     90  C   UNL     1      -9.531   5.498  10.764  1.00  0.00     0.198 A 
ATOM     91  F   UNL     1     -11.606   4.598  10.125  1.00  0.00    -0.203 F 
ATOM     92  F   UNL     1      -6.636   6.413   8.795  1.00  0.00    -0.200 F 
ATOM     93  C   UNL     1      -8.264   5.955  10.439  1.00  0.00     0.200 A 
ATOM     94  F   UNL     1      -9.954   5.552  12.035  1.00  0.00    -0.200 F 
ATOM     95  F   UNL     1      -7.452   6.429  11.394  1.00  0.00    -0.200 F 
ENDBRANCH  62  85
ENDBRANCH  36  37
ENDBRANCH  28  31
ENDBRANCH  26  27
ENDBRANCH   1  26
TORSDOF 13
