REMARK SMILES Cc1ccc(S(=O)(=O)N2C[C@@H](CC(=O)NCCCNC(=O)c3ccc(-c4c5nc(c(-c6c(F)c(F)c(F)c(F)c6F)c6ccc([nH]6)c(-c6c(F)c(F)c(F)c(F)c6F)c6nc(c(-c7c(F)c(F)c(F)c(F)c7F)c7ccc4[nH]7)C=C6)C=C5)cc3)c3ccccc32)c(C)c1
REMARK SMILES IDX 16 1 15 2 13 3 14 4 12 6 11 7 9 8 10 9 90 10 85 11 89 12
REMARK SMILES IDX 86 13 88 14 87 15 6 16 7 17 8 18 5 19 1 20 2 21 3 22 93 23
REMARK SMILES IDX 4 24 91 25 92 26 17 27 18 28 19 29 20 30 21 32 22 33 23 34
REMARK SMILES IDX 84 35 24 36 83 37 25 38 26 39 27 40 77 41 28 42 82 43 76 44
REMARK SMILES IDX 78 45 29 46 81 47 75 48 74 49 30 51 62 52 42 53 61 54 43 55
REMARK SMILES IDX 46 56 60 57 79 58 44 59 45 60 59 62 80 63 47 64 31 65 32 66
REMARK SMILES IDX 40 67 33 68 34 69 38 70 41 71 35 72 36 73 39 74 37 75 63 76
REMARK SMILES IDX 64 77 72 78 65 79 66 80 70 81 73 82 67 83 68 84 71 85 69 86
REMARK SMILES IDX 48 87 49 88 57 89 50 90 51 91 55 92 58 93 52 94 53 95 56 96
REMARK SMILES IDX 54 97
REMARK H PARENT 15 5 19 31 78 50 46 61
REMARK Flexibility Score: inf
ROOT
ATOM      1  C   UNL     1       0.476  -7.922   0.482  1.00  0.00     0.117 C 
ENDROOT
BRANCH   1   2
ATOM      2  N   UNL     1      -0.680  -8.607  -0.085  1.00  0.00    -0.356 N 
ATOM      3  C   UNL     1      -1.815  -8.096  -0.642  1.00  0.00     0.220 C 
ATOM      4  O   UNL     1      -2.774  -8.852  -0.807  1.00  0.00    -0.275 OA
ATOM      5  H   UNL     1      -0.633  -9.590  -0.062  1.00  0.00     0.163 HD
BRANCH   3   6
ATOM      6  C   UNL     1      -1.872  -6.659  -1.110  1.00  0.00     0.110 C 
BRANCH   6   7
ATOM      7  C   UNL     1      -2.963  -5.828  -0.416  1.00  0.00     0.051 C 
ATOM      8  N   UNL     1      -2.164  -3.530  -0.436  1.00  0.00    -0.265 N 
ATOM      9  C   UNL     1      -3.115  -4.469  -1.136  1.00  0.00     0.144 C 
ATOM     10  C   UNL     1      -2.010  -4.064   0.891  1.00  0.00     0.055 A 
ATOM     11  C   UNL     1      -2.559  -5.347   0.951  1.00  0.00    -0.018 A 
ATOM     12  C   UNL     1      -1.381  -3.508   1.992  1.00  0.00     0.027 A 
ATOM     13  C   UNL     1      -2.666  -6.014   2.160  1.00  0.00     0.006 A 
ATOM     14  C   UNL     1      -1.407  -4.212   3.198  1.00  0.00     0.002 A 
ATOM     15  C   UNL     1      -2.078  -5.438   3.291  1.00  0.00     0.000 A 
BRANCH   8  16
ATOM     16  S   UNL     1      -2.639  -1.885  -0.566  1.00  0.00     0.264 S 
ATOM     17  O   UNL     1      -3.524  -1.600   0.544  1.00  0.00    -0.201 OA
ATOM     18  O   UNL     1      -3.057  -1.662  -1.938  1.00  0.00    -0.201 OA
BRANCH  16  19
ATOM     19  C   UNL     1      -1.142  -0.933  -0.360  1.00  0.00     0.090 A 
ATOM     20  C   UNL     1       2.542   1.262   0.063  1.00  0.00     0.044 C 
ATOM     21  C   UNL     1       1.266   0.484  -0.065  1.00  0.00    -0.051 A 
ATOM     22  C   UNL     1       1.288  -0.883  -0.341  1.00  0.00     0.005 A 
ATOM     23  C   UNL     1       0.032   1.140   0.038  1.00  0.00     0.008 A 
ATOM     24  C   UNL     1       0.093  -1.586  -0.498  1.00  0.00     0.023 A 
ATOM     25  C   UNL     1      -1.188   0.450  -0.103  1.00  0.00    -0.030 A 
ATOM     26  C   UNL     1      -2.444   1.278  -0.057  1.00  0.00     0.046 C 
ENDBRANCH  16  19
ENDBRANCH   8  16
ENDBRANCH   6   7
ENDBRANCH   3   6
ENDBRANCH   1   2
BRANCH   1  27
ATOM     27  C   UNL     1       0.300  -7.731   1.985  1.00  0.00     0.042 C 
BRANCH  27  28
ATOM     28  C   UNL     1       0.511  -8.989   2.817  1.00  0.00     0.118 C 
BRANCH  28  29
ATOM     29  N   UNL     1       1.862  -9.065   3.338  1.00  0.00    -0.352 N 
ATOM     30  C   UNL     1       2.407  -8.672   4.535  1.00  0.00     0.251 C 
ATOM     31  H   UNL     1       2.508  -9.475   2.719  1.00  0.00     0.163 HD
ATOM     32  O   UNL     1       3.634  -8.601   4.604  1.00  0.00    -0.269 OA
BRANCH  30  33
ATOM     33  C   UNL     1       1.602  -8.330   5.742  1.00  0.00     0.039 A 
ATOM     34  C   UNL     1       2.171  -7.442   6.667  1.00  0.00     0.014 A 
ATOM     35  C   UNL     1       0.390  -8.941   6.070  1.00  0.00     0.014 A 
ATOM     36  C   UNL     1       1.540  -7.172   7.888  1.00  0.00     0.010 A 
ATOM     37  C   UNL     1      -0.288  -8.601   7.251  1.00  0.00     0.010 A 
ATOM     38  C   UNL     1       0.293  -7.738   8.192  1.00  0.00    -0.014 A 
BRANCH  38  39
ATOM     39  C   UNL     1      -0.371  -7.471   9.502  1.00  0.00     0.031 A 
ATOM     40  C   UNL     1      -0.630  -8.593  10.479  1.00  0.00     0.074 A 
ATOM     41  C   UNL     1      -0.756  -6.219   9.822  1.00  0.00     0.049 A 
ATOM     42  N   UNL     1      -1.208  -8.555  11.656  1.00  0.00    -0.248 NA
ATOM     43  C   UNL     1      -0.202  -9.940  10.073  1.00  0.00     0.031 C 
ATOM     44  C   UNL     1      -0.593  -5.043   8.968  1.00  0.00     0.029 A 
ATOM     45  N   UNL     1      -1.364  -5.726  10.952  1.00  0.00    -0.354 N 
ATOM     46  C   UNL     1      -1.229  -9.867  12.116  1.00  0.00     0.074 A 
ATOM     47  C   UNL     1      -0.651 -10.685  11.072  1.00  0.00     0.031 C 
ATOM     48  C   UNL     1      -1.057  -3.962   9.615  1.00  0.00     0.029 A 
ATOM     49  C   UNL     1      -1.592  -4.372  10.911  1.00  0.00     0.049 A 
ATOM     50  H   UNL     1      -1.613  -6.291  11.719  1.00  0.00     0.167 HD
ATOM     51  C   UNL     1      -1.668 -10.347  13.306  1.00  0.00     0.037 A 
ATOM     52  C   UNL     1      -2.171  -3.551  11.809  1.00  0.00     0.037 A 
ATOM     53  C   UNL     1      -2.217  -9.533  14.361  1.00  0.00     0.049 A 
ATOM     54  C   UNL     1      -2.671  -4.113  13.113  1.00  0.00     0.074 A 
ATOM     55  C   UNL     1      -2.627  -9.921  15.626  1.00  0.00     0.029 A 
ATOM     56  N   UNL     1      -2.441  -8.167  14.273  1.00  0.00    -0.354 N 
ATOM     57  N   UNL     1      -2.619  -5.343  13.561  1.00  0.00    -0.248 NA
ATOM     58  C   UNL     1      -3.306  -3.165  14.041  1.00  0.00     0.031 C 
ATOM     59  C   UNL     1      -3.155  -8.803  16.280  1.00  0.00     0.029 A 
ATOM     60  C   UNL     1      -3.013  -7.704  15.449  1.00  0.00     0.049 A 
ATOM     61  H   UNL     1      -2.224  -7.609  13.492  1.00  0.00     0.167 HD
ATOM     62  C   UNL     1      -3.183  -5.312  14.831  1.00  0.00     0.074 A 
ATOM     63  C   UNL     1      -3.554  -3.937  15.089  1.00  0.00     0.031 C 
ATOM     64  C   UNL     1      -3.374  -6.332  15.703  1.00  0.00     0.037 A 
BRANCH  51  65
ATOM     65  C   UNL     1      -1.583 -11.831  13.536  1.00  0.00     0.064 A 
ATOM     66  C   UNL     1      -0.352 -12.490  13.687  1.00  0.00     0.173 A 
ATOM     67  C   UNL     1      -2.752 -12.600  13.651  1.00  0.00     0.173 A 
ATOM     68  F   UNL     1       0.797 -11.806  13.582  1.00  0.00    -0.203 F 
ATOM     69  C   UNL     1      -0.295 -13.864  13.907  1.00  0.00     0.198 A 
ATOM     70  C   UNL     1      -2.692 -13.968  13.906  1.00  0.00     0.198 A 
ATOM     71  F   UNL     1      -3.957 -12.023  13.527  1.00  0.00    -0.203 F 
ATOM     72  F   UNL     1       0.893 -14.478  13.992  1.00  0.00    -0.200 F 
ATOM     73  C   UNL     1      -1.464 -14.601  14.024  1.00  0.00     0.200 A 
ATOM     74  F   UNL     1      -3.823 -14.675  14.036  1.00  0.00    -0.200 F 
ATOM     75  F   UNL     1      -1.407 -15.922  14.243  1.00  0.00    -0.200 F 
ENDBRANCH  51  65
BRANCH  52  76
ATOM     76  C   UNL     1      -2.294  -2.097  11.517  1.00  0.00     0.064 A 
ATOM     77  C   UNL     1      -1.567  -1.150  12.252  1.00  0.00     0.173 A 
ATOM     78  C   UNL     1      -3.150  -1.623  10.511  1.00  0.00     0.173 A 
ATOM     79  F   UNL     1      -0.753  -1.551  13.241  1.00  0.00    -0.203 F 
ATOM     80  C   UNL     1      -1.708   0.214  12.009  1.00  0.00     0.198 A 
ATOM     81  C   UNL     1      -3.265  -0.260  10.247  1.00  0.00     0.198 A 
ATOM     82  F   UNL     1      -3.866  -2.487   9.777  1.00  0.00    -0.203 F 
ATOM     83  F   UNL     1      -1.040   1.099  12.762  1.00  0.00    -0.200 F 
ATOM     84  C   UNL     1      -2.551   0.658  11.002  1.00  0.00     0.200 A 
ATOM     85  F   UNL     1      -4.069   0.164   9.263  1.00  0.00    -0.200 F 
ATOM     86  F   UNL     1      -2.683   1.970  10.765  1.00  0.00    -0.200 F 
ENDBRANCH  52  76
BRANCH  64  87
ATOM     87  C   UNL     1      -3.975  -5.996  17.040  1.00  0.00     0.064 A 
ATOM     88  C   UNL     1      -5.316  -5.605  17.173  1.00  0.00     0.173 A 
ATOM     89  C   UNL     1      -3.203  -6.094  18.209  1.00  0.00     0.173 A 
ATOM     90  F   UNL     1      -6.094  -5.481  16.087  1.00  0.00    -0.203 F 
ATOM     91  C   UNL     1      -5.851  -5.292  18.420  1.00  0.00     0.198 A 
ATOM     92  C   UNL     1      -3.752  -5.815  19.457  1.00  0.00     0.198 A 
ATOM     93  F   UNL     1      -1.917  -6.470  18.141  1.00  0.00    -0.203 F 
ATOM     94  F   UNL     1      -7.118  -4.865  18.515  1.00  0.00    -0.200 F 
ATOM     95  C   UNL     1      -5.072  -5.404  19.561  1.00  0.00     0.200 A 
ATOM     96  F   UNL     1      -3.001  -5.940  20.561  1.00  0.00    -0.200 F 
ATOM     97  F   UNL     1      -5.590  -5.109  20.761  1.00  0.00    -0.200 F 
ENDBRANCH  64  87
ENDBRANCH  38  39
ENDBRANCH  30  33
ENDBRANCH  28  29
ENDBRANCH  27  28
ENDBRANCH   1  27
TORSDOF 13
