REMARK SMILES O=C(NCCCNC(=O)[C@@H]1CCc2[nH]ncc2C1)c1ccc(-c2c3nc(c(-c4c(F)c(F)c(F)c(F)c4F)c4ccc([nH]4)c(-c4c(F)c(F)c(F)c(F)c4F)c4nc(c(-c5c(F)c(F)c(F)c(F)c5F)c5ccc2[nH]5)C=C4)C=C3)cc1
REMARK SMILES IDX 4 1 3 2 1 3 2 4 19 6 20 7 81 8 21 9 80 10 22 11 23 12 24 13
REMARK SMILES IDX 74 14 25 15 79 16 73 17 75 18 26 19 78 20 72 21 71 22 27 24
REMARK SMILES IDX 59 25 39 26 58 27 40 28 43 29 57 30 76 31 41 32 42 33 56 35
REMARK SMILES IDX 77 36 44 37 28 38 29 39 37 40 30 41 31 42 35 43 38 44 32 45
REMARK SMILES IDX 33 46 36 47 34 48 60 49 61 50 69 51 62 52 63 53 67 54 70 55
REMARK SMILES IDX 64 56 65 57 68 58 66 59 45 60 46 61 54 62 47 63 48 64 52 65
REMARK SMILES IDX 55 66 49 67 50 68 53 69 51 70 5 71 6 72 7 73 8 74 9 76 10 77
REMARK SMILES IDX 11 78 18 79 12 80 17 81 13 82 16 83 14 84 15 85
REMARK H PARENT 3 5 75 23 43 34 7 75 14 86
REMARK Flexibility Score: inf
ROOT
ATOM      1  C   UNL     1       4.462  -1.385   0.195  1.00  0.00     0.118 C 
ENDROOT
BRANCH   1   2
ATOM      2  N   UNL     1       3.037  -1.185  -0.029  1.00  0.00    -0.352 N 
ATOM      3  O   UNL     1       1.103  -0.041  -0.176  1.00  0.00    -0.269 OA
ATOM      4  C   UNL     1       2.331  -0.022  -0.203  1.00  0.00     0.251 C 
ATOM      5  H   UNL     1       2.500  -2.009  -0.061  1.00  0.00     0.163 HD
BRANCH   4   6
ATOM      6  C   UNL     1       3.044   1.256  -0.404  1.00  0.00     0.039 A 
ATOM      7  C   UNL     1       4.172   1.323  -1.225  1.00  0.00     0.014 A 
ATOM      8  C   UNL     1       2.564   2.411   0.220  1.00  0.00     0.014 A 
ATOM      9  C   UNL     1       4.908   2.498  -1.295  1.00  0.00     0.010 A 
ATOM     10  C   UNL     1       3.247   3.620   0.062  1.00  0.00     0.010 A 
ATOM     11  C   UNL     1       4.441   3.666  -0.674  1.00  0.00    -0.014 A 
BRANCH  11  12
ATOM     12  C   UNL     1       5.180   4.938  -0.872  1.00  0.00     0.031 A 
ATOM     13  C   UNL     1       5.813   5.658   0.284  1.00  0.00     0.074 A 
ATOM     14  C   UNL     1       5.288   5.430  -2.121  1.00  0.00     0.049 A 
ATOM     15  N   UNL     1       6.487   6.781   0.285  1.00  0.00    -0.248 NA
ATOM     16  C   UNL     1       5.665   5.046   1.613  1.00  0.00     0.031 C 
ATOM     17  C   UNL     1       4.706   4.819  -3.319  1.00  0.00     0.029 A 
ATOM     18  N   UNL     1       5.930   6.543  -2.596  1.00  0.00    -0.354 N 
ATOM     19  C   UNL     1       6.828   7.019   1.610  1.00  0.00     0.074 A 
ATOM     20  C   UNL     1       6.261   5.940   2.391  1.00  0.00     0.031 C 
ATOM     21  C   UNL     1       5.051   5.540  -4.394  1.00  0.00     0.029 A 
ATOM     22  C   UNL     1       5.816   6.701  -3.956  1.00  0.00     0.049 A 
ATOM     23  H   UNL     1       6.425   7.169  -2.020  1.00  0.00     0.167 HD
ATOM     24  C   UNL     1       7.554   8.042   2.122  1.00  0.00     0.037 A 
ATOM     25  C   UNL     1       6.256   7.685  -4.760  1.00  0.00     0.037 A 
ATOM     26  C   UNL     1       8.121   9.108   1.333  1.00  0.00     0.049 A 
ATOM     27  C   UNL     1       7.023   8.827  -4.158  1.00  0.00     0.074 A 
ATOM     28  C   UNL     1       8.901  10.171   1.753  1.00  0.00     0.029 A 
ATOM     29  N   UNL     1       7.958   9.251  -0.038  1.00  0.00    -0.354 N 
ATOM     30  N   UNL     1       7.371   9.021  -2.910  1.00  0.00    -0.248 NA
ATOM     31  C   UNL     1       7.456   9.886  -5.077  1.00  0.00     0.031 C 
ATOM     32  C   UNL     1       9.163  10.987   0.647  1.00  0.00     0.029 A 
ATOM     33  C   UNL     1       8.600  10.400  -0.475  1.00  0.00     0.049 A 
ATOM     34  H   UNL     1       7.461   8.628  -0.616  1.00  0.00     0.167 HD
ATOM     35  C   UNL     1       8.083  10.212  -2.895  1.00  0.00     0.074 A 
ATOM     36  C   UNL     1       8.134  10.684  -4.264  1.00  0.00     0.031 C 
ATOM     37  C   UNL     1       8.643  10.856  -1.842  1.00  0.00     0.037 A 
BRANCH  24  38
ATOM     38  C   UNL     1       7.763   8.076   3.610  1.00  0.00     0.064 A 
ATOM     39  C   UNL     1       8.586   7.147   4.264  1.00  0.00     0.173 A 
ATOM     40  C   UNL     1       7.166   9.081   4.388  1.00  0.00     0.173 A 
ATOM     41  F   UNL     1       9.173   6.159   3.571  1.00  0.00    -0.203 F 
ATOM     42  C   UNL     1       8.782   7.206   5.642  1.00  0.00     0.198 A 
ATOM     43  C   UNL     1       7.389   9.156   5.761  1.00  0.00     0.198 A 
ATOM     44  F   UNL     1       6.375  10.000   3.814  1.00  0.00    -0.203 F 
ATOM     45  F   UNL     1       9.534   6.279   6.251  1.00  0.00    -0.200 F 
ATOM     46  C   UNL     1       8.190   8.214   6.388  1.00  0.00     0.200 A 
ATOM     47  F   UNL     1       6.827  10.140   6.477  1.00  0.00    -0.200 F 
ATOM     48  F   UNL     1       8.386   8.274   7.712  1.00  0.00    -0.200 F 
ENDBRANCH  24  38
BRANCH  25  49
ATOM     49  C   UNL     1       5.968   7.630  -6.217  1.00  0.00     0.064 A 
ATOM     50  C   UNL     1       6.996   7.441  -7.149  1.00  0.00     0.173 A 
ATOM     51  C   UNL     1       4.658   7.753  -6.704  1.00  0.00     0.173 A 
ATOM     52  F   UNL     1       8.267   7.335  -6.733  1.00  0.00    -0.203 F 
ATOM     53  C   UNL     1       6.727   7.394  -8.516  1.00  0.00     0.198 A 
ATOM     54  C   UNL     1       4.387   7.672  -8.068  1.00  0.00     0.198 A 
ATOM     55  F   UNL     1       3.637   7.927  -5.852  1.00  0.00    -0.203 F 
ATOM     56  F   UNL     1       7.734   7.257  -9.389  1.00  0.00    -0.200 F 
ATOM     57  C   UNL     1       5.422   7.503  -8.973  1.00  0.00     0.200 A 
ATOM     58  F   UNL     1       3.122   7.757  -8.502  1.00  0.00    -0.200 F 
ATOM     59  F   UNL     1       5.164   7.449 -10.286  1.00  0.00    -0.200 F 
ENDBRANCH  25  49
BRANCH  37  60
ATOM     60  C   UNL     1       9.392  12.124  -2.136  1.00  0.00     0.064 A 
ATOM     61  C   UNL     1       8.730  13.301  -2.517  1.00  0.00     0.173 A 
ATOM     62  C   UNL     1      10.789  12.167  -2.009  1.00  0.00     0.173 A 
ATOM     63  F   UNL     1       7.398  13.307  -2.670  1.00  0.00    -0.203 F 
ATOM     64  C   UNL     1       9.443  14.466  -2.787  1.00  0.00     0.198 A 
ATOM     65  C   UNL     1      11.494  13.343  -2.247  1.00  0.00     0.198 A 
ATOM     66  F   UNL     1      11.469  11.070  -1.642  1.00  0.00    -0.203 F 
ATOM     67  F   UNL     1       8.795  15.563  -3.203  1.00  0.00    -0.200 F 
ATOM     68  C   UNL     1      10.822  14.489  -2.645  1.00  0.00     0.200 A 
ATOM     69  F   UNL     1      12.825  13.366  -2.094  1.00  0.00    -0.200 F 
ATOM     70  F   UNL     1      11.505  15.613  -2.899  1.00  0.00    -0.200 F 
ENDBRANCH  37  60
ENDBRANCH  11  12
ENDBRANCH   4   6
ENDBRANCH   1   2
BRANCH   1  71
ATOM     71  C   UNL     1       4.753  -1.988   1.559  1.00  0.00     0.042 C 
BRANCH  71  72
ATOM     72  C   UNL     1       4.269  -3.425   1.693  1.00  0.00     0.117 C 
BRANCH  72  73
ATOM     73  N   UNL     1       5.004  -4.328   0.819  1.00  0.00    -0.356 N 
ATOM     74  C   UNL     1       5.897  -5.311   1.146  1.00  0.00     0.223 C 
ATOM     75  H   UNL     1       4.834  -4.215  -0.144  1.00  0.00     0.163 HD
ATOM     76  O   UNL     1       6.418  -5.965   0.246  1.00  0.00    -0.275 OA
BRANCH  74  77
ATOM     77  C   UNL     1       6.192  -5.543   2.611  1.00  0.00     0.083 C 
ATOM     78  C   UNL     1       7.153  -4.470   3.183  1.00  0.00     0.020 C 
ATOM     79  C   UNL     1       6.762  -6.953   2.888  1.00  0.00     0.052 C 
ATOM     80  C   UNL     1       7.191  -4.530   4.724  1.00  0.00     0.057 C 
ATOM     81  C   UNL     1       7.008  -7.058   4.354  1.00  0.00    -0.006 A 
ATOM     82  C   UNL     1       7.204  -5.951   5.154  1.00  0.00     0.038 A 
ATOM     83  C   UNL     1       7.042  -8.143   5.241  1.00  0.00     0.138 A 
ATOM     84  N   UNL     1       7.320  -6.412   6.428  1.00  0.00    -0.282 N 
ATOM     85  N   UNL     1       7.229  -7.753   6.507  1.00  0.00    -0.184 NA
ATOM     86  H   UNL     1       7.455  -5.827   7.209  1.00  0.00     0.190 HD
ENDBRANCH  74  77
ENDBRANCH  72  73
ENDBRANCH  71  72
ENDBRANCH   1  71
TORSDOF 10
