REMARK SMILES CC1C[NH+]([C@H]2COC[C@@H]2C(=O)NCCCNC(=O)c2ccc(-c3c4nc(c(-c5c(F)c(F)c(F)c(F)c5F)c5ccc([nH]5)c(-c5c(F)c(F)c(F)c(F)c5F)c5nc(c(-c6c(F)c(F)c(F)c(F)c6F)c6ccc3[nH]6)C=C5)C=C4)cc2)C1
REMARK SMILES IDX 14 1 13 2 12 3 10 4 11 5 9 7 5 8 6 9 7 10 8 11 4 12 1 13
REMARK SMILES IDX 2 14 3 15 82 16 15 18 16 19 17 20 18 22 19 23 20 24 81 25
REMARK SMILES IDX 21 26 80 27 22 28 23 29 24 30 74 31 25 32 79 33 73 34 75 35
REMARK SMILES IDX 26 36 78 37 72 38 71 39 27 41 59 42 39 43 58 44 40 45 43 46
REMARK SMILES IDX 57 47 76 48 41 49 42 50 56 52 77 53 44 54 28 55 29 56 37 57
REMARK SMILES IDX 30 58 31 59 35 60 38 61 32 62 33 63 36 64 34 65 60 66 61 67
REMARK SMILES IDX 69 68 62 69 63 70 67 71 70 72 64 73 65 74 68 75 66 76 45 77
REMARK SMILES IDX 46 78 54 79 47 80 48 81 52 82 55 83 49 84 50 85 53 86 51 87
REMARK H PARENT 12 6 4 17 16 21 75 40 43 51
REMARK Flexibility Score: inf
ROOT
ATOM      1  C   UNL     1      -4.601   4.585  -0.361  1.00  0.00     0.042 C 
ENDROOT
BRANCH   1   2
ATOM      2  C   UNL     1      -3.622   3.474   0.017  1.00  0.00     0.117 C 
BRANCH   2   3
ATOM      3  N   UNL     1      -2.253   3.811  -0.339  1.00  0.00    -0.356 N 
ATOM      4  C   UNL     1      -1.212   4.374   0.318  1.00  0.00     0.231 C 
ATOM      5  O   UNL     1      -0.199   4.548  -0.374  1.00  0.00    -0.274 OA
ATOM      6  H   UNL     1      -2.034   3.576  -1.270  1.00  0.00     0.163 HD
BRANCH   4   7
ATOM      7  C   UNL     1      -1.149   4.728   1.803  1.00  0.00     0.164 C 
ATOM      8  C   UNL     1      -0.366   3.650   2.557  1.00  0.00     0.225 C 
ATOM      9  C   UNL     1      -1.510   2.704   2.944  1.00  0.00     0.226 C 
ATOM     10  O   UNL     1      -2.680   3.518   3.158  1.00  0.00    -0.374 OA
ATOM     11  C   UNL     1      -2.427   4.821   2.598  1.00  0.00     0.180 C 
BRANCH   8  12
ATOM     12  N   UNL     1       0.449   4.253   3.640  1.00  0.00    -0.329 N 
ATOM     13  C   UNL     1       0.746   3.088   6.857  1.00  0.00     0.020 C 
ATOM     14  C   UNL     1       1.003   3.966   5.650  1.00  0.00     0.096 C 
ATOM     15  C   UNL     1       1.305   3.248   4.312  1.00  0.00     0.271 C 
ATOM     16  C   UNL     1      -0.249   4.503   4.922  1.00  0.00     0.271 C 
ATOM     17  H   UNL     1       0.834   5.048   3.129  1.00  0.00     0.348 HD
ENDBRANCH   8  12
ENDBRANCH   4   7
ENDBRANCH   2   3
ENDBRANCH   1   2
BRANCH   1  18
ATOM     18  C   UNL     1      -4.929   4.630  -1.853  1.00  0.00     0.118 C 
BRANCH  18  19
ATOM     19  N   UNL     1      -5.706   3.473  -2.277  1.00  0.00    -0.352 N 
ATOM     20  C   UNL     1      -6.935   3.394  -2.879  1.00  0.00     0.251 C 
ATOM     21  H   UNL     1      -5.278   2.603  -2.104  1.00  0.00     0.163 HD
ATOM     22  O   UNL     1      -7.496   2.301  -2.958  1.00  0.00    -0.269 OA
BRANCH  20  23
ATOM     23  C   UNL     1      -7.603   4.593  -3.430  1.00  0.00     0.039 A 
ATOM     24  C   UNL     1      -8.990   4.710  -3.289  1.00  0.00     0.014 A 
ATOM     25  C   UNL     1      -6.894   5.561  -4.148  1.00  0.00     0.014 A 
ATOM     26  C   UNL     1      -9.658   5.815  -3.824  1.00  0.00     0.010 A 
ATOM     27  C   UNL     1      -7.552   6.691  -4.630  1.00  0.00     0.010 A 
ATOM     28  C   UNL     1      -8.941   6.826  -4.479  1.00  0.00    -0.014 A 
BRANCH  28  29
ATOM     29  C   UNL     1      -9.625   8.028  -5.019  1.00  0.00     0.031 A 
ATOM     30  C   UNL     1      -9.671   8.272  -6.501  1.00  0.00     0.074 A 
ATOM     31  C   UNL     1     -10.141   8.936  -4.169  1.00  0.00     0.049 A 
ATOM     32  N   UNL     1     -10.137   9.306  -7.157  1.00  0.00    -0.248 NA
ATOM     33  C   UNL     1      -9.094   7.227  -7.361  1.00  0.00     0.031 C 
ATOM     34  C   UNL     1     -10.120   8.835  -2.709  1.00  0.00     0.029 A 
ATOM     35  N   UNL     1     -10.769  10.133  -4.410  1.00  0.00    -0.354 N 
ATOM     36  C   UNL     1      -9.884   9.049  -8.498  1.00  0.00     0.074 A 
ATOM     37  C   UNL     1      -9.196   7.777  -8.562  1.00  0.00     0.031 C 
ATOM     38  C   UNL     1     -10.712   9.919  -2.185  1.00  0.00     0.029 A 
ATOM     39  C   UNL     1     -11.127  10.806  -3.268  1.00  0.00     0.049 A 
ATOM     40  H   UNL     1     -10.945  10.476  -5.316  1.00  0.00     0.167 HD
ATOM     41  C   UNL     1     -10.210   9.800  -9.577  1.00  0.00     0.037 A 
ATOM     42  C   UNL     1     -11.713  12.008  -3.112  1.00  0.00     0.037 A 
ATOM     43  C   UNL     1     -10.933  11.042  -9.514  1.00  0.00     0.049 A 
ATOM     44  C   UNL     1     -12.089  12.807  -4.329  1.00  0.00     0.074 A 
ATOM     45  C   UNL     1     -11.382  11.834 -10.556  1.00  0.00     0.029 A 
ATOM     46  N   UNL     1     -11.315  11.673  -8.339  1.00  0.00    -0.354 N 
ATOM     47  N   UNL     1     -11.906  12.521  -5.595  1.00  0.00    -0.248 NA
ATOM     48  C   UNL     1     -12.760  14.094  -4.096  1.00  0.00     0.031 C 
ATOM     49  C   UNL     1     -12.005  12.963 -10.012  1.00  0.00     0.029 A 
ATOM     50  C   UNL     1     -11.978  12.854  -8.631  1.00  0.00     0.049 A 
ATOM     51  H   UNL     1     -11.140  11.332  -7.432  1.00  0.00     0.167 HD
ATOM     52  C   UNL     1     -12.458  13.576  -6.308  1.00  0.00     0.074 A 
ATOM     53  C   UNL     1     -12.995  14.504  -5.334  1.00  0.00     0.031 C 
ATOM     54  C   UNL     1     -12.514  13.760  -7.649  1.00  0.00     0.037 A 
BRANCH  41  55
ATOM     55  C   UNL     1      -9.789   9.298 -10.927  1.00  0.00     0.064 A 
ATOM     56  C   UNL     1     -10.414   8.197 -11.530  1.00  0.00     0.173 A 
ATOM     57  C   UNL     1      -8.778   9.956 -11.645  1.00  0.00     0.173 A 
ATOM     58  F   UNL     1     -11.378   7.528 -10.880  1.00  0.00    -0.203 F 
ATOM     59  C   UNL     1     -10.026   7.758 -12.794  1.00  0.00     0.198 A 
ATOM     60  C   UNL     1      -8.412   9.530 -12.919  1.00  0.00     0.198 A 
ATOM     61  F   UNL     1      -8.153  11.018 -11.115  1.00  0.00    -0.203 F 
ATOM     62  F   UNL     1     -10.610   6.679 -13.334  1.00  0.00    -0.200 F 
ATOM     63  C   UNL     1      -9.031   8.428 -13.490  1.00  0.00     0.200 A 
ATOM     64  F   UNL     1      -7.457  10.185 -13.595  1.00  0.00    -0.200 F 
ATOM     65  F   UNL     1      -8.665   8.008 -14.709  1.00  0.00    -0.200 F 
ENDBRANCH  41  55
BRANCH  42  66
ATOM     66  C   UNL     1     -11.998  12.520  -1.748  1.00  0.00     0.064 A 
ATOM     67  C   UNL     1     -13.313  12.588  -1.267  1.00  0.00     0.173 A 
ATOM     68  C   UNL     1     -10.968  12.952  -0.901  1.00  0.00     0.173 A 
ATOM     69  F   UNL     1     -14.332  12.205  -2.050  1.00  0.00    -0.203 F 
ATOM     70  C   UNL     1     -13.588  13.086   0.004  1.00  0.00     0.198 A 
ATOM     71  C   UNL     1     -11.242  13.426   0.380  1.00  0.00     0.198 A 
ATOM     72  F   UNL     1      -9.693  12.902  -1.314  1.00  0.00    -0.203 F 
ATOM     73  F   UNL     1     -14.857  13.178   0.424  1.00  0.00    -0.200 F 
ATOM     74  C   UNL     1     -12.553  13.500   0.829  1.00  0.00     0.200 A 
ATOM     75  F   UNL     1     -10.239  13.814   1.178  1.00  0.00    -0.200 F 
ATOM     76  F   UNL     1     -12.818  13.976   2.053  1.00  0.00    -0.200 F 
ENDBRANCH  42  66
BRANCH  54  77
ATOM     77  C   UNL     1     -13.206  14.995  -8.143  1.00  0.00     0.064 A 
ATOM     78  C   UNL     1     -12.607  16.260  -8.042  1.00  0.00     0.173 A 
ATOM     79  C   UNL     1     -14.464  14.907  -8.757  1.00  0.00     0.173 A 
ATOM     80  F   UNL     1     -11.412  16.395  -7.448  1.00  0.00    -0.203 F 
ATOM     81  C   UNL     1     -13.254  17.395  -8.521  1.00  0.00     0.198 A 
ATOM     82  C   UNL     1     -15.097  16.042  -9.256  1.00  0.00     0.198 A 
ATOM     83  F   UNL     1     -15.074  13.719  -8.880  1.00  0.00    -0.203 F 
ATOM     84  F   UNL     1     -12.684  18.599  -8.378  1.00  0.00    -0.200 F 
ATOM     85  C   UNL     1     -14.494  17.285  -9.133  1.00  0.00     0.200 A 
ATOM     86  F   UNL     1     -16.290  15.932  -9.856  1.00  0.00    -0.200 F 
ATOM     87  F   UNL     1     -15.113  18.379  -9.598  1.00  0.00    -0.200 F 
ENDBRANCH  54  77
ENDBRANCH  28  29
ENDBRANCH  20  23
ENDBRANCH  18  19
ENDBRANCH   1  18
TORSDOF 11
