REMARK SMILES C[C@H]([NH2+]Cc1cc(C(=O)NCCCNC(=O)c2ccc(-c3c4nc(c(-c5c(F)c(F)c(F)c(F)c5F)c5ccc([nH]5)c(-c5c(F)c(F)c(F)c(F)c5F)c5nc(c(-c6c(F)c(F)c(F)c(F)c6F)c6ccc3[nH]6)C=C5)C=C4)cc2)cs1)c1ccsc1
REMARK SMILES IDX 11 1 10 2 8 3 9 4 7 6 5 7 6 8 81 9 80 10 4 11 3 12 2 15 1 16
REMARK SMILES IDX 82 17 83 18 86 19 84 20 85 21 12 22 13 23 14 24 15 25 16 27
REMARK SMILES IDX 17 28 18 29 79 30 19 31 78 32 20 33 21 34 22 35 72 36 23 37
REMARK SMILES IDX 77 38 71 39 73 40 24 41 76 42 70 43 69 44 25 46 57 47 37 48
REMARK SMILES IDX 56 49 38 50 41 51 55 52 74 53 39 54 40 55 54 57 75 58 42 59
REMARK SMILES IDX 26 60 27 61 35 62 28 63 29 64 33 65 36 66 30 67 31 68 34 69
REMARK SMILES IDX 32 70 58 71 59 72 67 73 60 74 61 75 65 76 68 77 62 78 63 79
REMARK SMILES IDX 66 80 64 81 43 82 44 83 52 84 45 85 46 86 50 87 53 88 47 89
REMARK SMILES IDX 48 90 51 91 49 92
REMARK H PARENT 10 5 3 13 3 14 14 26 73 45 41 56
REMARK Flexibility Score: inf
ROOT
ATOM      1  C   UNL     1       1.230   3.897   3.131  1.00  0.00     0.118 C 
ENDROOT
BRANCH   1   2
ATOM      2  N   UNL     1       1.912   3.372   4.298  1.00  0.00    -0.352 N 
ATOM      3  C   UNL     1       2.733   2.285   4.459  1.00  0.00     0.252 C 
ATOM      4  O   UNL     1       3.261   2.143   5.562  1.00  0.00    -0.269 OA
ATOM      5  H   UNL     1       1.758   3.888   5.123  1.00  0.00     0.163 HD
BRANCH   3   6
ATOM      6  C   UNL     1       3.012   1.366   3.353  1.00  0.00     0.051 A 
ATOM      7  C   UNL     1       2.878   0.213   1.298  1.00  0.00     0.059 A 
ATOM      8  C   UNL     1       2.239   1.057   2.187  1.00  0.00     0.035 A 
ATOM      9  S   UNL     1       4.360  -0.343   1.941  1.00  0.00    -0.142 S 
ATOM     10  C   UNL     1       4.166   0.597   3.352  1.00  0.00     0.079 A 
BRANCH   7  11
ATOM     11  C   UNL     1       2.449  -0.190  -0.085  1.00  0.00     0.308 C 
BRANCH  11  12
ATOM     12  N   UNL     1       0.993  -0.295  -0.163  1.00  0.00    -0.336 N 
ATOM     13  H   UNL     1       0.702  -1.133   0.341  1.00  0.00     0.347 HD
ATOM     14  H   UNL     1       0.607   0.555   0.249  1.00  0.00     0.347 HD
BRANCH  12  15
ATOM     15  C   UNL     1       0.492  -0.379  -1.536  1.00  0.00     0.211 C 
ATOM     16  C   UNL     1       0.984  -1.617  -2.292  1.00  0.00     0.081 C 
BRANCH  15  17
ATOM     17  C   UNL     1      -1.018  -0.307  -1.436  1.00  0.00     0.020 A 
ATOM     18  C   UNL     1      -1.759   0.927  -1.444  1.00  0.00     0.021 A 
ATOM     19  C   UNL     1      -1.885  -1.381  -1.309  1.00  0.00     0.074 A 
ATOM     20  C   UNL     1      -3.119   0.740  -1.342  1.00  0.00     0.065 A 
ATOM     21  S   UNL     1      -3.528  -0.913  -1.227  1.00  0.00    -0.152 S 
ENDBRANCH  15  17
ENDBRANCH  12  15
ENDBRANCH  11  12
ENDBRANCH   7  11
ENDBRANCH   3   6
ENDBRANCH   1   2
BRANCH   1  22
ATOM     22  C   UNL     1      -0.245   3.501   3.120  1.00  0.00     0.042 C 
BRANCH  22  23
ATOM     23  C   UNL     1      -1.092   4.305   4.104  1.00  0.00     0.118 C 
BRANCH  23  24
ATOM     24  N   UNL     1      -1.212   5.701   3.707  1.00  0.00    -0.352 N 
ATOM     25  C   UNL     1      -2.325   6.474   3.502  1.00  0.00     0.251 C 
ATOM     26  H   UNL     1      -0.355   6.164   3.561  1.00  0.00     0.163 HD
ATOM     27  O   UNL     1      -2.205   7.570   2.960  1.00  0.00    -0.269 OA
BRANCH  25  28
ATOM     28  C   UNL     1      -3.666   6.009   3.919  1.00  0.00     0.039 A 
ATOM     29  C   UNL     1      -4.761   6.316   3.103  1.00  0.00     0.014 A 
ATOM     30  C   UNL     1      -3.866   5.342   5.130  1.00  0.00     0.014 A 
ATOM     31  C   UNL     1      -6.045   5.920   3.481  1.00  0.00     0.010 A 
ATOM     32  C   UNL     1      -5.139   4.888   5.474  1.00  0.00     0.010 A 
ATOM     33  C   UNL     1      -6.242   5.184   4.660  1.00  0.00    -0.014 A 
BRANCH  33  34
ATOM     34  C   UNL     1      -7.598   4.736   5.064  1.00  0.00     0.031 A 
ATOM     35  C   UNL     1      -8.235   5.280   6.313  1.00  0.00     0.074 A 
ATOM     36  C   UNL     1      -8.236   3.803   4.331  1.00  0.00     0.049 A 
ATOM     37  N   UNL     1      -9.381   4.967   6.864  1.00  0.00    -0.248 NA
ATOM     38  C   UNL     1      -7.469   6.293   7.056  1.00  0.00     0.031 C 
ATOM     39  C   UNL     1      -7.704   3.168   3.124  1.00  0.00     0.029 A 
ATOM     40  N   UNL     1      -9.466   3.218   4.500  1.00  0.00    -0.354 N 
ATOM     41  C   UNL     1      -9.467   5.734   8.019  1.00  0.00     0.074 A 
ATOM     42  C   UNL     1      -8.235   6.486   8.120  1.00  0.00     0.031 C 
ATOM     43  C   UNL     1      -8.607   2.294   2.653  1.00  0.00     0.029 A 
ATOM     44  C   UNL     1      -9.766   2.283   3.540  1.00  0.00     0.049 A 
ATOM     45  H   UNL     1     -10.075   3.447   5.238  1.00  0.00     0.167 HD
ATOM     46  C   UNL     1     -10.491   5.822   8.902  1.00  0.00     0.037 A 
ATOM     47  C   UNL     1     -10.852   1.501   3.397  1.00  0.00     0.037 A 
ATOM     48  C   UNL     1     -11.723   5.086   8.787  1.00  0.00     0.049 A 
ATOM     49  C   UNL     1     -11.977   1.621   4.389  1.00  0.00     0.074 A 
ATOM     50  C   UNL     1     -12.836   5.129   9.609  1.00  0.00     0.029 A 
ATOM     51  N   UNL     1     -12.005   4.173   7.782  1.00  0.00    -0.354 N 
ATOM     52  N   UNL     1     -12.071   2.390   5.447  1.00  0.00    -0.248 NA
ATOM     53  C   UNL     1     -13.155   0.772   4.160  1.00  0.00     0.031 C 
ATOM     54  C   UNL     1     -13.777   4.216   9.121  1.00  0.00     0.029 A 
ATOM     55  C   UNL     1     -13.270   3.639   7.968  1.00  0.00     0.049 A 
ATOM     56  H   UNL     1     -11.396   3.938   7.045  1.00  0.00     0.167 HD
ATOM     57  C   UNL     1     -13.323   2.141   5.991  1.00  0.00     0.074 A 
ATOM     58  C   UNL     1     -13.961   1.161   5.136  1.00  0.00     0.031 C 
ATOM     59  C   UNL     1     -13.894   2.675   7.099  1.00  0.00     0.037 A 
BRANCH  46  60
ATOM     60  C   UNL     1     -10.324   6.756  10.066  1.00  0.00     0.064 A 
ATOM     61  C   UNL     1     -10.317   8.149   9.892  1.00  0.00     0.173 A 
ATOM     62  C   UNL     1     -10.201   6.258  11.372  1.00  0.00     0.173 A 
ATOM     63  F   UNL     1     -10.419   8.676   8.663  1.00  0.00    -0.203 F 
ATOM     64  C   UNL     1     -10.163   9.007  10.978  1.00  0.00     0.198 A 
ATOM     65  C   UNL     1     -10.079   7.120  12.459  1.00  0.00     0.198 A 
ATOM     66  F   UNL     1     -10.208   4.936  11.596  1.00  0.00    -0.203 F 
ATOM     67  F   UNL     1     -10.109  10.331  10.781  1.00  0.00    -0.200 F 
ATOM     68  C   UNL     1     -10.051   8.492  12.261  1.00  0.00     0.200 A 
ATOM     69  F   UNL     1      -9.984   6.622  13.700  1.00  0.00    -0.200 F 
ATOM     70  F   UNL     1      -9.910   9.319  13.306  1.00  0.00    -0.200 F 
ENDBRANCH  46  60
BRANCH  47  71
ATOM     71  C   UNL     1     -10.941   0.553   2.256  1.00  0.00     0.064 A 
ATOM     72  C   UNL     1     -11.854   0.764   1.214  1.00  0.00     0.173 A 
ATOM     73  C   UNL     1     -10.126  -0.587   2.189  1.00  0.00     0.173 A 
ATOM     74  F   UNL     1     -12.668   1.829   1.243  1.00  0.00    -0.203 F 
ATOM     75  C   UNL     1     -11.966  -0.141   0.161  1.00  0.00     0.198 A 
ATOM     76  C   UNL     1     -10.219  -1.476   1.121  1.00  0.00     0.198 A 
ATOM     77  F   UNL     1      -9.232  -0.831   3.159  1.00  0.00    -0.203 F 
ATOM     78  F   UNL     1     -12.883   0.059  -0.796  1.00  0.00    -0.200 F 
ATOM     79  C   UNL     1     -11.146  -1.258   0.112  1.00  0.00     0.200 A 
ATOM     80  F   UNL     1      -9.415  -2.547   1.071  1.00  0.00    -0.200 F 
ATOM     81  F   UNL     1     -11.254  -2.128  -0.901  1.00  0.00    -0.200 F 
ENDBRANCH  47  71
BRANCH  59  82
ATOM     82  C   UNL     1     -15.294   2.242   7.424  1.00  0.00     0.064 A 
ATOM     83  C   UNL     1     -15.575   0.956   7.908  1.00  0.00     0.173 A 
ATOM     84  C   UNL     1     -16.364   3.136   7.273  1.00  0.00     0.173 A 
ATOM     85  F   UNL     1     -14.587   0.059   8.055  1.00  0.00    -0.203 F 
ATOM     86  C   UNL     1     -16.880   0.572   8.201  1.00  0.00     0.198 A 
ATOM     87  C   UNL     1     -17.664   2.759   7.596  1.00  0.00     0.198 A 
ATOM     88  F   UNL     1     -16.148   4.380   6.820  1.00  0.00    -0.203 F 
ATOM     89  F   UNL     1     -17.132  -0.679   8.613  1.00  0.00    -0.200 F 
ATOM     90  C   UNL     1     -17.922   1.475   8.051  1.00  0.00     0.200 A 
ATOM     91  F   UNL     1     -18.668   3.636   7.462  1.00  0.00    -0.200 F 
ATOM     92  F   UNL     1     -19.178   1.104   8.337  1.00  0.00    -0.200 F 
ENDBRANCH  59  82
ENDBRANCH  33  34
ENDBRANCH  25  28
ENDBRANCH  23  24
ENDBRANCH  22  23
ENDBRANCH   1  22
TORSDOF 14
