REMARK SMILES CC[C@@H](C)N(C)S(=O)(=O)c1cc(C(=O)NCCCNC(=O)c2ccc(-c3c4nc(c(-c5c(F)c(F)c(F)c(F)c5F)c5ccc([nH]5)c(-c5c(F)c(F)c(F)c(F)c5F)c5nc(c(-c6c(F)c(F)c(F)c(F)c6F)c6ccc3[nH]6)C=C5)C=C4)cc2)ccc1Br
REMARK SMILES IDX 16 1 15 2 13 3 14 4 12 6 10 7 11 8 87 9 86 10 88 11 85 12
REMARK SMILES IDX 7 13 8 14 9 15 5 16 6 17 3 18 4 19 2 20 1 21 17 22 18 23
REMARK SMILES IDX 19 24 20 25 21 27 22 28 23 29 84 30 24 31 83 32 25 33 26 34
REMARK SMILES IDX 27 35 77 36 28 37 82 38 76 39 78 40 29 41 81 42 75 43 74 44
REMARK SMILES IDX 30 46 62 47 42 48 61 49 43 50 46 51 60 52 79 53 44 54 45 55
REMARK SMILES IDX 59 57 80 58 47 59 31 60 32 61 40 62 33 63 34 64 38 65 41 66
REMARK SMILES IDX 35 67 36 68 39 69 37 70 63 71 64 72 72 73 65 74 66 75 70 76
REMARK SMILES IDX 73 77 67 78 68 79 71 80 69 81 48 82 49 83 57 84 50 85 51 86
REMARK SMILES IDX 55 87 58 88 52 89 53 90 56 91 54 92
REMARK H PARENT 15 5 19 26 78 45 46 56
REMARK Flexibility Score: inf
ROOT
ATOM      1  C   UNL     1      -3.054   1.480  10.116  1.00  0.00     0.118 C 
ENDROOT
BRANCH   1   2
ATOM      2  N   UNL     1      -3.179   0.408   9.147  1.00  0.00    -0.352 N 
ATOM      3  C   UNL     1      -3.027   0.358   7.785  1.00  0.00     0.251 C 
ATOM      4  O   UNL     1      -3.133  -0.747   7.253  1.00  0.00    -0.269 OA
ATOM      5  H   UNL     1      -3.422  -0.458   9.547  1.00  0.00     0.163 HD
BRANCH   3   6
ATOM      6  C   UNL     1      -2.721   1.544   6.931  1.00  0.00     0.041 A 
ATOM      7  C   UNL     1      -1.895   2.356   4.762  1.00  0.00     0.097 A 
ATOM      8  C   UNL     1      -2.168   1.302   5.660  1.00  0.00     0.036 A 
ATOM      9  C   UNL     1      -2.148   3.675   5.154  1.00  0.00     0.038 A 
ATOM     10  C   UNL     1      -2.711   3.914   6.412  1.00  0.00     0.018 A 
ATOM     11  Br  UNL     1      -1.776   5.242   4.148  1.00  0.00    -0.049 Br
ATOM     12  C   UNL     1      -3.026   2.860   7.272  1.00  0.00     0.015 A 
BRANCH   7  13
ATOM     13  S   UNL     1      -1.473   1.902   3.088  1.00  0.00     0.244 S 
ATOM     14  O   UNL     1      -1.920   2.959   2.204  1.00  0.00    -0.207 OA
ATOM     15  O   UNL     1      -1.978   0.561   2.891  1.00  0.00    -0.207 OA
BRANCH  13  16
ATOM     16  N   UNL     1       0.241   1.821   3.027  1.00  0.00    -0.198 NA
ATOM     17  C   UNL     1       0.988   2.901   3.712  1.00  0.00     0.124 C 
BRANCH  16  18
ATOM     18  C   UNL     1       0.855   1.506   1.671  1.00  0.00     0.069 C 
ATOM     19  C   UNL     1       0.588   2.604   0.637  1.00  0.00     0.026 C 
BRANCH  18  20
ATOM     20  C   UNL     1       0.450   0.111   1.166  1.00  0.00     0.016 C 
ATOM     21  C   UNL     1       1.166  -0.298  -0.117  1.00  0.00     0.005 C 
ENDBRANCH  18  20
ENDBRANCH  16  18
ENDBRANCH  13  16
ENDBRANCH   7  13
ENDBRANCH   3   6
ENDBRANCH   1   2
BRANCH   1  22
ATOM     22  C   UNL     1      -4.422   2.053  10.490  1.00  0.00     0.042 C 
BRANCH  22  23
ATOM     23  C   UNL     1      -5.204   1.165  11.455  1.00  0.00     0.118 C 
BRANCH  23  24
ATOM     24  N   UNL     1      -4.582   1.121  12.772  1.00  0.00    -0.352 N 
ATOM     25  C   UNL     1      -5.060   1.522  13.993  1.00  0.00     0.251 C 
ATOM     26  H   UNL     1      -3.674   0.743  12.787  1.00  0.00     0.163 HD
ATOM     27  O   UNL     1      -4.283   1.639  14.936  1.00  0.00    -0.269 OA
BRANCH  25  28
ATOM     28  C   UNL     1      -6.496   1.815  14.186  1.00  0.00     0.039 A 
ATOM     29  C   UNL     1      -6.859   2.873  15.025  1.00  0.00     0.014 A 
ATOM     30  C   UNL     1      -7.484   1.019  13.600  1.00  0.00     0.014 A 
ATOM     31  C   UNL     1      -8.209   3.161  15.237  1.00  0.00     0.010 A 
ATOM     32  C   UNL     1      -8.827   1.354  13.749  1.00  0.00     0.010 A 
ATOM     33  C   UNL     1      -9.203   2.421  14.578  1.00  0.00    -0.014 A 
BRANCH  33  34
ATOM     34  C   UNL     1     -10.641   2.747  14.748  1.00  0.00     0.031 A 
ATOM     35  C   UNL     1     -11.574   1.752  15.380  1.00  0.00     0.074 A 
ATOM     36  C   UNL     1     -11.117   3.910  14.267  1.00  0.00     0.049 A 
ATOM     37  N   UNL     1     -12.871   1.822  15.548  1.00  0.00    -0.248 NA
ATOM     38  C   UNL     1     -10.973   0.498  15.859  1.00  0.00     0.031 C 
ATOM     39  C   UNL     1     -10.319   4.929  13.584  1.00  0.00     0.029 A 
ATOM     40  N   UNL     1     -12.389   4.424  14.263  1.00  0.00    -0.354 N 
ATOM     41  C   UNL     1     -13.240   0.622  16.140  1.00  0.00     0.074 A 
ATOM     42  C   UNL     1     -12.042  -0.183  16.243  1.00  0.00     0.031 C 
ATOM     43  C   UNL     1     -11.117   5.950  13.236  1.00  0.00     0.029 A 
ATOM     44  C   UNL     1     -12.486   5.642  13.636  1.00  0.00     0.049 A 
ATOM     45  H   UNL     1     -13.159   3.964  14.670  1.00  0.00     0.167 HD
ATOM     46  C   UNL     1     -14.462   0.236  16.580  1.00  0.00     0.037 A 
ATOM     47  C   UNL     1     -13.561   6.417  13.398  1.00  0.00     0.037 A 
ATOM     48  C   UNL     1     -15.648   1.047  16.480  1.00  0.00     0.049 A 
ATOM     49  C   UNL     1     -14.909   5.970  13.892  1.00  0.00     0.074 A 
ATOM     50  C   UNL     1     -16.923   0.775  16.942  1.00  0.00     0.029 A 
ATOM     51  N   UNL     1     -15.703   2.291  15.866  1.00  0.00    -0.354 N 
ATOM     52  N   UNL     1     -15.235   4.865  14.518  1.00  0.00    -0.248 NA
ATOM     53  C   UNL     1     -16.036   6.882  13.657  1.00  0.00     0.031 C 
ATOM     54  C   UNL     1     -17.760   1.830  16.561  1.00  0.00     0.029 A 
ATOM     55  C   UNL     1     -16.996   2.788  15.914  1.00  0.00     0.049 A 
ATOM     56  H   UNL     1     -14.936   2.752  15.455  1.00  0.00     0.167 HD
ATOM     57  C   UNL     1     -16.597   4.956  14.770  1.00  0.00     0.074 A 
ATOM     58  C   UNL     1     -17.032   6.234  14.246  1.00  0.00     0.031 C 
ATOM     59  C   UNL     1     -17.413   4.061  15.382  1.00  0.00     0.037 A 
BRANCH  46  60
ATOM     60  C   UNL     1     -14.571  -1.128  17.203  1.00  0.00     0.064 A 
ATOM     61  C   UNL     1     -13.955  -1.430  18.429  1.00  0.00     0.173 A 
ATOM     62  C   UNL     1     -15.304  -2.145  16.574  1.00  0.00     0.173 A 
ATOM     63  F   UNL     1     -13.234  -0.498  19.070  1.00  0.00    -0.203 F 
ATOM     64  C   UNL     1     -14.030  -2.709  18.975  1.00  0.00     0.198 A 
ATOM     65  C   UNL     1     -15.407  -3.414  17.141  1.00  0.00     0.198 A 
ATOM     66  F   UNL     1     -15.921  -1.912  15.406  1.00  0.00    -0.203 F 
ATOM     67  F   UNL     1     -13.375  -2.990  20.110  1.00  0.00    -0.200 F 
ATOM     68  C   UNL     1     -14.759  -3.699  18.333  1.00  0.00     0.200 A 
ATOM     69  F   UNL     1     -16.125  -4.365  16.527  1.00  0.00    -0.200 F 
ATOM     70  F   UNL     1     -14.828  -4.929  18.859  1.00  0.00    -0.200 F 
ENDBRANCH  46  60
BRANCH  47  71
ATOM     71  C   UNL     1     -13.391   7.700  12.669  1.00  0.00     0.064 A 
ATOM     72  C   UNL     1     -13.528   8.930  13.328  1.00  0.00     0.173 A 
ATOM     73  C   UNL     1     -13.056   7.723  11.307  1.00  0.00     0.173 A 
ATOM     74  F   UNL     1     -13.863   8.960  14.627  1.00  0.00    -0.203 F 
ATOM     75  C   UNL     1     -13.350  10.133  12.649  1.00  0.00     0.198 A 
ATOM     76  C   UNL     1     -12.850   8.927  10.637  1.00  0.00     0.198 A 
ATOM     77  F   UNL     1     -12.904   6.574  10.633  1.00  0.00    -0.203 F 
ATOM     78  F   UNL     1     -13.521  11.295  13.295  1.00  0.00    -0.200 F 
ATOM     79  C   UNL     1     -13.003  10.131  11.306  1.00  0.00     0.200 A 
ATOM     80  F   UNL     1     -12.495   8.919   9.345  1.00  0.00    -0.200 F 
ATOM     81  F   UNL     1     -12.817  11.289  10.658  1.00  0.00    -0.200 F 
ENDBRANCH  47  71
BRANCH  59  82
ATOM     82  C   UNL     1     -18.857   4.445  15.538  1.00  0.00     0.064 A 
ATOM     83  C   UNL     1     -19.729   4.497  14.441  1.00  0.00     0.173 A 
ATOM     84  C   UNL     1     -19.383   4.726  16.808  1.00  0.00     0.173 A 
ATOM     85  F   UNL     1     -19.273   4.252  13.203  1.00  0.00    -0.203 F 
ATOM     86  C   UNL     1     -21.068   4.842  14.606  1.00  0.00     0.198 A 
ATOM     87  C   UNL     1     -20.729   5.039  16.974  1.00  0.00     0.198 A 
ATOM     88  F   UNL     1     -18.593   4.685  17.892  1.00  0.00    -0.203 F 
ATOM     89  F   UNL     1     -21.871   4.934  13.538  1.00  0.00    -0.200 F 
ATOM     90  C   UNL     1     -21.568   5.104  15.873  1.00  0.00     0.200 A 
ATOM     91  F   UNL     1     -21.213   5.278  18.201  1.00  0.00    -0.200 F 
ATOM     92  F   UNL     1     -22.859   5.428  16.031  1.00  0.00    -0.200 F 
ENDBRANCH  59  82
ENDBRANCH  33  34
ENDBRANCH  25  28
ENDBRANCH  23  24
ENDBRANCH  22  23
ENDBRANCH   1  22
TORSDOF 14
