REMARK SMILES O=C(NCCCNC(=O)c1cc(/N=C/c2ccc([N+](=O)[O-])cc2)ccc1O)c1ccc(-c2c3nc(c(-c4c(F)c(F)c(F)c(F)c4F)c4ccc([nH]4)c(-c4c(F)c(F)c(F)c(F)c4F)c4nc(c(-c5c(F)c(F)c(F)c(F)c5F)c5ccc2[nH]5)C=C4)C=C3)cc1
REMARK SMILES IDX 5 1 4 2 3 3 1 4 2 5 28 7 29 8 90 9 30 10 89 11 31 12 32 13
REMARK SMILES IDX 33 14 83 15 34 16 88 17 82 18 84 19 35 20 87 21 81 22 80 23
REMARK SMILES IDX 36 25 68 26 48 27 67 28 49 29 52 30 66 31 85 32 50 33 51 34
REMARK SMILES IDX 65 36 86 37 53 38 37 39 38 40 46 41 39 42 40 43 44 44 47 45
REMARK SMILES IDX 41 46 42 47 45 48 43 49 69 50 70 51 78 52 71 53 72 54 76 55
REMARK SMILES IDX 79 56 73 57 74 58 77 59 75 60 54 61 55 62 63 63 56 64 57 65
REMARK SMILES IDX 61 66 64 67 58 68 59 69 62 70 60 71 6 72 7 73 8 74 9 76
REMARK SMILES IDX 10 77 11 78 26 79 12 80 25 81 24 82 27 83 13 85 14 86 15 87
REMARK SMILES IDX 16 88 23 89 17 90 22 91 18 92 19 93 20 94 21 95
REMARK H PARENT 3 6 84 24 52 35 7 75 27 84
REMARK Flexibility Score: inf
ROOT
ATOM      1  C   UNL     1       5.004   2.462  -0.576  1.00  0.00     0.042 C 
ENDROOT
BRANCH   1   2
ATOM      2  C   UNL     1       4.621   1.389   0.428  1.00  0.00     0.118 C 
BRANCH   2   3
ATOM      3  N   UNL     1       3.188   1.118   0.439  1.00  0.00    -0.352 N 
ATOM      4  O   UNL     1       1.263   0.065  -0.071  1.00  0.00    -0.269 OA
ATOM      5  C   UNL     1       2.488   0.015   0.017  1.00  0.00     0.251 C 
ATOM      6  H   UNL     1       2.634   1.843   0.810  1.00  0.00     0.163 HD
BRANCH   5   7
ATOM      7  C   UNL     1       3.199  -1.228  -0.351  1.00  0.00     0.039 A 
ATOM      8  C   UNL     1       4.286  -1.676   0.400  1.00  0.00     0.014 A 
ATOM      9  C   UNL     1       2.749  -1.980  -1.441  1.00  0.00     0.014 A 
ATOM     10  C   UNL     1       5.022  -2.771  -0.031  1.00  0.00     0.010 A 
ATOM     11  C   UNL     1       3.423  -3.149  -1.808  1.00  0.00     0.010 A 
ATOM     12  C   UNL     1       4.582  -3.539  -1.120  1.00  0.00    -0.014 A 
BRANCH  12  13
ATOM     13  C   UNL     1       5.304  -4.794  -1.447  1.00  0.00     0.031 A 
ATOM     14  C   UNL     1       6.012  -4.974  -2.759  1.00  0.00     0.074 A 
ATOM     15  C   UNL     1       5.338  -5.768  -0.515  1.00  0.00     0.049 A 
ATOM     16  N   UNL     1       6.702  -6.002  -3.186  1.00  0.00    -0.248 NA
ATOM     17  C   UNL     1       5.933  -3.865  -3.722  1.00  0.00     0.031 C 
ATOM     18  C   UNL     1       4.669  -5.707   0.788  1.00  0.00     0.029 A 
ATOM     19  N   UNL     1       5.971  -6.984  -0.504  1.00  0.00    -0.354 N 
ATOM     20  C   UNL     1       7.120  -5.676  -4.468  1.00  0.00     0.074 A 
ATOM     21  C   UNL     1       6.593  -4.360  -4.762  1.00  0.00     0.031 C 
ATOM     22  C   UNL     1       4.968  -6.809   1.490  1.00  0.00     0.029 A 
ATOM     23  C   UNL     1       5.788  -7.685   0.663  1.00  0.00     0.049 A 
ATOM     24  H   UNL     1       6.505  -7.322  -1.259  1.00  0.00     0.167 HD
ATOM     25  C   UNL     1       7.880  -6.410  -5.316  1.00  0.00     0.037 A 
ATOM     26  C   UNL     1       6.213  -8.909   1.021  1.00  0.00     0.037 A 
ATOM     27  C   UNL     1       8.423  -7.708  -5.003  1.00  0.00     0.049 A 
ATOM     28  C   UNL     1       7.043  -9.700   0.052  1.00  0.00     0.074 A 
ATOM     29  C   UNL     1       9.247  -8.507  -5.778  1.00  0.00     0.029 A 
ATOM     30  N   UNL     1       8.194  -8.398  -3.822  1.00  0.00    -0.354 N 
ATOM     31  N   UNL     1       7.464  -9.361  -1.141  1.00  0.00    -0.248 NA
ATOM     32  C   UNL     1       7.450 -11.045   0.476  1.00  0.00     0.031 C 
ATOM     33  C   UNL     1       9.478  -9.700  -5.085  1.00  0.00     0.029 A 
ATOM     34  C   UNL     1       8.839  -9.625  -3.859  1.00  0.00     0.049 A 
ATOM     35  H   UNL     1       7.654  -8.066  -3.069  1.00  0.00     0.167 HD
ATOM     36  C   UNL     1       8.196 -10.443  -1.607  1.00  0.00     0.074 A 
ATOM     37  C   UNL     1       8.184 -11.438  -0.554  1.00  0.00     0.031 C 
ATOM     38  C   UNL     1       8.815 -10.602  -2.801  1.00  0.00     0.037 A 
BRANCH  25  39
ATOM     39  C   UNL     1       8.170  -5.844  -6.676  1.00  0.00     0.064 A 
ATOM     40  C   UNL     1       9.082  -4.796  -6.860  1.00  0.00     0.173 A 
ATOM     41  C   UNL     1       7.591  -6.420  -7.818  1.00  0.00     0.173 A 
ATOM     42  F   UNL     1       9.656  -4.206  -5.801  1.00  0.00    -0.203 F 
ATOM     43  C   UNL     1       9.399  -4.338  -8.138  1.00  0.00     0.198 A 
ATOM     44  C   UNL     1       7.927  -5.976  -9.095  1.00  0.00     0.198 A 
ATOM     45  F   UNL     1       6.716  -7.430  -7.697  1.00  0.00    -0.203 F 
ATOM     46  F   UNL     1      10.255  -3.319  -8.290  1.00  0.00    -0.200 F 
ATOM     47  C   UNL     1       8.829  -4.935  -9.253  1.00  0.00     0.200 A 
ATOM     48  F   UNL     1       7.386  -6.562 -10.171  1.00  0.00    -0.200 F 
ATOM     49  F   UNL     1       9.149  -4.505 -10.482  1.00  0.00    -0.200 F 
ENDBRANCH  25  39
BRANCH  26  50
ATOM     50  C   UNL     1       5.841  -9.465   2.348  1.00  0.00     0.064 A 
ATOM     51  C   UNL     1       6.806  -9.684   3.339  1.00  0.00     0.173 A 
ATOM     52  C   UNL     1       4.509  -9.788   2.650  1.00  0.00     0.173 A 
ATOM     53  F   UNL     1       8.095  -9.407   3.091  1.00  0.00    -0.203 F 
ATOM     54  C   UNL     1       6.458 -10.226   4.574  1.00  0.00     0.198 A 
ATOM     55  C   UNL     1       4.157 -10.298   3.897  1.00  0.00     0.198 A 
ATOM     56  F   UNL     1       3.546  -9.591   1.738  1.00  0.00    -0.203 F 
ATOM     57  F   UNL     1       7.408 -10.472   5.487  1.00  0.00    -0.200 F 
ATOM     58  C   UNL     1       5.133 -10.527   4.854  1.00  0.00     0.200 A 
ATOM     59  F   UNL     1       2.873 -10.570   4.168  1.00  0.00    -0.200 F 
ATOM     60  F   UNL     1       4.798 -11.044   6.044  1.00  0.00    -0.200 F 
ENDBRANCH  26  50
BRANCH  38  61
ATOM     61  C   UNL     1       9.545 -11.893  -3.019  1.00  0.00     0.064 A 
ATOM     62  C   UNL     1       8.857 -13.098  -3.225  1.00  0.00     0.173 A 
ATOM     63  C   UNL     1      10.947 -11.922  -3.041  1.00  0.00     0.173 A 
ATOM     64  F   UNL     1       7.516 -13.123  -3.194  1.00  0.00    -0.203 F 
ATOM     65  C   UNL     1       9.547 -14.291  -3.417  1.00  0.00     0.198 A 
ATOM     66  C   UNL     1      11.634 -13.112  -3.262  1.00  0.00     0.198 A 
ATOM     67  F   UNL     1      11.650 -10.796  -2.853  1.00  0.00    -0.203 F 
ATOM     68  F   UNL     1       8.870 -15.439  -3.559  1.00  0.00    -0.200 F 
ATOM     69  C   UNL     1      10.934 -14.296  -3.441  1.00  0.00     0.200 A 
ATOM     70  F   UNL     1      12.973 -13.115  -3.296  1.00  0.00    -0.200 F 
ATOM     71  F   UNL     1      11.597 -15.446  -3.628  1.00  0.00    -0.200 F 
ENDBRANCH  38  61
ENDBRANCH  12  13
ENDBRANCH   5   7
ENDBRANCH   2   3
ENDBRANCH   1   2
BRANCH   1  72
ATOM     72  C   UNL     1       4.484   3.841  -0.210  1.00  0.00     0.118 C 
BRANCH  72  73
ATOM     73  N   UNL     1       5.101   4.359   1.002  1.00  0.00    -0.352 N 
ATOM     74  C   UNL     1       5.897   5.469   1.149  1.00  0.00     0.255 C 
ATOM     75  H   UNL     1       4.925   3.847   1.824  1.00  0.00     0.163 HD
ATOM     76  O   UNL     1       6.429   5.715   2.227  1.00  0.00    -0.269 OA
BRANCH  74  77
ATOM     77  C   UNL     1       6.171   6.322  -0.023  1.00  0.00     0.083 A 
ATOM     78  C   UNL     1       7.503   6.448  -0.434  1.00  0.00     0.046 A 
ATOM     79  C   UNL     1       5.147   6.948  -0.741  1.00  0.00     0.128 A 
ATOM     80  C   UNL     1       7.812   7.142  -1.603  1.00  0.00     0.064 A 
ATOM     81  C   UNL     1       5.440   7.618  -1.923  1.00  0.00     0.049 A 
ATOM     82  C   UNL     1       6.765   7.688  -2.361  1.00  0.00     0.032 A 
BRANCH  79  83
ATOM     83  O   UNL     1       3.851   6.868  -0.312  1.00  0.00    -0.507 OA
ATOM     84  H   UNL     1       3.648   6.418   0.484  1.00  0.00     0.293 HD
ENDBRANCH  79  83
BRANCH  80  85
ATOM     85  N   UNL     1       9.155   7.209  -2.011  1.00  0.00    -0.256 NA
ATOM     86  C   UNL     1       9.603   8.352  -2.421  1.00  0.00     0.119 C 
BRANCH  86  87
ATOM     87  C   UNL     1      10.998   8.542  -2.861  1.00  0.00    -0.007 A 
ATOM     88  C   UNL     1      11.350   9.768  -3.436  1.00  0.00     0.017 A 
ATOM     89  C   UNL     1      11.955   7.537  -2.689  1.00  0.00     0.017 A 
ATOM     90  C   UNL     1      12.669   9.998  -3.832  1.00  0.00     0.086 A 
ATOM     91  C   UNL     1      13.279   7.762  -3.078  1.00  0.00     0.086 A 
ATOM     92  C   UNL     1      13.633   8.996  -3.644  1.00  0.00     0.269 A 
BRANCH  92  93
ATOM     93  N   UNL     1      15.026   9.248  -4.035  1.00  0.00     0.062 N 
ATOM     94  O   UNL     1      15.294  10.356  -4.521  1.00  0.00    -0.258 OA
ATOM     95  O   UNL     1      15.849   8.341  -3.853  1.00  0.00    -0.258 OA
ENDBRANCH  92  93
ENDBRANCH  86  87
ENDBRANCH  80  85
ENDBRANCH  74  77
ENDBRANCH  72  73
ENDBRANCH   1  72
TORSDOF 14
