REMARK SMILES Cc1ccn2c([C@@H]3CCCC[C@@H]3C(=O)NCCCNC(=O)c3ccc(-c4c5nc(c(-c6c(F)c(F)c(F)c(F)c6F)c6ccc([nH]6)c(-c6c(F)c(F)c(F)c(F)c6F)c6nc(c(-c7c(F)c(F)c(F)c(F)c7F)c7ccc4[nH]7)C=C6)C=C5)cc3)nnc2c1
REMARK SMILES IDX 17 1 16 2 15 3 13 4 14 5 12 7 7 8 8 9 9 10 11 11 10 12 6 13
REMARK SMILES IDX 1 14 2 15 3 16 88 17 4 18 87 19 5 20 86 21 85 22 18 23 19 24
REMARK SMILES IDX 20 25 21 27 22 28 23 29 84 30 24 31 83 32 25 33 26 34 27 35
REMARK SMILES IDX 77 36 28 37 82 38 76 39 78 40 29 41 81 42 75 43 74 44 30 46
REMARK SMILES IDX 62 47 42 48 61 49 43 50 46 51 60 52 79 53 44 54 45 55 59 57
REMARK SMILES IDX 80 58 47 59 31 60 32 61 40 62 33 63 34 64 38 65 41 66 35 67
REMARK SMILES IDX 36 68 39 69 37 70 63 71 64 72 72 73 65 74 66 75 70 76 73 77
REMARK SMILES IDX 67 78 68 79 71 80 69 81 48 82 49 83 57 84 50 85 51 86 55 87
REMARK SMILES IDX 58 88 52 89 53 90 56 91 54 92
REMARK H PARENT 15 6 19 26 78 45 46 56
REMARK Flexibility Score: inf
ROOT
ATOM      1  C   UNL     1      -1.165   0.900  -2.970  1.00  0.00     0.042 C 
ENDROOT
BRANCH   1   2
ATOM      2  C   UNL     1       0.951   0.844  -3.722  1.00  0.00     0.117 C 
BRANCH   2   3
ATOM      3  N   UNL     1       1.378  -0.180  -5.032  1.00  0.00    -0.356 N 
ATOM      4  C   UNL     1       0.830  -0.565  -6.241  1.00  0.00     0.223 C 
ATOM      5  O   UNL     1       1.048  -1.747  -6.544  1.00  0.00    -0.275 OA
ATOM      6  H   UNL     1       2.250  -0.611  -4.881  1.00  0.00     0.163 HD
BRANCH   4   7
ATOM      7  C   UNL     1       0.054   0.358  -7.244  1.00  0.00     0.089 C 
ATOM      8  C   UNL     1      -1.111   1.273  -6.811  1.00  0.00     0.071 C 
ATOM      9  C   UNL     1      -2.470   0.570  -6.619  1.00  0.00     0.012 C 
ATOM     10  C   UNL     1      -2.892  -0.194  -7.850  1.00  0.00     0.001 C 
ATOM     11  C   UNL     1      -0.445  -0.452  -8.474  1.00  0.00     0.014 C 
ATOM     12  C   UNL     1      -1.790  -1.161  -8.257  1.00  0.00     0.001 C 
BRANCH   8  13
ATOM     13  C   UNL     1      -0.791   1.947  -5.566  1.00  0.00     0.141 A 
ATOM     14  C   UNL     1       0.208  -0.264   0.887  1.00  0.00     0.044 C 
ATOM     15  C   UNL     1      -0.047   0.449  -0.421  1.00  0.00    -0.046 A 
ATOM     16  C   UNL     1      -0.079  -0.947  -1.950  1.00  0.00     0.022 A 
ATOM     17  C   UNL     1      -0.110   2.126  -1.230  1.00  0.00     0.053 A 
ATOM     18  C   UNL     1      -0.393  -0.635  -3.662  1.00  0.00     0.095 A 
ATOM     19  C   UNL     1      -0.178   2.490  -3.136  1.00  0.00     0.161 A 
ATOM     20  N   UNL     1      -0.570   1.156  -4.489  1.00  0.00    -0.286 N 
ATOM     21  N   UNL     1      -0.353   3.577  -3.891  1.00  0.00    -0.130 NA
ATOM     22  N   UNL     1      -0.656   3.237  -5.270  1.00  0.00    -0.134 NA
ENDBRANCH   8  13
ENDBRANCH   4   7
ENDBRANCH   2   3
ENDBRANCH   1   2
BRANCH   1  23
ATOM     23  C   UNL     1      -1.135   0.623  -1.739  1.00  0.00     0.118 C 
BRANCH  23  24
ATOM     24  N   UNL     1       1.000   0.705  -1.776  1.00  0.00    -0.352 N 
ATOM     25  C   UNL     1       2.156   1.282  -0.787  1.00  0.00     0.251 C 
ATOM     26  H   UNL     1       1.375   0.293  -2.588  1.00  0.00     0.163 HD
ATOM     27  O   UNL     1       3.294   0.868  -1.044  1.00  0.00    -0.269 OA
BRANCH  25  28
ATOM     28  C   UNL     1       2.006   2.250   0.507  1.00  0.00     0.039 A 
ATOM     29  C   UNL     1       0.828   2.739   1.098  1.00  0.00     0.014 A 
ATOM     30  C   UNL     1       3.147   2.722   1.155  1.00  0.00     0.014 A 
ATOM     31  C   UNL     1       0.763   4.028   1.573  1.00  0.00     0.010 A 
ATOM     32  C   UNL     1       3.074   3.856   1.986  1.00  0.00     0.010 A 
ATOM     33  C   UNL     1       1.932   4.646   1.947  1.00  0.00    -0.014 A 
BRANCH  33  34
ATOM     34  C   UNL     1       1.857   6.061   2.323  1.00  0.00     0.031 A 
ATOM     35  C   UNL     1       0.627   6.429   3.101  1.00  0.00     0.074 A 
ATOM     36  C   UNL     1       2.799   6.958   1.949  1.00  0.00     0.049 A 
ATOM     37  N   UNL     1      -0.325   7.242   2.761  1.00  0.00    -0.248 NA
ATOM     38  C   UNL     1       0.313   5.629   4.299  1.00  0.00     0.031 C 
ATOM     39  C   UNL     1       4.059   6.720   1.241  1.00  0.00     0.029 A 
ATOM     40  N   UNL     1       2.848   8.307   2.187  1.00  0.00    -0.354 N 
ATOM     41  C   UNL     1      -1.256   7.205   3.800  1.00  0.00     0.074 A 
ATOM     42  C   UNL     1      -0.898   6.082   4.623  1.00  0.00     0.031 C 
ATOM     43  C   UNL     1       4.864   7.800   1.354  1.00  0.00     0.029 A 
ATOM     44  C   UNL     1       4.120   8.866   1.990  1.00  0.00     0.049 A 
ATOM     45  H   UNL     1       2.066   8.833   2.470  1.00  0.00     0.167 HD
ATOM     46  C   UNL     1      -2.091   8.255   4.034  1.00  0.00     0.037 A 
ATOM     47  C   UNL     1       4.516  10.112   2.368  1.00  0.00     0.037 A 
ATOM     48  C   UNL     1      -2.282   9.034   2.839  1.00  0.00     0.049 A 
ATOM     49  C   UNL     1       3.282  10.931   2.486  1.00  0.00     0.074 A 
ATOM     50  C   UNL     1      -2.864   8.799   1.609  1.00  0.00     0.029 A 
ATOM     51  N   UNL     1      -1.496  10.145   2.672  1.00  0.00    -0.354 N 
ATOM     52  N   UNL     1       2.542  11.233   1.454  1.00  0.00    -0.248 NA
ATOM     53  C   UNL     1       2.605  10.911   3.776  1.00  0.00     0.031 C 
ATOM     54  C   UNL     1      -2.010   9.451   0.671  1.00  0.00     0.029 A 
ATOM     55  C   UNL     1      -1.025  10.132   1.386  1.00  0.00     0.049 A 
ATOM     56  H   UNL     1      -1.304  10.829   3.354  1.00  0.00     0.167 HD
ATOM     57  C   UNL     1       1.244  11.012   1.884  1.00  0.00     0.074 A 
ATOM     58  C   UNL     1       1.347  10.822   3.333  1.00  0.00     0.031 C 
ATOM     59  C   UNL     1       0.248  10.694   1.009  1.00  0.00     0.037 A 
BRANCH  46  60
ATOM     60  C   UNL     1      -2.349   8.819   5.418  1.00  0.00     0.064 A 
ATOM     61  C   UNL     1      -3.197   9.938   5.559  1.00  0.00     0.173 A 
ATOM     62  C   UNL     1      -1.558   8.519   6.550  1.00  0.00     0.173 A 
ATOM     63  F   UNL     1      -3.990  10.328   4.550  1.00  0.00    -0.203 F 
ATOM     64  C   UNL     1      -3.176  10.745   6.702  1.00  0.00     0.198 A 
ATOM     65  C   UNL     1      -1.572   9.301   7.703  1.00  0.00     0.198 A 
ATOM     66  F   UNL     1      -0.661   7.529   6.560  1.00  0.00    -0.203 F 
ATOM     67  F   UNL     1      -3.903  11.870   6.737  1.00  0.00    -0.200 F 
ATOM     68  C   UNL     1      -2.354  10.432   7.768  1.00  0.00     0.200 A 
ATOM     69  F   UNL     1      -0.752   8.988   8.717  1.00  0.00    -0.200 F 
ATOM     70  F   UNL     1      -2.281  11.237   8.835  1.00  0.00    -0.200 F 
ENDBRANCH  46  60
BRANCH  47  71
ATOM     71  C   UNL     1       5.794  10.494   3.030  1.00  0.00     0.064 A 
ATOM     72  C   UNL     1       6.200  11.836   3.151  1.00  0.00     0.173 A 
ATOM     73  C   UNL     1       6.505   9.562   3.812  1.00  0.00     0.173 A 
ATOM     74  F   UNL     1       5.541  12.802   2.494  1.00  0.00    -0.203 F 
ATOM     75  C   UNL     1       7.247  12.218   4.005  1.00  0.00     0.198 A 
ATOM     76  C   UNL     1       7.546   9.943   4.663  1.00  0.00     0.198 A 
ATOM     77  F   UNL     1       6.140   8.273   3.839  1.00  0.00    -0.203 F 
ATOM     78  F   UNL     1       7.575  13.512   4.130  1.00  0.00    -0.200 F 
ATOM     79  C   UNL     1       7.912  11.271   4.766  1.00  0.00     0.200 A 
ATOM     80  F   UNL     1       8.148   9.022   5.428  1.00  0.00    -0.200 F 
ATOM     81  F   UNL     1       8.873  11.640   5.625  1.00  0.00    -0.200 F 
ENDBRANCH  47  71
BRANCH  59  82
ATOM     82  C   UNL     1       0.549  10.738  -0.464  1.00  0.00     0.064 A 
ATOM     83  C   UNL     1       1.415   9.839  -1.113  1.00  0.00     0.173 A 
ATOM     84  C   UNL     1      -0.221  11.585  -1.268  1.00  0.00     0.173 A 
ATOM     85  F   UNL     1       2.117   8.937  -0.416  1.00  0.00    -0.203 F 
ATOM     86  C   UNL     1       1.513   9.808  -2.506  1.00  0.00     0.198 A 
ATOM     87  C   UNL     1      -0.145  11.530  -2.657  1.00  0.00     0.198 A 
ATOM     88  F   UNL     1      -1.104  12.423  -0.703  1.00  0.00    -0.203 F 
ATOM     89  F   UNL     1       2.341   8.938  -3.104  1.00  0.00    -0.200 F 
ATOM     90  C   UNL     1       0.724  10.647  -3.276  1.00  0.00     0.200 A 
ATOM     91  F   UNL     1      -0.949  12.308  -3.395  1.00  0.00    -0.200 F 
ATOM     92  F   UNL     1       0.779  10.586  -4.614  1.00  0.00    -0.200 F 
ENDBRANCH  59  82
ENDBRANCH  33  34
ENDBRANCH  25  28
ENDBRANCH  23  24
ENDBRANCH   1  23
TORSDOF 11
