REMARK SMILES Cc1cscc1C(=O)Nc1cc(Br)ccc1C(=O)NCCCNC(=O)c1ccc(-c2c3nc(c(-c4c(F)c(F)c(F)c(F)c4F)c4ccc([nH]4)c(-c4c(F)c(F)c(F)c(F)c4F)c4nc(c(-c5c(F)c(F)c(F)c(F)c5F)c5ccc2[nH]5)C=C4)C=C3)cc1
REMARK SMILES IDX 21 1 20 2 19 3 17 4 18 5 16 7 10 8 11 9 12 10 15 11 13 12
REMARK SMILES IDX 14 13 9 14 7 15 8 16 6 18 1 19 2 20 3 21 4 22 5 23 22 24
REMARK SMILES IDX 23 25 24 26 25 28 26 29 27 30 88 31 28 32 87 33 29 34 30 35
REMARK SMILES IDX 31 36 81 37 32 38 86 39 80 40 82 41 33 42 85 43 79 44 78 45
REMARK SMILES IDX 34 47 66 48 46 49 65 50 47 51 50 52 64 53 83 54 48 55 49 56
REMARK SMILES IDX 63 58 84 59 51 60 35 61 36 62 44 63 37 64 38 65 42 66 45 67
REMARK SMILES IDX 39 68 40 69 43 70 41 71 67 72 68 73 76 74 69 75 70 76 74 77
REMARK SMILES IDX 77 78 71 79 72 80 75 81 73 82 52 83 53 84 61 85 54 86 55 87
REMARK SMILES IDX 59 88 62 89 56 90 57 91 60 92 58 93
REMARK H PARENT 19 6 9 17 23 27 82 46 50 57
REMARK Flexibility Score: inf
ROOT
ATOM      1  C   UNL     1       2.135   4.185   2.417  1.00  0.00     0.042 C 
ENDROOT
BRANCH   1   2
ATOM      2  C   UNL     1       2.966   3.460   1.380  1.00  0.00     0.118 C 
BRANCH   2   3
ATOM      3  N   UNL     1       4.287   3.046   1.773  1.00  0.00    -0.352 N 
ATOM      4  C   UNL     1       5.089   2.017   1.353  1.00  0.00     0.253 C 
ATOM      5  O   UNL     1       6.185   1.962   1.923  1.00  0.00    -0.269 OA
ATOM      6  H   UNL     1       4.689   3.607   2.475  1.00  0.00     0.163 HD
BRANCH   4   7
ATOM      7  C   UNL     1       4.780   0.961   0.314  1.00  0.00     0.063 A 
ATOM      8  C   UNL     1       3.817   0.928  -0.721  1.00  0.00     0.055 A 
ATOM      9  C   UNL     1       3.809  -0.118  -1.665  1.00  0.00     0.042 A 
ATOM     10  C   UNL     1       4.681  -1.193  -1.539  1.00  0.00     0.020 A 
ATOM     11  C   UNL     1       5.610  -0.181   0.434  1.00  0.00     0.017 A 
ATOM     12  Br  UNL     1       4.634  -2.593  -2.803  1.00  0.00    -0.051 Br
ATOM     13  C   UNL     1       5.559  -1.248  -0.469  1.00  0.00     0.016 A 
BRANCH   8  14
ATOM     14  N   UNL     1       2.924   1.954  -0.989  1.00  0.00    -0.321 N 
ATOM     15  C   UNL     1       1.544   1.993  -1.032  1.00  0.00     0.256 C 
ATOM     16  O   UNL     1       1.097   3.079  -1.426  1.00  0.00    -0.269 OA
ATOM     17  H   UNL     1       3.355   2.817  -1.185  1.00  0.00     0.170 HD
BRANCH  15  18
ATOM     18  C   UNL     1       0.600   0.953  -0.531  1.00  0.00     0.053 A 
ATOM     19  C   UNL     1       1.878  -1.115   0.615  1.00  0.00     0.046 C 
ATOM     20  C   UNL     1       0.694  -0.354   0.126  1.00  0.00    -0.028 A 
ATOM     21  C   UNL     1      -0.559  -0.931   0.297  1.00  0.00     0.069 A 
ATOM     22  S   UNL     1      -1.843   0.092  -0.111  1.00  0.00    -0.151 S 
ATOM     23  C   UNL     1      -0.754   1.296  -0.604  1.00  0.00     0.079 A 
ENDBRANCH  15  18
ENDBRANCH   8  14
ENDBRANCH   4   7
ENDBRANCH   2   3
ENDBRANCH   1   2
BRANCH   1  24
ATOM     24  C   UNL     1       2.727   5.479   2.938  1.00  0.00     0.118 C 
BRANCH  24  25
ATOM     25  N   UNL     1       2.782   6.555   1.955  1.00  0.00    -0.352 N 
ATOM     26  C   UNL     1       1.967   7.640   1.728  1.00  0.00     0.251 C 
ATOM     27  H   UNL     1       3.546   6.493   1.337  1.00  0.00     0.163 HD
ATOM     28  O   UNL     1       2.184   8.360   0.753  1.00  0.00    -0.269 OA
BRANCH  26  29
ATOM     29  C   UNL     1       0.810   7.937   2.603  1.00  0.00     0.039 A 
ATOM     30  C   UNL     1      -0.367   8.438   2.035  1.00  0.00     0.014 A 
ATOM     31  C   UNL     1       0.868   7.740   3.979  1.00  0.00     0.014 A 
ATOM     32  C   UNL     1      -1.499   8.638   2.833  1.00  0.00     0.010 A 
ATOM     33  C   UNL     1      -0.292   7.788   4.740  1.00  0.00     0.010 A 
ATOM     34  C   UNL     1      -1.488   8.259   4.184  1.00  0.00    -0.014 A 
BRANCH  34  35
ATOM     35  C   UNL     1      -2.695   8.366   5.047  1.00  0.00     0.031 A 
ATOM     36  C   UNL     1      -2.644   9.169   6.321  1.00  0.00     0.074 A 
ATOM     37  C   UNL     1      -3.803   7.662   4.742  1.00  0.00     0.049 A 
ATOM     38  N   UNL     1      -3.546   9.295   7.262  1.00  0.00    -0.248 NA
ATOM     39  C   UNL     1      -1.391   9.890   6.600  1.00  0.00     0.031 C 
ATOM     40  C   UNL     1      -3.955   6.784   3.581  1.00  0.00     0.029 A 
ATOM     41  N   UNL     1      -5.007   7.559   5.395  1.00  0.00    -0.354 N 
ATOM     42  C   UNL     1      -2.955  10.072   8.251  1.00  0.00     0.074 A 
ATOM     43  C   UNL     1      -1.597  10.328   7.831  1.00  0.00     0.031 C 
ATOM     44  C   UNL     1      -5.189   6.256   3.587  1.00  0.00     0.029 A 
ATOM     45  C   UNL     1      -5.899   6.718   4.775  1.00  0.00     0.049 A 
ATOM     46  H   UNL     1      -5.211   8.043   6.228  1.00  0.00     0.167 HD
ATOM     47  C   UNL     1      -3.504  10.555   9.392  1.00  0.00     0.037 A 
ATOM     48  C   UNL     1      -7.144   6.350   5.130  1.00  0.00     0.037 A 
ATOM     49  C   UNL     1      -4.871  10.331   9.781  1.00  0.00     0.049 A 
ATOM     50  C   UNL     1      -7.747   6.921   6.383  1.00  0.00     0.074 A 
ATOM     51  C   UNL     1      -5.556  10.854  10.862  1.00  0.00     0.029 A 
ATOM     52  N   UNL     1      -5.759   9.509   9.102  1.00  0.00    -0.354 N 
ATOM     53  N   UNL     1      -7.212   7.732   7.264  1.00  0.00    -0.248 NA
ATOM     54  C   UNL     1      -9.131   6.535   6.688  1.00  0.00     0.031 C 
ATOM     55  C   UNL     1      -6.839  10.297  10.875  1.00  0.00     0.029 A 
ATOM     56  C   UNL     1      -6.977   9.481   9.763  1.00  0.00     0.049 A 
ATOM     57  H   UNL     1      -5.554   9.018   8.274  1.00  0.00     0.167 HD
ATOM     58  C   UNL     1      -8.196   7.971   8.213  1.00  0.00     0.074 A 
ATOM     59  C   UNL     1      -9.368   7.232   7.791  1.00  0.00     0.031 C 
ATOM     60  C   UNL     1      -8.134   8.735   9.333  1.00  0.00     0.037 A 
BRANCH  47  61
ATOM     61  C   UNL     1      -2.619  11.364  10.300  1.00  0.00     0.064 A 
ATOM     62  C   UNL     1      -2.104  12.615   9.919  1.00  0.00     0.173 A 
ATOM     63  C   UNL     1      -2.281  10.883  11.574  1.00  0.00     0.173 A 
ATOM     64  F   UNL     1      -2.385  13.121   8.709  1.00  0.00    -0.203 F 
ATOM     65  C   UNL     1      -1.246  13.325  10.755  1.00  0.00     0.198 A 
ATOM     66  C   UNL     1      -1.456  11.615  12.424  1.00  0.00     0.198 A 
ATOM     67  F   UNL     1      -2.749   9.699  11.996  1.00  0.00    -0.203 F 
ATOM     68  F   UNL     1      -0.708  14.479  10.337  1.00  0.00    -0.200 F 
ATOM     69  C   UNL     1      -0.928  12.827  12.009  1.00  0.00     0.200 A 
ATOM     70  F   UNL     1      -1.163  11.140  13.643  1.00  0.00    -0.200 F 
ATOM     71  F   UNL     1      -0.102  13.511  12.813  1.00  0.00    -0.200 F 
ENDBRANCH  47  61
BRANCH  48  72
ATOM     72  C   UNL     1      -7.905   5.410   4.264  1.00  0.00     0.064 A 
ATOM     73  C   UNL     1      -9.002   5.849   3.510  1.00  0.00     0.173 A 
ATOM     74  C   UNL     1      -7.530   4.064   4.146  1.00  0.00     0.173 A 
ATOM     75  F   UNL     1      -9.411   7.123   3.603  1.00  0.00    -0.203 F 
ATOM     76  C   UNL     1      -9.701   4.976   2.679  1.00  0.00     0.198 A 
ATOM     77  C   UNL     1      -8.211   3.198   3.293  1.00  0.00     0.198 A 
ATOM     78  F   UNL     1      -6.483   3.595   4.841  1.00  0.00    -0.203 F 
ATOM     79  F   UNL     1     -10.768   5.413   1.997  1.00  0.00    -0.200 F 
ATOM     80  C   UNL     1      -9.299   3.653   2.564  1.00  0.00     0.200 A 
ATOM     81  F   UNL     1      -7.809   1.926   3.172  1.00  0.00    -0.200 F 
ATOM     82  F   UNL     1      -9.963   2.817   1.754  1.00  0.00    -0.200 F 
ENDBRANCH  48  72
BRANCH  60  83
ATOM     83  C   UNL     1      -9.377   8.833  10.170  1.00  0.00     0.064 A 
ATOM     84  C   UNL     1      -9.849   7.747  10.922  1.00  0.00     0.173 A 
ATOM     85  C   UNL     1     -10.078  10.046  10.257  1.00  0.00     0.173 A 
ATOM     86  F   UNL     1      -9.223   6.562  10.864  1.00  0.00    -0.203 F 
ATOM     87  C   UNL     1     -10.993   7.864  11.707  1.00  0.00     0.198 A 
ATOM     88  C   UNL     1     -11.201  10.169  11.071  1.00  0.00     0.198 A 
ATOM     89  F   UNL     1      -9.664  11.118   9.566  1.00  0.00    -0.203 F 
ATOM     90  F   UNL     1     -11.456   6.799  12.377  1.00  0.00    -0.200 F 
ATOM     91  C   UNL     1     -11.662   9.076  11.788  1.00  0.00     0.200 A 
ATOM     92  F   UNL     1     -11.835  11.346  11.161  1.00  0.00    -0.200 F 
ATOM     93  F   UNL     1     -12.757   9.190  12.553  1.00  0.00    -0.200 F 
ENDBRANCH  60  83
ENDBRANCH  34  35
ENDBRANCH  26  29
ENDBRANCH  24  25
ENDBRANCH   1  24
TORSDOF 12
