REMARK SMILES Cc1cccc(C(=O)NCCCNC(=O)c2ccc(-c3c4nc(c(-c5c(F)c(F)c(F)c(F)c5F)c5ccc([nH]5)c(-c5c(F)c(F)c(F)c(F)c5F)c5nc(c(-c6c(F)c(F)c(F)c(F)c6F)c6ccc3[nH]6)C=C5)C=C4)cc2)c1OC[C@@H]1C[C@H]2CC[C@@H]1C2
REMARK SMILES IDX 10 1 9 2 7 3 8 4 6 6 1 7 2 8 3 9 79 10 4 11 5 12 80 13 81 14
REMARK SMILES IDX 82 15 83 16 87 17 84 18 86 19 88 20 85 21 11 22 12 23 13 24
REMARK SMILES IDX 14 25 15 27 16 28 17 29 78 30 18 31 77 32 19 33 20 34 21 35
REMARK SMILES IDX 71 36 22 37 76 38 70 39 72 40 23 41 75 42 69 43 68 44 24 46
REMARK SMILES IDX 56 47 36 48 55 49 37 50 40 51 54 52 73 53 38 54 39 55 53 57
REMARK SMILES IDX 74 58 41 59 25 60 26 61 34 62 27 63 28 64 32 65 35 66 29 67
REMARK SMILES IDX 30 68 33 69 31 70 57 71 58 72 66 73 59 74 60 75 64 76 67 77
REMARK SMILES IDX 61 78 62 79 65 80 63 81 42 82 43 83 51 84 44 85 45 86 49 87
REMARK SMILES IDX 52 88 46 89 47 90 50 91 48 92
REMARK H PARENT 9 5 13 26 72 45 40 56
REMARK Flexibility Score: inf
ROOT
ATOM      1  C   UNL     1       0.279   3.971   0.719  1.00  0.00     0.118 C 
ENDROOT
BRANCH   1   2
ATOM      2  N   UNL     1      -1.062   3.487   0.495  1.00  0.00    -0.352 N 
ATOM      3  C   UNL     1      -1.557   2.264   0.140  1.00  0.00     0.255 C 
ATOM      4  O   UNL     1      -2.760   2.267  -0.156  1.00  0.00    -0.269 OA
ATOM      5  H   UNL     1      -1.756   4.173   0.624  1.00  0.00     0.163 HD
BRANCH   3   6
ATOM      6  C   UNL     1      -0.839   0.944   0.132  1.00  0.00     0.082 A 
ATOM      7  C   UNL     1       1.908  -1.204  -1.469  1.00  0.00     0.048 C 
ATOM      8  C   UNL     1       0.768  -0.734  -0.605  1.00  0.00    -0.008 A 
ATOM      9  C   UNL     1      -0.124  -1.751  -0.212  1.00  0.00     0.007 A 
ATOM     10  C   UNL     1       0.466   0.620  -0.320  1.00  0.00     0.134 A 
ATOM     11  C   UNL     1      -1.351  -1.446   0.349  1.00  0.00     0.001 A 
ATOM     12  C   UNL     1      -1.714  -0.113   0.480  1.00  0.00     0.018 A 
BRANCH  10  13
ATOM     13  O   UNL     1       1.354   1.623  -0.577  1.00  0.00    -0.492 OA
BRANCH  13  14
ATOM     14  C   UNL     1       2.722   1.530  -0.113  1.00  0.00     0.233 C 
BRANCH  14  15
ATOM     15  C   UNL     1       2.943   1.124   1.357  1.00  0.00     0.030 C 
ATOM     16  C   UNL     1       3.816   2.147   2.146  1.00  0.00     0.011 C 
ATOM     17  C   UNL     1       3.830  -0.147   1.445  1.00  0.00    -0.004 C 
ATOM     18  C   UNL     1       5.033   1.318   2.600  1.00  0.00    -0.010 C 
ATOM     19  C   UNL     1       3.765  -0.704   2.874  1.00  0.00     0.004 C 
ATOM     20  C   UNL     1       5.253   0.416   1.393  1.00  0.00     0.007 C 
ATOM     21  C   UNL     1       4.590   0.311   3.674  1.00  0.00     0.004 C 
ENDBRANCH  14  15
ENDBRANCH  13  14
ENDBRANCH  10  13
ENDBRANCH   3   6
ENDBRANCH   1   2
BRANCH   1  22
ATOM     22  C   UNL     1       0.890   4.381  -0.615  1.00  0.00     0.042 C 
BRANCH  22  23
ATOM     23  C   UNL     1       0.993   5.875  -0.828  1.00  0.00     0.118 C 
BRANCH  23  24
ATOM     24  N   UNL     1       2.340   6.377  -0.538  1.00  0.00    -0.352 N 
ATOM     25  C   UNL     1       2.921   7.581  -0.903  1.00  0.00     0.251 C 
ATOM     26  H   UNL     1       2.912   5.774  -0.009  1.00  0.00     0.163 HD
ATOM     27  O   UNL     1       4.050   7.876  -0.567  1.00  0.00    -0.269 OA
BRANCH  25  28
ATOM     28  C   UNL     1       2.055   8.552  -1.602  1.00  0.00     0.039 A 
ATOM     29  C   UNL     1       1.662   9.673  -0.868  1.00  0.00     0.014 A 
ATOM     30  C   UNL     1       1.350   8.130  -2.724  1.00  0.00     0.014 A 
ATOM     31  C   UNL     1       0.397  10.200  -1.088  1.00  0.00     0.010 A 
ATOM     32  C   UNL     1       0.049   8.570  -2.857  1.00  0.00     0.010 A 
ATOM     33  C   UNL     1      -0.449   9.550  -1.985  1.00  0.00    -0.014 A 
BRANCH  33  34
ATOM     34  C   UNL     1      -1.892   9.762  -2.000  1.00  0.00     0.031 A 
ATOM     35  C   UNL     1      -2.507  10.482  -3.132  1.00  0.00     0.074 A 
ATOM     36  C   UNL     1      -2.665   9.258  -1.010  1.00  0.00     0.049 A 
ATOM     37  N   UNL     1      -3.657  11.064  -3.092  1.00  0.00    -0.248 NA
ATOM     38  C   UNL     1      -1.821  10.656  -4.406  1.00  0.00     0.031 C 
ATOM     39  C   UNL     1      -4.122   9.143  -0.996  1.00  0.00     0.029 A 
ATOM     40  N   UNL     1      -2.279   8.929   0.303  1.00  0.00    -0.354 N 
ATOM     41  C   UNL     1      -3.975  11.462  -4.370  1.00  0.00     0.074 A 
ATOM     42  C   UNL     1      -2.777  11.229  -5.141  1.00  0.00     0.031 C 
ATOM     43  C   UNL     1      -4.540   9.078   0.278  1.00  0.00     0.029 A 
ATOM     44  C   UNL     1      -3.377   9.297   1.119  1.00  0.00     0.049 A 
ATOM     45  H   UNL     1      -1.427   8.528   0.593  1.00  0.00     0.167 HD
ATOM     46  C   UNL     1      -5.258  11.832  -4.649  1.00  0.00     0.037 A 
ATOM     47  C   UNL     1      -3.276  10.265   2.075  1.00  0.00     0.037 A 
ATOM     48  C   UNL     1      -6.068  11.868  -3.434  1.00  0.00     0.049 A 
ATOM     49  C   UNL     1      -4.259  11.400   1.903  1.00  0.00     0.074 A 
ATOM     50  C   UNL     1      -6.937  10.956  -2.857  1.00  0.00     0.029 A 
ATOM     51  N   UNL     1      -5.798  12.824  -2.462  1.00  0.00    -0.354 N 
ATOM     52  N   UNL     1      -4.844  11.686   0.774  1.00  0.00    -0.248 NA
ATOM     53  C   UNL     1      -4.620  12.327   2.972  1.00  0.00     0.031 C 
ATOM     54  C   UNL     1      -7.153  11.344  -1.512  1.00  0.00     0.029 A 
ATOM     55  C   UNL     1      -6.434  12.503  -1.279  1.00  0.00     0.049 A 
ATOM     56  H   UNL     1      -5.233  13.618  -2.598  1.00  0.00     0.167 HD
ATOM     57  C   UNL     1      -5.617  12.806   0.933  1.00  0.00     0.074 A 
ATOM     58  C   UNL     1      -5.459  13.159   2.331  1.00  0.00     0.031 C 
ATOM     59  C   UNL     1      -6.308  13.356  -0.108  1.00  0.00     0.037 A 
BRANCH  46  60
ATOM     60  C   UNL     1      -5.841  11.869  -6.047  1.00  0.00     0.064 A 
ATOM     61  C   UNL     1      -7.209  11.588  -6.265  1.00  0.00     0.173 A 
ATOM     62  C   UNL     1      -5.100  12.095  -7.220  1.00  0.00     0.173 A 
ATOM     63  F   UNL     1      -8.072  11.473  -5.247  1.00  0.00    -0.203 F 
ATOM     64  C   UNL     1      -7.747  11.412  -7.543  1.00  0.00     0.198 A 
ATOM     65  C   UNL     1      -5.620  11.859  -8.498  1.00  0.00     0.198 A 
ATOM     66  F   UNL     1      -3.869  12.617  -7.177  1.00  0.00    -0.203 F 
ATOM     67  F   UNL     1      -9.051  11.137  -7.683  1.00  0.00    -0.200 F 
ATOM     68  C   UNL     1      -6.942  11.503  -8.658  1.00  0.00     0.200 A 
ATOM     69  F   UNL     1      -4.827  11.985  -9.571  1.00  0.00    -0.200 F 
ATOM     70  F   UNL     1      -7.444  11.282  -9.881  1.00  0.00    -0.200 F 
ENDBRANCH  46  60
BRANCH  47  71
ATOM     71  C   UNL     1      -1.905  10.412   2.629  1.00  0.00     0.064 A 
ATOM     72  C   UNL     1      -1.322   9.308   3.283  1.00  0.00     0.173 A 
ATOM     73  C   UNL     1      -1.054  11.442   2.214  1.00  0.00     0.173 A 
ATOM     74  F   UNL     1      -2.095   8.293   3.702  1.00  0.00    -0.203 F 
ATOM     75  C   UNL     1       0.060   9.182   3.399  1.00  0.00     0.198 A 
ATOM     76  C   UNL     1       0.331  11.320   2.350  1.00  0.00     0.198 A 
ATOM     77  F   UNL     1      -1.544  12.511   1.572  1.00  0.00    -0.203 F 
ATOM     78  F   UNL     1       0.588   8.062   3.914  1.00  0.00    -0.200 F 
ATOM     79  C   UNL     1       0.886  10.177   2.907  1.00  0.00     0.200 A 
ATOM     80  F   UNL     1       1.135  12.266   1.843  1.00  0.00    -0.200 F 
ATOM     81  F   UNL     1       2.217  10.014   2.925  1.00  0.00    -0.200 F 
ENDBRANCH  47  71
BRANCH  59  82
ATOM     82  C   UNL     1      -6.997  14.698  -0.114  1.00  0.00     0.064 A 
ATOM     83  C   UNL     1      -6.576  15.798   0.652  1.00  0.00     0.173 A 
ATOM     84  C   UNL     1      -8.035  14.963  -1.041  1.00  0.00     0.173 A 
ATOM     85  F   UNL     1      -5.529  15.709   1.483  1.00  0.00    -0.203 F 
ATOM     86  C   UNL     1      -7.184  17.052   0.539  1.00  0.00     0.198 A 
ATOM     87  C   UNL     1      -8.600  16.228  -1.191  1.00  0.00     0.198 A 
ATOM     88  F   UNL     1      -8.514  14.005  -1.849  1.00  0.00    -0.203 F 
ATOM     89  F   UNL     1      -6.771  18.061   1.319  1.00  0.00    -0.200 F 
ATOM     90  C   UNL     1      -8.184  17.270  -0.390  1.00  0.00     0.200 A 
ATOM     91  F   UNL     1      -9.532  16.434  -2.132  1.00  0.00    -0.200 F 
ATOM     92  F   UNL     1      -8.729  18.486  -0.528  1.00  0.00    -0.200 F 
ENDBRANCH  59  82
ENDBRANCH  33  34
ENDBRANCH  25  28
ENDBRANCH  23  24
ENDBRANCH  22  23
ENDBRANCH   1  22
TORSDOF 13
