REMARK SMILES COc1cc([C@H]2[NH2+]CCC3=c4ccccc4=N[C@H]32)ccc1OCC(=O)NCCCNC(=O)c1ccc(-c2c3nc(c(-c4c(F)c(F)c(F)c(F)c4F)c4ccc([nH]4)c(-c4c(F)c(F)c(F)c(F)c4F)c4nc(c(-c5c(F)c(F)c(F)c(F)c5F)c5ccc2[nH]5)C=C4)C=C3)cc1
REMARK SMILES IDX 27 1 26 2 24 3 25 4 23 6 22 7 21 8 3 9 4 10 5 11 20 12 19 13
REMARK SMILES IDX 2 14 1 15 6 16 7 17 18 18 8 19 10 22 17 23 9 24 11 25 16 26
REMARK SMILES IDX 12 27 15 28 13 29 14 30 28 31 29 32 30 33 31 34 32 36 33 37
REMARK SMILES IDX 34 38 95 39 35 40 94 41 36 42 37 43 38 44 88 45 39 46 93 47
REMARK SMILES IDX 87 48 89 49 40 50 92 51 86 52 85 53 41 55 73 56 53 57 72 58
REMARK SMILES IDX 54 59 57 60 71 61 90 62 55 63 56 64 70 66 91 67 58 68 42 69
REMARK SMILES IDX 43 70 51 71 44 72 45 73 49 74 52 75 46 76 47 77 50 78 48 79
REMARK SMILES IDX 74 80 75 81 83 82 76 83 77 84 81 85 84 86 78 87 79 88 82 89
REMARK SMILES IDX 80 90 59 91 60 92 68 93 61 94 62 95 66 96 69 97 63 98 64 99
REMARK SMILES IDX 67 100 65 101
REMARK H PARENT 26 5 7 20 7 21 30 35 89 54 57 65
REMARK Flexibility Score: inf
ROOT
ATOM      1  C   UNL     1       1.635 -12.845   2.633  1.00  0.00     0.117 C 
ENDROOT
BRANCH   1   2
ATOM      2  N   UNL     1       2.067 -12.523   1.288  1.00  0.00    -0.353 N 
ATOM      3  C   UNL     1       3.107 -11.748   0.869  1.00  0.00     0.257 C 
ATOM      4  O   UNL     1       3.415 -11.821  -0.324  1.00  0.00    -0.271 OA
ATOM      5  H   UNL     1       1.527 -12.923   0.568  1.00  0.00     0.163 HD
BRANCH   3   6
ATOM      6  C   UNL     1       3.908 -10.889   1.856  1.00  0.00     0.329 C 
BRANCH   6   7
ATOM      7  O   UNL     1       3.208 -10.160   2.838  1.00  0.00    -0.480 OA
BRANCH   7   8
ATOM      8  C   UNL     1       2.360  -9.154   2.489  1.00  0.00     0.161 A 
ATOM      9  C   UNL     1       2.421  -8.250   1.428  1.00  0.00     0.161 A 
ATOM     10  C   UNL     1       1.499  -7.175   1.354  1.00  0.00     0.060 A 
ATOM     11  C   UNL     1       0.470  -7.009   2.310  1.00  0.00     0.016 A 
ATOM     12  C   UNL     1       1.333  -9.007   3.412  1.00  0.00     0.051 A 
ATOM     13  C   UNL     1       0.382  -7.998   3.287  1.00  0.00     0.014 A 
BRANCH   9  14
ATOM     14  O   UNL     1       3.468  -8.268   0.548  1.00  0.00    -0.493 OA
ATOM     15  C   UNL     1       3.098  -8.824  -0.715  1.00  0.00     0.278 C 
ENDBRANCH   9  14
BRANCH  11  16
ATOM     16  C   UNL     1      -0.429  -5.752   2.301  1.00  0.00     0.243 C 
ATOM     17  N   UNL     1      -1.315  -5.734   1.099  1.00  0.00    -0.338 N 
ATOM     18  C   UNL     1      -1.278  -5.344   3.584  1.00  0.00     0.196 C 
ATOM     19  C   UNL     1      -2.500  -6.594   1.248  1.00  0.00     0.265 C 
ATOM     20  H   UNL     1      -0.778  -6.056   0.294  1.00  0.00     0.346 HD
ATOM     21  H   UNL     1      -1.645  -4.777   0.977  1.00  0.00     0.346 HD
ATOM     22  C   UNL     1      -2.527  -6.175   3.684  1.00  0.00    -0.025 C 
ATOM     23  N   UNL     1      -0.569  -5.544   4.883  1.00  0.00    -0.270 NA
ATOM     24  C   UNL     1      -3.375  -6.244   2.464  1.00  0.00     0.095 C 
ATOM     25  C   UNL     1      -2.557  -6.861   4.821  1.00  0.00     0.001 A 
ATOM     26  C   UNL     1      -1.326  -6.406   5.499  1.00  0.00     0.066 A 
ATOM     27  C   UNL     1      -3.339  -7.947   5.314  1.00  0.00     0.010 A 
ATOM     28  C   UNL     1      -0.990  -7.095   6.766  1.00  0.00     0.028 A 
ATOM     29  C   UNL     1      -2.918  -8.585   6.418  1.00  0.00     0.001 A 
ATOM     30  C   UNL     1      -1.737  -8.146   7.147  1.00  0.00     0.002 A 
ENDBRANCH  11  16
ENDBRANCH   7   8
ENDBRANCH   6   7
ENDBRANCH   3   6
ENDBRANCH   1   2
BRANCH   1  31
ATOM     31  C   UNL     1       0.187 -12.456   2.908  1.00  0.00     0.042 C 
BRANCH  31  32
ATOM     32  C   UNL     1      -0.826 -12.951   1.883  1.00  0.00     0.118 C 
BRANCH  32  33
ATOM     33  N   UNL     1      -0.835 -14.399   1.731  1.00  0.00    -0.352 N 
ATOM     34  C   UNL     1      -1.824 -15.314   1.988  1.00  0.00     0.251 C 
ATOM     35  H   UNL     1       0.005 -14.783   1.390  1.00  0.00     0.163 HD
ATOM     36  O   UNL     1      -1.572 -16.517   1.940  1.00  0.00    -0.269 OA
BRANCH  34  37
ATOM     37  C   UNL     1      -3.184 -14.867   2.351  1.00  0.00     0.039 A 
ATOM     38  C   UNL     1      -3.851 -15.510   3.398  1.00  0.00     0.014 A 
ATOM     39  C   UNL     1      -3.809 -13.829   1.658  1.00  0.00     0.014 A 
ATOM     40  C   UNL     1      -5.111 -15.060   3.800  1.00  0.00     0.010 A 
ATOM     41  C   UNL     1      -5.023 -13.325   2.115  1.00  0.00     0.010 A 
ATOM     42  C   UNL     1      -5.689 -13.936   3.189  1.00  0.00    -0.014 A 
BRANCH  42  43
ATOM     43  C   UNL     1      -6.993 -13.386   3.641  1.00  0.00     0.031 A 
ATOM     44  C   UNL     1      -8.161 -13.353   2.693  1.00  0.00     0.074 A 
ATOM     45  C   UNL     1      -7.105 -12.846   4.870  1.00  0.00     0.049 A 
ATOM     46  N   UNL     1      -9.341 -12.809   2.848  1.00  0.00    -0.248 NA
ATOM     47  C   UNL     1      -7.963 -13.992   1.382  1.00  0.00     0.031 C 
ATOM     48  C   UNL     1      -6.038 -12.787   5.870  1.00  0.00     0.029 A 
ATOM     49  N   UNL     1      -8.167 -12.228   5.483  1.00  0.00    -0.354 N 
ATOM     50  C   UNL     1     -10.015 -13.023   1.653  1.00  0.00     0.074 A 
ATOM     51  C   UNL     1      -9.094 -13.693   0.761  1.00  0.00     0.031 C 
ATOM     52  C   UNL     1      -6.505 -12.188   6.977  1.00  0.00     0.029 A 
ATOM     53  C   UNL     1      -7.886 -11.775   6.750  1.00  0.00     0.049 A 
ATOM     54  H   UNL     1      -9.047 -12.120   5.056  1.00  0.00     0.167 HD
ATOM     55  C   UNL     1     -11.295 -12.711   1.336  1.00  0.00     0.037 A 
ATOM     56  C   UNL     1      -8.652 -11.091   7.622  1.00  0.00     0.037 A 
ATOM     57  C   UNL     1     -12.215 -12.066   2.235  1.00  0.00     0.049 A 
ATOM     58  C   UNL     1     -10.064 -10.734   7.234  1.00  0.00     0.074 A 
ATOM     59  C   UNL     1     -13.545 -11.749   2.027  1.00  0.00     0.029 A 
ATOM     60  N   UNL     1     -11.897 -11.638   3.516  1.00  0.00    -0.354 N 
ATOM     61  N   UNL     1     -10.708 -10.991   6.122  1.00  0.00    -0.248 NA
ATOM     62  C   UNL     1     -10.857  -9.996   8.227  1.00  0.00     0.031 C 
ATOM     63  C   UNL     1     -14.017 -11.079   3.160  1.00  0.00     0.029 A 
ATOM     64  C   UNL     1     -13.001 -11.038   4.101  1.00  0.00     0.049 A 
ATOM     65  H   UNL     1     -11.018 -11.744   3.946  1.00  0.00     0.167 HD
ATOM     66  C   UNL     1     -11.989 -10.484   6.296  1.00  0.00     0.074 A 
ATOM     67  C   UNL     1     -12.034  -9.913   7.626  1.00  0.00     0.031 C 
ATOM     68  C   UNL     1     -13.036 -10.492   5.434  1.00  0.00     0.037 A 
BRANCH  55  69
ATOM     69  C   UNL     1     -11.777 -13.064  -0.043  1.00  0.00     0.064 A 
ATOM     70  C   UNL     1     -11.954 -14.398  -0.444  1.00  0.00     0.173 A 
ATOM     71  C   UNL     1     -12.103 -12.056  -0.963  1.00  0.00     0.173 A 
ATOM     72  F   UNL     1     -11.646 -15.401   0.392  1.00  0.00    -0.203 F 
ATOM     73  C   UNL     1     -12.407 -14.708  -1.724  1.00  0.00     0.198 A 
ATOM     74  C   UNL     1     -12.591 -12.370  -2.229  1.00  0.00     0.198 A 
ATOM     75  F   UNL     1     -11.959 -10.764  -0.631  1.00  0.00    -0.203 F 
ATOM     76  F   UNL     1     -12.514 -15.989  -2.102  1.00  0.00    -0.200 F 
ATOM     77  C   UNL     1     -12.733 -13.695  -2.612  1.00  0.00     0.200 A 
ATOM     78  F   UNL     1     -12.920 -11.388  -3.080  1.00  0.00    -0.200 F 
ATOM     79  F   UNL     1     -13.179 -13.995  -3.839  1.00  0.00    -0.200 F 
ENDBRANCH  55  69
BRANCH  56  80
ATOM     80  C   UNL     1      -8.110 -10.709   8.954  1.00  0.00     0.064 A 
ATOM     81  C   UNL     1      -8.629 -11.270  10.130  1.00  0.00     0.173 A 
ATOM     82  C   UNL     1      -7.081  -9.764   9.083  1.00  0.00     0.173 A 
ATOM     83  F   UNL     1      -9.624 -12.166  10.061  1.00  0.00    -0.203 F 
ATOM     84  C   UNL     1      -8.162 -10.878  11.383  1.00  0.00     0.198 A 
ATOM     85  C   UNL     1      -6.592  -9.398  10.335  1.00  0.00     0.198 A 
ATOM     86  F   UNL     1      -6.538  -9.207   7.990  1.00  0.00    -0.203 F 
ATOM     87  F   UNL     1      -8.716 -11.389  12.491  1.00  0.00    -0.200 F 
ATOM     88  C   UNL     1      -7.141  -9.945  11.485  1.00  0.00     0.200 A 
ATOM     89  F   UNL     1      -5.590  -8.514  10.427  1.00  0.00    -0.200 F 
ATOM     90  F   UNL     1      -6.691  -9.570  12.690  1.00  0.00    -0.200 F 
ENDBRANCH  56  80
BRANCH  68  91
ATOM     91  C   UNL     1     -14.338  -9.920   5.917  1.00  0.00     0.064 A 
ATOM     92  C   UNL     1     -14.514  -8.543   6.120  1.00  0.00     0.173 A 
ATOM     93  C   UNL     1     -15.441 -10.761   6.131  1.00  0.00     0.173 A 
ATOM     94  F   UNL     1     -13.488  -7.698   5.943  1.00  0.00    -0.203 F 
ATOM     95  C   UNL     1     -15.738  -8.034   6.546  1.00  0.00     0.198 A 
ATOM     96  C   UNL     1     -16.673 -10.245   6.523  1.00  0.00     0.198 A 
ATOM     97  F   UNL     1     -15.329 -12.085   5.944  1.00  0.00    -0.203 F 
ATOM     98  F   UNL     1     -15.869  -6.721   6.783  1.00  0.00    -0.200 F 
ATOM     99  C   UNL     1     -16.818  -8.883   6.738  1.00  0.00     0.200 A 
ATOM    100  F   UNL     1     -17.720 -11.065   6.689  1.00  0.00    -0.200 F 
ATOM    101  F   UNL     1     -17.999  -8.389   7.136  1.00  0.00    -0.200 F 
ENDBRANCH  68  91
ENDBRANCH  42  43
ENDBRANCH  34  37
ENDBRANCH  32  33
ENDBRANCH  31  32
ENDBRANCH   1  31
TORSDOF 14
