REMARK SMILES COc1cc(/C=C2/SC(=S)N(c3ccc(C)cc3C)C2=O)ccc1O[C@@H](C)C(=O)NCCCNC(=O)c1ccc(-c2c3nc(c(-c4c(F)c(F)c(F)c(F)c4F)c4ccc([nH]4)c(-c4c(F)c(F)c(F)c(F)c4F)c4nc(c(-c5c(F)c(F)c(F)c(F)c5F)c5ccc2[nH]5)C=C4)C=C3)cc1
REMARK SMILES IDX 31 1 30 2 28 3 29 4 26 6 27 7 25 8 24 9 3 10 4 11 5 12 23 13
REMARK SMILES IDX 22 14 2 15 1 16 6 17 7 18 8 19 20 20 9 21 11 22 21 23 10 24
REMARK SMILES IDX 12 25 13 26 18 27 14 28 17 29 19 30 15 31 16 32 32 33 33 34
REMARK SMILES IDX 34 35 35 36 36 38 37 39 38 40 99 41 39 42 98 43 40 44 41 45
REMARK SMILES IDX 42 46 92 47 43 48 97 49 91 50 93 51 44 52 96 53 90 54 89 55
REMARK SMILES IDX 45 57 77 58 57 59 76 60 58 61 61 62 75 63 94 64 59 65 60 66
REMARK SMILES IDX 74 68 95 69 62 70 46 71 47 72 55 73 48 74 49 75 53 76 56 77
REMARK SMILES IDX 50 78 51 79 54 80 52 81 78 82 79 83 87 84 80 85 81 86 85 87
REMARK SMILES IDX 88 88 82 89 83 90 86 91 84 92 63 93 64 94 72 95 65 96 66 97
REMARK SMILES IDX 70 98 73 99 67 100 68 101 71 102 69 103
REMARK H PARENT 30 5 34 37 93 56 61 67
REMARK Flexibility Score: inf
ROOT
ATOM      1  C   UNL     1       0.534   0.482   2.345  1.00  0.00     0.118 C 
ENDROOT
BRANCH   1   2
ATOM      2  N   UNL     1       1.722   1.105   1.805  1.00  0.00    -0.353 N 
ATOM      3  C   UNL     1       2.651   0.825   0.869  1.00  0.00     0.260 C 
ATOM      4  O   UNL     1       3.376   1.811   0.625  1.00  0.00    -0.271 OA
ATOM      5  H   UNL     1       1.902   1.969   2.241  1.00  0.00     0.163 HD
BRANCH   3   6
ATOM      6  C   UNL     1       2.917  -0.497   0.024  1.00  0.00     0.259 C 
ATOM      7  C   UNL     1       2.589  -0.220  -1.453  1.00  0.00     0.064 C 
BRANCH   6   8
ATOM      8  O   UNL     1       2.920  -1.900   0.143  1.00  0.00    -0.477 OA
BRANCH   8   9
ATOM      9  C   UNL     1       2.082  -2.518   0.999  1.00  0.00     0.162 A 
ATOM     10  C   UNL     1       0.697  -2.596   0.847  1.00  0.00     0.161 A 
ATOM     11  C   UNL     1      -0.071  -3.204   1.856  1.00  0.00     0.058 A 
ATOM     12  C   UNL     1       0.572  -3.807   2.953  1.00  0.00    -0.020 A 
ATOM     13  C   UNL     1       2.711  -3.297   1.962  1.00  0.00     0.051 A 
ATOM     14  C   UNL     1       1.958  -3.987   2.897  1.00  0.00     0.012 A 
BRANCH  10  15
ATOM     15  O   UNL     1       0.163  -2.294  -0.379  1.00  0.00    -0.493 OA
ATOM     16  C   UNL     1      -0.729  -1.190  -0.432  1.00  0.00     0.278 C 
ENDBRANCH  10  15
BRANCH  12  17
ATOM     17  C   UNL     1      -0.134  -4.251   4.168  1.00  0.00     0.029 C 
ATOM     18  C   UNL     1       0.299  -4.016   5.426  1.00  0.00     0.081 C 
ATOM     19  S   UNL     1      -0.422  -4.738   6.817  1.00  0.00    -0.054 SA
ATOM     20  C   UNL     1       1.478  -3.192   5.870  1.00  0.00     0.270 C 
ATOM     21  C   UNL     1       0.842  -4.160   7.910  1.00  0.00     0.152 C 
ATOM     22  N   UNL     1       1.783  -3.443   7.197  1.00  0.00    -0.261 N 
ATOM     23  O   UNL     1       2.057  -2.388   5.156  1.00  0.00    -0.268 OA
ATOM     24  S   UNL     1       0.775  -4.404   9.560  1.00  0.00    -0.051 S 
BRANCH  22  25
ATOM     25  C   UNL     1       2.932  -2.839   7.798  1.00  0.00     0.054 A 
ATOM     26  C   UNL     1       3.091  -1.446   7.699  1.00  0.00     0.027 A 
ATOM     27  C   UNL     1       3.891  -3.587   8.513  1.00  0.00    -0.027 A 
ATOM     28  C   UNL     1       4.125  -0.791   8.370  1.00  0.00     0.005 A 
ATOM     29  C   UNL     1       4.908  -2.906   9.207  1.00  0.00     0.009 A 
ATOM     30  C   UNL     1       3.931  -5.093   8.557  1.00  0.00     0.046 C 
ATOM     31  C   UNL     1       5.021  -1.514   9.157  1.00  0.00    -0.051 A 
ATOM     32  C   UNL     1       6.104  -0.803   9.912  1.00  0.00     0.044 C 
ENDBRANCH  22  25
ENDBRANCH  12  17
ENDBRANCH   8   9
ENDBRANCH   6   8
ENDBRANCH   3   6
ENDBRANCH   1   2
BRANCH   1  33
ATOM     33  C   UNL     1       0.743  -0.144   3.711  1.00  0.00     0.042 C 
BRANCH  33  34
ATOM     34  C   UNL     1      -0.211   0.302   4.818  1.00  0.00     0.118 C 
BRANCH  34  35
ATOM     35  N   UNL     1      -1.623   0.116   4.510  1.00  0.00    -0.352 N 
ATOM     36  C   UNL     1      -2.685  -0.449   5.175  1.00  0.00     0.251 C 
ATOM     37  H   UNL     1      -1.873   0.476   3.628  1.00  0.00     0.163 HD
ATOM     38  O   UNL     1      -3.764  -0.466   4.579  1.00  0.00    -0.269 OA
BRANCH  36  39
ATOM     39  C   UNL     1      -2.618  -1.050   6.539  1.00  0.00     0.039 A 
ATOM     40  C   UNL     1      -3.643  -1.936   6.918  1.00  0.00     0.014 A 
ATOM     41  C   UNL     1      -1.649  -0.737   7.487  1.00  0.00     0.014 A 
ATOM     42  C   UNL     1      -3.682  -2.508   8.201  1.00  0.00     0.010 A 
ATOM     43  C   UNL     1      -1.622  -1.397   8.720  1.00  0.00     0.010 A 
ATOM     44  C   UNL     1      -2.652  -2.271   9.115  1.00  0.00    -0.014 A 
BRANCH  44  45
ATOM     45  C   UNL     1      -2.607  -2.872  10.487  1.00  0.00     0.031 A 
ATOM     46  C   UNL     1      -2.380  -1.976  11.685  1.00  0.00     0.074 A 
ATOM     47  C   UNL     1      -2.570  -4.212  10.658  1.00  0.00     0.049 A 
ATOM     48  N   UNL     1      -2.027  -2.283  12.910  1.00  0.00    -0.248 NA
ATOM     49  C   UNL     1      -2.540  -0.528  11.461  1.00  0.00     0.031 C 
ATOM     50  C   UNL     1      -2.719  -5.218   9.605  1.00  0.00     0.029 A 
ATOM     51  N   UNL     1      -2.238  -4.954  11.773  1.00  0.00    -0.354 N 
ATOM     52  C   UNL     1      -1.929  -1.076  13.591  1.00  0.00     0.074 A 
ATOM     53  C   UNL     1      -2.139  -0.026  12.619  1.00  0.00     0.031 C 
ATOM     54  C   UNL     1      -2.332  -6.414  10.077  1.00  0.00     0.029 A 
ATOM     55  C   UNL     1      -1.927  -6.262  11.470  1.00  0.00     0.049 A 
ATOM     56  H   UNL     1      -2.224  -4.589  12.688  1.00  0.00     0.167 HD
ATOM     57  C   UNL     1      -1.753  -0.859  14.918  1.00  0.00     0.037 A 
ATOM     58  C   UNL     1      -1.329  -7.219  12.204  1.00  0.00     0.037 A 
ATOM     59  C   UNL     1      -1.588  -1.909  15.889  1.00  0.00     0.049 A 
ATOM     60  C   UNL     1      -1.044  -6.967  13.656  1.00  0.00     0.074 A 
ATOM     61  C   UNL     1      -1.589  -1.825  17.270  1.00  0.00     0.029 A 
ATOM     62  N   UNL     1      -1.374  -3.241  15.570  1.00  0.00    -0.354 N 
ATOM     63  N   UNL     1      -1.131  -5.851  14.334  1.00  0.00    -0.248 NA
ATOM     64  C   UNL     1      -0.656  -8.133  14.462  1.00  0.00     0.031 C 
ATOM     65  C   UNL     1      -1.333  -3.100  17.787  1.00  0.00     0.029 A 
ATOM     66  C   UNL     1      -1.220  -3.986  16.729  1.00  0.00     0.049 A 
ATOM     67  H   UNL     1      -1.336  -3.604  14.656  1.00  0.00     0.167 HD
ATOM     68  C   UNL     1      -0.908  -6.196  15.660  1.00  0.00     0.074 A 
ATOM     69  C   UNL     1      -0.632  -7.617  15.682  1.00  0.00     0.031 C 
ATOM     70  C   UNL     1      -0.980  -5.406  16.759  1.00  0.00     0.037 A 
BRANCH  57  71
ATOM     71  C   UNL     1      -1.806   0.564  15.408  1.00  0.00     0.064 A 
ATOM     72  C   UNL     1      -2.985   1.323  15.319  1.00  0.00     0.173 A 
ATOM     73  C   UNL     1      -0.690   1.165  16.008  1.00  0.00     0.173 A 
ATOM     74  F   UNL     1      -4.086   0.798  14.759  1.00  0.00    -0.203 F 
ATOM     75  C   UNL     1      -3.030   2.641  15.764  1.00  0.00     0.198 A 
ATOM     76  C   UNL     1      -0.750   2.473  16.487  1.00  0.00     0.198 A 
ATOM     77  F   UNL     1       0.460   0.486  16.137  1.00  0.00    -0.203 F 
ATOM     78  F   UNL     1      -4.150   3.361  15.605  1.00  0.00    -0.200 F 
ATOM     79  C   UNL     1      -1.915   3.213  16.353  1.00  0.00     0.200 A 
ATOM     80  F   UNL     1       0.323   3.021  17.074  1.00  0.00    -0.200 F 
ATOM     81  F   UNL     1      -1.961   4.481  16.786  1.00  0.00    -0.200 F 
ENDBRANCH  57  71
BRANCH  58  82
ATOM     82  C   UNL     1      -1.029  -8.540  11.596  1.00  0.00     0.064 A 
ATOM     83  C   UNL     1      -1.889  -9.627  11.803  1.00  0.00     0.173 A 
ATOM     84  C   UNL     1       0.110  -8.746  10.805  1.00  0.00     0.173 A 
ATOM     85  F   UNL     1      -2.975  -9.480  12.575  1.00  0.00    -0.203 F 
ATOM     86  C   UNL     1      -1.615 -10.876  11.251  1.00  0.00     0.198 A 
ATOM     87  C   UNL     1       0.374  -9.992  10.239  1.00  0.00     0.198 A 
ATOM     88  F   UNL     1       0.971  -7.744  10.585  1.00  0.00    -0.203 F 
ATOM     89  F   UNL     1      -2.436 -11.906  11.493  1.00  0.00    -0.200 F 
ATOM     90  C   UNL     1      -0.486 -11.057  10.466  1.00  0.00     0.200 A 
ATOM     91  F   UNL     1       1.464 -10.165   9.478  1.00  0.00    -0.200 F 
ATOM     92  F   UNL     1      -0.223 -12.259   9.936  1.00  0.00    -0.200 F 
ENDBRANCH  58  82
BRANCH  70  93
ATOM     93  C   UNL     1      -0.888  -6.080  18.096  1.00  0.00     0.064 A 
ATOM     94  C   UNL     1       0.310  -6.613  18.589  1.00  0.00     0.173 A 
ATOM     95  C   UNL     1      -2.034  -6.184  18.901  1.00  0.00     0.173 A 
ATOM     96  F   UNL     1       1.429  -6.558  17.850  1.00  0.00    -0.203 F 
ATOM     97  C   UNL     1       0.351  -7.255  19.825  1.00  0.00     0.198 A 
ATOM     98  C   UNL     1      -1.983  -6.797  20.149  1.00  0.00     0.198 A 
ATOM     99  F   UNL     1      -3.207  -5.689  18.477  1.00  0.00    -0.203 F 
ATOM    100  F   UNL     1       1.493  -7.810  20.252  1.00  0.00    -0.200 F 
ATOM    101  C   UNL     1      -0.793  -7.340  20.606  1.00  0.00     0.200 A 
ATOM    102  F   UNL     1      -3.087  -6.867  20.905  1.00  0.00    -0.200 F 
ATOM    103  F   UNL     1      -0.751  -7.957  21.795  1.00  0.00    -0.200 F 
ENDBRANCH  70  93
ENDBRANCH  44  45
ENDBRANCH  36  39
ENDBRANCH  34  35
ENDBRANCH  33  34
ENDBRANCH   1  33
TORSDOF 15
