REMARK SMILES C[N@H+]1CCO[C@@H](CNC(=O)c2cccn2CC(=O)NCCCNC(=O)c2ccc(-c3c4nc(c(-c5c(F)c(F)c(F)c(F)c5F)c5ccc([nH]5)c(-c5c(F)c(F)c(F)c(F)c5F)c5nc(c(-c6c(F)c(F)c(F)c(F)c6F)c6ccc3[nH]6)C=C5)C=C4)cc2)C1
REMARK SMILES IDX 20 1 19 2 17 3 18 4 16 6 15 7 11 8 12 9 13 10 14 11 9 12
REMARK SMILES IDX 8 13 10 15 7 16 6 17 1 18 2 19 3 20 89 21 4 23 5 24 21 25
REMARK SMILES IDX 22 26 23 27 24 28 25 30 26 31 27 32 88 33 28 34 87 35 29 36
REMARK SMILES IDX 30 37 31 38 81 39 32 40 86 41 80 42 82 43 33 44 85 45 79 46
REMARK SMILES IDX 78 47 34 49 66 50 46 51 65 52 47 53 50 54 64 55 83 56 48 57
REMARK SMILES IDX 49 58 63 60 84 61 51 62 35 63 36 64 44 65 37 66 38 67 42 68
REMARK SMILES IDX 45 69 39 70 40 71 43 72 41 73 67 74 68 75 76 76 69 77 70 78
REMARK SMILES IDX 74 79 77 80 71 81 72 82 75 83 73 84 52 85 53 86 61 87 54 88
REMARK SMILES IDX 55 89 59 90 62 91 56 92 57 93 60 94 58 95
REMARK H PARENT 19 5 8 14 2 22 23 29 82 48 50 59
REMARK Flexibility Score: inf
ROOT
ATOM      1  C   UNL     1       0.109  -1.881   5.950  1.00  0.00     0.117 C 
ENDROOT
BRANCH   1   2
ATOM      2  N   UNL     1       0.258  -1.659   7.373  1.00  0.00    -0.354 N 
ATOM      3  C   UNL     1       1.194  -0.901   8.020  1.00  0.00     0.239 C 
ATOM      4  O   UNL     1       1.225  -0.950   9.252  1.00  0.00    -0.273 OA
ATOM      5  H   UNL     1      -0.401  -2.111   7.949  1.00  0.00     0.163 HD
BRANCH   3   6
ATOM      6  C   UNL     1       2.107   0.024   7.238  1.00  0.00     0.222 C 
BRANCH   6   7
ATOM      7  N   UNL     1       3.076  -0.671   6.397  1.00  0.00    -0.334 N 
ATOM      8  C   UNL     1       3.224  -0.539   5.023  1.00  0.00     0.107 A 
ATOM      9  C   UNL     1       4.280  -1.367   4.667  1.00  0.00     0.033 A 
ATOM     10  C   UNL     1       4.739  -2.038   5.823  1.00  0.00     0.020 A 
ATOM     11  C   UNL     1       3.990  -1.579   6.879  1.00  0.00     0.087 A 
BRANCH   8  12
ATOM     12  C   UNL     1       2.430   0.354   4.196  1.00  0.00     0.268 C 
ATOM     13  N   UNL     1       1.852  -0.122   3.041  1.00  0.00    -0.348 N 
ATOM     14  H   UNL     1       1.276   0.523   2.571  1.00  0.00     0.163 HD
ATOM     15  O   UNL     1       2.181   1.508   4.512  1.00  0.00    -0.268 OA
BRANCH  13  16
ATOM     16  C   UNL     1       1.956  -1.422   2.406  1.00  0.00     0.154 C 
BRANCH  16  17
ATOM     17  C   UNL     1       0.614  -2.070   2.005  1.00  0.00     0.192 C 
ATOM     18  C   UNL     1       1.147  -0.198  -0.594  1.00  0.00     0.332 C 
ATOM     19  N   UNL     1       0.146  -1.224  -0.350  1.00  0.00    -0.333 N 
ATOM     20  C   UNL     1       0.549  -2.563  -0.818  1.00  0.00     0.290 C 
ATOM     21  C   UNL     1      -0.302  -1.295   1.044  1.00  0.00     0.296 C 
ATOM     22  H   UNL     1      -0.648  -0.920  -0.914  1.00  0.00     0.348 HD
ATOM     23  C   UNL     1       1.405  -3.376   0.173  1.00  0.00     0.222 C 
ATOM     24  O   UNL     1       0.847  -3.399   1.496  1.00  0.00    -0.365 OA
ENDBRANCH  16  17
ENDBRANCH  13  16
ENDBRANCH   8  12
ENDBRANCH   6   7
ENDBRANCH   3   6
ENDBRANCH   1   2
BRANCH   1  25
ATOM     25  C   UNL     1       0.772  -3.195   5.528  1.00  0.00     0.042 C 
BRANCH  25  26
ATOM     26  C   UNL     1      -0.161  -4.382   5.715  1.00  0.00     0.118 C 
BRANCH  26  27
ATOM     27  N   UNL     1      -1.324  -4.289   4.843  1.00  0.00    -0.352 N 
ATOM     28  C   UNL     1      -2.346  -5.169   4.615  1.00  0.00     0.251 C 
ATOM     29  H   UNL     1      -1.385  -3.450   4.330  1.00  0.00     0.163 HD
ATOM     30  O   UNL     1      -3.089  -4.977   3.655  1.00  0.00    -0.269 OA
BRANCH  28  31
ATOM     31  C   UNL     1      -2.563  -6.349   5.474  1.00  0.00     0.039 A 
ATOM     32  C   UNL     1      -3.078  -7.505   4.869  1.00  0.00     0.014 A 
ATOM     33  C   UNL     1      -2.333  -6.322   6.853  1.00  0.00     0.014 A 
ATOM     34  C   UNL     1      -3.295  -8.647   5.629  1.00  0.00     0.010 A 
ATOM     35  C   UNL     1      -2.509  -7.469   7.611  1.00  0.00     0.010 A 
ATOM     36  C   UNL     1      -2.970  -8.633   6.990  1.00  0.00    -0.014 A 
BRANCH  36  37
ATOM     37  C   UNL     1      -2.893  -9.910   7.722  1.00  0.00     0.031 A 
ATOM     38  C   UNL     1      -1.548 -10.631   7.421  1.00  0.00     0.074 A 
ATOM     39  C   UNL     1      -3.962 -10.203   8.527  1.00  0.00     0.049 A 
ATOM     40  N   UNL     1      -1.195 -11.865   7.612  1.00  0.00    -0.248 NA
ATOM     41  C   UNL     1      -0.425  -9.866   6.796  1.00  0.00     0.031 C 
ATOM     42  C   UNL     1      -5.136  -9.318   8.731  1.00  0.00     0.029 A 
ATOM     43  N   UNL     1      -4.299 -11.273   9.333  1.00  0.00    -0.354 N 
ATOM     44  C   UNL     1       0.198 -11.965   7.362  1.00  0.00     0.074 A 
ATOM     45  C   UNL     1       0.590 -10.732   6.757  1.00  0.00     0.031 C 
ATOM     46  C   UNL     1      -6.069  -9.912   9.508  1.00  0.00     0.029 A 
ATOM     47  C   UNL     1      -5.603 -11.223   9.910  1.00  0.00     0.049 A 
ATOM     48  H   UNL     1      -3.679 -12.020   9.499  1.00  0.00     0.167 HD
ATOM     49  C   UNL     1       0.958 -13.009   7.813  1.00  0.00     0.037 A 
ATOM     50  C   UNL     1      -6.264 -12.190  10.627  1.00  0.00     0.037 A 
ATOM     51  C   UNL     1       0.114 -13.965   8.440  1.00  0.00     0.049 A 
ATOM     52  C   UNL     1      -5.232 -13.188  10.913  1.00  0.00     0.074 A 
ATOM     53  C   UNL     1      -0.803 -14.838   7.920  1.00  0.00     0.029 A 
ATOM     54  N   UNL     1      -0.114 -13.802   9.784  1.00  0.00    -0.354 N 
ATOM     55  N   UNL     1      -4.284 -13.016  11.783  1.00  0.00    -0.248 NA
ATOM     56  C   UNL     1      -5.191 -14.421  10.122  1.00  0.00     0.031 C 
ATOM     57  C   UNL     1      -1.858 -14.760   8.846  1.00  0.00     0.029 A 
ATOM     58  C   UNL     1      -1.433 -14.096  10.004  1.00  0.00     0.049 A 
ATOM     59  H   UNL     1       0.546 -13.525  10.461  1.00  0.00     0.167 HD
ATOM     60  C   UNL     1      -3.360 -13.943  11.376  1.00  0.00     0.074 A 
ATOM     61  C   UNL     1      -4.085 -14.954  10.633  1.00  0.00     0.031 C 
ATOM     62  C   UNL     1      -2.078 -13.544  11.169  1.00  0.00     0.037 A 
BRANCH  49  63
ATOM     63  C   UNL     1       2.439 -13.216   7.996  1.00  0.00     0.064 A 
ATOM     64  C   UNL     1       2.895 -14.540   8.236  1.00  0.00     0.173 A 
ATOM     65  C   UNL     1       3.321 -12.188   8.345  1.00  0.00     0.173 A 
ATOM     66  F   UNL     1       2.154 -15.600   7.874  1.00  0.00    -0.203 F 
ATOM     67  C   UNL     1       4.065 -14.803   8.945  1.00  0.00     0.198 A 
ATOM     68  C   UNL     1       4.524 -12.461   9.008  1.00  0.00     0.198 A 
ATOM     69  F   UNL     1       2.997 -10.904   8.151  1.00  0.00    -0.203 F 
ATOM     70  F   UNL     1       4.364 -16.062   9.297  1.00  0.00    -0.200 F 
ATOM     71  C   UNL     1       4.868 -13.759   9.352  1.00  0.00     0.200 A 
ATOM     72  F   UNL     1       5.313 -11.447   9.389  1.00  0.00    -0.200 F 
ATOM     73  F   UNL     1       5.951 -13.997  10.104  1.00  0.00    -0.200 F 
ENDBRANCH  49  63
BRANCH  50  74
ATOM     74  C   UNL     1      -7.651 -12.525  11.142  1.00  0.00     0.064 A 
ATOM     75  C   UNL     1      -8.779 -11.701  11.092  1.00  0.00     0.173 A 
ATOM     76  C   UNL     1      -7.920 -13.839  11.637  1.00  0.00     0.173 A 
ATOM     77  F   UNL     1      -8.672 -10.406  10.774  1.00  0.00    -0.203 F 
ATOM     78  C   UNL     1     -10.072 -12.189  11.380  1.00  0.00     0.198 A 
ATOM     79  C   UNL     1      -9.200 -14.341  11.860  1.00  0.00     0.198 A 
ATOM     80  F   UNL     1      -6.937 -14.706  11.918  1.00  0.00    -0.203 F 
ATOM     81  F   UNL     1     -11.126 -11.364  11.310  1.00  0.00    -0.200 F 
ATOM     82  C   UNL     1     -10.286 -13.518  11.711  1.00  0.00     0.200 A 
ATOM     83  F   UNL     1      -9.361 -15.631  12.191  1.00  0.00    -0.200 F 
ATOM     84  F   UNL     1     -11.523 -13.997  11.897  1.00  0.00    -0.200 F 
ENDBRANCH  50  74
BRANCH  62  85
ATOM     85  C   UNL     1      -1.683 -12.289  11.937  1.00  0.00     0.064 A 
ATOM     86  C   UNL     1      -1.830 -12.250  13.335  1.00  0.00     0.173 A 
ATOM     87  C   UNL     1      -1.297 -11.078  11.337  1.00  0.00     0.173 A 
ATOM     88  F   UNL     1      -2.151 -13.368  14.004  1.00  0.00    -0.203 F 
ATOM     89  C   UNL     1      -1.657 -11.071  14.068  1.00  0.00     0.198 A 
ATOM     90  C   UNL     1      -1.121  -9.896  12.065  1.00  0.00     0.198 A 
ATOM     91  F   UNL     1      -1.065 -11.009  10.029  1.00  0.00    -0.203 F 
ATOM     92  F   UNL     1      -1.824 -11.081  15.398  1.00  0.00    -0.200 F 
ATOM     93  C   UNL     1      -1.312  -9.891  13.432  1.00  0.00     0.200 A 
ATOM     94  F   UNL     1      -0.761  -8.767  11.434  1.00  0.00    -0.200 F 
ATOM     95  F   UNL     1      -1.142  -8.762  14.134  1.00  0.00    -0.200 F 
ENDBRANCH  62  85
ENDBRANCH  36  37
ENDBRANCH  28  31
ENDBRANCH  26  27
ENDBRANCH  25  26
ENDBRANCH   1  25
TORSDOF 14
