REMARK SMILES O=C(CC[NH+]1CCC(n2nccc2NC(=O)c2ccccc2Cl)CC1)NCCCNC(=O)c1ccc(-c2c3nc(c(-c4c(F)c(F)c(F)c(F)c4F)c4ccc([nH]4)c(-c4c(F)c(F)c(F)c(F)c4F)c4nc(c(-c5c(F)c(F)c(F)c(F)c5F)c5ccc2[nH]5)C=C4)C=C3)cc1
REMARK SMILES IDX 1 1 2 2 26 3 3 5 4 6 5 7 6 8 25 9 7 11 24 12 8 13 9 14 10 15
REMARK SMILES IDX 13 16 11 17 12 18 14 19 15 20 16 22 17 23 18 24 22 25 19 26
REMARK SMILES IDX 21 27 23 28 20 29 27 30 28 31 29 32 30 33 31 34 32 36 33 37
REMARK SMILES IDX 34 38 95 39 35 40 94 41 36 42 37 43 38 44 88 45 39 46 93 47
REMARK SMILES IDX 87 48 89 49 40 50 92 51 86 52 85 53 41 55 73 56 53 57 72 58
REMARK SMILES IDX 54 59 57 60 71 61 90 62 55 63 56 64 70 66 91 67 58 68 42 69
REMARK SMILES IDX 43 70 51 71 44 72 45 73 49 74 52 75 46 76 47 77 50 78 48 79
REMARK SMILES IDX 74 80 75 81 83 82 76 83 77 84 81 85 84 86 78 87 79 88 82 89
REMARK SMILES IDX 80 90 59 91 60 92 68 93 61 94 62 95 66 96 69 97 63 98 64 99
REMARK SMILES IDX 67 100 65 101
REMARK H PARENT 26 4 5 10 14 21 30 35 89 54 57 65
REMARK Flexibility Score: inf
ROOT
ATOM      1  O   UNL     1       0.830  -0.276  -0.112  1.00  0.00    -0.275 OA
ATOM      2  C   UNL     1       2.038  -0.075  -0.046  1.00  0.00     0.225 C 
ATOM      3  N   UNL     1       2.599   0.963   0.665  1.00  0.00    -0.356 N 
ATOM      4  H   UNL     1       3.580   1.013   0.721  1.00  0.00     0.163 HD
ENDROOT
BRANCH   2   5
ATOM      5  C   UNL     1       3.049  -0.987  -0.725  1.00  0.00     0.161 C 
BRANCH   5   6
ATOM      6  C   UNL     1       3.868  -0.276  -1.807  1.00  0.00     0.272 C 
BRANCH   6   7
ATOM      7  N   UNL     1       4.820   0.684  -1.203  1.00  0.00    -0.334 N 
ATOM      8  C   UNL     1       6.207   0.211  -1.316  1.00  0.00     0.264 C 
ATOM      9  C   UNL     1       4.699   2.007  -1.826  1.00  0.00     0.264 C 
ATOM     10  H   UNL     1       4.583   0.759  -0.214  1.00  0.00     0.348 HD
ATOM     11  C   UNL     1       7.130   1.135  -0.527  1.00  0.00     0.089 C 
ATOM     12  C   UNL     1       5.498   3.001  -0.991  1.00  0.00     0.089 C 
ATOM     13  C   UNL     1       6.978   2.625  -0.912  1.00  0.00     0.121 C 
BRANCH  13  14
ATOM     14  N   UNL     1       7.800   3.458  -0.025  1.00  0.00    -0.246 N 
ATOM     15  N   UNL     1       9.125   3.177  -0.015  1.00  0.00    -0.179 NA
ATOM     16  C   UNL     1       7.486   4.502   0.838  1.00  0.00     0.131 A 
ATOM     17  C   UNL     1       9.602   3.865   1.018  1.00  0.00     0.137 A 
ATOM     18  C   UNL     1       8.606   4.636   1.634  1.00  0.00     0.069 A 
BRANCH  16  19
ATOM     19  N   UNL     1       6.309   5.236   0.910  1.00  0.00    -0.307 N 
ATOM     20  C   UNL     1       6.058   6.521   1.509  1.00  0.00     0.258 C 
ATOM     21  H   UNL     1       5.526   4.812   0.488  1.00  0.00     0.171 HD
ATOM     22  O   UNL     1       4.922   6.928   1.386  1.00  0.00    -0.269 OA
BRANCH  20  23
ATOM     23  C   UNL     1       7.101   7.308   2.181  1.00  0.00     0.058 A 
ATOM     24  C   UNL     1       6.957   7.568   3.550  1.00  0.00     0.015 A 
ATOM     25  C   UNL     1       8.226   7.769   1.497  1.00  0.00     0.053 A 
ATOM     26  C   UNL     1       7.998   8.161   4.261  1.00  0.00     0.001 A 
ATOM     27  C   UNL     1       9.272   8.353   2.216  1.00  0.00     0.021 A 
ATOM     28  Cl  UNL     1       8.384   7.640  -0.217  1.00  0.00    -0.083 Cl
ATOM     29  C   UNL     1       9.167   8.524   3.599  1.00  0.00     0.002 A 
ENDBRANCH  20  23
ENDBRANCH  16  19
ENDBRANCH  13  14
ENDBRANCH   6   7
ENDBRANCH   5   6
ENDBRANCH   2   5
BRANCH   3  30
ATOM     30  C   UNL     1       1.815   1.988   1.336  1.00  0.00     0.117 C 
BRANCH  30  31
ATOM     31  C   UNL     1       1.873   1.903   2.865  1.00  0.00     0.042 C 
BRANCH  31  32
ATOM     32  C   UNL     1       3.247   2.225   3.423  1.00  0.00     0.118 C 
BRANCH  32  33
ATOM     33  N   UNL     1       3.614   3.646   3.312  1.00  0.00    -0.352 N 
ATOM     34  C   UNL     1       4.728   4.284   3.828  1.00  0.00     0.251 C 
ATOM     35  H   UNL     1       2.988   4.214   2.807  1.00  0.00     0.163 HD
ATOM     36  O   UNL     1       4.711   5.487   4.047  1.00  0.00    -0.269 OA
BRANCH  34  37
ATOM     37  C   UNL     1       5.960   3.519   4.087  1.00  0.00     0.039 A 
ATOM     38  C   UNL     1       6.918   3.889   5.040  1.00  0.00     0.014 A 
ATOM     39  C   UNL     1       6.141   2.375   3.334  1.00  0.00     0.014 A 
ATOM     40  C   UNL     1       8.003   3.040   5.267  1.00  0.00     0.010 A 
ATOM     41  C   UNL     1       6.993   1.419   3.774  1.00  0.00     0.010 A 
ATOM     42  C   UNL     1       8.012   1.795   4.631  1.00  0.00    -0.014 A 
BRANCH  42  43
ATOM     43  C   UNL     1       9.010   0.764   4.849  1.00  0.00     0.031 A 
ATOM     44  C   UNL     1       8.987   0.171   6.205  1.00  0.00     0.074 A 
ATOM     45  C   UNL     1       9.597   0.163   3.788  1.00  0.00     0.049 A 
ATOM     46  N   UNL     1       9.930   0.193   7.084  1.00  0.00    -0.248 NA
ATOM     47  C   UNL     1       7.716  -0.381   6.706  1.00  0.00     0.031 C 
ATOM     48  C   UNL     1       9.404   0.454   2.362  1.00  0.00     0.029 A 
ATOM     49  N   UNL     1      10.380  -0.944   3.749  1.00  0.00    -0.354 N 
ATOM     50  C   UNL     1       9.445  -0.526   8.173  1.00  0.00     0.074 A 
ATOM     51  C   UNL     1       8.025  -0.641   7.978  1.00  0.00     0.031 C 
ATOM     52  C   UNL     1       9.867  -0.566   1.612  1.00  0.00     0.029 A 
ATOM     53  C   UNL     1      10.507  -1.522   2.489  1.00  0.00     0.049 A 
ATOM     54  H   UNL     1      10.824  -1.309   4.549  1.00  0.00     0.167 HD
ATOM     55  C   UNL     1      10.292  -1.199   9.001  1.00  0.00     0.037 A 
ATOM     56  C   UNL     1      11.055  -2.732   2.211  1.00  0.00     0.037 A 
ATOM     57  C   UNL     1      11.658  -0.795   8.769  1.00  0.00     0.049 A 
ATOM     58  C   UNL     1      11.891  -3.096   3.387  1.00  0.00     0.074 A 
ATOM     59  C   UNL     1      12.330   0.410   8.844  1.00  0.00     0.029 A 
ATOM     60  N   UNL     1      12.446  -1.616   7.997  1.00  0.00    -0.354 N 
ATOM     61  N   UNL     1      12.970  -2.441   3.725  1.00  0.00    -0.248 NA
ATOM     62  C   UNL     1      11.249  -3.837   4.465  1.00  0.00     0.031 C 
ATOM     63  C   UNL     1      13.210   0.409   7.722  1.00  0.00     0.029 A 
ATOM     64  C   UNL     1      13.095  -0.826   7.082  1.00  0.00     0.049 A 
ATOM     65  H   UNL     1      12.530  -2.593   8.086  1.00  0.00     0.167 HD
ATOM     66  C   UNL     1      12.902  -2.333   5.108  1.00  0.00     0.074 A 
ATOM     67  C   UNL     1      11.860  -3.275   5.514  1.00  0.00     0.031 C 
ATOM     68  C   UNL     1      13.465  -1.271   5.758  1.00  0.00     0.037 A 
BRANCH  55  69
ATOM     69  C   UNL     1       9.955  -2.468   9.746  1.00  0.00     0.064 A 
ATOM     70  C   UNL     1      10.886  -2.972  10.677  1.00  0.00     0.173 A 
ATOM     71  C   UNL     1       8.914  -3.353   9.394  1.00  0.00     0.173 A 
ATOM     72  F   UNL     1      11.923  -2.221  11.081  1.00  0.00    -0.203 F 
ATOM     73  C   UNL     1      10.829  -4.287  11.143  1.00  0.00     0.198 A 
ATOM     74  C   UNL     1       8.826  -4.646   9.907  1.00  0.00     0.198 A 
ATOM     75  F   UNL     1       8.005  -3.058   8.459  1.00  0.00    -0.203 F 
ATOM     76  F   UNL     1      11.814  -4.760  11.919  1.00  0.00    -0.200 F 
ATOM     77  C   UNL     1       9.803  -5.126  10.752  1.00  0.00     0.200 A 
ATOM     78  F   UNL     1       7.830  -5.447   9.503  1.00  0.00    -0.200 F 
ATOM     79  F   UNL     1       9.780  -6.406  11.144  1.00  0.00    -0.200 F 
ENDBRANCH  55  69
BRANCH  56  80
ATOM     80  C   UNL     1      10.672  -3.690   1.142  1.00  0.00     0.064 A 
ATOM     81  C   UNL     1      11.501  -4.769   0.794  1.00  0.00     0.173 A 
ATOM     82  C   UNL     1       9.368  -3.713   0.603  1.00  0.00     0.173 A 
ATOM     83  F   UNL     1      12.743  -4.851   1.292  1.00  0.00    -0.203 F 
ATOM     84  C   UNL     1      11.047  -5.814  -0.022  1.00  0.00     0.198 A 
ATOM     85  C   UNL     1       8.920  -4.750  -0.217  1.00  0.00     0.198 A 
ATOM     86  F   UNL     1       8.468  -2.772   0.927  1.00  0.00    -0.203 F 
ATOM     87  F   UNL     1      11.851  -6.854  -0.287  1.00  0.00    -0.200 F 
ATOM     88  C   UNL     1       9.754  -5.808  -0.519  1.00  0.00     0.200 A 
ATOM     89  F   UNL     1       7.656  -4.740  -0.665  1.00  0.00    -0.200 F 
ATOM     90  F   UNL     1       9.301  -6.833  -1.254  1.00  0.00    -0.200 F 
ENDBRANCH  56  80
BRANCH  68  91
ATOM     91  C   UNL     1      14.352  -0.346   4.968  1.00  0.00     0.064 A 
ATOM     92  C   UNL     1      13.903   0.454   3.902  1.00  0.00     0.173 A 
ATOM     93  C   UNL     1      15.657  -0.124   5.425  1.00  0.00     0.173 A 
ATOM     94  F   UNL     1      12.637   0.391   3.478  1.00  0.00    -0.203 F 
ATOM     95  C   UNL     1      14.730   1.399   3.299  1.00  0.00     0.198 A 
ATOM     96  C   UNL     1      16.471   0.847   4.846  1.00  0.00     0.198 A 
ATOM     97  F   UNL     1      16.121  -0.806   6.483  1.00  0.00    -0.203 F 
ATOM     98  F   UNL     1      14.266   2.150   2.289  1.00  0.00    -0.200 F 
ATOM     99  C   UNL     1      16.012   1.600   3.777  1.00  0.00     0.200 A 
ATOM    100  F   UNL     1      17.689   1.080   5.352  1.00  0.00    -0.200 F 
ATOM    101  F   UNL     1      16.791   2.546   3.234  1.00  0.00    -0.200 F 
ENDBRANCH  68  91
ENDBRANCH  42  43
ENDBRANCH  34  37
ENDBRANCH  32  33
ENDBRANCH  31  32
ENDBRANCH  30  31
ENDBRANCH   3  30
TORSDOF 15
