REMARK SMILES O=C(NCCCNC(=O)C(F)(F)[C@H]1CCCc2cccnc21)c1ccc(-c2c3nc(c(-c4c(F)c(F)c(F)c(F)c4F)c4ccc([nH]4)c(-c4c(F)c(F)c(F)c(F)c4F)c4nc(c(-c5c(F)c(F)c(F)c(F)c5F)c5ccc2[nH]5)C=C4)C=C3)cc1
REMARK SMILES IDX 4 1 3 2 1 3 2 4 23 6 24 7 85 8 25 9 84 10 26 11 27 12 28 13
REMARK SMILES IDX 78 14 29 15 83 16 77 17 79 18 30 19 82 20 76 21 75 22 31 24
REMARK SMILES IDX 63 25 43 26 62 27 44 28 47 29 61 30 80 31 45 32 46 33 60 35
REMARK SMILES IDX 81 36 48 37 32 38 33 39 41 40 34 41 35 42 39 43 42 44 36 45
REMARK SMILES IDX 37 46 40 47 38 48 64 49 65 50 73 51 66 52 67 53 71 54 74 55
REMARK SMILES IDX 68 56 69 57 72 58 70 59 49 60 50 61 58 62 51 63 52 64 56 65
REMARK SMILES IDX 59 66 53 67 54 68 57 69 55 70 5 71 6 72 7 73 8 74 9 76 10 77
REMARK SMILES IDX 11 78 12 79 13 80 14 81 22 82 15 83 17 84 21 85 16 86 18 87
REMARK SMILES IDX 20 88 19 89
REMARK H PARENT 3 5 79 23 47 34 7 75
REMARK Flexibility Score: inf
ROOT
ATOM      1  C   UNL     1       8.366  -7.892  -3.466  1.00  0.00     0.118 C 
ENDROOT
BRANCH   1   2
ATOM      2  N   UNL     1       8.719  -6.885  -4.459  1.00  0.00    -0.352 N 
ATOM      3  O   UNL     1       9.649  -6.042  -6.329  1.00  0.00    -0.269 OA
ATOM      4  C   UNL     1       9.255  -7.029  -5.713  1.00  0.00     0.251 C 
ATOM      5  H   UNL     1       8.546  -5.955  -4.186  1.00  0.00     0.163 HD
BRANCH   4   6
ATOM      6  C   UNL     1       9.375  -8.369  -6.323  1.00  0.00     0.039 A 
ATOM      7  C   UNL     1       8.332  -9.293  -6.231  1.00  0.00     0.014 A 
ATOM      8  C   UNL     1      10.538  -8.695  -7.027  1.00  0.00     0.014 A 
ATOM      9  C   UNL     1       8.508 -10.585  -6.712  1.00  0.00     0.010 A 
ATOM     10  C   UNL     1      10.676  -9.965  -7.592  1.00  0.00     0.010 A 
ATOM     11  C   UNL     1       9.673 -10.930  -7.414  1.00  0.00    -0.014 A 
BRANCH  11  12
ATOM     12  C   UNL     1       9.791 -12.286  -8.007  1.00  0.00     0.031 A 
ATOM     13  C   UNL     1      10.849 -13.248  -7.545  1.00  0.00     0.074 A 
ATOM     14  C   UNL     1       8.914 -12.651  -8.961  1.00  0.00     0.049 A 
ATOM     15  N   UNL     1      11.089 -14.469  -7.955  1.00  0.00    -0.248 NA
ATOM     16  C   UNL     1      11.762 -12.778  -6.493  1.00  0.00     0.031 C 
ATOM     17  C   UNL     1       7.850 -11.797  -9.496  1.00  0.00     0.029 A 
ATOM     18  N   UNL     1       8.766 -13.831  -9.644  1.00  0.00    -0.354 N 
ATOM     19  C   UNL     1      12.186 -14.907  -7.224  1.00  0.00     0.074 A 
ATOM     20  C   UNL     1      12.585 -13.811  -6.368  1.00  0.00     0.031 C 
ATOM     21  C   UNL     1       7.136 -12.491 -10.392  1.00  0.00     0.029 A 
ATOM     22  C   UNL     1       7.731 -13.814 -10.546  1.00  0.00     0.049 A 
ATOM     23  H   UNL     1       9.345 -14.613  -9.502  1.00  0.00     0.167 HD
ATOM     24  C   UNL     1      12.795 -16.117  -7.262  1.00  0.00     0.037 A 
ATOM     25  C   UNL     1       7.318 -14.751 -11.419  1.00  0.00     0.037 A 
ATOM     26  C   UNL     1      12.384 -17.205  -8.115  1.00  0.00     0.049 A 
ATOM     27  C   UNL     1       8.039 -16.068 -11.467  1.00  0.00     0.074 A 
ATOM     28  C   UNL     1      12.914 -18.481  -8.201  1.00  0.00     0.029 A 
ATOM     29  N   UNL     1      11.350 -17.141  -9.038  1.00  0.00    -0.354 N 
ATOM     30  N   UNL     1       9.047 -16.486 -10.742  1.00  0.00    -0.248 NA
ATOM     31  C   UNL     1       7.563 -17.043 -12.456  1.00  0.00     0.031 C 
ATOM     32  C   UNL     1      12.239 -19.169  -9.215  1.00  0.00     0.029 A 
ATOM     33  C   UNL     1      11.245 -18.345  -9.718  1.00  0.00     0.049 A 
ATOM     34  H   UNL     1      10.775 -16.356  -9.188  1.00  0.00     0.167 HD
ATOM     35  C   UNL     1       9.314 -17.778 -11.169  1.00  0.00     0.074 A 
ATOM     36  C   UNL     1       8.346 -18.083 -12.203  1.00  0.00     0.031 C 
ATOM     37  C   UNL     1      10.275 -18.635 -10.744  1.00  0.00     0.037 A 
BRANCH  24  38
ATOM     38  C   UNL     1      13.986 -16.329  -6.370  1.00  0.00     0.064 A 
ATOM     39  C   UNL     1      13.860 -16.421  -4.976  1.00  0.00     0.173 A 
ATOM     40  C   UNL     1      15.267 -16.491  -6.923  1.00  0.00     0.173 A 
ATOM     41  F   UNL     1      12.661 -16.266  -4.394  1.00  0.00    -0.203 F 
ATOM     42  C   UNL     1      14.974 -16.640  -4.168  1.00  0.00     0.198 A 
ATOM     43  C   UNL     1      16.373 -16.740  -6.114  1.00  0.00     0.198 A 
ATOM     44  F   UNL     1      15.444 -16.421  -8.251  1.00  0.00    -0.203 F 
ATOM     45  F   UNL     1      14.835 -16.678  -2.835  1.00  0.00    -0.200 F 
ATOM     46  C   UNL     1      16.227 -16.807  -4.737  1.00  0.00     0.200 A 
ATOM     47  F   UNL     1      17.580 -16.917  -6.668  1.00  0.00    -0.200 F 
ATOM     48  F   UNL     1      17.296 -17.026  -3.958  1.00  0.00    -0.200 F 
ENDBRANCH  24  38
BRANCH  25  49
ATOM     49  C   UNL     1       6.171 -14.466 -12.320  1.00  0.00     0.064 A 
ATOM     50  C   UNL     1       4.957 -15.150 -12.182  1.00  0.00     0.173 A 
ATOM     51  C   UNL     1       6.264 -13.498 -13.331  1.00  0.00     0.173 A 
ATOM     52  F   UNL     1       4.824 -16.097 -11.242  1.00  0.00    -0.203 F 
ATOM     53  C   UNL     1       3.885 -14.890 -13.034  1.00  0.00     0.198 A 
ATOM     54  C   UNL     1       5.181 -13.215 -14.159  1.00  0.00     0.198 A 
ATOM     55  F   UNL     1       7.403 -12.810 -13.500  1.00  0.00    -0.203 F 
ATOM     56  F   UNL     1       2.749 -15.591 -12.910  1.00  0.00    -0.200 F 
ATOM     57  C   UNL     1       3.995 -13.918 -14.016  1.00  0.00     0.200 A 
ATOM     58  F   UNL     1       5.287 -12.260 -15.094  1.00  0.00    -0.200 F 
ATOM     59  F   UNL     1       2.961 -13.663 -14.829  1.00  0.00    -0.200 F 
ENDBRANCH  25  49
BRANCH  37  60
ATOM     60  C   UNL     1      10.302 -19.999 -11.373  1.00  0.00     0.064 A 
ATOM     61  C   UNL     1      10.701 -20.191 -12.704  1.00  0.00     0.173 A 
ATOM     62  C   UNL     1       9.949 -21.131 -10.623  1.00  0.00     0.173 A 
ATOM     63  F   UNL     1      11.032 -19.140 -13.468  1.00  0.00    -0.203 F 
ATOM     64  C   UNL     1      10.717 -21.463 -13.269  1.00  0.00     0.198 A 
ATOM     65  C   UNL     1       9.999 -22.405 -11.181  1.00  0.00     0.198 A 
ATOM     66  F   UNL     1       9.564 -21.003  -9.344  1.00  0.00    -0.203 F 
ATOM     67  F   UNL     1      11.049 -21.617 -14.558  1.00  0.00    -0.200 F 
ATOM     68  C   UNL     1      10.374 -22.569 -12.506  1.00  0.00     0.200 A 
ATOM     69  F   UNL     1       9.680 -23.474 -10.438  1.00  0.00    -0.200 F 
ATOM     70  F   UNL     1      10.396 -23.794 -13.050  1.00  0.00    -0.200 F 
ENDBRANCH  37  60
ENDBRANCH  11  12
ENDBRANCH   4   6
ENDBRANCH   1   2
BRANCH   1  71
ATOM     71  C   UNL     1       9.144  -7.737  -2.163  1.00  0.00     0.042 C 
BRANCH  71  72
ATOM     72  C   UNL     1       8.875  -6.420  -1.443  1.00  0.00     0.118 C 
BRANCH  72  73
ATOM     73  N   UNL     1       7.480  -6.303  -1.060  1.00  0.00    -0.351 N 
ATOM     74  C   UNL     1       6.937  -6.407   0.196  1.00  0.00     0.291 C 
ATOM     75  H   UNL     1       6.845  -6.127  -1.792  1.00  0.00     0.163 HD
ATOM     76  O   UNL     1       5.708  -6.337   0.283  1.00  0.00    -0.268 OA
BRANCH  74  77
ATOM     77  C   UNL     1       7.880  -6.562   1.416  1.00  0.00     0.332 C 
ATOM     78  F   UNL     1       8.783  -7.569   1.211  1.00  0.00    -0.195 F 
ATOM     79  F   UNL     1       8.634  -5.428   1.525  1.00  0.00    -0.195 F 
BRANCH  77  80
ATOM     80  C   UNL     1       7.084  -6.827   2.708  1.00  0.00     0.119 C 
ATOM     81  C   UNL     1       6.430  -8.225   2.735  1.00  0.00     0.017 C 
ATOM     82  C   UNL     1       7.937  -6.599   3.936  1.00  0.00     0.053 A 
ATOM     83  C   UNL     1       7.427  -9.330   3.072  1.00  0.00     0.006 C 
ATOM     84  C   UNL     1       8.425  -7.657   4.708  1.00  0.00    -0.026 A 
ATOM     85  N   UNL     1       8.162  -5.300   4.260  1.00  0.00    -0.260 NA
ATOM     86  C   UNL     1       8.080  -9.094   4.429  1.00  0.00     0.037 C 
ATOM     87  C   UNL     1       9.188  -7.345   5.840  1.00  0.00     0.007 A 
ATOM     88  C   UNL     1       8.908  -5.038   5.352  1.00  0.00     0.111 A 
ATOM     89  C   UNL     1       9.440  -6.018   6.166  1.00  0.00     0.020 A 
ENDBRANCH  77  80
ENDBRANCH  74  77
ENDBRANCH  72  73
ENDBRANCH  71  72
ENDBRANCH   1  71
TORSDOF 11
