REMARK SMILES Cc1ccc([N+](=O)[O-])c(N[C@H]2[C@@H]3CC[C@@H](C3)[C@@H]2C(=O)NCCCNC(=O)c2ccc(-c3c4nc(c(-c5c(F)c(F)c(F)c(F)c5F)c5ccc([nH]5)c(-c5c(F)c(F)c(F)c(F)c5F)c5nc(c(-c6c(F)c(F)c(F)c(F)c6F)c6ccc3[nH]6)C=C5)C=C4)cc2)c1
REMARK SMILES IDX 21 1 20 2 18 3 19 4 17 6 11 7 12 8 13 9 16 10 15 11 14 12
REMARK SMILES IDX 10 13 9 15 1 16 2 17 3 18 90 19 4 20 5 21 6 22 7 23 8 24
REMARK SMILES IDX 22 25 23 26 24 27 25 28 26 30 27 31 28 32 89 33 29 34 88 35
REMARK SMILES IDX 30 36 31 37 32 38 82 39 33 40 87 41 81 42 83 43 34 44 86 45
REMARK SMILES IDX 80 46 79 47 35 49 67 50 47 51 66 52 48 53 51 54 65 55 84 56
REMARK SMILES IDX 49 57 50 58 64 60 85 61 52 62 36 63 37 64 45 65 38 66 39 67
REMARK SMILES IDX 43 68 46 69 40 70 41 71 44 72 42 73 68 74 69 75 77 76 70 77
REMARK SMILES IDX 71 78 75 79 78 80 72 81 73 82 76 83 74 84 53 85 54 86 62 87
REMARK SMILES IDX 55 88 56 89 60 90 63 91 57 92 58 93 61 94 59 95
REMARK H PARENT 20 5 10 14 24 29 83 48 51 59
REMARK Flexibility Score: inf
ROOT
ATOM      1  C   UNL     1      -4.397   4.948   0.413  1.00  0.00     0.117 C 
ENDROOT
BRANCH   1   2
ATOM      2  N   UNL     1      -4.754   4.045   1.504  1.00  0.00    -0.356 N 
ATOM      3  C   UNL     1      -4.693   2.722   1.782  1.00  0.00     0.225 C 
ATOM      4  O   UNL     1      -5.224   2.426   2.865  1.00  0.00    -0.275 OA
ATOM      5  H   UNL     1      -5.154   4.542   2.253  1.00  0.00     0.163 HD
BRANCH   3   6
ATOM      6  C   UNL     1      -4.118   1.577   0.938  1.00  0.00     0.104 C 
ATOM      7  C   UNL     1      -3.133   1.817  -0.195  1.00  0.00     0.095 C 
ATOM      8  C   UNL     1      -3.776   1.107  -1.408  1.00  0.00     0.012 C 
ATOM      9  C   UNL     1      -5.065   1.878  -1.810  1.00  0.00     0.006 C 
ATOM     10  C   UNL     1      -4.417  -0.118  -0.786  1.00  0.00     0.010 C 
ATOM     11  C   UNL     1      -5.201   0.687   0.258  1.00  0.00     0.004 C 
ATOM     12  C   UNL     1      -6.063   1.523  -0.688  1.00  0.00     0.005 C 
BRANCH   7  13
ATOM     13  N   UNL     1      -1.730   1.507   0.127  1.00  0.00    -0.376 N 
ATOM     14  H   UNL     1      -1.238   2.331   0.347  1.00  0.00     0.161 HD
BRANCH  13  15
ATOM     15  C   UNL     1      -0.896   0.411   0.214  1.00  0.00     0.114 A 
ATOM     16  C   UNL     1       2.887   0.051  -0.464  1.00  0.00     0.044 C 
ATOM     17  C   UNL     1       1.453  -0.316  -0.218  1.00  0.00    -0.049 A 
ATOM     18  C   UNL     1       1.109  -1.645   0.000  1.00  0.00     0.010 A 
ATOM     19  C   UNL     1       0.448   0.670  -0.162  1.00  0.00     0.036 A 
ATOM     20  C   UNL     1      -0.182  -1.951   0.403  1.00  0.00     0.088 A 
ATOM     21  C   UNL     1      -1.143  -0.925   0.571  1.00  0.00     0.292 A 
BRANCH  21  22
ATOM     22  N   UNL     1      -2.212  -1.312   1.479  1.00  0.00     0.064 N 
ATOM     23  O   UNL     1      -2.896  -2.300   1.165  1.00  0.00    -0.258 OA
ATOM     24  O   UNL     1      -2.276  -0.723   2.566  1.00  0.00    -0.258 OA
ENDBRANCH  21  22
ENDBRANCH  13  15
ENDBRANCH   7  13
ENDBRANCH   3   6
ENDBRANCH   1   2
BRANCH   1  25
ATOM     25  C   UNL     1      -5.554   5.186  -0.551  1.00  0.00     0.042 C 
BRANCH  25  26
ATOM     26  C   UNL     1      -6.372   6.433  -0.243  1.00  0.00     0.118 C 
BRANCH  26  27
ATOM     27  N   UNL     1      -6.210   7.481  -1.254  1.00  0.00    -0.352 N 
ATOM     28  C   UNL     1      -6.988   8.608  -1.473  1.00  0.00     0.251 C 
ATOM     29  H   UNL     1      -5.443   7.370  -1.861  1.00  0.00     0.163 HD
ATOM     30  O   UNL     1      -6.693   9.433  -2.319  1.00  0.00    -0.269 OA
BRANCH  28  31
ATOM     31  C   UNL     1      -8.112   8.845  -0.544  1.00  0.00     0.039 A 
ATOM     32  C   UNL     1      -7.957   9.892   0.368  1.00  0.00     0.014 A 
ATOM     33  C   UNL     1      -9.028   7.820  -0.329  1.00  0.00     0.014 A 
ATOM     34  C   UNL     1      -8.501   9.751   1.636  1.00  0.00     0.010 A 
ATOM     35  C   UNL     1      -9.476   7.630   0.962  1.00  0.00     0.010 A 
ATOM     36  C   UNL     1      -9.130   8.551   1.961  1.00  0.00    -0.014 A 
BRANCH  36  37
ATOM     37  C   UNL     1      -9.348   8.133   3.340  1.00  0.00     0.031 A 
ATOM     38  C   UNL     1     -10.721   8.117   3.882  1.00  0.00     0.074 A 
ATOM     39  C   UNL     1      -8.305   7.727   4.103  1.00  0.00     0.049 A 
ATOM     40  N   UNL     1     -10.999   8.090   5.141  1.00  0.00    -0.248 NA
ATOM     41  C   UNL     1     -11.907   8.232   3.037  1.00  0.00     0.031 C 
ATOM     42  C   UNL     1      -8.365   7.034   5.390  1.00  0.00     0.029 A 
ATOM     43  N   UNL     1      -6.946   8.071   3.961  1.00  0.00    -0.354 N 
ATOM     44  C   UNL     1     -12.349   7.868   5.258  1.00  0.00     0.074 A 
ATOM     45  C   UNL     1     -12.879   8.118   3.946  1.00  0.00     0.031 C 
ATOM     46  C   UNL     1      -7.226   7.266   6.061  1.00  0.00     0.029 A 
ATOM     47  C   UNL     1      -6.463   8.225   5.285  1.00  0.00     0.049 A 
ATOM     48  H   UNL     1      -6.441   8.181   3.123  1.00  0.00     0.167 HD
ATOM     49  C   UNL     1     -12.816   7.342   6.425  1.00  0.00     0.037 A 
ATOM     50  C   UNL     1      -6.006   9.421   5.755  1.00  0.00     0.037 A 
ATOM     51  C   UNL     1     -11.829   7.519   7.495  1.00  0.00     0.049 A 
ATOM     52  C   UNL     1      -6.748   9.931   6.969  1.00  0.00     0.074 A 
ATOM     53  C   UNL     1     -10.988   6.659   8.179  1.00  0.00     0.029 A 
ATOM     54  N   UNL     1     -11.409   8.812   7.812  1.00  0.00    -0.354 N 
ATOM     55  N   UNL     1      -7.917   9.491   7.342  1.00  0.00    -0.248 NA
ATOM     56  C   UNL     1      -6.256  11.007   7.826  1.00  0.00     0.031 C 
ATOM     57  C   UNL     1      -9.994   7.445   8.825  1.00  0.00     0.029 A 
ATOM     58  C   UNL     1     -10.256   8.781   8.570  1.00  0.00     0.049 A 
ATOM     59  H   UNL     1     -11.873   9.634   7.533  1.00  0.00     0.167 HD
ATOM     60  C   UNL     1      -8.356  10.216   8.418  1.00  0.00     0.074 A 
ATOM     61  C   UNL     1      -7.269  11.136   8.700  1.00  0.00     0.031 C 
ATOM     62  C   UNL     1      -9.590  10.016   8.967  1.00  0.00     0.037 A 
BRANCH  49  63
ATOM     63  C   UNL     1     -14.051   6.461   6.545  1.00  0.00     0.064 A 
ATOM     64  C   UNL     1     -14.364   5.848   7.780  1.00  0.00     0.173 A 
ATOM     65  C   UNL     1     -14.881   6.052   5.475  1.00  0.00     0.173 A 
ATOM     66  F   UNL     1     -13.679   6.140   8.894  1.00  0.00    -0.203 F 
ATOM     67  C   UNL     1     -15.379   4.889   7.915  1.00  0.00     0.198 A 
ATOM     68  C   UNL     1     -15.919   5.127   5.620  1.00  0.00     0.198 A 
ATOM     69  F   UNL     1     -14.710   6.479   4.222  1.00  0.00    -0.203 F 
ATOM     70  F   UNL     1     -15.583   4.299   9.101  1.00  0.00    -0.200 F 
ATOM     71  C   UNL     1     -16.157   4.530   6.835  1.00  0.00     0.200 A 
ATOM     72  F   UNL     1     -16.663   4.799   4.553  1.00  0.00    -0.200 F 
ATOM     73  F   UNL     1     -17.121   3.608   6.958  1.00  0.00    -0.200 F 
ENDBRANCH  49  63
BRANCH  50  74
ATOM     74  C   UNL     1      -5.405  10.277   4.699  1.00  0.00     0.064 A 
ATOM     75  C   UNL     1      -4.265   9.798   4.023  1.00  0.00     0.173 A 
ATOM     76  C   UNL     1      -6.122  11.319   4.101  1.00  0.00     0.173 A 
ATOM     77  F   UNL     1      -3.541   8.800   4.555  1.00  0.00    -0.203 F 
ATOM     78  C   UNL     1      -3.936  10.249   2.748  1.00  0.00     0.198 A 
ATOM     79  C   UNL     1      -5.777  11.781   2.828  1.00  0.00     0.198 A 
ATOM     80  F   UNL     1      -7.227  11.805   4.684  1.00  0.00    -0.203 F 
ATOM     81  F   UNL     1      -2.922   9.681   2.079  1.00  0.00    -0.200 F 
ATOM     82  C   UNL     1      -4.711  11.220   2.139  1.00  0.00     0.200 A 
ATOM     83  F   UNL     1      -6.546  12.697   2.223  1.00  0.00    -0.200 F 
ATOM     84  F   UNL     1      -4.463  11.580   0.872  1.00  0.00    -0.200 F 
ENDBRANCH  50  74
BRANCH  62  85
ATOM     85  C   UNL     1     -10.251  10.921   9.979  1.00  0.00     0.064 A 
ATOM     86  C   UNL     1     -10.028  12.307  10.056  1.00  0.00     0.173 A 
ATOM     87  C   UNL     1     -11.262  10.419  10.832  1.00  0.00     0.173 A 
ATOM     88  F   UNL     1      -9.189  12.926   9.215  1.00  0.00    -0.203 F 
ATOM     89  C   UNL     1     -10.712  13.117  10.968  1.00  0.00     0.198 A 
ATOM     90  C   UNL     1     -11.983  11.240  11.700  1.00  0.00     0.198 A 
ATOM     91  F   UNL     1     -11.597   9.121  10.828  1.00  0.00    -0.203 F 
ATOM     92  F   UNL     1     -10.431  14.427  11.033  1.00  0.00    -0.200 F 
ATOM     93  C   UNL     1     -11.695  12.586  11.782  1.00  0.00     0.200 A 
ATOM     94  F   UNL     1     -12.970  10.720  12.442  1.00  0.00    -0.200 F 
ATOM     95  F   UNL     1     -12.377  13.374  12.624  1.00  0.00    -0.200 F 
ENDBRANCH  62  85
ENDBRANCH  36  37
ENDBRANCH  28  31
ENDBRANCH  26  27
ENDBRANCH  25  26
ENDBRANCH   1  25
TORSDOF 13
