REMARK SMILES COc1ccccc1OC1CCN(c2cccc(C(=O)NCCCNC(=O)c3ccc(-c4c5nc(c(-c6c(F)c(F)c(F)c(F)c6F)c6ccc([nH]6)c(-c6c(F)c(F)c(F)c(F)c6F)c6nc(c(-c7c(F)c(F)c(F)c(F)c7F)c7ccc4[nH]7)C=C6)C=C5)cc3)n2)CC1
REMARK SMILES IDX 22 1 21 2 19 3 20 4 18 6 14 7 15 8 91 9 16 10 17 11 13 12
REMARK SMILES IDX 10 13 11 14 93 15 12 16 92 17 9 18 8 19 3 20 4 21 5 22 7 23
REMARK SMILES IDX 6 24 2 25 1 26 23 27 24 28 25 29 26 30 27 32 28 33 29 34
REMARK SMILES IDX 90 35 30 36 89 37 31 38 32 39 33 40 83 41 34 42 88 43 82 44
REMARK SMILES IDX 84 45 35 46 87 47 81 48 80 49 36 51 68 52 48 53 67 54 49 55
REMARK SMILES IDX 52 56 66 57 85 58 50 59 51 60 65 62 86 63 53 64 37 65 38 66
REMARK SMILES IDX 46 67 39 68 40 69 44 70 47 71 41 72 42 73 45 74 43 75 69 76
REMARK SMILES IDX 70 77 78 78 71 79 72 80 76 81 79 82 73 83 74 84 77 85 75 86
REMARK SMILES IDX 54 87 55 88 63 89 56 90 57 91 61 92 64 93 58 94 59 95 62 96
REMARK SMILES IDX 60 97
REMARK H PARENT 21 5 25 31 84 50 52 61
REMARK Flexibility Score: inf
ROOT
ATOM      1  C   UNL     1      -4.315   2.361   5.042  1.00  0.00     0.118 C 
ENDROOT
BRANCH   1   2
ATOM      2  N   UNL     1      -2.925   2.036   5.228  1.00  0.00    -0.351 N 
ATOM      3  C   UNL     1      -2.085   1.198   4.541  1.00  0.00     0.269 C 
ATOM      4  O   UNL     1      -0.956   1.071   5.025  1.00  0.00    -0.268 OA
ATOM      5  H   UNL     1      -2.500   2.499   5.986  1.00  0.00     0.163 HD
BRANCH   3   6
ATOM      6  C   UNL     1      -2.443   0.514   3.247  1.00  0.00     0.130 A 
ATOM      7  C   UNL     1      -1.442  -0.415   1.359  1.00  0.00     0.129 A 
ATOM      8  C   UNL     1      -2.662  -0.547   0.725  1.00  0.00     0.047 A 
ATOM      9  N   UNL     1      -1.342   0.111   2.585  1.00  0.00    -0.226 NA
ATOM     10  C   UNL     1      -3.814  -0.208   1.425  1.00  0.00     0.006 A 
ATOM     11  C   UNL     1      -3.706   0.311   2.715  1.00  0.00     0.034 A 
BRANCH   7  12
ATOM     12  N   UNL     1      -0.265  -0.811   0.785  1.00  0.00    -0.356 N 
ATOM     13  C   UNL     1       3.370  -0.778  -0.275  1.00  0.00     0.177 C 
ATOM     14  C   UNL     1       2.874  -1.229   1.549  1.00  0.00     0.066 C 
ATOM     15  C   UNL     1       1.979  -0.075  -1.442  1.00  0.00     0.066 C 
ATOM     16  C   UNL     1       0.995  -1.442   1.980  1.00  0.00     0.122 C 
ATOM     17  C   UNL     1       0.116  -0.324  -0.943  1.00  0.00     0.122 C 
BRANCH  13  18
ATOM     18  O   UNL     1       3.809  -2.030  -0.881  1.00  0.00    -0.486 OA
BRANCH  18  19
ATOM     19  C   UNL     1       2.743  -2.907  -0.887  1.00  0.00     0.161 A 
ATOM     20  C   UNL     1       1.499  -2.494  -0.383  1.00  0.00     0.160 A 
ATOM     21  C   UNL     1       0.423  -3.377  -0.403  1.00  0.00     0.050 A 
ATOM     22  C   UNL     1       0.597  -4.666  -0.911  1.00  0.00     0.004 A 
ATOM     23  C   UNL     1       2.925  -4.190  -1.385  1.00  0.00     0.050 A 
ATOM     24  C   UNL     1       1.845  -5.074  -1.393  1.00  0.00     0.004 A 
BRANCH  20  25
ATOM     25  O   UNL     1       1.560  -1.201   0.096  1.00  0.00    -0.493 OA
ATOM     26  C   UNL     1       1.530   0.523   0.775  1.00  0.00     0.278 C 
ENDBRANCH  20  25
ENDBRANCH  18  19
ENDBRANCH  13  18
ENDBRANCH   7  12
ENDBRANCH   3   6
ENDBRANCH   1   2
BRANCH   1  27
ATOM     27  C   UNL     1      -5.183   1.359   5.797  1.00  0.00     0.042 C 
BRANCH  27  28
ATOM     28  C   UNL     1      -5.240   1.671   7.287  1.00  0.00     0.118 C 
BRANCH  28  29
ATOM     29  N   UNL     1      -5.903   2.946   7.523  1.00  0.00    -0.352 N 
ATOM     30  C   UNL     1      -7.090   3.217   8.146  1.00  0.00     0.251 C 
ATOM     31  H   UNL     1      -5.423   3.735   7.182  1.00  0.00     0.163 HD
ATOM     32  O   UNL     1      -7.650   4.288   7.939  1.00  0.00    -0.269 OA
BRANCH  30  33
ATOM     33  C   UNL     1      -7.677   2.242   9.084  1.00  0.00     0.039 A 
ATOM     34  C   UNL     1      -9.067   2.183   9.207  1.00  0.00     0.014 A 
ATOM     35  C   UNL     1      -6.864   1.454   9.904  1.00  0.00     0.014 A 
ATOM     36  C   UNL     1      -9.637   1.337  10.156  1.00  0.00     0.010 A 
ATOM     37  C   UNL     1      -7.435   0.533  10.770  1.00  0.00     0.010 A 
ATOM     38  C   UNL     1      -8.824   0.503  10.940  1.00  0.00    -0.014 A 
BRANCH  38  39
ATOM     39  C   UNL     1      -9.413  -0.354  11.993  1.00  0.00     0.031 A 
ATOM     40  C   UNL     1      -9.056  -0.123  13.436  1.00  0.00     0.074 A 
ATOM     41  C   UNL     1     -10.237  -1.357  11.643  1.00  0.00     0.049 A 
ATOM     42  N   UNL     1      -9.463  -0.762  14.503  1.00  0.00    -0.248 NA
ATOM     43  C   UNL     1      -8.083   0.946  13.716  1.00  0.00     0.031 C 
ATOM     44  C   UNL     1     -10.595  -1.712  10.269  1.00  0.00     0.029 A 
ATOM     45  N   UNL     1     -10.920  -2.261  12.413  1.00  0.00    -0.354 N 
ATOM     46  C   UNL     1      -8.782  -0.188  15.569  1.00  0.00     0.074 A 
ATOM     47  C   UNL     1      -7.882   0.798  15.016  1.00  0.00     0.031 C 
ATOM     48  C   UNL     1     -11.461  -2.737  10.295  1.00  0.00     0.029 A 
ATOM     49  C   UNL     1     -11.688  -3.131  11.682  1.00  0.00     0.049 A 
ATOM     50  H   UNL     1     -10.866  -2.283  13.396  1.00  0.00     0.167 HD
ATOM     51  C   UNL     1      -8.917  -0.440  16.893  1.00  0.00     0.037 A 
ATOM     52  C   UNL     1     -12.488  -4.133  12.089  1.00  0.00     0.037 A 
ATOM     53  C   UNL     1      -9.835  -1.410  17.429  1.00  0.00     0.049 A 
ATOM     54  C   UNL     1     -12.648  -4.377  13.564  1.00  0.00     0.074 A 
ATOM     55  C   UNL     1     -10.110  -1.703  18.752  1.00  0.00     0.029 A 
ATOM     56  N   UNL     1     -10.624  -2.256  16.659  1.00  0.00    -0.354 N 
ATOM     57  N   UNL     1     -12.067  -3.771  14.572  1.00  0.00    -0.248 NA
ATOM     58  C   UNL     1     -13.592  -5.429  13.958  1.00  0.00     0.031 C 
ATOM     59  C   UNL     1     -11.016  -2.769  18.783  1.00  0.00     0.029 A 
ATOM     60  C   UNL     1     -11.366  -3.091  17.480  1.00  0.00     0.049 A 
ATOM     61  H   UNL     1     -10.652  -2.262  15.675  1.00  0.00     0.167 HD
ATOM     62  C   UNL     1     -12.595  -4.346  15.721  1.00  0.00     0.074 A 
ATOM     63  C   UNL     1     -13.556  -5.337  15.280  1.00  0.00     0.031 C 
ATOM     64  C   UNL     1     -12.315  -4.076  17.021  1.00  0.00     0.037 A 
BRANCH  51  65
ATOM     65  C   UNL     1      -8.040   0.335  17.839  1.00  0.00     0.064 A 
ATOM     66  C   UNL     1      -8.158   1.726  17.996  1.00  0.00     0.173 A 
ATOM     67  C   UNL     1      -7.058  -0.323  18.596  1.00  0.00     0.173 A 
ATOM     68  F   UNL     1      -9.071   2.411  17.290  1.00  0.00    -0.203 F 
ATOM     69  C   UNL     1      -7.294   2.432  18.830  1.00  0.00     0.198 A 
ATOM     70  C   UNL     1      -6.224   0.381  19.461  1.00  0.00     0.198 A 
ATOM     71  F   UNL     1      -6.902  -1.652  18.494  1.00  0.00    -0.203 F 
ATOM     72  F   UNL     1      -7.377   3.768  18.901  1.00  0.00    -0.200 F 
ATOM     73  C   UNL     1      -6.332   1.759  19.566  1.00  0.00     0.200 A 
ATOM     74  F   UNL     1      -5.304  -0.274  20.183  1.00  0.00    -0.200 F 
ATOM     75  F   UNL     1      -5.501   2.439  20.367  1.00  0.00    -0.200 F 
ENDBRANCH  51  65
BRANCH  52  76
ATOM     76  C   UNL     1     -13.222  -4.939  11.081  1.00  0.00     0.064 A 
ATOM     77  C   UNL     1     -14.612  -4.830  10.938  1.00  0.00     0.173 A 
ATOM     78  C   UNL     1     -12.544  -5.807  10.213  1.00  0.00     0.173 A 
ATOM     79  F   UNL     1     -15.307  -4.021  11.752  1.00  0.00    -0.203 F 
ATOM     80  C   UNL     1     -15.298  -5.570   9.978  1.00  0.00     0.198 A 
ATOM     81  C   UNL     1     -13.226  -6.523   9.232  1.00  0.00     0.198 A 
ATOM     82  F   UNL     1     -11.212  -5.936  10.298  1.00  0.00    -0.203 F 
ATOM     83  F   UNL     1     -16.631  -5.475   9.887  1.00  0.00    -0.200 F 
ATOM     84  C   UNL     1     -14.603  -6.410   9.120  1.00  0.00     0.200 A 
ATOM     85  F   UNL     1     -12.548  -7.316   8.391  1.00  0.00    -0.200 F 
ATOM     86  F   UNL     1     -15.261  -7.110   8.186  1.00  0.00    -0.200 F 
ENDBRANCH  52  76
BRANCH  64  87
ATOM     87  C   UNL     1     -13.092  -4.835  18.059  1.00  0.00     0.064 A 
ATOM     88  C   UNL     1     -12.919  -6.213  18.258  1.00  0.00     0.173 A 
ATOM     89  C   UNL     1     -14.014  -4.166  18.879  1.00  0.00     0.173 A 
ATOM     90  F   UNL     1     -12.058  -6.904  17.494  1.00  0.00    -0.203 F 
ATOM     91  C   UNL     1     -13.673  -6.900  19.206  1.00  0.00     0.198 A 
ATOM     92  C   UNL     1     -14.736  -4.848  19.854  1.00  0.00     0.198 A 
ATOM     93  F   UNL     1     -14.211  -2.846  18.740  1.00  0.00    -0.203 F 
ATOM     94  F   UNL     1     -13.542  -8.228  19.329  1.00  0.00    -0.200 F 
ATOM     95  C   UNL     1     -14.575  -6.216  20.007  1.00  0.00     0.200 A 
ATOM     96  F   UNL     1     -15.593  -4.181  20.639  1.00  0.00    -0.200 F 
ATOM     97  F   UNL     1     -15.299  -6.878  20.920  1.00  0.00    -0.200 F 
ENDBRANCH  64  87
ENDBRANCH  38  39
ENDBRANCH  30  33
ENDBRANCH  28  29
ENDBRANCH  27  28
ENDBRANCH   1  27
TORSDOF 14
