REMARK SMILES O=C(NCCCNC(=O)[C@@H]1CC=CC[C@@H]1C(=O)Nc1ccc(O)cc1)c1ccc(-c2c3nc(c(-c4c(F)c(F)c(F)c(F)c4F)c4ccc([nH]4)c(-c4c(F)c(F)c(F)c(F)c4F)c4nc(c(-c5c(F)c(F)c(F)c(F)c5F)c5ccc2[nH]5)C=C4)C=C3)cc1
REMARK SMILES IDX 5 1 4 2 3 3 1 4 2 5 26 7 27 8 88 9 28 10 87 11 29 12 30 13
REMARK SMILES IDX 31 14 81 15 32 16 86 17 80 18 82 19 33 20 85 21 79 22 78 23
REMARK SMILES IDX 34 25 66 26 46 27 65 28 47 29 50 30 64 31 83 32 48 33 49 34
REMARK SMILES IDX 63 36 84 37 51 38 35 39 36 40 44 41 37 42 38 43 42 44 45 45
REMARK SMILES IDX 39 46 40 47 43 48 41 49 67 50 68 51 76 52 69 53 70 54 74 55
REMARK SMILES IDX 77 56 71 57 72 58 75 59 73 60 52 61 53 62 61 63 54 64 55 65
REMARK SMILES IDX 59 66 62 67 56 68 57 69 60 70 58 71 6 72 7 73 8 74 9 76
REMARK SMILES IDX 10 77 11 78 15 79 12 80 14 81 13 82 16 83 17 84 18 85 19 87
REMARK SMILES IDX 20 88 25 89 21 90 24 91 22 92 23 93
REMARK H PARENT 3 6 82 24 50 35 7 75 18 86 23 94
REMARK Flexibility Score: inf
ROOT
ATOM      1  C   UNL     1       5.109  -7.450   0.381  1.00  0.00     0.042 C 
ENDROOT
BRANCH   1   2
ATOM      2  C   UNL     1       4.920  -8.840   0.979  1.00  0.00     0.118 C 
BRANCH   2   3
ATOM      3  N   UNL     1       5.734  -9.910   0.405  1.00  0.00    -0.352 N 
ATOM      4  O   UNL     1       6.779 -11.917   0.326  1.00  0.00    -0.269 OA
ATOM      5  C   UNL     1       6.099 -11.120   0.966  1.00  0.00     0.251 C 
ATOM      6  H   UNL     1       6.067  -9.747  -0.507  1.00  0.00     0.163 HD
BRANCH   5   7
ATOM      7  C   UNL     1       5.734 -11.406   2.372  1.00  0.00     0.039 A 
ATOM      8  C   UNL     1       4.474 -11.063   2.851  1.00  0.00     0.014 A 
ATOM      9  C   UNL     1       6.705 -11.892   3.252  1.00  0.00     0.014 A 
ATOM     10  C   UNL     1       4.290 -10.906   4.215  1.00  0.00     0.010 A 
ATOM     11  C   UNL     1       6.462 -11.873   4.631  1.00  0.00     0.010 A 
ATOM     12  C   UNL     1       5.289 -11.286   5.128  1.00  0.00    -0.014 A 
BRANCH  12  13
ATOM     13  C   UNL     1       5.082 -10.989   6.573  1.00  0.00     0.031 A 
ATOM     14  C   UNL     1       6.026 -10.080   7.324  1.00  0.00     0.074 A 
ATOM     15  C   UNL     1       3.965 -11.439   7.178  1.00  0.00     0.049 A 
ATOM     16  N   UNL     1       5.957  -9.664   8.566  1.00  0.00    -0.248 NA
ATOM     17  C   UNL     1       7.205  -9.581   6.600  1.00  0.00     0.031 C 
ATOM     18  C   UNL     1       2.971 -12.318   6.558  1.00  0.00     0.029 A 
ATOM     19  N   UNL     1       3.442 -11.174   8.418  1.00  0.00    -0.354 N 
ATOM     20  C   UNL     1       7.105  -8.911   8.784  1.00  0.00     0.074 A 
ATOM     21  C   UNL     1       7.857  -8.924   7.549  1.00  0.00     0.031 C 
ATOM     22  C   UNL     1       1.913 -12.431   7.372  1.00  0.00     0.029 A 
ATOM     23  C   UNL     1       2.190 -11.708   8.608  1.00  0.00     0.049 A 
ATOM     24  H   UNL     1       3.917 -10.652   9.105  1.00  0.00     0.167 HD
ATOM     25  C   UNL     1       7.495  -8.268   9.911  1.00  0.00     0.037 A 
ATOM     26  C   UNL     1       1.356 -11.631   9.661  1.00  0.00     0.037 A 
ATOM     27  C   UNL     1       6.711  -8.198  11.117  1.00  0.00     0.049 A 
ATOM     28  C   UNL     1       1.790 -10.871  10.878  1.00  0.00     0.074 A 
ATOM     29  C   UNL     1       7.006  -7.548  12.304  1.00  0.00     0.029 A 
ATOM     30  N   UNL     1       5.465  -8.784  11.283  1.00  0.00    -0.354 N 
ATOM     31  N   UNL     1       2.892 -10.189  11.075  1.00  0.00    -0.248 NA
ATOM     32  C   UNL     1       0.875 -10.886  12.026  1.00  0.00     0.031 C 
ATOM     33  C   UNL     1       5.951  -7.766  13.197  1.00  0.00     0.029 A 
ATOM     34  C   UNL     1       4.982  -8.518  12.554  1.00  0.00     0.049 A 
ATOM     35  H   UNL     1       4.993  -9.311  10.598  1.00  0.00     0.167 HD
ATOM     36  C   UNL     1       2.805  -9.694  12.367  1.00  0.00     0.074 A 
ATOM     37  C   UNL     1       1.527 -10.127  12.896  1.00  0.00     0.031 C 
ATOM     38  C   UNL     1       3.708  -8.958  13.059  1.00  0.00     0.037 A 
BRANCH  25  39
ATOM     39  C   UNL     1       8.844  -7.609   9.912  1.00  0.00     0.064 A 
ATOM     40  C   UNL     1       9.091  -6.413   9.221  1.00  0.00     0.173 A 
ATOM     41  C   UNL     1       9.896  -8.162  10.660  1.00  0.00     0.173 A 
ATOM     42  F   UNL     1       8.124  -5.851   8.480  1.00  0.00    -0.203 F 
ATOM     43  C   UNL     1      10.344  -5.806   9.265  1.00  0.00     0.198 A 
ATOM     44  C   UNL     1      11.140  -7.540  10.722  1.00  0.00     0.198 A 
ATOM     45  F   UNL     1       9.712  -9.302  11.343  1.00  0.00    -0.203 F 
ATOM     46  F   UNL     1      10.568  -4.683   8.568  1.00  0.00    -0.200 F 
ATOM     47  C   UNL     1      11.365  -6.365  10.021  1.00  0.00     0.200 A 
ATOM     48  F   UNL     1      12.120  -8.076  11.461  1.00  0.00    -0.200 F 
ATOM     49  F   UNL     1      12.567  -5.774  10.069  1.00  0.00    -0.200 F 
ENDBRANCH  25  39
BRANCH  26  50
ATOM     50  C   UNL     1       0.029 -12.296   9.597  1.00  0.00     0.064 A 
ATOM     51  C   UNL     1      -1.152 -11.544   9.538  1.00  0.00     0.173 A 
ATOM     52  C   UNL     1      -0.082 -13.694   9.555  1.00  0.00     0.173 A 
ATOM     53  F   UNL     1      -1.098 -10.206   9.595  1.00  0.00    -0.203 F 
ATOM     54  C   UNL     1      -2.395 -12.167   9.443  1.00  0.00     0.198 A 
ATOM     55  C   UNL     1      -1.323 -14.313   9.428  1.00  0.00     0.198 A 
ATOM     56  F   UNL     1       1.020 -14.457   9.603  1.00  0.00    -0.203 F 
ATOM     57  F   UNL     1      -3.512 -11.427   9.417  1.00  0.00    -0.200 F 
ATOM     58  C   UNL     1      -2.479 -13.550   9.377  1.00  0.00     0.200 A 
ATOM     59  F   UNL     1      -1.396 -15.648   9.344  1.00  0.00    -0.200 F 
ATOM     60  F   UNL     1      -3.673 -14.147   9.265  1.00  0.00    -0.200 F 
ENDBRANCH  26  50
BRANCH  38  61
ATOM     61  C   UNL     1       3.332  -8.567  14.456  1.00  0.00     0.064 A 
ATOM     62  C   UNL     1       3.344  -9.499  15.503  1.00  0.00     0.173 A 
ATOM     63  C   UNL     1       2.965  -7.246  14.749  1.00  0.00     0.173 A 
ATOM     64  F   UNL     1       3.672 -10.778  15.265  1.00  0.00    -0.203 F 
ATOM     65  C   UNL     1       2.974  -9.128  16.792  1.00  0.00     0.198 A 
ATOM     66  C   UNL     1       2.618  -6.873  16.044  1.00  0.00     0.198 A 
ATOM     67  F   UNL     1       2.942  -6.319  13.780  1.00  0.00    -0.203 F 
ATOM     68  F   UNL     1       2.945 -10.045  17.769  1.00  0.00    -0.200 F 
ATOM     69  C   UNL     1       2.615  -7.816  17.062  1.00  0.00     0.200 A 
ATOM     70  F   UNL     1       2.278  -5.604  16.306  1.00  0.00    -0.200 F 
ATOM     71  F   UNL     1       2.254  -7.461  18.303  1.00  0.00    -0.200 F 
ENDBRANCH  38  61
ENDBRANCH  12  13
ENDBRANCH   5   7
ENDBRANCH   2   3
ENDBRANCH   1   2
BRANCH   1  72
ATOM     72  C   UNL     1       5.030  -7.474  -1.131  1.00  0.00     0.117 C 
BRANCH  72  73
ATOM     73  N   UNL     1       4.519  -6.265  -1.738  1.00  0.00    -0.356 N 
ATOM     74  C   UNL     1       5.081  -5.605  -2.798  1.00  0.00     0.224 C 
ATOM     75  H   UNL     1       3.696  -5.883  -1.356  1.00  0.00     0.163 HD
ATOM     76  O   UNL     1       4.345  -5.354  -3.756  1.00  0.00    -0.275 OA
BRANCH  74  77
ATOM     77  C   UNL     1       6.450  -4.942  -2.658  1.00  0.00     0.095 C 
ATOM     78  C   UNL     1       6.941  -4.227  -3.933  1.00  0.00     0.041 C 
ATOM     79  C   UNL     1       7.618  -5.582  -1.900  1.00  0.00     0.095 C 
ATOM     80  C   UNL     1       8.140  -3.360  -3.666  1.00  0.00    -0.030 C 
ATOM     81  C   UNL     1       8.487  -4.371  -1.406  1.00  0.00     0.041 C 
ATOM     82  C   UNL     1       8.822  -3.402  -2.512  1.00  0.00    -0.030 C 
BRANCH  79  83
ATOM     83  C   UNL     1       8.579  -6.625  -2.548  1.00  0.00     0.228 C 
ATOM     84  O   UNL     1       9.805  -6.512  -2.389  1.00  0.00    -0.274 OA
ATOM     85  N   UNL     1       8.202  -7.849  -3.019  1.00  0.00    -0.326 N 
ATOM     86  H   UNL     1       8.898  -8.532  -2.887  1.00  0.00     0.169 HD
BRANCH  85  87
ATOM     87  C   UNL     1       7.065  -8.362  -3.645  1.00  0.00     0.041 A 
ATOM     88  C   UNL     1       6.381  -7.685  -4.644  1.00  0.00     0.030 A 
ATOM     89  C   UNL     1       6.650  -9.652  -3.294  1.00  0.00     0.030 A 
ATOM     90  C   UNL     1       5.201  -8.207  -5.181  1.00  0.00     0.048 A 
ATOM     91  C   UNL     1       5.457 -10.169  -3.806  1.00  0.00     0.048 A 
ATOM     92  C   UNL     1       4.726  -9.428  -4.724  1.00  0.00     0.115 A 
BRANCH  92  93
ATOM     93  O   UNL     1       3.541  -9.934  -5.165  1.00  0.00    -0.508 OA
ATOM     94  H   UNL     1       3.028  -9.454  -5.785  1.00  0.00     0.293 HD
ENDBRANCH  92  93
ENDBRANCH  85  87
ENDBRANCH  79  83
ENDBRANCH  74  77
ENDBRANCH  72  73
ENDBRANCH   1  72
TORSDOF 13
