REMARK SMILES Cc1cccc(NC(=O)C[C@@H]2CCCCO2)c1C(=O)NCCCNC(=O)c1ccc(-c2c3nc(c(-c4c(F)c(F)c(F)c(F)c4F)c4ccc([nH]4)c(-c4c(F)c(F)c(F)c(F)c4F)c4nc(c(-c5c(F)c(F)c(F)c(F)c5F)c5ccc2[nH]5)C=C4)C=C3)cc1
REMARK SMILES IDX 21 1 20 2 18 3 19 4 17 6 1 7 2 8 3 9 4 10 6 11 5 12 7 13
REMARK SMILES IDX 8 14 9 16 10 17 11 18 12 19 16 20 13 21 15 22 14 23 22 24
REMARK SMILES IDX 23 25 24 26 25 27 26 29 27 30 28 31 89 32 29 33 88 34 30 35
REMARK SMILES IDX 31 36 32 37 82 38 33 39 87 40 81 41 83 42 34 43 86 44 80 45
REMARK SMILES IDX 79 46 35 48 67 49 47 50 66 51 48 52 51 53 65 54 84 55 49 56
REMARK SMILES IDX 50 57 64 59 85 60 52 61 36 62 37 63 45 64 38 65 39 66 43 67
REMARK SMILES IDX 46 68 40 69 41 70 44 71 42 72 68 73 69 74 77 75 70 76 71 77
REMARK SMILES IDX 75 78 78 79 72 80 73 81 76 82 74 83 53 84 54 85 62 86 55 87
REMARK SMILES IDX 56 88 60 89 63 90 57 91 58 92 61 93 59 94
REMARK H PARENT 20 5 7 15 24 28 83 47 51 58
REMARK Flexibility Score: inf
ROOT
ATOM      1  C   UNL     1       3.528   1.357   0.341  1.00  0.00     0.118 C 
ENDROOT
BRANCH   1   2
ATOM      2  N   UNL     1       2.459   2.196  -0.185  1.00  0.00    -0.352 N 
ATOM      3  C   UNL     1       1.088   2.065  -0.205  1.00  0.00     0.253 C 
ATOM      4  O   UNL     1       0.460   2.993  -0.716  1.00  0.00    -0.269 OA
ATOM      5  H   UNL     1       2.781   3.023  -0.612  1.00  0.00     0.163 HD
BRANCH   3   6
ATOM      6  C   UNL     1       0.355   0.946   0.474  1.00  0.00     0.066 A 
ATOM      7  C   UNL     1       1.564  -0.992  -0.676  1.00  0.00     0.045 C 
ATOM      8  C   UNL     1       0.756  -0.404   0.443  1.00  0.00    -0.036 A 
ATOM      9  C   UNL     1       0.186  -1.326   1.341  1.00  0.00     0.004 A 
ATOM     10  C   UNL     1      -0.865  -0.949   2.164  1.00  0.00     0.002 A 
ATOM     11  C   UNL     1      -0.898   1.217   1.076  1.00  0.00     0.054 A 
ATOM     12  C   UNL     1      -1.434   0.309   1.998  1.00  0.00     0.027 A 
BRANCH  11  13
ATOM     13  N   UNL     1      -1.669   2.313   0.620  1.00  0.00    -0.325 N 
ATOM     14  C   UNL     1      -2.973   2.346   0.176  1.00  0.00     0.227 C 
ATOM     15  H   UNL     1      -1.205   3.182   0.620  1.00  0.00     0.169 HD
ATOM     16  O   UNL     1      -3.432   3.416  -0.235  1.00  0.00    -0.275 OA
BRANCH  14  17
ATOM     17  C   UNL     1      -3.841   1.097   0.141  1.00  0.00     0.132 C 
BRANCH  17  18
ATOM     18  C   UNL     1      -4.156   0.563  -1.270  1.00  0.00     0.127 C 
ATOM     19  C   UNL     1      -4.910  -0.779  -1.203  1.00  0.00     0.033 C 
ATOM     20  O   UNL     1      -3.026   0.405  -2.135  1.00  0.00    -0.378 OA
ATOM     21  C   UNL     1      -4.002  -1.922  -0.747  1.00  0.00     0.005 C 
ATOM     22  C   UNL     1      -2.112  -0.618  -1.773  1.00  0.00     0.160 C 
ATOM     23  C   UNL     1      -2.750  -1.986  -1.609  1.00  0.00     0.029 C 
ENDBRANCH  17  18
ENDBRANCH  14  17
ENDBRANCH  11  13
ENDBRANCH   3   6
ENDBRANCH   1   2
BRANCH   1  24
ATOM     24  C   UNL     1       4.236   0.612  -0.794  1.00  0.00     0.042 C 
BRANCH  24  25
ATOM     25  C   UNL     1       5.533   1.243  -1.266  1.00  0.00     0.118 C 
BRANCH  25  26
ATOM     26  N   UNL     1       6.697   0.370  -1.099  1.00  0.00    -0.352 N 
ATOM     27  C   UNL     1       8.003   0.600  -1.507  1.00  0.00     0.251 C 
ATOM     28  H   UNL     1       6.532  -0.485  -0.639  1.00  0.00     0.163 HD
ATOM     29  O   UNL     1       8.900  -0.184  -1.268  1.00  0.00    -0.269 OA
BRANCH  27  30
ATOM     30  C   UNL     1       8.278   1.911  -2.135  1.00  0.00     0.039 A 
ATOM     31  C   UNL     1       9.001   2.827  -1.369  1.00  0.00     0.014 A 
ATOM     32  C   UNL     1       7.480   2.321  -3.199  1.00  0.00     0.014 A 
ATOM     33  C   UNL     1       8.696   4.178  -1.485  1.00  0.00     0.010 A 
ATOM     34  C   UNL     1       7.106   3.650  -3.244  1.00  0.00     0.010 A 
ATOM     35  C   UNL     1       7.656   4.563  -2.333  1.00  0.00    -0.014 A 
BRANCH  35  36
ATOM     36  C   UNL     1       7.041   5.884  -2.266  1.00  0.00     0.031 A 
ATOM     37  C   UNL     1       7.362   6.885  -3.302  1.00  0.00     0.074 A 
ATOM     38  C   UNL     1       6.191   6.221  -1.268  1.00  0.00     0.049 A 
ATOM     39  N   UNL     1       7.349   8.159  -3.102  1.00  0.00    -0.248 NA
ATOM     40  C   UNL     1       7.775   6.512  -4.647  1.00  0.00     0.031 C 
ATOM     41  C   UNL     1       5.380   7.434  -1.183  1.00  0.00     0.029 A 
ATOM     42  N   UNL     1       6.045   5.619  -0.007  1.00  0.00    -0.354 N 
ATOM     43  C   UNL     1       7.495   8.775  -4.321  1.00  0.00     0.074 A 
ATOM     44  C   UNL     1       7.812   7.707  -5.242  1.00  0.00     0.031 C 
ATOM     45  C   UNL     1       5.096   7.675   0.105  1.00  0.00     0.029 A 
ATOM     46  C   UNL     1       5.793   6.684   0.899  1.00  0.00     0.049 A 
ATOM     47  H   UNL     1       6.105   4.659   0.205  1.00  0.00     0.167 HD
ATOM     48  C   UNL     1       7.220  10.107  -4.437  1.00  0.00     0.037 A 
ATOM     49  C   UNL     1       6.633   6.941   1.943  1.00  0.00     0.037 A 
ATOM     50  C   UNL     1       6.851  10.700  -3.152  1.00  0.00     0.049 A 
ATOM     51  C   UNL     1       7.309   8.292   1.887  1.00  0.00     0.074 A 
ATOM     52  C   UNL     1       5.647  11.030  -2.548  1.00  0.00     0.029 A 
ATOM     53  N   UNL     1       7.804  10.774  -2.152  1.00  0.00    -0.354 N 
ATOM     54  N   UNL     1       7.103   9.187   0.961  1.00  0.00    -0.248 NA
ATOM     55  C   UNL     1       8.373   8.682   2.813  1.00  0.00     0.031 C 
ATOM     56  C   UNL     1       5.898  11.321  -1.177  1.00  0.00     0.029 A 
ATOM     57  C   UNL     1       7.252  11.168  -0.946  1.00  0.00     0.049 A 
ATOM     58  H   UNL     1       8.758  10.570  -2.282  1.00  0.00     0.167 HD
ATOM     59  C   UNL     1       8.014  10.201   1.103  1.00  0.00     0.074 A 
ATOM     60  C   UNL     1       8.790   9.838   2.274  1.00  0.00     0.031 C 
ATOM     61  C   UNL     1       8.108  11.243   0.225  1.00  0.00     0.037 A 
BRANCH  48  62
ATOM     62  C   UNL     1       7.046  10.807  -5.766  1.00  0.00     0.064 A 
ATOM     63  C   UNL     1       6.167  11.902  -5.897  1.00  0.00     0.173 A 
ATOM     64  C   UNL     1       7.677  10.414  -6.961  1.00  0.00     0.173 A 
ATOM     65  F   UNL     1       5.597  12.475  -4.830  1.00  0.00    -0.203 F 
ATOM     66  C   UNL     1       5.838  12.454  -7.138  1.00  0.00     0.198 A 
ATOM     67  C   UNL     1       7.299  10.917  -8.209  1.00  0.00     0.198 A 
ATOM     68  F   UNL     1       8.722   9.576  -6.952  1.00  0.00    -0.203 F 
ATOM     69  F   UNL     1       4.990  13.490  -7.200  1.00  0.00    -0.200 F 
ATOM     70  C   UNL     1       6.366  11.929  -8.299  1.00  0.00     0.200 A 
ATOM     71  F   UNL     1       7.849  10.415  -9.324  1.00  0.00    -0.200 F 
ATOM     72  F   UNL     1       6.004  12.416  -9.493  1.00  0.00    -0.200 F 
ENDBRANCH  48  62
BRANCH  49  73
ATOM     73  C   UNL     1       7.233   5.697   2.489  1.00  0.00     0.064 A 
ATOM     74  C   UNL     1       6.353   4.734   3.023  1.00  0.00     0.173 A 
ATOM     75  C   UNL     1       8.504   5.272   2.092  1.00  0.00     0.173 A 
ATOM     76  F   UNL     1       5.130   5.099   3.441  1.00  0.00    -0.203 F 
ATOM     77  C   UNL     1       6.663   3.379   2.975  1.00  0.00     0.198 A 
ATOM     78  C   UNL     1       8.824   3.916   2.084  1.00  0.00     0.198 A 
ATOM     79  F   UNL     1       9.385   6.144   1.581  1.00  0.00    -0.203 F 
ATOM     80  F   UNL     1       5.739   2.470   3.319  1.00  0.00    -0.200 F 
ATOM     81  C   UNL     1       7.884   2.970   2.467  1.00  0.00     0.200 A 
ATOM     82  F   UNL     1      10.010   3.519   1.604  1.00  0.00    -0.200 F 
ATOM     83  F   UNL     1       8.133   1.664   2.299  1.00  0.00    -0.200 F 
ENDBRANCH  49  73
BRANCH  61  84
ATOM     84  C   UNL     1       9.057  12.399   0.406  1.00  0.00     0.064 A 
ATOM     85  C   UNL     1       9.314  12.975   1.662  1.00  0.00     0.173 A 
ATOM     86  C   UNL     1       9.671  13.036  -0.694  1.00  0.00     0.173 A 
ATOM     87  F   UNL     1       8.693  12.529   2.765  1.00  0.00    -0.203 F 
ATOM     88  C   UNL     1      10.200  14.043   1.818  1.00  0.00     0.198 A 
ATOM     89  C   UNL     1      10.511  14.139  -0.542  1.00  0.00     0.198 A 
ATOM     90  F   UNL     1       9.497  12.598  -1.949  1.00  0.00    -0.203 F 
ATOM     91  F   UNL     1      10.472  14.506   3.046  1.00  0.00    -0.200 F 
ATOM     92  C   UNL     1      10.796  14.627   0.716  1.00  0.00     0.200 A 
ATOM     93  F   UNL     1      11.051  14.717  -1.625  1.00  0.00    -0.200 F 
ATOM     94  F   UNL     1      11.637  15.658   0.866  1.00  0.00    -0.200 F 
ENDBRANCH  61  84
ENDBRANCH  35  36
ENDBRANCH  27  30
ENDBRANCH  25  26
ENDBRANCH  24  25
ENDBRANCH   1  24
TORSDOF 13
