REMARK SMILES CC[C@@H](C)N1C(=O)/C(=C/Nc2cccc(C(=O)NCCCNC(=O)c3ccc(-c4c5nc(c(-c6c(F)c(F)c(F)c(F)c6F)c6ccc([nH]6)c(-c6c(F)c(F)c(F)c(F)c6F)c6nc(c(-c7c(F)c(F)c(F)c(F)c7F)c7ccc4[nH]7)C=C6)C=C5)cc3)c2)C(=O)NC1=S
REMARK SMILES IDX 19 1 18 2 16 3 17 4 15 6 11 7 12 8 88 9 13 10 14 11 10 12
REMARK SMILES IDX 9 14 5 15 6 16 92 17 7 18 8 19 91 20 93 21 89 22 90 24 3 25
REMARK SMILES IDX 4 26 2 27 1 28 20 29 21 30 22 31 23 32 24 34 25 35 26 36
REMARK SMILES IDX 87 37 27 38 86 39 28 40 29 41 30 42 80 43 31 44 85 45 79 46
REMARK SMILES IDX 81 47 32 48 84 49 78 50 77 51 33 53 65 54 45 55 64 56 46 57
REMARK SMILES IDX 49 58 63 59 82 60 47 61 48 62 62 64 83 65 50 66 34 67 35 68
REMARK SMILES IDX 43 69 36 70 37 71 41 72 44 73 38 74 39 75 42 76 40 77 66 78
REMARK SMILES IDX 67 79 75 80 68 81 69 82 73 83 76 84 70 85 71 86 74 87 72 88
REMARK SMILES IDX 51 89 52 90 60 91 53 92 54 93 58 94 61 95 55 96 56 97 59 98
REMARK SMILES IDX 57 99
REMARK H PARENT 18 5 10 13 91 23 22 33 81 52 49 63
REMARK Flexibility Score: inf
ROOT
ATOM      1  C   UNL     1       4.934   3.013  -3.502  1.00  0.00     0.118 C 
ENDROOT
BRANCH   1   2
ATOM      2  N   UNL     1       5.655   4.218  -3.889  1.00  0.00    -0.352 N 
ATOM      3  C   UNL     1       5.639   5.001  -5.022  1.00  0.00     0.251 C 
ATOM      4  O   UNL     1       6.414   5.956  -5.066  1.00  0.00    -0.269 OA
ATOM      5  H   UNL     1       6.282   4.538  -3.200  1.00  0.00     0.163 HD
BRANCH   3   6
ATOM      6  C   UNL     1       4.787   4.704  -6.205  1.00  0.00     0.041 A 
ATOM      7  C   UNL     1       2.935   3.509  -7.240  1.00  0.00     0.039 A 
ATOM      8  C   UNL     1       3.413   3.897  -8.497  1.00  0.00     0.026 A 
ATOM      9  C   UNL     1       3.557   4.050  -6.110  1.00  0.00     0.039 A 
ATOM     10  C   UNL     1       4.545   4.710  -8.612  1.00  0.00     0.003 A 
ATOM     11  C   UNL     1       5.254   5.078  -7.469  1.00  0.00     0.014 A 
BRANCH   7  12
ATOM     12  N   UNL     1       1.873   2.585  -7.151  1.00  0.00    -0.361 N 
ATOM     13  H   UNL     1       1.488   2.272  -8.001  1.00  0.00     0.166 HD
BRANCH  12  14
ATOM     14  C   UNL     1       1.319   2.073  -5.994  1.00  0.00     0.102 C 
ATOM     15  N   UNL     1       0.550  -0.813  -3.949  1.00  0.00    -0.282 N 
ATOM     16  C   UNL     1       0.379   0.513  -4.380  1.00  0.00     0.267 C 
ATOM     17  C   UNL     1       0.530  -1.833  -4.911  1.00  0.00     0.183 C 
ATOM     18  O   UNL     1      -0.171   1.405  -3.737  1.00  0.00    -0.268 OA
ATOM     19  C   UNL     1       0.871   0.830  -5.740  1.00  0.00     0.121 C 
ATOM     20  N   UNL     1       0.649  -1.459  -6.229  1.00  0.00    -0.298 N 
ATOM     21  S   UNL     1       0.378  -3.492  -4.735  1.00  0.00    -0.040 S 
ATOM     22  C   UNL     1       0.936  -0.228  -6.742  1.00  0.00     0.264 C 
ATOM     23  H   UNL     1       0.509  -2.175  -6.890  1.00  0.00     0.172 HD
ATOM     24  O   UNL     1       1.244  -0.058  -7.913  1.00  0.00    -0.269 OA
BRANCH  15  25
ATOM     25  C   UNL     1       0.898  -1.021  -2.464  1.00  0.00     0.090 C 
ATOM     26  C   UNL     1       0.412  -2.324  -1.810  1.00  0.00     0.031 C 
BRANCH  25  27
ATOM     27  C   UNL     1       0.553   0.169  -1.515  1.00  0.00     0.022 C 
ATOM     28  C   UNL     1       1.031   0.047  -0.069  1.00  0.00     0.006 C 
ENDBRANCH  25  27
ENDBRANCH  15  25
ENDBRANCH  12  14
ENDBRANCH   7  12
ENDBRANCH   3   6
ENDBRANCH   1   2
BRANCH   1  29
ATOM     29  C   UNL     1       5.832   1.828  -3.184  1.00  0.00     0.042 C 
BRANCH  29  30
ATOM     30  C   UNL     1       6.688   1.996  -1.941  1.00  0.00     0.118 C 
BRANCH  30  31
ATOM     31  N   UNL     1       5.896   2.129  -0.723  1.00  0.00    -0.352 N 
ATOM     32  C   UNL     1       5.668   1.255   0.312  1.00  0.00     0.251 C 
ATOM     33  H   UNL     1       5.446   2.999  -0.626  1.00  0.00     0.163 HD
ATOM     34  O   UNL     1       4.786   1.508   1.128  1.00  0.00    -0.269 OA
BRANCH  32  35
ATOM     35  C   UNL     1       6.445   0.002   0.444  1.00  0.00     0.039 A 
ATOM     36  C   UNL     1       5.802  -1.145   0.924  1.00  0.00     0.014 A 
ATOM     37  C   UNL     1       7.805  -0.050   0.139  1.00  0.00     0.014 A 
ATOM     38  C   UNL     1       6.502  -2.352   1.014  1.00  0.00     0.010 A 
ATOM     39  C   UNL     1       8.471  -1.272   0.124  1.00  0.00     0.010 A 
ATOM     40  C   UNL     1       7.830  -2.437   0.569  1.00  0.00    -0.014 A 
BRANCH  40  41
ATOM     41  C   UNL     1       8.574  -3.724   0.568  1.00  0.00     0.031 A 
ATOM     42  C   UNL     1       9.836  -3.868   1.377  1.00  0.00     0.074 A 
ATOM     43  C   UNL     1       8.158  -4.734  -0.222  1.00  0.00     0.049 A 
ATOM     44  N   UNL     1      10.675  -4.872   1.433  1.00  0.00    -0.248 NA
ATOM     45  C   UNL     1      10.227  -2.720   2.212  1.00  0.00     0.031 C 
ATOM     46  C   UNL     1       6.979  -4.700  -1.091  1.00  0.00     0.029 A 
ATOM     47  N   UNL     1       8.686  -5.984  -0.433  1.00  0.00    -0.354 N 
ATOM     48  C   UNL     1      11.699  -4.465   2.279  1.00  0.00     0.074 A 
ATOM     49  C   UNL     1      11.405  -3.107   2.678  1.00  0.00     0.031 C 
ATOM     50  C   UNL     1       6.859  -5.881  -1.718  1.00  0.00     0.029 A 
ATOM     51  C   UNL     1       7.975  -6.740  -1.335  1.00  0.00     0.049 A 
ATOM     52  H   UNL     1       9.498  -6.309   0.019  1.00  0.00     0.167 HD
ATOM     53  C   UNL     1      12.775  -5.169   2.703  1.00  0.00     0.037 A 
ATOM     54  C   UNL     1       8.205  -7.980  -1.807  1.00  0.00     0.037 A 
ATOM     55  C   UNL     1      13.037  -6.537   2.341  1.00  0.00     0.049 A 
ATOM     56  C   UNL     1       9.411  -8.737  -1.314  1.00  0.00     0.074 A 
ATOM     57  C   UNL     1      14.052  -7.366   2.787  1.00  0.00     0.029 A 
ATOM     58  N   UNL     1      12.281  -7.275   1.444  1.00  0.00    -0.354 N 
ATOM     59  N   UNL     1      10.322  -8.371  -0.446  1.00  0.00    -0.248 NA
ATOM     60  C   UNL     1       9.617 -10.083  -1.866  1.00  0.00     0.031 C 
ATOM     61  C   UNL     1      13.943  -8.588   2.117  1.00  0.00     0.029 A 
ATOM     62  C   UNL     1      12.824  -8.541   1.301  1.00  0.00     0.049 A 
ATOM     63  H   UNL     1      11.477  -6.949   0.979  1.00  0.00     0.167 HD
ATOM     64  C   UNL     1      11.183  -9.453  -0.318  1.00  0.00     0.074 A 
ATOM     65  C   UNL     1      10.677 -10.494  -1.186  1.00  0.00     0.031 C 
ATOM     66  C   UNL     1      12.294  -9.574   0.449  1.00  0.00     0.037 A 
BRANCH  53  67
ATOM     67  C   UNL     1      13.754  -4.485   3.613  1.00  0.00     0.064 A 
ATOM     68  C   UNL     1      13.433  -4.169   4.941  1.00  0.00     0.173 A 
ATOM     69  C   UNL     1      15.057  -4.207   3.170  1.00  0.00     0.173 A 
ATOM     70  F   UNL     1      12.198  -4.403   5.412  1.00  0.00    -0.203 F 
ATOM     71  C   UNL     1      14.373  -3.585   5.787  1.00  0.00     0.198 A 
ATOM     72  C   UNL     1      16.003  -3.652   4.027  1.00  0.00     0.198 A 
ATOM     73  F   UNL     1      15.419  -4.494   1.910  1.00  0.00    -0.203 F 
ATOM     74  F   UNL     1      14.032  -3.258   7.041  1.00  0.00    -0.200 F 
ATOM     75  C   UNL     1      15.660  -3.338   5.333  1.00  0.00     0.200 A 
ATOM     76  F   UNL     1      17.251  -3.428   3.591  1.00  0.00    -0.200 F 
ATOM     77  F   UNL     1      16.569  -2.793   6.154  1.00  0.00    -0.200 F 
ENDBRANCH  53  67
BRANCH  54  78
ATOM     78  C   UNL     1       7.274  -8.601  -2.788  1.00  0.00     0.064 A 
ATOM     79  C   UNL     1       6.512  -9.727  -2.443  1.00  0.00     0.173 A 
ATOM     80  C   UNL     1       7.158  -8.116  -4.099  1.00  0.00     0.173 A 
ATOM     81  F   UNL     1       6.601 -10.241  -1.207  1.00  0.00    -0.203 F 
ATOM     82  C   UNL     1       5.702 -10.366  -3.379  1.00  0.00     0.198 A 
ATOM     83  C   UNL     1       6.321  -8.735  -5.025  1.00  0.00     0.198 A 
ATOM     84  F   UNL     1       7.859  -7.038  -4.482  1.00  0.00    -0.203 F 
ATOM     85  F   UNL     1       5.039 -11.479  -3.039  1.00  0.00    -0.200 F 
ATOM     86  C   UNL     1       5.605  -9.867  -4.669  1.00  0.00     0.200 A 
ATOM     87  F   UNL     1       6.218  -8.240  -6.266  1.00  0.00    -0.200 F 
ATOM     88  F   UNL     1       4.832 -10.486  -5.572  1.00  0.00    -0.200 F 
ENDBRANCH  54  78
BRANCH  66  89
ATOM     89  C   UNL     1      13.007 -10.895   0.428  1.00  0.00     0.064 A 
ATOM     90  C   UNL     1      13.729 -11.329  -0.694  1.00  0.00     0.173 A 
ATOM     91  C   UNL     1      13.001 -11.720   1.564  1.00  0.00     0.173 A 
ATOM     92  F   UNL     1      13.754 -10.584  -1.810  1.00  0.00    -0.203 F 
ATOM     93  C   UNL     1      14.392 -12.552  -0.688  1.00  0.00     0.198 A 
ATOM     94  C   UNL     1      13.694 -12.925   1.579  1.00  0.00     0.198 A 
ATOM     95  F   UNL     1      12.333 -11.347   2.667  1.00  0.00    -0.203 F 
ATOM     96  F   UNL     1      15.030 -12.971  -1.789  1.00  0.00    -0.200 F 
ATOM     97  C   UNL     1      14.382 -13.345   0.451  1.00  0.00     0.200 A 
ATOM     98  F   UNL     1      13.698 -13.681   2.685  1.00  0.00    -0.200 F 
ATOM     99  F   UNL     1      15.030 -14.518   0.457  1.00  0.00    -0.200 F 
ENDBRANCH  66  89
ENDBRANCH  40  41
ENDBRANCH  32  35
ENDBRANCH  30  31
ENDBRANCH  29  30
ENDBRANCH   1  29
TORSDOF 14
