REMARK SMILES O=C(NCCCNC(=O)c1ccc(-c2c3nc(c(-c4c(F)c(F)c(F)c(F)c4F)c4ccc([nH]4)c(-c4c(F)c(F)c(F)c(F)c4F)c4nc(c(-c5c(F)c(F)c(F)c(F)c5F)c5ccc2[nH]5)C=C4)C=C3)cc1)c1ccc(NS(=O)(=O)C2=Cc3ccccc3CC2)cc1
REMARK SMILES IDX 4 1 3 2 1 3 2 4 73 6 74 7 92 8 75 9 91 10 76 11 77 12 78 14
REMARK SMILES IDX 79 15 80 16 81 17 82 18 90 19 83 20 89 21 84 22 88 23 85 24
REMARK SMILES IDX 87 25 86 26 5 27 6 28 7 29 8 30 9 32 10 33 11 34 72 35 12 36
REMARK SMILES IDX 71 37 13 38 14 39 15 40 65 41 16 42 70 43 64 44 66 45 17 46
REMARK SMILES IDX 69 47 63 48 62 49 18 51 50 52 30 53 49 54 31 55 34 56 48 57
REMARK SMILES IDX 67 58 32 59 33 60 47 62 68 63 35 64 19 65 20 66 28 67 21 68
REMARK SMILES IDX 22 69 26 70 29 71 23 72 24 73 27 74 25 75 51 76 52 77 60 78
REMARK SMILES IDX 53 79 54 80 58 81 61 82 55 83 56 84 59 85 57 86 36 87 37 88
REMARK SMILES IDX 45 89 38 90 39 91 43 92 46 93 40 94 41 95 44 96 42 97
REMARK H PARENT 3 5 77 13 7 31 66 50 34 61
REMARK Flexibility Score: inf
ROOT
ATOM      1  C   UNL     1       4.430  -1.235  -0.120  1.00  0.00     0.118 C 
ENDROOT
BRANCH   1   2
ATOM      2  N   UNL     1       2.986  -1.076  -0.050  1.00  0.00    -0.352 N 
ATOM      3  O   UNL     1       1.049  -0.092   0.539  1.00  0.00    -0.269 OA
ATOM      4  C   UNL     1       2.247   0.025   0.302  1.00  0.00     0.251 C 
ATOM      5  H   UNL     1       2.463  -1.874  -0.290  1.00  0.00     0.163 HD
BRANCH   4   6
ATOM      6  C   UNL     1       2.885   1.358   0.376  1.00  0.00     0.039 A 
ATOM      7  C   UNL     1       3.734   1.789  -0.646  1.00  0.00     0.016 A 
ATOM      8  C   UNL     1       2.549   2.231   1.415  1.00  0.00     0.016 A 
ATOM      9  C   UNL     1       4.289   3.066  -0.599  1.00  0.00     0.027 A 
ATOM     10  C   UNL     1       3.111   3.514   1.458  1.00  0.00     0.027 A 
ATOM     11  C   UNL     1       3.996   3.927   0.457  1.00  0.00     0.049 A 
BRANCH  11  12
ATOM     12  N   UNL     1       4.447   5.282   0.411  1.00  0.00    -0.280 N 
ATOM     13  H   UNL     1       3.795   6.012   0.306  1.00  0.00     0.180 HD
BRANCH  12  14
ATOM     14  S   UNL     1       6.107   5.640   0.537  1.00  0.00     0.258 S 
ATOM     15  O   UNL     1       6.205   7.017   0.087  1.00  0.00    -0.202 OA
ATOM     16  O   UNL     1       6.456   5.326   1.908  1.00  0.00    -0.202 OA
BRANCH  14  17
ATOM     17  C   UNL     1       7.006   4.573  -0.550  1.00  0.00     0.066 C 
ATOM     18  C   UNL     1       7.430   5.120  -1.711  1.00  0.00     0.026 C 
ATOM     19  C   UNL     1       7.978   3.646   0.140  1.00  0.00     0.055 C 
ATOM     20  C   UNL     1       8.799   5.710  -1.648  1.00  0.00    -0.021 A 
ATOM     21  C   UNL     1       9.271   4.398   0.482  1.00  0.00     0.041 C 
ATOM     22  C   UNL     1       9.203   6.604  -2.644  1.00  0.00     0.008 A 
ATOM     23  C   UNL     1       9.677   5.386  -0.593  1.00  0.00    -0.040 A 
ATOM     24  C   UNL     1      10.454   7.218  -2.565  1.00  0.00     0.001 A 
ATOM     25  C   UNL     1      10.918   6.028  -0.512  1.00  0.00     0.004 A 
ATOM     26  C   UNL     1      11.301   6.944  -1.493  1.00  0.00     0.000 A 
ENDBRANCH  14  17
ENDBRANCH  12  14
ENDBRANCH  11  12
ENDBRANCH   4   6
ENDBRANCH   1   2
BRANCH   1  27
ATOM     27  C   UNL     1       4.945  -2.236   0.902  1.00  0.00     0.042 C 
BRANCH  27  28
ATOM     28  C   UNL     1       4.439  -3.656   0.700  1.00  0.00     0.118 C 
BRANCH  28  29
ATOM     29  N   UNL     1       4.856  -4.235  -0.569  1.00  0.00    -0.352 N 
ATOM     30  C   UNL     1       5.586  -5.364  -0.840  1.00  0.00     0.251 C 
ATOM     31  H   UNL     1       4.565  -3.733  -1.365  1.00  0.00     0.163 HD
ATOM     32  O   UNL     1       5.960  -5.575  -1.991  1.00  0.00    -0.269 OA
BRANCH  30  33
ATOM     33  C   UNL     1       5.950  -6.316   0.234  1.00  0.00     0.039 A 
ATOM     34  C   UNL     1       7.200  -6.940   0.179  1.00  0.00     0.014 A 
ATOM     35  C   UNL     1       5.069  -6.625   1.273  1.00  0.00     0.014 A 
ATOM     36  C   UNL     1       7.584  -7.821   1.192  1.00  0.00     0.010 A 
ATOM     37  C   UNL     1       5.491  -7.420   2.334  1.00  0.00     0.010 A 
ATOM     38  C   UNL     1       6.746  -8.043   2.297  1.00  0.00    -0.014 A 
BRANCH  38  39
ATOM     39  C   UNL     1       7.161  -8.942   3.403  1.00  0.00     0.031 A 
ATOM     40  C   UNL     1       6.379 -10.192   3.701  1.00  0.00     0.074 A 
ATOM     41  C   UNL     1       8.216  -8.607   4.170  1.00  0.00     0.049 A 
ATOM     42  N   UNL     1       6.580 -11.094   4.630  1.00  0.00    -0.248 NA
ATOM     43  C   UNL     1       5.193 -10.449   2.868  1.00  0.00     0.031 C 
ATOM     44  C   UNL     1       9.009  -7.384   4.032  1.00  0.00     0.029 A 
ATOM     45  N   UNL     1       8.805  -9.267   5.219  1.00  0.00    -0.354 N 
ATOM     46  C   UNL     1       5.540 -12.005   4.504  1.00  0.00     0.074 A 
ATOM     47  C   UNL     1       4.676 -11.521   3.450  1.00  0.00     0.031 C 
ATOM     48  C   UNL     1      10.002  -7.399   4.936  1.00  0.00     0.029 A 
ATOM     49  C   UNL     1       9.901  -8.618   5.731  1.00  0.00     0.049 A 
ATOM     50  H   UNL     1       8.473 -10.125   5.571  1.00  0.00     0.167 HD
ATOM     51  C   UNL     1       5.338 -13.159   5.185  1.00  0.00     0.037 A 
ATOM     52  C   UNL     1      10.739  -8.976   6.723  1.00  0.00     0.037 A 
ATOM     53  C   UNL     1       6.221 -13.661   6.204  1.00  0.00     0.049 A 
ATOM     54  C   UNL     1      10.527 -10.291   7.421  1.00  0.00     0.074 A 
ATOM     55  C   UNL     1       6.144 -14.851   6.905  1.00  0.00     0.029 A 
ATOM     56  N   UNL     1       7.351 -12.999   6.661  1.00  0.00    -0.354 N 
ATOM     57  N   UNL     1       9.585 -11.183   7.239  1.00  0.00    -0.248 NA
ATOM     58  C   UNL     1      11.509 -10.655   8.451  1.00  0.00     0.031 C 
ATOM     59  C   UNL     1       7.210 -14.895   7.811  1.00  0.00     0.029 A 
ATOM     60  C   UNL     1       7.974 -13.752   7.643  1.00  0.00     0.049 A 
ATOM     61  H   UNL     1       7.663 -12.124   6.336  1.00  0.00     0.167 HD
ATOM     62  C   UNL     1       9.872 -12.224   8.111  1.00  0.00     0.074 A 
ATOM     63  C   UNL     1      11.089 -11.861   8.807  1.00  0.00     0.031 C 
ATOM     64  C   UNL     1       9.187 -13.375   8.321  1.00  0.00     0.037 A 
BRANCH  51  65
ATOM     65  C   UNL     1       4.120 -13.964   4.836  1.00  0.00     0.064 A 
ATOM     66  C   UNL     1       4.013 -14.643   3.612  1.00  0.00     0.173 A 
ATOM     67  C   UNL     1       3.057 -14.080   5.744  1.00  0.00     0.173 A 
ATOM     68  F   UNL     1       4.995 -14.552   2.702  1.00  0.00    -0.203 F 
ATOM     69  C   UNL     1       2.877 -15.384   3.299  1.00  0.00     0.198 A 
ATOM     70  C   UNL     1       1.935 -14.846   5.440  1.00  0.00     0.198 A 
ATOM     71  F   UNL     1       3.108 -13.454   6.930  1.00  0.00    -0.203 F 
ATOM     72  F   UNL     1       2.777 -15.981   2.103  1.00  0.00    -0.200 F 
ATOM     73  C   UNL     1       1.842 -15.491   4.215  1.00  0.00     0.200 A 
ATOM     74  F   UNL     1       0.939 -14.958   6.330  1.00  0.00    -0.200 F 
ATOM     75  F   UNL     1       0.751 -16.209   3.915  1.00  0.00    -0.200 F 
ENDBRANCH  51  65
BRANCH  52  76
ATOM     76  C   UNL     1      11.886  -8.101   7.074  1.00  0.00     0.064 A 
ATOM     77  C   UNL     1      13.199  -8.478   6.756  1.00  0.00     0.173 A 
ATOM     78  C   UNL     1      11.698  -6.877   7.730  1.00  0.00     0.173 A 
ATOM     79  F   UNL     1      13.429  -9.649   6.144  1.00  0.00    -0.203 F 
ATOM     80  C   UNL     1      14.282  -7.674   7.102  1.00  0.00     0.198 A 
ATOM     81  C   UNL     1      12.781  -6.061   8.052  1.00  0.00     0.198 A 
ATOM     82  F   UNL     1      10.461  -6.468   8.048  1.00  0.00    -0.203 F 
ATOM     83  F   UNL     1      15.529  -8.079   6.825  1.00  0.00    -0.200 F 
ATOM     84  C   UNL     1      14.072  -6.463   7.745  1.00  0.00     0.200 A 
ATOM     85  F   UNL     1      12.573  -4.885   8.660  1.00  0.00    -0.200 F 
ATOM     86  F   UNL     1      15.114  -5.688   8.073  1.00  0.00    -0.200 F 
ENDBRANCH  52  76
BRANCH  64  87
ATOM     87  C   UNL     1       9.760 -14.333   9.323  1.00  0.00     0.064 A 
ATOM     88  C   UNL     1       9.727 -14.063  10.699  1.00  0.00     0.173 A 
ATOM     89  C   UNL     1      10.340 -15.539   8.902  1.00  0.00     0.173 A 
ATOM     90  F   UNL     1       9.197 -12.916  11.150  1.00  0.00    -0.203 F 
ATOM     91  C   UNL     1      10.287 -14.950  11.615  1.00  0.00     0.198 A 
ATOM     92  C   UNL     1      10.872 -16.436   9.823  1.00  0.00     0.198 A 
ATOM     93  F   UNL     1      10.389 -15.846   7.597  1.00  0.00    -0.203 F 
ATOM     94  F   UNL     1      10.296 -14.645  12.920  1.00  0.00    -0.200 F 
ATOM     95  C   UNL     1      10.854 -16.137  11.177  1.00  0.00     0.200 A 
ATOM     96  F   UNL     1      11.411 -17.588   9.399  1.00  0.00    -0.200 F 
ATOM     97  F   UNL     1      11.396 -16.988  12.059  1.00  0.00    -0.200 F 
ENDBRANCH  64  87
ENDBRANCH  38  39
ENDBRANCH  30  33
ENDBRANCH  28  29
ENDBRANCH  27  28
ENDBRANCH   1  27
TORSDOF 13
