REMARK SMILES Cc1ccc(NC(=O)N[C@@H](C(=O)NCCCNC(=O)c2ccc(-c3c4nc(c(-c5c(F)c(F)c(F)c(F)c5F)c5ccc([nH]5)c(-c5c(F)c(F)c(F)c(F)c5F)c5nc(c(-c6c(F)c(F)c(F)c(F)c6F)c6ccc3[nH]6)C=C5)C=C4)cc2)C(C)C)cc1
REMARK SMILES IDX 15 1 14 2 13 3 11 4 12 5 10 7 9 8 6 9 7 10 8 12 5 14 1 15
REMARK SMILES IDX 2 16 3 17 87 18 4 19 86 20 83 21 84 22 85 23 16 24 17 25
REMARK SMILES IDX 18 26 19 28 20 29 21 30 82 31 22 32 81 33 23 34 24 35 25 36
REMARK SMILES IDX 75 37 26 38 80 39 74 40 76 41 27 42 79 43 73 44 72 45 28 47
REMARK SMILES IDX 60 48 40 49 59 50 41 51 44 52 58 53 77 54 42 55 43 56 57 58
REMARK SMILES IDX 78 59 45 60 29 61 30 62 38 63 31 64 32 65 36 66 39 67 33 68
REMARK SMILES IDX 34 69 37 70 35 71 61 72 62 73 70 74 63 75 64 76 68 77 71 78
REMARK SMILES IDX 65 79 66 80 69 81 67 82 46 83 47 84 55 85 48 86 49 87 53 88
REMARK SMILES IDX 56 89 50 90 51 91 54 92 52 93
REMARK H PARENT 13 6 6 11 9 13 17 27 76 46 44 57
REMARK Flexibility Score: inf
ROOT
ATOM      1  C   UNL     1      -4.106  -1.625   2.832  1.00  0.00     0.042 C 
ENDROOT
BRANCH   1   2
ATOM      2  C   UNL     1      -2.609  -1.850   2.667  1.00  0.00     0.117 C 
BRANCH   2   3
ATOM      3  N   UNL     1      -2.258  -3.211   2.267  1.00  0.00    -0.354 N 
ATOM      4  C   UNL     1      -1.965  -3.764   1.044  1.00  0.00     0.242 C 
ATOM      5  O   UNL     1      -1.602  -4.944   1.060  1.00  0.00    -0.273 OA
ATOM      6  H   UNL     1      -2.227  -3.852   3.014  1.00  0.00     0.163 HD
BRANCH   4   7
ATOM      7  C   UNL     1      -1.937  -2.917  -0.264  1.00  0.00     0.175 C 
BRANCH   7   8
ATOM      8  N   UNL     1      -3.134  -2.100  -0.320  1.00  0.00    -0.326 N 
ATOM      9  N   UNL     1      -2.477   0.204  -0.375  1.00  0.00    -0.308 N 
ATOM     10  C   UNL     1      -3.375  -0.791  -0.364  1.00  0.00     0.319 C 
ATOM     11  H   UNL     1      -2.927   1.050  -0.600  1.00  0.00     0.171 HD
ATOM     12  O   UNL     1      -4.567  -0.467  -0.451  1.00  0.00    -0.248 OA
ATOM     13  H   UNL     1      -3.959  -2.638  -0.327  1.00  0.00     0.166 HD
BRANCH   9  14
ATOM     14  C   UNL     1      -1.103   0.441  -0.170  1.00  0.00     0.042 A 
ATOM     15  C   UNL     1       3.141   1.281  -0.162  1.00  0.00     0.044 C 
ATOM     16  C   UNL     1       1.663   1.063  -0.077  1.00  0.00    -0.051 A 
ATOM     17  C   UNL     1       1.165  -0.056   0.577  1.00  0.00     0.005 A 
ATOM     18  C   UNL     1       0.761   1.924  -0.705  1.00  0.00     0.005 A 
ATOM     19  C   UNL     1      -0.203  -0.331   0.560  1.00  0.00     0.026 A 
ATOM     20  C   UNL     1      -0.605   1.620  -0.738  1.00  0.00     0.026 A 
ENDBRANCH   9  14
ENDBRANCH   7   8
BRANCH   7  21
ATOM     21  C   UNL     1      -1.699  -3.761  -1.546  1.00  0.00     0.015 C 
ATOM     22  C   UNL     1      -2.141  -3.039  -2.826  1.00  0.00     0.010 C 
ATOM     23  C   UNL     1      -0.197  -4.079  -1.678  1.00  0.00     0.010 C 
ENDBRANCH   7  21
ENDBRANCH   4   7
ENDBRANCH   2   3
ENDBRANCH   1   2
BRANCH   1  24
ATOM     24  C   UNL     1      -4.554  -1.849   4.263  1.00  0.00     0.118 C 
BRANCH  24  25
ATOM     25  N   UNL     1      -4.667  -0.636   5.072  1.00  0.00    -0.352 N 
ATOM     26  C   UNL     1      -4.858  -0.513   6.438  1.00  0.00     0.251 C 
ATOM     27  H   UNL     1      -4.598   0.211   4.576  1.00  0.00     0.163 HD
ATOM     28  O   UNL     1      -5.027   0.593   6.945  1.00  0.00    -0.269 OA
BRANCH  26  29
ATOM     29  C   UNL     1      -4.705  -1.708   7.303  1.00  0.00     0.039 A 
ATOM     30  C   UNL     1      -3.874  -1.604   8.424  1.00  0.00     0.014 A 
ATOM     31  C   UNL     1      -5.130  -2.955   6.859  1.00  0.00     0.014 A 
ATOM     32  C   UNL     1      -3.246  -2.748   8.909  1.00  0.00     0.010 A 
ATOM     33  C   UNL     1      -4.403  -4.062   7.236  1.00  0.00     0.010 A 
ATOM     34  C   UNL     1      -3.415  -3.946   8.216  1.00  0.00    -0.014 A 
BRANCH  34  35
ATOM     35  C   UNL     1      -2.532  -5.093   8.376  1.00  0.00     0.031 A 
ATOM     36  C   UNL     1      -3.018  -6.312   9.051  1.00  0.00     0.074 A 
ATOM     37  C   UNL     1      -1.302  -5.072   7.815  1.00  0.00     0.049 A 
ATOM     38  N   UNL     1      -2.257  -7.153   9.666  1.00  0.00    -0.248 NA
ATOM     39  C   UNL     1      -4.430  -6.664   9.110  1.00  0.00     0.031 C 
ATOM     40  C   UNL     1      -0.387  -6.199   7.645  1.00  0.00     0.029 A 
ATOM     41  N   UNL     1      -0.545  -3.950   7.438  1.00  0.00    -0.354 N 
ATOM     42  C   UNL     1      -3.011  -8.271   9.944  1.00  0.00     0.074 A 
ATOM     43  C   UNL     1      -4.371  -7.889   9.639  1.00  0.00     0.031 C 
ATOM     44  C   UNL     1       0.861  -5.724   7.504  1.00  0.00     0.029 A 
ATOM     45  C   UNL     1       0.800  -4.288   7.716  1.00  0.00     0.049 A 
ATOM     46  H   UNL     1      -0.881  -3.105   7.060  1.00  0.00     0.167 HD
ATOM     47  C   UNL     1      -2.380  -9.440  10.260  1.00  0.00     0.037 A 
ATOM     48  C   UNL     1       1.528  -3.602   8.643  1.00  0.00     0.037 A 
ATOM     49  C   UNL     1      -0.931  -9.257  10.303  1.00  0.00     0.049 A 
ATOM     50  C   UNL     1       2.029  -4.458   9.782  1.00  0.00     0.074 A 
ATOM     51  C   UNL     1       0.066  -9.515   9.376  1.00  0.00     0.029 A 
ATOM     52  N   UNL     1      -0.361  -8.440  11.275  1.00  0.00    -0.354 N 
ATOM     53  N   UNL     1       1.532  -5.624  10.084  1.00  0.00    -0.248 NA
ATOM     54  C   UNL     1       3.089  -4.047  10.698  1.00  0.00     0.031 C 
ATOM     55  C   UNL     1       1.228  -8.812   9.769  1.00  0.00     0.029 A 
ATOM     56  C   UNL     1       0.946  -8.136  10.944  1.00  0.00     0.049 A 
ATOM     57  H   UNL     1      -0.824  -8.123  12.084  1.00  0.00     0.167 HD
ATOM     58  C   UNL     1       2.140  -6.100  11.216  1.00  0.00     0.074 A 
ATOM     59  C   UNL     1       3.126  -5.088  11.548  1.00  0.00     0.031 C 
ATOM     60  C   UNL     1       1.761  -7.280  11.791  1.00  0.00     0.037 A 
BRANCH  47  61
ATOM     61  C   UNL     1      -3.050 -10.799  10.195  1.00  0.00     0.064 A 
ATOM     62  C   UNL     1      -2.312 -11.955   9.857  1.00  0.00     0.173 A 
ATOM     63  C   UNL     1      -4.425 -11.022  10.389  1.00  0.00     0.173 A 
ATOM     64  F   UNL     1      -0.976 -11.938   9.780  1.00  0.00    -0.203 F 
ATOM     65  C   UNL     1      -2.920 -13.184   9.586  1.00  0.00     0.198 A 
ATOM     66  C   UNL     1      -5.043 -12.235  10.062  1.00  0.00     0.198 A 
ATOM     67  F   UNL     1      -5.206 -10.095  10.957  1.00  0.00    -0.203 F 
ATOM     68  F   UNL     1      -2.164 -14.240   9.253  1.00  0.00    -0.200 F 
ATOM     69  C   UNL     1      -4.291 -13.312   9.644  1.00  0.00     0.200 A 
ATOM     70  F   UNL     1      -6.375 -12.349  10.159  1.00  0.00    -0.200 F 
ATOM     71  F   UNL     1      -4.880 -14.474   9.332  1.00  0.00    -0.200 F 
ENDBRANCH  47  61
BRANCH  48  72
ATOM     72  C   UNL     1       1.117  -2.178   8.770  1.00  0.00     0.064 A 
ATOM     73  C   UNL     1       1.255  -1.340   7.646  1.00  0.00     0.173 A 
ATOM     74  C   UNL     1       0.271  -1.748   9.797  1.00  0.00     0.173 A 
ATOM     75  F   UNL     1       2.054  -1.707   6.630  1.00  0.00    -0.203 F 
ATOM     76  C   UNL     1       0.485  -0.189   7.501  1.00  0.00     0.198 A 
ATOM     77  C   UNL     1      -0.487  -0.584   9.657  1.00  0.00     0.198 A 
ATOM     78  F   UNL     1       0.082  -2.510  10.885  1.00  0.00    -0.203 F 
ATOM     79  F   UNL     1       0.551   0.521   6.366  1.00  0.00    -0.200 F 
ATOM     80  C   UNL     1      -0.406   0.173   8.496  1.00  0.00     0.200 A 
ATOM     81  F   UNL     1      -1.372  -0.247  10.606  1.00  0.00    -0.200 F 
ATOM     82  F   UNL     1      -1.218   1.225   8.320  1.00  0.00    -0.200 F 
ENDBRANCH  48  72
BRANCH  60  83
ATOM     83  C   UNL     1       2.190  -7.787  13.146  1.00  0.00     0.064 A 
ATOM     84  C   UNL     1       2.542  -6.954  14.221  1.00  0.00     0.173 A 
ATOM     85  C   UNL     1       2.118  -9.170  13.446  1.00  0.00     0.173 A 
ATOM     86  F   UNL     1       2.529  -5.620  14.102  1.00  0.00    -0.203 F 
ATOM     87  C   UNL     1       2.862  -7.469  15.481  1.00  0.00     0.198 A 
ATOM     88  C   UNL     1       2.380  -9.674  14.719  1.00  0.00     0.198 A 
ATOM     89  F   UNL     1       1.765 -10.071  12.517  1.00  0.00    -0.203 F 
ATOM     90  F   UNL     1       3.234  -6.635  16.462  1.00  0.00    -0.200 F 
ATOM     91  C   UNL     1       2.769  -8.825  15.733  1.00  0.00     0.200 A 
ATOM     92  F   UNL     1       2.232 -10.984  14.960  1.00  0.00    -0.200 F 
ATOM     93  F   UNL     1       3.033  -9.308  16.954  1.00  0.00    -0.200 F 
ENDBRANCH  60  83
ENDBRANCH  34  35
ENDBRANCH  26  29
ENDBRANCH  24  25
ENDBRANCH   1  24
TORSDOF 13
