REMARK SMILES O=C(NCCCNC(=O)C1CC[NH+]([C@@H]2CCO[C@]3(CCOC3)C2)CC1)c1ccc(-c2c3nc(c(-c4c(F)c(F)c(F)c(F)c4F)c4ccc([nH]4)c(-c4c(F)c(F)c(F)c(F)c4F)c4nc(c(-c5c(F)c(F)c(F)c(F)c5F)c5ccc2[nH]5)C=C4)C=C3)cc1
REMARK SMILES IDX 4 1 3 2 1 3 2 4 26 6 27 7 88 8 28 9 87 10 29 11 30 12 31 13
REMARK SMILES IDX 81 14 32 15 86 16 80 17 82 18 33 19 85 20 79 21 78 22 34 24
REMARK SMILES IDX 66 25 46 26 65 27 47 28 50 29 64 30 83 31 48 32 49 33 63 35
REMARK SMILES IDX 84 36 51 37 35 38 36 39 44 40 37 41 38 42 42 43 45 44 39 45
REMARK SMILES IDX 40 46 43 47 41 48 67 49 68 50 76 51 69 52 70 53 74 54 77 55
REMARK SMILES IDX 71 56 72 57 75 58 73 59 52 60 53 61 61 62 54 63 55 64 59 65
REMARK SMILES IDX 62 66 56 67 57 68 60 69 58 70 5 71 6 72 7 73 8 74 9 76 10 77
REMARK SMILES IDX 11 78 25 79 12 80 24 81 13 82 14 84 15 85 23 86 16 87 18 88
REMARK SMILES IDX 17 89 19 90 22 91 20 92 21 93
REMARK H PARENT 3 5 82 23 50 34 7 75 13 83
REMARK Flexibility Score: inf
ROOT
ATOM      1  C   UNL     1       4.050  -1.462   0.555  1.00  0.00     0.118 C 
ENDROOT
BRANCH   1   2
ATOM      2  N   UNL     1       2.666  -1.271   0.158  1.00  0.00    -0.352 N 
ATOM      3  O   UNL     1       0.816  -0.163  -0.447  1.00  0.00    -0.269 OA
ATOM      4  C   UNL     1       2.049  -0.220  -0.464  1.00  0.00     0.251 C 
ATOM      5  H   UNL     1       2.071  -2.025   0.372  1.00  0.00     0.163 HD
BRANCH   4   6
ATOM      6  C   UNL     1       2.809   0.849  -1.151  1.00  0.00     0.039 A 
ATOM      7  C   UNL     1       3.935   0.572  -1.931  1.00  0.00     0.014 A 
ATOM      8  C   UNL     1       2.301   2.153  -1.116  1.00  0.00     0.014 A 
ATOM      9  C   UNL     1       4.603   1.602  -2.595  1.00  0.00     0.010 A 
ATOM     10  C   UNL     1       2.924   3.171  -1.843  1.00  0.00     0.010 A 
ATOM     11  C   UNL     1       4.086   2.906  -2.583  1.00  0.00    -0.014 A 
BRANCH  11  12
ATOM     12  C   UNL     1       4.705   3.972  -3.412  1.00  0.00     0.031 A 
ATOM     13  C   UNL     1       5.319   5.182  -2.772  1.00  0.00     0.074 A 
ATOM     14  C   UNL     1       4.660   3.869  -4.754  1.00  0.00     0.049 A 
ATOM     15  N   UNL     1       5.804   6.261  -3.335  1.00  0.00    -0.248 NA
ATOM     16  C   UNL     1       5.387   5.187  -1.304  1.00  0.00     0.031 C 
ATOM     17  C   UNL     1       4.076   2.748  -5.492  1.00  0.00     0.029 A 
ATOM     18  N   UNL     1       5.095   4.723  -5.736  1.00  0.00    -0.354 N 
ATOM     19  C   UNL     1       6.208   7.083  -2.292  1.00  0.00     0.074 A 
ATOM     20  C   UNL     1       5.895   6.387  -1.061  1.00  0.00     0.031 C 
ATOM     21  C   UNL     1       4.196   2.977  -6.807  1.00  0.00     0.029 A 
ATOM     22  C   UNL     1       4.808   4.286  -7.006  1.00  0.00     0.049 A 
ATOM     23  H   UNL     1       5.568   5.566  -5.548  1.00  0.00     0.167 HD
ATOM     24  C   UNL     1       6.789   8.306  -2.360  1.00  0.00     0.037 A 
ATOM     25  C   UNL     1       4.983   4.886  -8.198  1.00  0.00     0.037 A 
ATOM     26  C   UNL     1       7.107   8.985  -3.590  1.00  0.00     0.049 A 
ATOM     27  C   UNL     1       5.607   6.250  -8.249  1.00  0.00     0.074 A 
ATOM     28  C   UNL     1       7.738  10.205  -3.765  1.00  0.00     0.029 A 
ATOM     29  N   UNL     1       6.810   8.504  -4.858  1.00  0.00    -0.354 N 
ATOM     30  N   UNL     1       6.019   7.004  -7.260  1.00  0.00    -0.248 NA
ATOM     31  C   UNL     1       5.791   6.848  -9.578  1.00  0.00     0.031 C 
ATOM     32  C   UNL     1       7.780  10.483  -5.135  1.00  0.00     0.029 A 
ATOM     33  C   UNL     1       7.223   9.414  -5.818  1.00  0.00     0.049 A 
ATOM     34  H   UNL     1       6.371   7.643  -5.047  1.00  0.00     0.167 HD
ATOM     35  C   UNL     1       6.529   8.155  -7.843  1.00  0.00     0.074 A 
ATOM     36  C   UNL     1       6.380   7.998  -9.275  1.00  0.00     0.031 C 
ATOM     37  C   UNL     1       7.075   9.240  -7.242  1.00  0.00     0.037 A 
BRANCH  24  38
ATOM     38  C   UNL     1       7.089   9.002  -1.064  1.00  0.00     0.064 A 
ATOM     39  C   UNL     1       8.105   8.559  -0.203  1.00  0.00     0.173 A 
ATOM     40  C   UNL     1       6.359  10.139  -0.685  1.00  0.00     0.173 A 
ATOM     41  F   UNL     1       8.824   7.470  -0.512  1.00  0.00    -0.203 F 
ATOM     42  C   UNL     1       8.354   9.208   1.004  1.00  0.00     0.198 A 
ATOM     43  C   UNL     1       6.630  10.802   0.509  1.00  0.00     0.198 A 
ATOM     44  F   UNL     1       5.381  10.609  -1.474  1.00  0.00    -0.203 F 
ATOM     45  F   UNL     1       9.291   8.733   1.836  1.00  0.00    -0.200 F 
ATOM     46  C   UNL     1       7.620  10.330   1.357  1.00  0.00     0.200 A 
ATOM     47  F   UNL     1       5.927  11.893   0.843  1.00  0.00    -0.200 F 
ATOM     48  F   UNL     1       7.860  10.951   2.521  1.00  0.00    -0.200 F 
ENDBRANCH  24  38
BRANCH  25  49
ATOM     49  C   UNL     1       4.545   4.185  -9.432  1.00  0.00     0.064 A 
ATOM     50  C   UNL     1       5.478   3.636 -10.319  1.00  0.00     0.173 A 
ATOM     51  C   UNL     1       3.183   3.998  -9.714  1.00  0.00     0.173 A 
ATOM     52  F   UNL     1       6.790   3.804 -10.100  1.00  0.00    -0.203 F 
ATOM     53  C   UNL     1       5.066   2.923 -11.444  1.00  0.00     0.198 A 
ATOM     54  C   UNL     1       2.773   3.264 -10.823  1.00  0.00     0.198 A 
ATOM     55  F   UNL     1       2.252   4.499  -8.888  1.00  0.00    -0.203 F 
ATOM     56  F   UNL     1       5.978   2.423 -12.288  1.00  0.00    -0.200 F 
ATOM     57  C   UNL     1       3.715   2.729 -11.689  1.00  0.00     0.200 A 
ATOM     58  F   UNL     1       1.467   3.063 -11.046  1.00  0.00    -0.200 F 
ATOM     59  F   UNL     1       3.320   2.024 -12.758  1.00  0.00    -0.200 F 
ENDBRANCH  25  49
BRANCH  37  60
ATOM     60  C   UNL     1       7.593  10.332  -8.129  1.00  0.00     0.064 A 
ATOM     61  C   UNL     1       6.728  11.221  -8.783  1.00  0.00     0.173 A 
ATOM     62  C   UNL     1       8.974  10.530  -8.272  1.00  0.00     0.173 A 
ATOM     63  F   UNL     1       5.399  11.062  -8.689  1.00  0.00    -0.203 F 
ATOM     64  C   UNL     1       7.229  12.265  -9.555  1.00  0.00     0.198 A 
ATOM     65  C   UNL     1       9.471  11.589  -9.025  1.00  0.00     0.198 A 
ATOM     66  F   UNL     1       9.841   9.707  -7.663  1.00  0.00    -0.203 F 
ATOM     67  F   UNL     1       6.386  13.087 -10.195  1.00  0.00    -0.200 F 
ATOM     68  C   UNL     1       8.599  12.454  -9.668  1.00  0.00     0.200 A 
ATOM     69  F   UNL     1      10.795  11.776  -9.124  1.00  0.00    -0.200 F 
ATOM     70  F   UNL     1       9.079  13.469 -10.400  1.00  0.00    -0.200 F 
ENDBRANCH  37  60
ENDBRANCH  11  12
ENDBRANCH   4   6
ENDBRANCH   1   2
BRANCH   1  71
ATOM     71  C   UNL     1       4.318  -0.976   1.974  1.00  0.00     0.042 C 
BRANCH  71  72
ATOM     72  C   UNL     1       3.596  -1.766   3.062  1.00  0.00     0.117 C 
BRANCH  72  73
ATOM     73  N   UNL     1       4.048  -3.137   3.147  1.00  0.00    -0.356 N 
ATOM     74  C   UNL     1       4.815  -3.842   3.997  1.00  0.00     0.223 C 
ATOM     75  H   UNL     1       3.713  -3.687   2.401  1.00  0.00     0.163 HD
ATOM     76  O   UNL     1       4.851  -5.058   3.746  1.00  0.00    -0.275 OA
BRANCH  74  77
ATOM     77  C   UNL     1       5.662  -3.315   5.161  1.00  0.00     0.089 C 
ATOM     78  C   UNL     1       5.659  -1.872   5.661  1.00  0.00     0.075 C 
ATOM     79  C   UNL     1       7.109  -3.717   4.873  1.00  0.00     0.075 C 
ATOM     80  C   UNL     1       6.552  -0.891   4.880  1.00  0.00     0.263 C 
ATOM     81  C   UNL     1       7.703  -2.748   3.861  1.00  0.00     0.263 C 
ATOM     82  N   UNL     1       7.863  -1.437   4.488  1.00  0.00    -0.332 N 
ATOM     83  H   UNL     1       8.426  -1.619   5.319  1.00  0.00     0.348 HD
BRANCH  82  84
ATOM     84  C   UNL     1       8.686  -0.442   3.754  1.00  0.00     0.189 C 
ATOM     85  C   UNL     1       8.707  -0.515   2.222  1.00  0.00     0.093 C 
ATOM     86  C   UNL     1      10.144  -0.381   4.265  1.00  0.00     0.103 C 
ATOM     87  C   UNL     1       9.662  -1.564   1.672  1.00  0.00     0.167 C 
ATOM     88  C   UNL     1      11.088  -1.429   3.651  1.00  0.00     0.099 C 
ATOM     89  O   UNL     1      10.964  -1.479   2.226  1.00  0.00    -0.372 OA
ATOM     90  C   UNL     1      11.015  -2.778   4.364  1.00  0.00     0.066 C 
ATOM     91  C   UNL     1      12.557  -1.070   3.920  1.00  0.00     0.195 C 
ATOM     92  C   UNL     1      12.142  -2.769   5.387  1.00  0.00     0.163 C 
ATOM     93  O   UNL     1      12.870  -1.553   5.225  1.00  0.00    -0.378 OA
ENDBRANCH  82  84
ENDBRANCH  74  77
ENDBRANCH  72  73
ENDBRANCH  71  72
ENDBRANCH   1  71
TORSDOF 11
