REMARK SMILES CSc1ccc([C@H]2[NH2+][C@@H](C(=O)NCCCNC(=O)c3ccc(-c4c5nc(c(-c6c(F)c(F)c(F)c(F)c6F)c6ccc([nH]6)c(-c6c(F)c(F)c(F)c(F)c6F)c6nc(c(-c7c(F)c(F)c(F)c(F)c7F)c7ccc4[nH]7)C=C6)C=C5)cc3)C(C)(C)S2)cc1
REMARK SMILES IDX 14 1 13 2 12 3 10 4 11 5 9 7 7 8 8 9 85 10 82 13 83 14 84 15
REMARK SMILES IDX 6 16 3 17 4 18 87 19 5 20 86 21 2 22 1 23 15 24 16 25 17 26
REMARK SMILES IDX 18 28 19 29 20 30 81 31 21 32 80 33 22 34 23 35 24 36 74 37
REMARK SMILES IDX 25 38 79 39 73 40 75 41 26 42 78 43 72 44 71 45 27 47 59 48
REMARK SMILES IDX 39 49 58 50 40 51 43 52 57 53 76 54 41 55 42 56 56 58 77 59
REMARK SMILES IDX 44 60 28 61 29 62 37 63 30 64 31 65 35 66 38 67 32 68 33 69
REMARK SMILES IDX 36 70 34 71 60 72 61 73 69 74 62 75 63 76 67 77 70 78 64 79
REMARK SMILES IDX 65 80 68 81 66 82 45 83 46 84 54 85 47 86 48 87 52 88 55 89
REMARK SMILES IDX 49 90 50 91 53 92 51 93
REMARK H PARENT 12 6 8 11 8 12 16 27 75 46 43 57
REMARK Flexibility Score: inf
ROOT
ATOM      1  C   UNL     1       7.474  -6.802   3.149  1.00  0.00     0.042 C 
ENDROOT
BRANCH   1   2
ATOM      2  C   UNL     1       6.420  -6.769   2.046  1.00  0.00     0.118 C 
BRANCH   2   3
ATOM      3  N   UNL     1       6.010  -8.106   1.643  1.00  0.00    -0.351 N 
ATOM      4  C   UNL     1       4.854  -8.816   1.702  1.00  0.00     0.279 C 
ATOM      5  O   UNL     1       4.943  -9.998   1.343  1.00  0.00    -0.268 OA
ATOM      6  H   UNL     1       6.744  -8.617   1.231  1.00  0.00     0.163 HD
BRANCH   4   7
ATOM      7  C   UNL     1       3.502  -8.290   2.214  1.00  0.00     0.289 C 
ATOM      8  C   UNL     1       1.878  -6.598   2.313  1.00  0.00     0.274 C 
ATOM      9  N   UNL     1       3.171  -6.935   1.710  1.00  0.00    -0.320 N 
ATOM     10  S   UNL     1       1.906  -7.202   4.025  1.00  0.00    -0.081 SA
ATOM     11  H   UNL     1       3.884  -6.264   1.997  1.00  0.00     0.348 HD
ATOM     12  H   UNL     1       3.132  -6.909   0.691  1.00  0.00     0.348 HD
ATOM     13  C   UNL     1       3.286  -8.381   3.740  1.00  0.00     0.077 C 
ATOM     14  C   UNL     1       4.453  -7.937   4.618  1.00  0.00     0.030 C 
ATOM     15  C   UNL     1       2.842  -9.787   4.158  1.00  0.00     0.030 C 
BRANCH   8  16
ATOM     16  C   UNL     1       1.585  -5.116   2.191  1.00  0.00     0.020 A 
ATOM     17  C   UNL     1       1.021  -2.365   1.870  1.00  0.00     0.007 A 
ATOM     18  C   UNL     1       0.254  -3.325   1.207  1.00  0.00     0.015 A 
ATOM     19  C   UNL     1       2.069  -2.778   2.694  1.00  0.00     0.015 A 
ATOM     20  C   UNL     1       0.537  -4.685   1.360  1.00  0.00     0.012 A 
ATOM     21  C   UNL     1       2.352  -4.139   2.850  1.00  0.00     0.012 A 
BRANCH  17  22
ATOM     22  S   UNL     1       0.641  -0.630   1.726  1.00  0.00    -0.130 SA
ATOM     23  C   UNL     1       1.161  -0.352   0.013  1.00  0.00     0.091 C 
ENDBRANCH  17  22
ENDBRANCH   8  16
ENDBRANCH   4   7
ENDBRANCH   2   3
ENDBRANCH   1   2
BRANCH   1  24
ATOM     24  C   UNL     1       8.803  -7.403   2.720  1.00  0.00     0.118 C 
BRANCH  24  25
ATOM     25  N   UNL     1       9.611  -6.461   1.965  1.00  0.00    -0.352 N 
ATOM     26  C   UNL     1      10.746  -5.778   2.331  1.00  0.00     0.251 C 
ATOM     27  H   UNL     1       9.297  -6.284   1.049  1.00  0.00     0.163 HD
ATOM     28  O   UNL     1      11.144  -4.854   1.629  1.00  0.00    -0.269 OA
BRANCH  26  29
ATOM     29  C   UNL     1      11.487  -6.128   3.567  1.00  0.00     0.039 A 
ATOM     30  C   UNL     1      12.049  -5.097   4.326  1.00  0.00     0.014 A 
ATOM     31  C   UNL     1      11.691  -7.456   3.951  1.00  0.00     0.014 A 
ATOM     32  C   UNL     1      12.772  -5.394   5.485  1.00  0.00     0.010 A 
ATOM     33  C   UNL     1      12.335  -7.748   5.153  1.00  0.00     0.010 A 
ATOM     34  C   UNL     1      12.903  -6.722   5.922  1.00  0.00    -0.014 A 
BRANCH  34  35
ATOM     35  C   UNL     1      13.674  -7.056   7.148  1.00  0.00     0.031 A 
ATOM     36  C   UNL     1      14.929  -7.884   7.048  1.00  0.00     0.074 A 
ATOM     37  C   UNL     1      13.233  -6.649   8.354  1.00  0.00     0.049 A 
ATOM     38  N   UNL     1      15.711  -8.324   8.002  1.00  0.00    -0.248 NA
ATOM     39  C   UNL     1      15.346  -8.295   5.698  1.00  0.00     0.031 C 
ATOM     40  C   UNL     1      12.013  -5.878   8.593  1.00  0.00     0.029 A 
ATOM     41  N   UNL     1      13.762  -6.830   9.608  1.00  0.00    -0.354 N 
ATOM     42  C   UNL     1      16.697  -9.071   7.370  1.00  0.00     0.074 A 
ATOM     43  C   UNL     1      16.386  -9.073   5.958  1.00  0.00     0.031 C 
ATOM     44  C   UNL     1      11.902  -5.626   9.908  1.00  0.00     0.029 A 
ATOM     45  C   UNL     1      13.024  -6.245  10.607  1.00  0.00     0.049 A 
ATOM     46  H   UNL     1      14.592  -7.333   9.775  1.00  0.00     0.167 HD
ATOM     47  C   UNL     1      17.780  -9.678   7.912  1.00  0.00     0.037 A 
ATOM     48  C   UNL     1      13.232  -6.209  11.938  1.00  0.00     0.037 A 
ATOM     49  C   UNL     1      18.114  -9.645   9.311  1.00  0.00     0.049 A 
ATOM     50  C   UNL     1      14.449  -6.883  12.512  1.00  0.00     0.074 A 
ATOM     51  C   UNL     1      19.212 -10.193   9.950  1.00  0.00     0.029 A 
ATOM     52  N   UNL     1      17.353  -9.020  10.287  1.00  0.00    -0.354 N 
ATOM     53  N   UNL     1      15.399  -7.543  11.896  1.00  0.00    -0.248 NA
ATOM     54  C   UNL     1      14.626  -6.798  13.969  1.00  0.00     0.031 C 
ATOM     55  C   UNL     1      19.102  -9.923  11.318  1.00  0.00     0.029 A 
ATOM     56  C   UNL     1      17.955  -9.175  11.525  1.00  0.00     0.049 A 
ATOM     57  H   UNL     1      16.510  -8.538  10.124  1.00  0.00     0.167 HD
ATOM     58  C   UNL     1      16.298  -7.925  12.881  1.00  0.00     0.074 A 
ATOM     59  C   UNL     1      15.789  -7.411  14.135  1.00  0.00     0.031 C 
ATOM     60  C   UNL     1      17.443  -8.641  12.759  1.00  0.00     0.037 A 
BRANCH  47  61
ATOM     61  C   UNL     1      18.699 -10.415   6.982  1.00  0.00     0.064 A 
ATOM     62  C   UNL     1      19.531  -9.732   6.083  1.00  0.00     0.173 A 
ATOM     63  C   UNL     1      18.779 -11.815   7.017  1.00  0.00     0.173 A 
ATOM     64  F   UNL     1      19.482  -8.394   6.001  1.00  0.00    -0.203 F 
ATOM     65  C   UNL     1      20.392 -10.425   5.236  1.00  0.00     0.198 A 
ATOM     66  C   UNL     1      19.661 -12.503   6.188  1.00  0.00     0.198 A 
ATOM     67  F   UNL     1      18.008 -12.516   7.862  1.00  0.00    -0.203 F 
ATOM     68  F   UNL     1      21.146  -9.753   4.354  1.00  0.00    -0.200 F 
ATOM     69  C   UNL     1      20.462 -11.809   5.294  1.00  0.00     0.200 A 
ATOM     70  F   UNL     1      19.735 -13.840   6.253  1.00  0.00    -0.200 F 
ATOM     71  F   UNL     1      21.297 -12.473   4.484  1.00  0.00    -0.200 F 
ENDBRANCH  47  61
BRANCH  48  72
ATOM     72  C   UNL     1      12.286  -5.480  12.821  1.00  0.00     0.064 A 
ATOM     73  C   UNL     1      12.667  -4.286  13.449  1.00  0.00     0.173 A 
ATOM     74  C   UNL     1      10.995  -5.967  13.072  1.00  0.00     0.173 A 
ATOM     75  F   UNL     1      13.900  -3.794  13.257  1.00  0.00    -0.203 F 
ATOM     76  C   UNL     1      11.802  -3.619  14.313  1.00  0.00     0.198 A 
ATOM     77  C   UNL     1      10.121  -5.285  13.915  1.00  0.00     0.198 A 
ATOM     78  F   UNL     1      10.581  -7.103  12.492  1.00  0.00    -0.203 F 
ATOM     79  F   UNL     1      12.210  -2.506  14.938  1.00  0.00    -0.200 F 
ATOM     80  C   UNL     1      10.528  -4.117  14.543  1.00  0.00     0.200 A 
ATOM     81  F   UNL     1       8.887  -5.762  14.126  1.00  0.00    -0.200 F 
ATOM     82  F   UNL     1       9.697  -3.476  15.375  1.00  0.00    -0.200 F 
ENDBRANCH  48  72
BRANCH  60  83
ATOM     83  C   UNL     1      18.242  -8.873  14.007  1.00  0.00     0.064 A 
ATOM     84  C   UNL     1      17.822  -9.779  14.990  1.00  0.00     0.173 A 
ATOM     85  C   UNL     1      19.460  -8.204  14.203  1.00  0.00     0.173 A 
ATOM     86  F   UNL     1      16.657 -10.431  14.854  1.00  0.00    -0.203 F 
ATOM     87  C   UNL     1      18.579  -9.989  16.139  1.00  0.00     0.198 A 
ATOM     88  C   UNL     1      20.228  -8.436  15.340  1.00  0.00     0.198 A 
ATOM     89  F   UNL     1      19.908  -7.332  13.287  1.00  0.00    -0.203 F 
ATOM     90  F   UNL     1      18.137 -10.825  17.088  1.00  0.00    -0.200 F 
ATOM     91  C   UNL     1      19.784  -9.322  16.310  1.00  0.00     0.200 A 
ATOM     92  F   UNL     1      21.396  -7.799  15.500  1.00  0.00    -0.200 F 
ATOM     93  F   UNL     1      20.513  -9.528  17.416  1.00  0.00    -0.200 F 
ENDBRANCH  60  83
ENDBRANCH  34  35
ENDBRANCH  26  29
ENDBRANCH  24  25
ENDBRANCH   1  24
TORSDOF 12
