REMARK SMILES CC1(C)S[C@H](c2ccc(-c3cccc([N+](=O)[O-])c3)o2)[NH2+][C@@H]1C(=O)NCCCNC(=O)c1ccc(-c2c3nc(c(-c4c(F)c(F)c(F)c(F)c4F)c4ccc([nH]4)c(-c4c(F)c(F)c(F)c(F)c4F)c4nc(c(-c5c(F)c(F)c(F)c(F)c5F)c5ccc2[nH]5)C=C4)C=C3)cc1
REMARK SMILES IDX 25 1 24 2 22 3 23 4 21 6 1 7 2 8 3 9 4 10 5 11 20 12 6 15
REMARK SMILES IDX 7 16 19 17 8 18 9 19 10 20 11 21 18 22 12 23 14 24 13 25
REMARK SMILES IDX 15 26 16 27 17 28 26 29 27 30 28 31 29 32 30 34 31 35 32 36
REMARK SMILES IDX 93 37 33 38 92 39 34 40 35 41 36 42 86 43 37 44 91 45 85 46
REMARK SMILES IDX 87 47 38 48 90 49 84 50 83 51 39 53 71 54 51 55 70 56 52 57
REMARK SMILES IDX 55 58 69 59 88 60 53 61 54 62 68 64 89 65 56 66 40 67 41 68
REMARK SMILES IDX 49 69 42 70 43 71 47 72 50 73 44 74 45 75 48 76 46 77 72 78
REMARK SMILES IDX 73 79 81 80 74 81 75 82 79 83 82 84 76 85 77 86 80 87 78 88
REMARK SMILES IDX 57 89 58 90 66 91 59 92 60 93 64 94 67 95 61 96 62 97 65 98
REMARK SMILES IDX 63 99
REMARK H PARENT 24 5 20 13 20 14 28 33 87 52 55 63
REMARK Flexibility Score: inf
ROOT
ATOM      1  C   UNL     1      -2.305   2.836  -1.677  1.00  0.00     0.118 C 
ENDROOT
BRANCH   1   2
ATOM      2  N   UNL     1      -1.222   2.304  -2.482  1.00  0.00    -0.351 N 
ATOM      3  C   UNL     1      -0.303   1.357  -2.098  1.00  0.00     0.279 C 
ATOM      4  O   UNL     1       0.432   0.906  -2.975  1.00  0.00    -0.268 OA
ATOM      5  H   UNL     1      -1.137   2.658  -3.396  1.00  0.00     0.163 HD
BRANCH   3   6
ATOM      6  C   UNL     1      -0.175   1.027  -0.588  1.00  0.00     0.289 C 
ATOM      7  C   UNL     1       1.276   0.262   1.338  1.00  0.00     0.030 C 
ATOM      8  C   UNL     1       0.890  -0.000  -0.135  1.00  0.00     0.078 C 
ATOM      9  C   UNL     1       2.177  -0.076  -0.956  1.00  0.00     0.030 C 
ATOM     10  S   UNL     1       0.012  -1.597  -0.218  1.00  0.00    -0.078 SA
ATOM     11  C   UNL     1      -1.631  -0.849  -0.201  1.00  0.00     0.311 C 
ATOM     12  N   UNL     1      -1.495   0.601  -0.022  1.00  0.00    -0.317 N 
ATOM     13  H   UNL     1      -1.535   0.831   0.971  1.00  0.00     0.348 HD
ATOM     14  H   UNL     1      -2.254   1.085  -0.502  1.00  0.00     0.348 HD
BRANCH  11  15
ATOM     15  C   UNL     1      -2.476  -1.289  -1.358  1.00  0.00     0.172 A 
ATOM     16  C   UNL     1      -3.228  -2.436  -1.536  1.00  0.00     0.054 A 
ATOM     17  O   UNL     1      -2.619  -0.481  -2.458  1.00  0.00    -0.454 OA
ATOM     18  C   UNL     1      -3.875  -2.315  -2.785  1.00  0.00     0.051 A 
ATOM     19  C   UNL     1      -3.478  -1.108  -3.318  1.00  0.00     0.134 A 
BRANCH  19  20
ATOM     20  C   UNL     1      -3.830  -0.403  -4.543  1.00  0.00     0.024 A 
ATOM     21  C   UNL     1      -2.866   0.283  -5.296  1.00  0.00     0.012 A 
ATOM     22  C   UNL     1      -5.158  -0.419  -4.995  1.00  0.00     0.097 A 
ATOM     23  C   UNL     1      -3.218   0.947  -6.479  1.00  0.00     0.008 A 
ATOM     24  C   UNL     1      -5.509   0.260  -6.170  1.00  0.00     0.270 A 
ATOM     25  C   UNL     1      -4.543   0.943  -6.918  1.00  0.00     0.085 A 
BRANCH  24  26
ATOM     26  N   UNL     1      -6.912   0.283  -6.601  1.00  0.00     0.062 N 
ATOM     27  O   UNL     1      -7.236   1.126  -7.452  1.00  0.00    -0.258 OA
ATOM     28  O   UNL     1      -7.677  -0.567  -6.123  1.00  0.00    -0.258 OA
ENDBRANCH  24  26
ENDBRANCH  19  20
ENDBRANCH  11  15
ENDBRANCH   3   6
ENDBRANCH   1   2
BRANCH   1  29
ATOM     29  C   UNL     1      -2.920   4.101  -2.244  1.00  0.00     0.042 C 
BRANCH  29  30
ATOM     30  C   UNL     1      -3.544   3.946  -3.621  1.00  0.00     0.118 C 
BRANCH  30  31
ATOM     31  N   UNL     1      -4.652   3.005  -3.673  1.00  0.00    -0.352 N 
ATOM     32  C   UNL     1      -5.862   3.107  -4.320  1.00  0.00     0.251 C 
ATOM     33  H   UNL     1      -4.516   2.170  -3.170  1.00  0.00     0.163 HD
ATOM     34  O   UNL     1      -6.714   2.239  -4.170  1.00  0.00    -0.269 OA
BRANCH  32  35
ATOM     35  C   UNL     1      -6.165   4.293  -5.153  1.00  0.00     0.039 A 
ATOM     36  C   UNL     1      -7.438   4.858  -5.054  1.00  0.00     0.014 A 
ATOM     37  C   UNL     1      -5.192   4.899  -5.951  1.00  0.00     0.014 A 
ATOM     38  C   UNL     1      -7.682   6.108  -5.619  1.00  0.00     0.010 A 
ATOM     39  C   UNL     1      -5.399   6.191  -6.420  1.00  0.00     0.010 A 
ATOM     40  C   UNL     1      -6.635   6.822  -6.223  1.00  0.00    -0.014 A 
BRANCH  40  41
ATOM     41  C   UNL     1      -6.793   8.258  -6.561  1.00  0.00     0.031 A 
ATOM     42  C   UNL     1      -6.654   8.734  -7.976  1.00  0.00     0.074 A 
ATOM     43  C   UNL     1      -6.982   9.142  -5.559  1.00  0.00     0.049 A 
ATOM     44  N   UNL     1      -6.723   9.953  -8.446  1.00  0.00    -0.248 NA
ATOM     45  C   UNL     1      -6.365   7.712  -8.993  1.00  0.00     0.031 C 
ATOM     46  C   UNL     1      -7.047   8.804  -4.134  1.00  0.00     0.029 A 
ATOM     47  N   UNL     1      -7.153  10.503  -5.580  1.00  0.00    -0.354 N 
ATOM     48  C   UNL     1      -6.479   9.845  -9.808  1.00  0.00     0.074 A 
ATOM     49  C   UNL     1      -6.197   8.452 -10.079  1.00  0.00     0.031 C 
ATOM     50  C   UNL     1      -7.290   9.916  -3.425  1.00  0.00     0.029 A 
ATOM     51  C   UNL     1      -7.360  11.052  -4.338  1.00  0.00     0.049 A 
ATOM     52  H   UNL     1      -7.130  11.036  -6.408  1.00  0.00     0.167 HD
ATOM     53  C   UNL     1      -6.518  10.817 -10.750  1.00  0.00     0.037 A 
ATOM     54  C   UNL     1      -7.587  12.328  -3.976  1.00  0.00     0.037 A 
ATOM     55  C   UNL     1      -6.822  12.196 -10.473  1.00  0.00     0.049 A 
ATOM     56  C   UNL     1      -7.647  13.383  -5.044  1.00  0.00     0.074 A 
ATOM     57  C   UNL     1      -6.941  13.251 -11.360  1.00  0.00     0.029 A 
ATOM     58  N   UNL     1      -7.057  12.711  -9.205  1.00  0.00    -0.354 N 
ATOM     59  N   UNL     1      -7.493  13.257  -6.340  1.00  0.00    -0.248 NA
ATOM     60  C   UNL     1      -7.920  14.757  -4.603  1.00  0.00     0.031 C 
ATOM     61  C   UNL     1      -7.212  14.411 -10.626  1.00  0.00     0.029 A 
ATOM     62  C   UNL     1      -7.306  14.072  -9.286  1.00  0.00     0.049 A 
ATOM     63  H   UNL     1      -7.048  12.187  -8.372  1.00  0.00     0.167 HD
ATOM     64  C   UNL     1      -7.675  14.525  -6.871  1.00  0.00     0.074 A 
ATOM     65  C   UNL     1      -7.968  15.405  -5.758  1.00  0.00     0.031 C 
ATOM     66  C   UNL     1      -7.602  14.926  -8.164  1.00  0.00     0.037 A 
BRANCH  53  67
ATOM     67  C   UNL     1      -6.235  10.415 -12.168  1.00  0.00     0.064 A 
ATOM     68  C   UNL     1      -7.135   9.622 -12.898  1.00  0.00     0.173 A 
ATOM     69  C   UNL     1      -5.065  10.842 -12.814  1.00  0.00     0.173 A 
ATOM     70  F   UNL     1      -8.262   9.177 -12.322  1.00  0.00    -0.203 F 
ATOM     71  C   UNL     1      -6.858   9.244 -14.209  1.00  0.00     0.198 A 
ATOM     72  C   UNL     1      -4.806  10.487 -14.136  1.00  0.00     0.198 A 
ATOM     73  F   UNL     1      -4.173  11.605 -12.165  1.00  0.00    -0.203 F 
ATOM     74  F   UNL     1      -7.707   8.442 -14.866  1.00  0.00    -0.200 F 
ATOM     75  C   UNL     1      -5.698   9.682 -14.829  1.00  0.00     0.200 A 
ATOM     76  F   UNL     1      -3.689  10.919 -14.737  1.00  0.00    -0.200 F 
ATOM     77  F   UNL     1      -5.434   9.320 -16.092  1.00  0.00    -0.200 F 
ENDBRANCH  53  67
BRANCH  54  78
ATOM     78  C   UNL     1      -7.819  12.668  -2.547  1.00  0.00     0.064 A 
ATOM     79  C   UNL     1      -9.088  13.062  -2.101  1.00  0.00     0.173 A 
ATOM     80  C   UNL     1      -6.786  12.603  -1.601  1.00  0.00     0.173 A 
ATOM     81  F   UNL     1     -10.104  13.155  -2.972  1.00  0.00    -0.203 F 
ATOM     82  C   UNL     1      -9.312  13.397  -0.767  1.00  0.00     0.198 A 
ATOM     83  C   UNL     1      -7.017  12.912  -0.262  1.00  0.00     0.198 A 
ATOM     84  F   UNL     1      -5.555  12.224  -1.974  1.00  0.00    -0.203 F 
ATOM     85  F   UNL     1     -10.525  13.811  -0.377  1.00  0.00    -0.200 F 
ATOM     86  C   UNL     1      -8.278  13.316   0.153  1.00  0.00     0.200 A 
ATOM     87  F   UNL     1      -6.019  12.819   0.627  1.00  0.00    -0.200 F 
ATOM     88  F   UNL     1      -8.493  13.635   1.436  1.00  0.00    -0.200 F 
ENDBRANCH  54  78
BRANCH  66  89
ATOM     89  C   UNL     1      -7.873  16.374  -8.443  1.00  0.00     0.064 A 
ATOM     90  C   UNL     1      -6.949  17.373  -8.101  1.00  0.00     0.173 A 
ATOM     91  C   UNL     1      -9.054  16.762  -9.093  1.00  0.00     0.173 A 
ATOM     92  F   UNL     1      -5.813  17.052  -7.463  1.00  0.00    -0.203 F 
ATOM     93  C   UNL     1      -7.211  18.712  -8.378  1.00  0.00     0.198 A 
ATOM     94  C   UNL     1      -9.299  18.099  -9.393  1.00  0.00     0.198 A 
ATOM     95  F   UNL     1      -9.966  15.843  -9.444  1.00  0.00    -0.203 F 
ATOM     96  F   UNL     1      -6.337  19.654  -8.000  1.00  0.00    -0.200 F 
ATOM     97  C   UNL     1      -8.381  19.072  -9.029  1.00  0.00     0.200 A 
ATOM     98  F   UNL     1     -10.424  18.445 -10.033  1.00  0.00    -0.200 F 
ATOM     99  F   UNL     1      -8.628  20.361  -9.300  1.00  0.00    -0.200 F 
ENDBRANCH  66  89
ENDBRANCH  40  41
ENDBRANCH  32  35
ENDBRANCH  30  31
ENDBRANCH  29  30
ENDBRANCH   1  29
TORSDOF 13
