REMARK SMILES CCC[C@]1(C(=O)NCCCNC(=O)c2ccc(-c3c4nc(c(-c5c(F)c(F)c(F)c(F)c5F)c5ccc([nH]5)c(-c5c(F)c(F)c(F)c(F)c5F)c5nc(c(-c6c(F)c(F)c(F)c(F)c6F)c6ccc3[nH]6)C=C5)C=C4)cc2)CCN(C(=O)c2cccnc2C)C1
REMARK SMILES IDX 9 1 8 2 7 3 5 4 6 5 4 7 77 8 89 9 78 10 79 11 3 12 2 13 1 14
REMARK SMILES IDX 80 15 81 16 82 17 83 18 87 19 84 20 86 21 88 22 85 23 10 24
REMARK SMILES IDX 11 25 12 26 13 28 14 29 15 30 76 31 16 32 75 33 17 34 18 35
REMARK SMILES IDX 19 36 69 37 20 38 74 39 68 40 70 41 21 42 73 43 67 44 66 45
REMARK SMILES IDX 22 47 54 48 34 49 53 50 35 51 38 52 52 53 71 54 36 55 37 56
REMARK SMILES IDX 51 58 72 59 39 60 23 61 24 62 32 63 25 64 26 65 30 66 33 67
REMARK SMILES IDX 27 68 28 69 31 70 29 71 55 72 56 73 64 74 57 75 58 76 62 77
REMARK SMILES IDX 65 78 59 79 60 80 63 81 61 82 40 83 41 84 49 85 42 86 43 87
REMARK SMILES IDX 47 88 50 89 44 90 45 91 48 92 46 93
REMARK H PARENT 7 6 11 27 70 46 38 57
REMARK Flexibility Score: inf
ROOT
ATOM      1  C   UNL     1      -1.132   4.587  -1.533  1.00  0.00     0.042 C 
ENDROOT
BRANCH   1   2
ATOM      2  C   UNL     1      -1.476   4.331  -0.071  1.00  0.00     0.117 C 
BRANCH   2   3
ATOM      3  N   UNL     1      -1.616   2.923   0.244  1.00  0.00    -0.355 N 
ATOM      4  C   UNL     1      -0.904   2.074   1.027  1.00  0.00     0.228 C 
ATOM      5  O   UNL     1      -1.462   0.992   1.234  1.00  0.00    -0.274 OA
ATOM      6  H   UNL     1      -2.383   2.496  -0.201  1.00  0.00     0.163 HD
BRANCH   4   7
ATOM      7  C   UNL     1       0.458   2.417   1.666  1.00  0.00     0.068 C 
ATOM      8  C   UNL     1       1.523   3.006   0.704  1.00  0.00     0.040 C 
ATOM      9  C   UNL     1       0.224   3.561   2.690  1.00  0.00     0.136 C 
ATOM     10  C   UNL     1       2.173   4.155   1.466  1.00  0.00     0.121 C 
ATOM     11  N   UNL     1       1.100   4.655   2.292  1.00  0.00    -0.337 N 
BRANCH   7  12
ATOM     12  C   UNL     1       1.058   1.177   2.407  1.00  0.00     0.018 C 
BRANCH  12  13
ATOM     13  C   UNL     1       1.096  -0.196   1.701  1.00  0.00    -0.002 C 
ATOM     14  C   UNL     1       1.504  -0.224   0.238  1.00  0.00     0.004 C 
ENDBRANCH  12  13
ENDBRANCH   7  12
BRANCH  11  15
ATOM     15  C   UNL     1       0.880   5.938   2.756  1.00  0.00     0.255 C 
ATOM     16  O   UNL     1      -0.059   6.224   3.495  1.00  0.00    -0.269 OA
BRANCH  15  17
ATOM     17  C   UNL     1       1.811   7.023   2.394  1.00  0.00     0.061 A 
ATOM     18  C   UNL     1       2.567   7.590   3.425  1.00  0.00     0.017 A 
ATOM     19  C   UNL     1       1.861   7.611   1.128  1.00  0.00     0.050 A 
ATOM     20  C   UNL     1       3.388   8.680   3.157  1.00  0.00     0.021 A 
ATOM     21  N   UNL     1       2.695   8.651   0.848  1.00  0.00    -0.261 NA
ATOM     22  C   UNL     1       0.999   7.170  -0.013  1.00  0.00     0.067 C 
ATOM     23  C   UNL     1       3.426   9.163   1.861  1.00  0.00     0.111 A 
ENDBRANCH  15  17
ENDBRANCH  11  15
ENDBRANCH   4   7
ENDBRANCH   2   3
ENDBRANCH   1   2
BRANCH   1  24
ATOM     24  C   UNL     1      -2.125   3.999  -2.525  1.00  0.00     0.118 C 
BRANCH  24  25
ATOM     25  N   UNL     1      -3.442   4.609  -2.429  1.00  0.00    -0.352 N 
ATOM     26  C   UNL     1      -4.112   5.422  -3.308  1.00  0.00     0.251 C 
ATOM     27  H   UNL     1      -3.931   4.406  -1.599  1.00  0.00     0.163 HD
ATOM     28  O   UNL     1      -5.141   5.986  -2.951  1.00  0.00    -0.269 OA
BRANCH  26  29
ATOM     29  C   UNL     1      -3.596   5.644  -4.677  1.00  0.00     0.039 A 
ATOM     30  C   UNL     1      -3.652   6.933  -5.216  1.00  0.00     0.014 A 
ATOM     31  C   UNL     1      -3.094   4.591  -5.445  1.00  0.00     0.014 A 
ATOM     32  C   UNL     1      -3.144   7.177  -6.495  1.00  0.00     0.010 A 
ATOM     33  C   UNL     1      -2.515   4.848  -6.684  1.00  0.00     0.010 A 
ATOM     34  C   UNL     1      -2.539   6.142  -7.225  1.00  0.00    -0.014 A 
BRANCH  34  35
ATOM     35  C   UNL     1      -1.935   6.386  -8.559  1.00  0.00     0.031 A 
ATOM     36  C   UNL     1      -2.495   5.702  -9.776  1.00  0.00     0.074 A 
ATOM     37  C   UNL     1      -0.834   7.155  -8.663  1.00  0.00     0.049 A 
ATOM     38  N   UNL     1      -2.043   5.697 -11.005  1.00  0.00    -0.248 NA
ATOM     39  C   UNL     1      -3.706   4.891  -9.579  1.00  0.00     0.031 C 
ATOM     40  C   UNL     1      -0.165   7.830  -7.550  1.00  0.00     0.029 A 
ATOM     41  N   UNL     1      -0.070   7.481  -9.757  1.00  0.00    -0.354 N 
ATOM     42  C   UNL     1      -2.895   4.862 -11.717  1.00  0.00     0.074 A 
ATOM     43  C   UNL     1      -3.867   4.347 -10.777  1.00  0.00     0.031 C 
ATOM     44  C   UNL     1       0.902   8.498  -8.018  1.00  0.00     0.029 A 
ATOM     45  C   UNL     1       1.014   8.270  -9.455  1.00  0.00     0.049 A 
ATOM     46  H   UNL     1      -0.279   7.179 -10.670  1.00  0.00     0.167 HD
ATOM     47  C   UNL     1      -2.879   4.569 -13.039  1.00  0.00     0.037 A 
ATOM     48  C   UNL     1       1.994   8.744 -10.247  1.00  0.00     0.037 A 
ATOM     49  C   UNL     1      -1.941   5.120 -13.980  1.00  0.00     0.049 A 
ATOM     50  C   UNL     1       1.971   8.426 -11.717  1.00  0.00     0.074 A 
ATOM     51  C   UNL     1      -1.895   4.951 -15.352  1.00  0.00     0.029 A 
ATOM     52  N   UNL     1      -0.884   5.952 -13.643  1.00  0.00    -0.354 N 
ATOM     53  N   UNL     1       1.119   7.693 -12.391  1.00  0.00    -0.248 NA
ATOM     54  C   UNL     1       3.043   9.006 -12.539  1.00  0.00     0.031 C 
ATOM     55  C   UNL     1      -0.787   5.649 -15.842  1.00  0.00     0.029 A 
ATOM     56  C   UNL     1      -0.168   6.289 -14.781  1.00  0.00     0.049 A 
ATOM     57  H   UNL     1      -0.673   6.259 -12.731  1.00  0.00     0.167 HD
ATOM     58  C   UNL     1       1.534   7.744 -13.714  1.00  0.00     0.074 A 
ATOM     59  C   UNL     1       2.707   8.591 -13.752  1.00  0.00     0.031 C 
ATOM     60  C   UNL     1       0.992   7.142 -14.801  1.00  0.00     0.037 A 
BRANCH  47  61
ATOM     61  C   UNL     1      -3.912   3.610 -13.553  1.00  0.00     0.064 A 
ATOM     62  C   UNL     1      -5.264   3.969 -13.656  1.00  0.00     0.173 A 
ATOM     63  C   UNL     1      -3.538   2.332 -13.994  1.00  0.00     0.173 A 
ATOM     64  F   UNL     1      -5.675   5.176 -13.237  1.00  0.00    -0.203 F 
ATOM     65  C   UNL     1      -6.207   3.076 -14.159  1.00  0.00     0.198 A 
ATOM     66  C   UNL     1      -4.478   1.451 -14.523  1.00  0.00     0.198 A 
ATOM     67  F   UNL     1      -2.256   1.940 -13.923  1.00  0.00    -0.203 F 
ATOM     68  F   UNL     1      -7.499   3.427 -14.209  1.00  0.00    -0.200 F 
ATOM     69  C   UNL     1      -5.812   1.822 -14.599  1.00  0.00     0.200 A 
ATOM     70  F   UNL     1      -4.093   0.244 -14.959  1.00  0.00    -0.200 F 
ATOM     71  F   UNL     1      -6.719   0.968 -15.093  1.00  0.00    -0.200 F 
ENDBRANCH  47  61
BRANCH  48  72
ATOM     72  C   UNL     1       3.073   9.585  -9.668  1.00  0.00     0.064 A 
ATOM     73  C   UNL     1       3.148  10.955  -9.952  1.00  0.00     0.173 A 
ATOM     74  C   UNL     1       4.051   9.038  -8.825  1.00  0.00     0.173 A 
ATOM     75  F   UNL     1       2.248  11.519 -10.771  1.00  0.00    -0.203 F 
ATOM     76  C   UNL     1       4.173  11.743  -9.432  1.00  0.00     0.198 A 
ATOM     77  C   UNL     1       5.060   9.832  -8.284  1.00  0.00     0.198 A 
ATOM     78  F   UNL     1       4.020   7.733  -8.518  1.00  0.00    -0.203 F 
ATOM     79  F   UNL     1       4.248  13.041  -9.757  1.00  0.00    -0.200 F 
ATOM     80  C   UNL     1       5.125  11.182  -8.594  1.00  0.00     0.200 A 
ATOM     81  F   UNL     1       5.971   9.289  -7.465  1.00  0.00    -0.200 F 
ATOM     82  F   UNL     1       6.110  11.940  -8.093  1.00  0.00    -0.200 F 
ENDBRANCH  48  72
BRANCH  60  83
ATOM     83  C   UNL     1       1.642   7.401 -16.127  1.00  0.00     0.064 A 
ATOM     84  C   UNL     1       2.872   6.821 -16.467  1.00  0.00     0.173 A 
ATOM     85  C   UNL     1       1.004   8.203 -17.085  1.00  0.00     0.173 A 
ATOM     86  F   UNL     1       3.528   6.059 -15.578  1.00  0.00    -0.203 F 
ATOM     87  C   UNL     1       3.450   7.050 -17.713  1.00  0.00     0.198 A 
ATOM     88  C   UNL     1       1.571   8.408 -18.339  1.00  0.00     0.198 A 
ATOM     89  F   UNL     1      -0.178   8.775 -16.809  1.00  0.00    -0.203 F 
ATOM     90  F   UNL     1       4.645   6.518 -18.003  1.00  0.00    -0.200 F 
ATOM     91  C   UNL     1       2.795   7.836 -18.650  1.00  0.00     0.200 A 
ATOM     92  F   UNL     1       0.932   9.158 -19.248  1.00  0.00    -0.200 F 
ATOM     93  F   UNL     1       3.349   8.048 -19.852  1.00  0.00    -0.200 F 
ENDBRANCH  60  83
ENDBRANCH  34  35
ENDBRANCH  26  29
ENDBRANCH  24  25
ENDBRANCH   1  24
TORSDOF 14
