REMARK SMILES Cc1ccc(C(N)=O)c(NCc2ccc(C(=O)NCCCNC(=O)c3ccc(-c4c5nc(c(-c6c(F)c(F)c(F)c(F)c6F)c6ccc([nH]6)c(-c6c(F)c(F)c(F)c(F)c6F)c6nc(c(-c7c(F)c(F)c(F)c(F)c7F)c7ccc4[nH]7)C=C6)C=C5)cc3)o2)n1
REMARK SMILES IDX 19 1 18 2 16 3 17 4 15 6 12 7 13 8 88 9 14 10 11 11 10 12
REMARK SMILES IDX 9 14 1 15 2 16 3 17 89 18 4 19 5 20 6 21 7 22 8 23 20 26
REMARK SMILES IDX 21 27 22 28 23 29 24 31 25 32 26 33 87 34 27 35 86 36 28 37
REMARK SMILES IDX 29 38 30 39 80 40 31 41 85 42 79 43 81 44 32 45 84 46 78 47
REMARK SMILES IDX 77 48 33 50 65 51 45 52 64 53 46 54 49 55 63 56 82 57 47 58
REMARK SMILES IDX 48 59 62 61 83 62 50 63 34 64 35 65 43 66 36 67 37 68 41 69
REMARK SMILES IDX 44 70 38 71 39 72 42 73 40 74 66 75 67 76 75 77 68 78 69 79
REMARK SMILES IDX 73 80 76 81 70 82 71 83 74 84 72 85 51 86 52 87 60 88 53 89
REMARK SMILES IDX 54 90 58 91 61 92 55 93 56 94 59 95 57 96
REMARK H PARENT 18 5 10 13 7 24 7 25 22 30 81 49 49 60
REMARK Flexibility Score: inf
ROOT
ATOM      1  C   UNL     1      -0.970   7.031  -5.469  1.00  0.00     0.118 C 
ENDROOT
BRANCH   1   2
ATOM      2  N   UNL     1      -0.986   7.796  -4.239  1.00  0.00    -0.349 N 
ATOM      3  C   UNL     1      -1.042   7.392  -2.924  1.00  0.00     0.286 C 
ATOM      4  O   UNL     1      -0.919   8.289  -2.087  1.00  0.00    -0.266 OA
ATOM      5  H   UNL     1      -0.951   8.772  -4.364  1.00  0.00     0.163 HD
BRANCH   3   6
ATOM      6  C   UNL     1      -1.219   5.996  -2.567  1.00  0.00     0.191 A 
ATOM      7  C   UNL     1      -1.079   4.304  -1.140  1.00  0.00     0.124 A 
ATOM      8  C   UNL     1      -1.591   3.785  -2.308  1.00  0.00     0.048 A 
ATOM      9  O   UNL     1      -0.855   5.639  -1.290  1.00  0.00    -0.454 OA
ATOM     10  C   UNL     1      -1.716   4.873  -3.206  1.00  0.00     0.056 A 
BRANCH   7  11
ATOM     11  C   UNL     1      -0.767   3.719   0.198  1.00  0.00     0.190 C 
BRANCH  11  12
ATOM     12  N   UNL     1      -1.546   2.527   0.500  1.00  0.00    -0.362 N 
ATOM     13  H   UNL     1      -2.456   2.619   0.864  1.00  0.00     0.162 HD
BRANCH  12  14
ATOM     14  C   UNL     1      -1.019   1.263   0.280  1.00  0.00     0.139 A 
ATOM     15  C   UNL     1       2.392  -0.099  -0.051  1.00  0.00     0.067 C 
ATOM     16  C   UNL     1       0.895  -0.062   0.025  1.00  0.00     0.040 A 
ATOM     17  C   UNL     1       0.147  -1.225  -0.054  1.00  0.00     0.024 A 
ATOM     18  N   UNL     1       0.327   1.160   0.171  1.00  0.00    -0.236 NA
ATOM     19  C   UNL     1      -1.237  -1.124   0.021  1.00  0.00     0.019 A 
ATOM     20  C   UNL     1      -1.839   0.130   0.180  1.00  0.00     0.081 A 
BRANCH  20  21
ATOM     21  C   UNL     1      -3.327   0.166   0.192  1.00  0.00     0.252 C 
ATOM     22  N   UNL     1      -3.943   1.335  -0.153  1.00  0.00    -0.365 N 
ATOM     23  O   UNL     1      -3.990  -0.830   0.457  1.00  0.00    -0.269 OA
ATOM     24  H   UNL     1      -3.405   2.132  -0.365  1.00  0.00     0.159 HD
ATOM     25  H   UNL     1      -4.926   1.382  -0.189  1.00  0.00     0.159 HD
ENDBRANCH  20  21
ENDBRANCH  12  14
ENDBRANCH  11  12
ENDBRANCH   7  11
ENDBRANCH   3   6
ENDBRANCH   1   2
BRANCH   1  26
ATOM     26  C   UNL     1      -2.340   7.018  -6.144  1.00  0.00     0.042 C 
BRANCH  26  27
ATOM     27  C   UNL     1      -2.686   8.335  -6.838  1.00  0.00     0.118 C 
BRANCH  27  28
ATOM     28  N   UNL     1      -1.839   8.582  -7.998  1.00  0.00    -0.352 N 
ATOM     29  C   UNL     1      -2.163   8.766  -9.318  1.00  0.00     0.251 C 
ATOM     30  H   UNL     1      -0.875   8.623  -7.801  1.00  0.00     0.163 HD
ATOM     31  O   UNL     1      -1.274   8.740 -10.165  1.00  0.00    -0.269 OA
BRANCH  29  32
ATOM     32  C   UNL     1      -3.563   8.991  -9.738  1.00  0.00     0.039 A 
ATOM     33  C   UNL     1      -4.008   8.401 -10.926  1.00  0.00     0.014 A 
ATOM     34  C   UNL     1      -4.417   9.826  -9.013  1.00  0.00     0.014 A 
ATOM     35  C   UNL     1      -5.321   8.606 -11.358  1.00  0.00     0.010 A 
ATOM     36  C   UNL     1      -5.744   9.980  -9.411  1.00  0.00     0.010 A 
ATOM     37  C   UNL     1      -6.208   9.375 -10.589  1.00  0.00    -0.014 A 
BRANCH  37  38
ATOM     38  C   UNL     1      -7.623   9.558 -11.000  1.00  0.00     0.031 A 
ATOM     39  C   UNL     1      -8.134  10.921 -11.376  1.00  0.00     0.074 A 
ATOM     40  C   UNL     1      -8.464   8.507 -10.967  1.00  0.00     0.049 A 
ATOM     41  N   UNL     1      -9.353  11.296 -11.675  1.00  0.00    -0.248 NA
ATOM     42  C   UNL     1      -7.150  12.014 -11.392  1.00  0.00     0.031 C 
ATOM     43  C   UNL     1      -8.098   7.144 -10.578  1.00  0.00     0.029 A 
ATOM     44  N   UNL     1      -9.805   8.423 -11.248  1.00  0.00    -0.354 N 
ATOM     45  C   UNL     1      -9.285  12.665 -11.891  1.00  0.00     0.074 A 
ATOM     46  C   UNL     1      -7.915  13.064 -11.651  1.00  0.00     0.031 C 
ATOM     47  C   UNL     1      -9.183   6.358 -10.658  1.00  0.00     0.029 A 
ATOM     48  C   UNL     1     -10.328   7.166 -11.067  1.00  0.00     0.049 A 
ATOM     49  H   UNL     1     -10.341   9.192 -11.550  1.00  0.00     0.167 HD
ATOM     50  C   UNL     1     -10.273  13.510 -12.273  1.00  0.00     0.037 A 
ATOM     51  C   UNL     1     -11.590   6.719 -11.205  1.00  0.00     0.037 A 
ATOM     52  C   UNL     1     -11.627  13.103 -12.545  1.00  0.00     0.049 A 
ATOM     53  C   UNL     1     -12.666   7.676 -11.640  1.00  0.00     0.074 A 
ATOM     54  C   UNL     1     -12.683  13.870 -13.008  1.00  0.00     0.029 A 
ATOM     55  N   UNL     1     -12.113  11.814 -12.378  1.00  0.00    -0.354 N 
ATOM     56  N   UNL     1     -12.575   8.956 -11.907  1.00  0.00    -0.248 NA
ATOM     57  C   UNL     1     -14.019   7.124 -11.797  1.00  0.00     0.031 C 
ATOM     58  C   UNL     1     -13.817  13.054 -13.082  1.00  0.00     0.029 A 
ATOM     59  C   UNL     1     -13.458  11.769 -12.709  1.00  0.00     0.049 A 
ATOM     60  H   UNL     1     -11.580  11.046 -12.070  1.00  0.00     0.167 HD
ATOM     61  C   UNL     1     -13.848   9.356 -12.290  1.00  0.00     0.074 A 
ATOM     62  C   UNL     1     -14.691   8.180 -12.232  1.00  0.00     0.031 C 
ATOM     63  C   UNL     1     -14.280  10.588 -12.654  1.00  0.00     0.037 A 
BRANCH  50  64
ATOM     64  C   UNL     1      -9.929  14.963 -12.422  1.00  0.00     0.064 A 
ATOM     65  C   UNL     1      -9.125  15.425 -13.475  1.00  0.00     0.173 A 
ATOM     66  C   UNL     1     -10.444  15.912 -11.526  1.00  0.00     0.173 A 
ATOM     67  F   UNL     1      -8.599  14.557 -14.354  1.00  0.00    -0.203 F 
ATOM     68  C   UNL     1      -8.827  16.779 -13.610  1.00  0.00     0.198 A 
ATOM     69  C   UNL     1     -10.168  17.268 -11.680  1.00  0.00     0.198 A 
ATOM     70  F   UNL     1     -11.224  15.525 -10.505  1.00  0.00    -0.203 F 
ATOM     71  F   UNL     1      -8.020  17.190 -14.597  1.00  0.00    -0.200 F 
ATOM     72  C   UNL     1      -9.354  17.699 -12.717  1.00  0.00     0.200 A 
ATOM     73  F   UNL     1     -10.688  18.158 -10.824  1.00  0.00    -0.200 F 
ATOM     74  F   UNL     1      -9.073  19.003 -12.852  1.00  0.00    -0.200 F 
ENDBRANCH  50  64
BRANCH  51  75
ATOM     75  C   UNL     1     -11.901   5.289 -10.949  1.00  0.00     0.064 A 
ATOM     76  C   UNL     1     -12.233   4.427 -12.003  1.00  0.00     0.173 A 
ATOM     77  C   UNL     1     -11.874   4.756  -9.653  1.00  0.00     0.173 A 
ATOM     78  F   UNL     1     -12.291   4.896 -13.258  1.00  0.00    -0.203 F 
ATOM     79  C   UNL     1     -12.545   3.090 -11.768  1.00  0.00     0.198 A 
ATOM     80  C   UNL     1     -12.161   3.412  -9.422  1.00  0.00     0.198 A 
ATOM     81  F   UNL     1     -11.556   5.538  -8.611  1.00  0.00    -0.203 F 
ATOM     82  F   UNL     1     -12.901   2.298 -12.789  1.00  0.00    -0.200 F 
ATOM     83  C   UNL     1     -12.504   2.582 -10.479  1.00  0.00     0.200 A 
ATOM     84  F   UNL     1     -12.105   2.922  -8.176  1.00  0.00    -0.200 F 
ATOM     85  F   UNL     1     -12.800   1.295 -10.253  1.00  0.00    -0.200 F 
ENDBRANCH  51  75
BRANCH  63  86
ATOM     86  C   UNL     1     -15.720  10.720 -13.053  1.00  0.00     0.064 A 
ATOM     87  C   UNL     1     -16.752  10.671 -12.105  1.00  0.00     0.173 A 
ATOM     88  C   UNL     1     -16.068  10.937 -14.395  1.00  0.00     0.173 A 
ATOM     89  F   UNL     1     -16.471  10.449 -10.812  1.00  0.00    -0.203 F 
ATOM     90  C   UNL     1     -18.083  10.812 -12.489  1.00  0.00     0.198 A 
ATOM     91  C   UNL     1     -17.397  11.105 -14.771  1.00  0.00     0.198 A 
ATOM     92  F   UNL     1     -15.117  10.997 -15.338  1.00  0.00    -0.203 F 
ATOM     93  F   UNL     1     -19.056  10.717 -11.573  1.00  0.00    -0.200 F 
ATOM     94  C   UNL     1     -18.404  11.036 -13.820  1.00  0.00     0.200 A 
ATOM     95  F   UNL     1     -17.704  11.333 -16.056  1.00  0.00    -0.200 F 
ATOM     96  F   UNL     1     -19.684  11.177 -14.187  1.00  0.00    -0.200 F 
ENDBRANCH  63  86
ENDBRANCH  37  38
ENDBRANCH  29  32
ENDBRANCH  27  28
ENDBRANCH  26  27
ENDBRANCH   1  26
TORSDOF 14
