REMARK SMILES O=C(NCCCNC(=O)c1ccccc1-c1ccc(/C=C2\C(=O)N(c3cccc(Br)c3)C(=O)N=C2O)o1)c1ccc(-c2c3nc(c(-c4c(F)c(F)c(F)c(F)c4F)c4ccc([nH]4)c(-c4c(F)c(F)c(F)c(F)c4F)c4nc(c(-c5c(F)c(F)c(F)c(F)c5F)c5ccc2[nH]5)C=C4)C=C3)cc1
REMARK SMILES IDX 5 1 4 2 3 3 1 4 2 5 38 7 39 8 100 9 40 10 99 11 41 12 42 13
REMARK SMILES IDX 43 14 93 15 44 16 98 17 92 18 94 19 45 20 97 21 91 22 90 23
REMARK SMILES IDX 46 25 78 26 58 27 77 28 59 29 62 30 76 31 95 32 60 33 61 34
REMARK SMILES IDX 75 36 96 37 63 38 47 39 48 40 56 41 49 42 50 43 54 44 57 45
REMARK SMILES IDX 51 46 52 47 55 48 53 49 79 50 80 51 88 52 81 53 82 54 86 55
REMARK SMILES IDX 89 56 83 57 84 58 87 59 85 60 64 61 65 62 73 63 66 64 67 65
REMARK SMILES IDX 71 66 74 67 68 68 69 69 72 70 70 71 6 72 7 73 8 74 9 76
REMARK SMILES IDX 10 77 11 78 15 79 12 80 14 81 13 82 16 83 17 84 37 85 18 86
REMARK SMILES IDX 19 87 20 88 21 89 22 90 35 91 23 92 24 93 34 94 32 95 33 96
REMARK SMILES IDX 36 97 25 99 26 100 31 101 27 102 29 103 28 104 30 105
REMARK H PARENT 3 6 94 24 62 35 7 75 36 98
REMARK Flexibility Score: inf
ROOT
ATOM      1  C   UNL     1       5.396   1.312  -1.802  1.00  0.00     0.042 C 
ENDROOT
BRANCH   1   2
ATOM      2  C   UNL     1       4.764   1.192  -0.430  1.00  0.00     0.118 C 
BRANCH   2   3
ATOM      3  N   UNL     1       3.312   1.013  -0.456  1.00  0.00    -0.352 N 
ATOM      4  O   UNL     1       1.328  -0.062  -0.357  1.00  0.00    -0.269 OA
ATOM      5  C   UNL     1       2.534  -0.074  -0.127  1.00  0.00     0.251 C 
ATOM      6  H   UNL     1       2.807   1.802  -0.759  1.00  0.00     0.163 HD
BRANCH   5   7
ATOM      7  C   UNL     1       3.161  -1.278   0.460  1.00  0.00     0.039 A 
ATOM      8  C   UNL     1       4.193  -1.151   1.384  1.00  0.00     0.014 A 
ATOM      9  C   UNL     1       2.747  -2.551   0.055  1.00  0.00     0.014 A 
ATOM     10  C   UNL     1       4.978  -2.249   1.689  1.00  0.00     0.010 A 
ATOM     11  C   UNL     1       3.439  -3.683   0.502  1.00  0.00     0.010 A 
ATOM     12  C   UNL     1       4.594  -3.537   1.283  1.00  0.00    -0.014 A 
BRANCH  12  13
ATOM     13  C   UNL     1       5.393  -4.691   1.772  1.00  0.00     0.031 A 
ATOM     14  C   UNL     1       6.094  -5.627   0.827  1.00  0.00     0.074 A 
ATOM     15  C   UNL     1       5.545  -4.832   3.105  1.00  0.00     0.049 A 
ATOM     16  N   UNL     1       6.870  -6.646   1.108  1.00  0.00    -0.248 NA
ATOM     17  C   UNL     1       5.900  -5.406  -0.614  1.00  0.00     0.031 C 
ATOM     18  C   UNL     1       4.900  -3.987   4.117  1.00  0.00     0.029 A 
ATOM     19  N   UNL     1       6.313  -5.695   3.842  1.00  0.00    -0.354 N 
ATOM     20  C   UNL     1       7.237  -7.197  -0.114  1.00  0.00     0.074 A 
ATOM     21  C   UNL     1       6.581  -6.416  -1.141  1.00  0.00     0.031 C 
ATOM     22  C   UNL     1       5.362  -4.316   5.329  1.00  0.00     0.029 A 
ATOM     23  C   UNL     1       6.257  -5.457   5.194  1.00  0.00     0.049 A 
ATOM     24  H   UNL     1       6.851  -6.415   3.442  1.00  0.00     0.167 HD
ATOM     25  C   UNL     1       8.052  -8.254  -0.350  1.00  0.00     0.037 A 
ATOM     26  C   UNL     1       6.840  -6.100   6.221  1.00  0.00     0.037 A 
ATOM     27  C   UNL     1       8.717  -9.013   0.681  1.00  0.00     0.049 A 
ATOM     28  C   UNL     1       7.723  -7.275   5.923  1.00  0.00     0.074 A 
ATOM     29  C   UNL     1       9.574 -10.091   0.543  1.00  0.00     0.029 A 
ATOM     30  N   UNL     1       8.601  -8.770   2.043  1.00  0.00    -0.354 N 
ATOM     31  N   UNL     1       8.065  -7.777   4.762  1.00  0.00    -0.248 NA
ATOM     32  C   UNL     1       8.291  -7.979   7.078  1.00  0.00     0.031 C 
ATOM     33  C   UNL     1       9.941 -10.528   1.820  1.00  0.00     0.029 A 
ATOM     34  C   UNL     1       9.355  -9.690   2.755  1.00  0.00     0.049 A 
ATOM     35  H   UNL     1       8.062  -8.050   2.444  1.00  0.00     0.167 HD
ATOM     36  C   UNL     1       8.894  -8.852   5.044  1.00  0.00     0.074 A 
ATOM     37  C   UNL     1       9.033  -8.903   6.486  1.00  0.00     0.031 C 
ATOM     38  C   UNL     1       9.476  -9.727   4.189  1.00  0.00     0.037 A 
BRANCH  25  39
ATOM     39  C   UNL     1       8.272  -8.671  -1.776  1.00  0.00     0.064 A 
ATOM     40  C   UNL     1       9.062  -7.912  -2.653  1.00  0.00     0.173 A 
ATOM     41  C   UNL     1       7.752  -9.886  -2.249  1.00  0.00     0.173 A 
ATOM     42  F   UNL     1       9.576  -6.739  -2.255  1.00  0.00    -0.203 F 
ATOM     43  C   UNL     1       9.313  -8.349  -3.952  1.00  0.00     0.198 A 
ATOM     44  C   UNL     1       8.027 -10.332  -3.540  1.00  0.00     0.198 A 
ATOM     45  F   UNL     1       6.996 -10.654  -1.450  1.00  0.00    -0.203 F 
ATOM     46  F   UNL     1      10.049  -7.595  -4.781  1.00  0.00    -0.200 F 
ATOM     47  C   UNL     1       8.804  -9.563  -4.391  1.00  0.00     0.200 A 
ATOM     48  F   UNL     1       7.547 -11.513  -3.956  1.00  0.00    -0.200 F 
ATOM     49  F   UNL     1       9.063  -9.990  -5.635  1.00  0.00    -0.200 F 
ENDBRANCH  25  39
BRANCH  26  50
ATOM     50  C   UNL     1       6.575  -5.665   7.617  1.00  0.00     0.064 A 
ATOM     51  C   UNL     1       7.594  -5.138   8.420  1.00  0.00     0.173 A 
ATOM     52  C   UNL     1       5.292  -5.773   8.177  1.00  0.00     0.173 A 
ATOM     53  F   UNL     1       8.840  -5.030   7.936  1.00  0.00    -0.203 F 
ATOM     54  C   UNL     1       7.347  -4.758   9.738  1.00  0.00     0.198 A 
ATOM     55  C   UNL     1       5.038  -5.357   9.481  1.00  0.00     0.198 A 
ATOM     56  F   UNL     1       4.279  -6.263   7.449  1.00  0.00    -0.203 F 
ATOM     57  F   UNL     1       8.351  -4.308  10.502  1.00  0.00    -0.200 F 
ATOM     58  C   UNL     1       6.068  -4.861  10.264  1.00  0.00     0.200 A 
ATOM     59  F   UNL     1       3.795  -5.437   9.976  1.00  0.00    -0.200 F 
ATOM     60  F   UNL     1       5.830  -4.490  11.530  1.00  0.00    -0.200 F 
ENDBRANCH  26  50
BRANCH  38  61
ATOM     61  C   UNL     1      10.329 -10.798   4.803  1.00  0.00     0.064 A 
ATOM     62  C   UNL     1       9.765 -11.852   5.538  1.00  0.00     0.173 A 
ATOM     63  C   UNL     1      11.723 -10.768   4.658  1.00  0.00     0.173 A 
ATOM     64  F   UNL     1       8.437 -11.913   5.721  1.00  0.00    -0.203 F 
ATOM     65  C   UNL     1      10.570 -12.815   6.139  1.00  0.00     0.198 A 
ATOM     66  C   UNL     1      12.523 -11.751   5.233  1.00  0.00     0.198 A 
ATOM     67  F   UNL     1      12.310  -9.784   3.961  1.00  0.00    -0.203 F 
ATOM     68  F   UNL     1      10.015 -13.775   6.892  1.00  0.00    -0.200 F 
ATOM     69  C   UNL     1      11.947 -12.766   5.982  1.00  0.00     0.200 A 
ATOM     70  F   UNL     1      13.852 -11.710   5.072  1.00  0.00    -0.200 F 
ATOM     71  F   UNL     1      12.721 -13.692   6.566  1.00  0.00    -0.200 F 
ENDBRANCH  38  61
ENDBRANCH  12  13
ENDBRANCH   5   7
ENDBRANCH   2   3
ENDBRANCH   1   2
BRANCH   1  72
ATOM     72  C   UNL     1       4.986   2.567  -2.537  1.00  0.00     0.118 C 
BRANCH  72  73
ATOM     73  N   UNL     1       5.377   3.799  -1.873  1.00  0.00    -0.352 N 
ATOM     74  C   UNL     1       5.778   4.971  -2.462  1.00  0.00     0.252 C 
ATOM     75  H   UNL     1       5.351   3.791  -0.889  1.00  0.00     0.163 HD
ATOM     76  O   UNL     1       6.024   5.958  -1.776  1.00  0.00    -0.269 OA
BRANCH  74  77
ATOM     77  C   UNL     1       5.984   5.020  -3.924  1.00  0.00     0.050 A 
ATOM     78  C   UNL     1       7.312   5.200  -4.342  1.00  0.00     0.014 A 
ATOM     79  C   UNL     1       4.946   4.835  -4.858  1.00  0.00     0.030 A 
ATOM     80  C   UNL     1       7.625   5.159  -5.697  1.00  0.00     0.001 A 
ATOM     81  C   UNL     1       5.287   4.785  -6.218  1.00  0.00     0.013 A 
ATOM     82  C   UNL     1       6.615   4.944  -6.632  1.00  0.00     0.001 A 
BRANCH  79  83
ATOM     83  C   UNL     1       3.560   4.629  -4.454  1.00  0.00     0.135 A 
ATOM     84  C   UNL     1       2.708   5.250  -3.571  1.00  0.00     0.051 A 
ATOM     85  O   UNL     1       2.972   3.493  -4.931  1.00  0.00    -0.457 OA
ATOM     86  C   UNL     1       1.577   4.404  -3.456  1.00  0.00     0.051 A 
ATOM     87  C   UNL     1       1.791   3.283  -4.255  1.00  0.00     0.128 A 
BRANCH  87  88
ATOM     88  C   UNL     1       0.964   2.130  -4.377  1.00  0.00     0.066 C 
ATOM     89  C   UNL     1       1.353   0.909  -4.794  1.00  0.00     0.106 C 
ATOM     90  C   UNL     1       2.721   0.462  -5.160  1.00  0.00     0.272 C 
ATOM     91  C   UNL     1       0.353  -0.139  -4.951  1.00  0.00     0.228 C 
ATOM     92  O   UNL     1       3.707   0.953  -4.622  1.00  0.00    -0.268 OA
ATOM     93  N   UNL     1       2.748  -0.572  -6.101  1.00  0.00    -0.226 N 
ATOM     94  N   UNL     1       0.470  -1.198  -5.648  1.00  0.00    -0.156 NA
ATOM     95  C   UNL     1       1.625  -1.383  -6.374  1.00  0.00     0.358 C 
ATOM     96  O   UNL     1       1.649  -2.292  -7.196  1.00  0.00    -0.245 OA
BRANCH  91  97
ATOM     97  O   UNL     1      -0.783   0.026  -4.263  1.00  0.00    -0.493 OA
ATOM     98  H   UNL     1      -0.906   0.793  -3.738  1.00  0.00     0.295 HD
ENDBRANCH  91  97
BRANCH  93  99
ATOM     99  C   UNL     1       3.990  -0.859  -6.778  1.00  0.00     0.055 A 
ATOM    100  C   UNL     1       4.008  -1.081  -8.165  1.00  0.00     0.027 A 
ATOM    101  C   UNL     1       5.213  -0.887  -6.090  1.00  0.00     0.042 A 
ATOM    102  C   UNL     1       5.210  -1.302  -8.847  1.00  0.00     0.003 A 
ATOM    103  C   UNL     1       6.409  -1.123  -6.773  1.00  0.00     0.020 A 
ATOM    104  C   UNL     1       6.414  -1.323  -8.149  1.00  0.00     0.016 A 
ATOM    105  Br  UNL     1       8.038  -1.178  -5.812  1.00  0.00    -0.051 Br
ENDBRANCH  93  99
ENDBRANCH  87  88
ENDBRANCH  79  83
ENDBRANCH  74  77
ENDBRANCH  72  73
ENDBRANCH   1  72
TORSDOF 14
