REMARK SMILES CCNC(=S)N/N=C\c1ccc(-c2ccc(C(=O)NCCCNC(=O)c3ccc(-c4c5nc(c(-c6c(F)c(F)c(F)c(F)c6F)c6ccc([nH]6)c(-c6c(F)c(F)c(F)c(F)c6F)c6nc(c(-c7c(F)c(F)c(F)c(F)c7F)c7ccc4[nH]7)C=C6)C=C5)cc3)c(Cl)c2)o1
REMARK SMILES IDX 17 1 18 2 19 3 16 5 13 6 14 7 91 8 15 9 89 10 90 11 12 12
REMARK SMILES IDX 9 13 10 14 92 15 11 16 8 17 7 18 6 19 4 21 5 22 3 23 2 25
REMARK SMILES IDX 1 26 20 27 21 28 22 29 23 30 24 31 25 33 26 34 27 35 88 36
REMARK SMILES IDX 28 37 87 38 29 39 30 40 31 41 81 42 32 43 86 44 80 45 82 46
REMARK SMILES IDX 33 47 85 48 79 49 78 50 34 52 66 53 46 54 65 55 47 56 50 57
REMARK SMILES IDX 64 58 83 59 48 60 49 61 63 63 84 64 51 65 35 66 36 67 44 68
REMARK SMILES IDX 37 69 38 70 42 71 45 72 39 73 40 74 43 75 41 76 67 77 68 78
REMARK SMILES IDX 76 79 69 80 70 81 74 82 77 83 71 84 72 85 75 86 73 87 52 88
REMARK SMILES IDX 53 89 61 90 54 91 55 92 59 93 62 94 56 95 57 96 60 97 58 98
REMARK H PARENT 19 4 6 20 3 24 23 32 82 51 50 62
REMARK Flexibility Score: inf
ROOT
ATOM      1  C   UNL     1       7.265  -0.769  -1.336  1.00  0.00     0.252 C 
ATOM      2  O   UNL     1       8.273  -0.816  -0.619  1.00  0.00    -0.269 OA
ATOM      3  N   UNL     1       7.454  -1.297  -2.581  1.00  0.00    -0.352 N 
ATOM      4  H   UNL     1       8.367  -1.646  -2.697  1.00  0.00     0.163 HD
ENDROOT
BRANCH   1   5
ATOM      5  C   UNL     1       6.015  -0.210  -0.726  1.00  0.00     0.058 A 
ATOM      6  C   UNL     1       3.977   0.965   0.896  1.00  0.00     0.019 A 
ATOM      7  C   UNL     1       5.025   0.288   1.494  1.00  0.00     0.013 A 
ATOM      8  C   UNL     1       3.931   1.030  -0.498  1.00  0.00     0.033 A 
ATOM      9  C   UNL     1       6.014  -0.298   0.693  1.00  0.00     0.016 A 
ATOM     10  C   UNL     1       4.944   0.480  -1.307  1.00  0.00     0.054 A 
ATOM     11  Cl  UNL     1       4.754   0.896  -2.963  1.00  0.00    -0.083 Cl
BRANCH   6  12
ATOM     12  C   UNL     1       2.984   1.684   1.663  1.00  0.00     0.134 A 
ATOM     13  C   UNL     1       0.924   1.964   2.348  1.00  0.00     0.147 A 
ATOM     14  C   UNL     1       1.576   3.160   2.576  1.00  0.00     0.053 A 
ATOM     15  O   UNL     1       1.802   1.040   1.855  1.00  0.00    -0.455 OA
ATOM     16  C   UNL     1       2.911   2.974   2.141  1.00  0.00     0.051 A 
BRANCH  13  17
ATOM     17  C   UNL     1      -0.456   1.582   2.437  1.00  0.00     0.180 C 
ATOM     18  N   UNL     1      -1.452   2.054   1.738  1.00  0.00    -0.178 NA
BRANCH  18  19
ATOM     19  N   UNL     1      -1.196   2.959   0.745  1.00  0.00    -0.254 N 
ATOM     20  H   UNL     1      -1.698   3.804   0.804  1.00  0.00     0.193 HD
BRANCH  19  21
ATOM     21  C   UNL     1      -0.347   2.858  -0.310  1.00  0.00     0.186 C 
ATOM     22  S   UNL     1       0.115   4.251  -1.115  1.00  0.00    -0.039 S 
BRANCH  21  23
ATOM     23  N   UNL     1       0.121   1.678  -0.773  1.00  0.00    -0.362 N 
ATOM     24  H   UNL     1       0.928   1.738  -1.333  1.00  0.00     0.162 HD
BRANCH  23  25
ATOM     25  C   UNL     1      -0.391   0.332  -0.567  1.00  0.00     0.112 C 
ATOM     26  C   UNL     1       0.499  -0.703  -1.233  1.00  0.00     0.027 C 
ENDBRANCH  23  25
ENDBRANCH  21  23
ENDBRANCH  19  21
ENDBRANCH  18  19
ENDBRANCH  13  17
ENDBRANCH   6  12
ENDBRANCH   1   5
BRANCH   3  27
ATOM     27  C   UNL     1       6.652  -1.473  -3.774  1.00  0.00     0.118 C 
BRANCH  27  28
ATOM     28  C   UNL     1       6.974  -0.384  -4.801  1.00  0.00     0.042 C 
BRANCH  28  29
ATOM     29  C   UNL     1       8.243  -0.644  -5.603  1.00  0.00     0.118 C 
BRANCH  29  30
ATOM     30  N   UNL     1       8.069  -1.724  -6.567  1.00  0.00    -0.352 N 
ATOM     31  C   UNL     1       8.162  -1.696  -7.936  1.00  0.00     0.251 C 
ATOM     32  H   UNL     1       7.854  -2.602  -6.179  1.00  0.00     0.163 HD
ATOM     33  O   UNL     1       7.761  -2.651  -8.599  1.00  0.00    -0.269 OA
BRANCH  31  34
ATOM     34  C   UNL     1       8.734  -0.518  -8.619  1.00  0.00     0.039 A 
ATOM     35  C   UNL     1       8.121  -0.030  -9.777  1.00  0.00     0.014 A 
ATOM     36  C   UNL     1       9.888   0.095  -8.126  1.00  0.00     0.014 A 
ATOM     37  C   UNL     1       8.630   1.110 -10.404  1.00  0.00     0.010 A 
ATOM     38  C   UNL     1      10.343   1.275  -8.700  1.00  0.00     0.010 A 
ATOM     39  C   UNL     1       9.725   1.791  -9.851  1.00  0.00    -0.014 A 
BRANCH  39  40
ATOM     40  C   UNL     1      10.278   3.026 -10.460  1.00  0.00     0.031 A 
ATOM     41  C   UNL     1      11.699   3.033 -10.954  1.00  0.00     0.074 A 
ATOM     42  C   UNL     1       9.549   4.158 -10.475  1.00  0.00     0.049 A 
ATOM     43  N   UNL     1      12.436   4.038 -11.353  1.00  0.00    -0.248 NA
ATOM     44  C   UNL     1      12.395   1.736 -10.965  1.00  0.00     0.031 C 
ATOM     45  C   UNL     1       8.170   4.284 -10.000  1.00  0.00     0.029 A 
ATOM     46  N   UNL     1       9.876   5.427 -10.883  1.00  0.00    -0.354 N 
ATOM     47  C   UNL     1      13.685   3.499 -11.632  1.00  0.00     0.074 A 
ATOM     48  C   UNL     1      13.624   2.092 -11.306  1.00  0.00     0.031 C 
ATOM     49  C   UNL     1       7.767   5.555 -10.152  1.00  0.00     0.029 A 
ATOM     50  C   UNL     1       8.873   6.345 -10.686  1.00  0.00     0.049 A 
ATOM     51  H   UNL     1      10.748   5.658 -11.279  1.00  0.00     0.167 HD
ATOM     52  C   UNL     1      14.779   4.120 -12.136  1.00  0.00     0.037 A 
ATOM     53  C   UNL     1       8.857   7.676 -10.892  1.00  0.00     0.037 A 
ATOM     54  C   UNL     1      14.822   5.516 -12.482  1.00  0.00     0.049 A 
ATOM     55  C   UNL     1      10.093   8.348 -11.431  1.00  0.00     0.074 A 
ATOM     56  C   UNL     1      15.862   6.235 -13.043  1.00  0.00     0.029 A 
ATOM     57  N   UNL     1      13.773   6.406 -12.296  1.00  0.00    -0.354 N 
ATOM     58  N   UNL     1      11.255   7.823 -11.738  1.00  0.00    -0.248 NA
ATOM     59  C   UNL     1      10.015   9.798 -11.656  1.00  0.00     0.031 C 
ATOM     60  C   UNL     1      15.463   7.570 -13.147  1.00  0.00     0.029 A 
ATOM     61  C   UNL     1      14.150   7.672 -12.715  1.00  0.00     0.049 A 
ATOM     62  H   UNL     1      12.893   6.173 -11.922  1.00  0.00     0.167 HD
ATOM     63  C   UNL     1      12.028   8.865 -12.233  1.00  0.00     0.074 A 
ATOM     64  C   UNL     1      11.203  10.054 -12.187  1.00  0.00     0.031 C 
ATOM     65  C   UNL     1      13.304   8.838 -12.689  1.00  0.00     0.037 A 
BRANCH  52  66
ATOM     66  C   UNL     1      16.017   3.294 -12.339  1.00  0.00     0.064 A 
ATOM     67  C   UNL     1      16.078   2.279 -13.307  1.00  0.00     0.173 A 
ATOM     68  C   UNL     1      17.169   3.539 -11.575  1.00  0.00     0.173 A 
ATOM     69  F   UNL     1      15.003   1.996 -14.057  1.00  0.00    -0.203 F 
ATOM     70  C   UNL     1      17.232   1.517 -13.476  1.00  0.00     0.198 A 
ATOM     71  C   UNL     1      18.333   2.800 -11.774  1.00  0.00     0.198 A 
ATOM     72  F   UNL     1      17.170   4.501 -10.640  1.00  0.00    -0.203 F 
ATOM     73  F   UNL     1      17.245   0.515 -14.366  1.00  0.00    -0.200 F 
ATOM     74  C   UNL     1      18.360   1.784 -12.716  1.00  0.00     0.200 A 
ATOM     75  F   UNL     1      19.427   3.070 -11.049  1.00  0.00    -0.200 F 
ATOM     76  F   UNL     1      19.472   1.055 -12.886  1.00  0.00    -0.200 F 
ENDBRANCH  52  66
BRANCH  53  77
ATOM     77  C   UNL     1       7.628   8.462 -10.604  1.00  0.00     0.064 A 
ATOM     78  C   UNL     1       6.894   9.053 -11.643  1.00  0.00     0.173 A 
ATOM     79  C   UNL     1       7.167   8.652  -9.293  1.00  0.00     0.173 A 
ATOM     80  F   UNL     1       7.303   8.917 -12.913  1.00  0.00    -0.203 F 
ATOM     81  C   UNL     1       5.764   9.825 -11.380  1.00  0.00     0.198 A 
ATOM     82  C   UNL     1       6.019   9.398  -9.033  1.00  0.00     0.198 A 
ATOM     83  F   UNL     1       7.828   8.104  -8.263  1.00  0.00    -0.203 F 
ATOM     84  F   UNL     1       5.115  10.423 -12.388  1.00  0.00    -0.200 F 
ATOM     85  C   UNL     1       5.324   9.993 -10.076  1.00  0.00     0.200 A 
ATOM     86  F   UNL     1       5.588   9.544  -7.773  1.00  0.00    -0.200 F 
ATOM     87  F   UNL     1       4.238  10.735  -9.823  1.00  0.00    -0.200 F 
ENDBRANCH  53  77
BRANCH  65  88
ATOM     88  C   UNL     1      13.871  10.112 -13.247  1.00  0.00     0.064 A 
ATOM     89  C   UNL     1      14.210  11.198 -12.428  1.00  0.00     0.173 A 
ATOM     90  C   UNL     1      14.141  10.216 -14.621  1.00  0.00     0.173 A 
ATOM     91  F   UNL     1      13.960  11.154 -11.111  1.00  0.00    -0.203 F 
ATOM     92  C   UNL     1      14.781  12.348 -12.966  1.00  0.00     0.198 A 
ATOM     93  C   UNL     1      14.743  11.353 -15.151  1.00  0.00     0.198 A 
ATOM     94  F   UNL     1      13.842   9.202 -15.448  1.00  0.00    -0.203 F 
ATOM     95  F   UNL     1      15.058  13.391 -12.171  1.00  0.00    -0.200 F 
ATOM     96  C   UNL     1      15.057  12.421 -14.324  1.00  0.00     0.200 A 
ATOM     97  F   UNL     1      15.025  11.412 -16.459  1.00  0.00    -0.200 F 
ATOM     98  F   UNL     1      15.623  13.522 -14.837  1.00  0.00    -0.200 F 
ENDBRANCH  65  88
ENDBRANCH  39  40
ENDBRANCH  31  34
ENDBRANCH  29  30
ENDBRANCH  28  29
ENDBRANCH  27  28
ENDBRANCH   3  27
TORSDOF 16
