REMARK SMILES CCc1cn(C[C@H](NC(=O)c2ccco2)C(=O)NCCCNC(=O)c2ccc(-c3c4nc(c(-c5c(F)c(F)c(F)c(F)c5F)c5ccc([nH]5)c(-c5c(F)c(F)c(F)c(F)c5F)c5nc(c(-c6c(F)c(F)c(F)c(F)c6F)c6ccc3[nH]6)C=C5)C=C4)cc2)c(=O)[nH]c1=O
REMARK SMILES IDX 19 1 18 2 16 3 17 4 7 6 6 7 5 8 3 9 4 10 91 11 90 12 92 13
REMARK SMILES IDX 88 14 89 16 2 17 1 18 8 19 9 20 10 22 11 23 12 24 15 25
REMARK SMILES IDX 13 26 14 27 20 28 21 29 22 30 23 31 24 33 25 34 26 35 87 36
REMARK SMILES IDX 27 37 86 38 28 39 29 40 30 41 80 42 31 43 85 44 79 45 81 46
REMARK SMILES IDX 32 47 84 48 78 49 77 50 33 52 65 53 45 54 64 55 46 56 49 57
REMARK SMILES IDX 63 58 82 59 47 60 48 61 62 63 83 64 50 65 34 66 35 67 43 68
REMARK SMILES IDX 36 69 37 70 41 71 44 72 38 73 39 74 42 75 40 76 66 77 67 78
REMARK SMILES IDX 75 79 68 80 69 81 73 82 76 83 70 84 71 85 74 86 72 87 51 88
REMARK SMILES IDX 52 89 60 90 53 91 54 92 58 93 61 94 55 95 56 96 59 97 57 98
REMARK H PARENT 18 5 90 15 8 21 22 32 81 51 49 62
REMARK Flexibility Score: inf
ROOT
ATOM      1  C   UNL     1       1.182   8.239   1.014  1.00  0.00     0.117 C 
ENDROOT
BRANCH   1   2
ATOM      2  N   UNL     1      -0.145   8.600   1.475  1.00  0.00    -0.354 N 
ATOM      3  C   UNL     1      -1.017   7.948   2.296  1.00  0.00     0.244 C 
ATOM      4  O   UNL     1      -2.035   8.548   2.656  1.00  0.00    -0.273 OA
ATOM      5  H   UNL     1      -0.473   9.464   1.137  1.00  0.00     0.163 HD
BRANCH   3   6
ATOM      6  C   UNL     1      -0.727   6.541   2.815  1.00  0.00     0.191 C 
BRANCH   6   7
ATOM      7  C   UNL     1       0.447   6.525   3.845  1.00  0.00     0.162 C 
BRANCH   7   8
ATOM      8  N   UNL     1       0.307   7.311   5.087  1.00  0.00    -0.298 N 
ATOM      9  C   UNL     1       0.718   7.416   7.435  1.00  0.00     0.033 A 
ATOM     10  C   UNL     1       0.647   6.716   6.294  1.00  0.00     0.100 A 
ATOM     11  C   UNL     1       0.178   8.797   7.440  1.00  0.00     0.256 A 
ATOM     12  N   UNL     1      -0.065   9.326   6.211  1.00  0.00    -0.274 N 
ATOM     13  O   UNL     1       0.031   9.440   8.469  1.00  0.00    -0.269 OA
ATOM     14  C   UNL     1       0.201   8.703   5.031  1.00  0.00     0.328 A 
ATOM     15  H   UNL     1      -0.463  10.225   6.172  1.00  0.00     0.175 HD
ATOM     16  O   UNL     1       0.411   9.380   4.030  1.00  0.00    -0.248 OA
BRANCH   9  17
ATOM     17  C   UNL     1       1.391   6.938   8.685  1.00  0.00     0.039 C 
ATOM     18  C   UNL     1       2.789   7.548   8.780  1.00  0.00     0.009 C 
ENDBRANCH   9  17
ENDBRANCH   7   8
ENDBRANCH   6   7
BRANCH   6  19
ATOM     19  N   UNL     1      -0.462   5.616   1.689  1.00  0.00    -0.336 N 
ATOM     20  C   UNL     1      -1.323   5.193   0.695  1.00  0.00     0.287 C 
ATOM     21  H   UNL     1       0.452   5.252   1.644  1.00  0.00     0.164 HD
ATOM     22  O   UNL     1      -0.989   4.180   0.079  1.00  0.00    -0.266 OA
BRANCH  20  23
ATOM     23  C   UNL     1      -2.513   5.950   0.380  1.00  0.00     0.191 A 
ATOM     24  C   UNL     1      -2.697   7.202  -0.179  1.00  0.00     0.056 A 
ATOM     25  O   UNL     1      -3.736   5.351   0.536  1.00  0.00    -0.459 OA
ATOM     26  C   UNL     1      -4.089   7.406  -0.304  1.00  0.00     0.043 A 
ATOM     27  C   UNL     1      -4.677   6.244   0.130  1.00  0.00     0.196 A 
ENDBRANCH  20  23
ENDBRANCH   6  19
ENDBRANCH   3   6
ENDBRANCH   1   2
BRANCH   1  28
ATOM     28  C   UNL     1       1.237   8.042  -0.487  1.00  0.00     0.042 C 
BRANCH  28  29
ATOM     29  C   UNL     1       0.668   9.201  -1.285  1.00  0.00     0.118 C 
BRANCH  29  30
ATOM     30  N   UNL     1       1.405  10.446  -1.137  1.00  0.00    -0.352 N 
ATOM     31  C   UNL     1       1.906  11.271  -2.118  1.00  0.00     0.251 C 
ATOM     32  H   UNL     1       1.568  10.738  -0.211  1.00  0.00     0.163 HD
ATOM     33  O   UNL     1       2.556  12.268  -1.829  1.00  0.00    -0.269 OA
BRANCH  31  34
ATOM     34  C   UNL     1       1.709  10.894  -3.533  1.00  0.00     0.039 A 
ATOM     35  C   UNL     1       0.447  10.525  -4.003  1.00  0.00     0.014 A 
ATOM     36  C   UNL     1       2.830  10.802  -4.359  1.00  0.00     0.014 A 
ATOM     37  C   UNL     1       0.341   9.869  -5.224  1.00  0.00     0.010 A 
ATOM     38  C   UNL     1       2.702  10.233  -5.627  1.00  0.00     0.010 A 
ATOM     39  C   UNL     1       1.469   9.705  -6.044  1.00  0.00    -0.014 A 
BRANCH  39  40
ATOM     40  C   UNL     1       1.356   8.961  -7.324  1.00  0.00     0.031 A 
ATOM     41  C   UNL     1       2.121   7.682  -7.538  1.00  0.00     0.074 A 
ATOM     42  C   UNL     1       0.541   9.429  -8.288  1.00  0.00     0.049 A 
ATOM     43  N   UNL     1       2.212   6.945  -8.617  1.00  0.00    -0.248 NA
ATOM     44  C   UNL     1       2.891   7.164  -6.395  1.00  0.00     0.031 C 
ATOM     45  C   UNL     1      -0.270  10.643  -8.190  1.00  0.00     0.029 A 
ATOM     46  N   UNL     1       0.254   8.936  -9.535  1.00  0.00    -0.354 N 
ATOM     47  C   UNL     1       3.069   5.901  -8.294  1.00  0.00     0.074 A 
ATOM     48  C   UNL     1       3.487   6.104  -6.924  1.00  0.00     0.031 C 
ATOM     49  C   UNL     1      -0.991  10.781  -9.311  1.00  0.00     0.029 A 
ATOM     50  C   UNL     1      -0.639   9.708 -10.235  1.00  0.00     0.049 A 
ATOM     51  H   UNL     1       0.649   8.108  -9.893  1.00  0.00     0.167 HD
ATOM     52  C   UNL     1       3.463   4.863  -9.071  1.00  0.00     0.037 A 
ATOM     53  C   UNL     1      -1.101   9.585 -11.492  1.00  0.00     0.037 A 
ATOM     54  C   UNL     1       3.011   4.642 -10.420  1.00  0.00     0.049 A 
ATOM     55  C   UNL     1      -0.621   8.445 -12.343  1.00  0.00     0.074 A 
ATOM     56  C   UNL     1       3.329   3.601 -11.276  1.00  0.00     0.029 A 
ATOM     57  N   UNL     1       2.136   5.470 -11.107  1.00  0.00    -0.354 N 
ATOM     58  N   UNL     1       0.203   7.475 -12.032  1.00  0.00    -0.248 NA
ATOM     59  C   UNL     1      -1.123   8.392 -13.722  1.00  0.00     0.031 C 
ATOM     60  C   UNL     1       2.678   3.820 -12.493  1.00  0.00     0.029 A 
ATOM     61  C   UNL     1       1.919   4.973 -12.382  1.00  0.00     0.049 A 
ATOM     62  H   UNL     1       1.729   6.289 -10.742  1.00  0.00     0.167 HD
ATOM     63  C   UNL     1       0.313   6.691 -13.171  1.00  0.00     0.074 A 
ATOM     64  C   UNL     1      -0.546   7.286 -14.174  1.00  0.00     0.031 C 
ATOM     65  C   UNL     1       1.064   5.581 -13.369  1.00  0.00     0.037 A 
BRANCH  52  66
ATOM     66  C   UNL     1       4.441   3.881  -8.496  1.00  0.00     0.064 A 
ATOM     67  C   UNL     1       4.055   2.931  -7.540  1.00  0.00     0.173 A 
ATOM     68  C   UNL     1       5.760   3.834  -8.974  1.00  0.00     0.173 A 
ATOM     69  F   UNL     1       2.809   2.941  -7.044  1.00  0.00    -0.203 F 
ATOM     70  C   UNL     1       4.957   1.976  -7.077  1.00  0.00     0.198 A 
ATOM     71  C   UNL     1       6.652   2.863  -8.526  1.00  0.00     0.198 A 
ATOM     72  F   UNL     1       6.178   4.717  -9.894  1.00  0.00    -0.203 F 
ATOM     73  F   UNL     1       4.574   1.093  -6.144  1.00  0.00    -0.200 F 
ATOM     74  C   UNL     1       6.250   1.936  -7.577  1.00  0.00     0.200 A 
ATOM     75  F   UNL     1       7.897   2.818  -9.020  1.00  0.00    -0.200 F 
ATOM     76  F   UNL     1       7.110   1.004  -7.143  1.00  0.00    -0.200 F 
ENDBRANCH  52  66
BRANCH  53  77
ATOM     77  C   UNL     1      -2.063  10.587 -12.016  1.00  0.00     0.064 A 
ATOM     78  C   UNL     1      -3.401  10.245 -12.247  1.00  0.00     0.173 A 
ATOM     79  C   UNL     1      -1.673  11.912 -12.262  1.00  0.00     0.173 A 
ATOM     80  F   UNL     1      -3.815   8.985 -12.045  1.00  0.00    -0.203 F 
ATOM     81  C   UNL     1      -4.314  11.191 -12.708  1.00  0.00     0.198 A 
ATOM     82  C   UNL     1      -2.592  12.863 -12.695  1.00  0.00     0.198 A 
ATOM     83  F   UNL     1      -0.403  12.288 -12.051  1.00  0.00    -0.203 F 
ATOM     84  F   UNL     1      -5.582  10.832 -12.949  1.00  0.00    -0.200 F 
ATOM     85  C   UNL     1      -3.911  12.501 -12.923  1.00  0.00     0.200 A 
ATOM     86  F   UNL     1      -2.203  14.131 -12.884  1.00  0.00    -0.200 F 
ATOM     87  F   UNL     1      -4.794  13.413 -13.351  1.00  0.00    -0.200 F 
ENDBRANCH  53  77
BRANCH  65  88
ATOM     88  C   UNL     1       0.987   4.930 -14.717  1.00  0.00     0.064 A 
ATOM     89  C   UNL     1       1.614   5.496 -15.836  1.00  0.00     0.173 A 
ATOM     90  C   UNL     1       0.331   3.701 -14.879  1.00  0.00     0.173 A 
ATOM     91  F   UNL     1       2.241   6.677 -15.733  1.00  0.00    -0.203 F 
ATOM     92  C   UNL     1       1.575   4.861 -17.074  1.00  0.00     0.198 A 
ATOM     93  C   UNL     1       0.315   3.056 -16.112  1.00  0.00     0.198 A 
ATOM     94  F   UNL     1      -0.278   3.117 -13.836  1.00  0.00    -0.203 F 
ATOM     95  F   UNL     1       2.151   5.435 -18.139  1.00  0.00    -0.200 F 
ATOM     96  C   UNL     1       0.933   3.638 -17.209  1.00  0.00     0.200 A 
ATOM     97  F   UNL     1      -0.294   1.869 -16.238  1.00  0.00    -0.200 F 
ATOM     98  F   UNL     1       0.906   3.022 -18.399  1.00  0.00    -0.200 F 
ENDBRANCH  65  88
ENDBRANCH  39  40
ENDBRANCH  31  34
ENDBRANCH  29  30
ENDBRANCH  28  29
ENDBRANCH   1  28
TORSDOF 15
