REMARK SMILES O=C(NCCCNC(=O)c1cccnc1NC[C@H](c1ccccc1)[NH+]1CCOCC1)c1ccc(-c2c3nc(c(-c4c(F)c(F)c(F)c(F)c4F)c4ccc([nH]4)c(-c4c(F)c(F)c(F)c(F)c4F)c4nc(c(-c5c(F)c(F)c(F)c(F)c5F)c5ccc2[nH]5)C=C4)C=C3)cc1
REMARK SMILES IDX 6 1 5 2 4 3 3 4 1 5 2 6 31 8 32 9 93 10 33 11 92 12 34 13
REMARK SMILES IDX 35 14 36 15 86 16 37 17 91 18 85 19 87 20 38 21 90 22 84 23
REMARK SMILES IDX 83 24 39 26 71 27 51 28 70 29 52 30 55 31 69 32 88 33 53 34
REMARK SMILES IDX 54 35 68 37 89 38 56 39 40 40 41 41 49 42 42 43 43 44 47 45
REMARK SMILES IDX 50 46 44 47 45 48 48 49 46 50 72 51 73 52 81 53 74 54 75 55
REMARK SMILES IDX 79 56 82 57 76 58 77 59 80 60 78 61 57 62 58 63 66 64 59 65
REMARK SMILES IDX 60 66 64 67 67 68 61 69 62 70 65 71 63 72 7 73 8 74 9 76
REMARK SMILES IDX 10 77 11 78 15 79 12 80 14 81 13 82 16 83 17 85 18 86 25 87
REMARK SMILES IDX 26 88 30 89 27 91 29 92 28 93 19 94 20 95 24 96 21 97 23 98
REMARK SMILES IDX 22 99
REMARK H PARENT 3 7 87 25 55 36 7 75 16 84 25 90
REMARK Flexibility Score: inf
ROOT
ATOM      1  C   UNL     1      15.259  -5.656   1.478  1.00  0.00     0.118 C 
ENDROOT
BRANCH   1   2
ATOM      2  C   UNL     1      14.600  -5.175   0.193  1.00  0.00     0.042 C 
BRANCH   2   3
ATOM      3  C   UNL     1      15.105  -3.808  -0.245  1.00  0.00     0.118 C 
BRANCH   3   4
ATOM      4  N   UNL     1      16.537  -3.823  -0.516  1.00  0.00    -0.352 N 
ATOM      5  O   UNL     1      18.384  -4.170  -1.765  1.00  0.00    -0.269 OA
ATOM      6  C   UNL     1      17.191  -3.872  -1.718  1.00  0.00     0.251 C 
ATOM      7  H   UNL     1      17.118  -3.795   0.279  1.00  0.00     0.163 HD
BRANCH   6   8
ATOM      8  C   UNL     1      16.452  -3.572  -2.956  1.00  0.00     0.039 A 
ATOM      9  C   UNL     1      15.566  -2.493  -2.998  1.00  0.00     0.014 A 
ATOM     10  C   UNL     1      16.662  -4.360  -4.089  1.00  0.00     0.014 A 
ATOM     11  C   UNL     1      14.780  -2.288  -4.121  1.00  0.00     0.010 A 
ATOM     12  C   UNL     1      15.947  -4.086  -5.255  1.00  0.00     0.010 A 
ATOM     13  C   UNL     1      14.987  -3.062  -5.271  1.00  0.00    -0.014 A 
BRANCH  13  14
ATOM     14  C   UNL     1      14.252  -2.731  -6.513  1.00  0.00     0.031 A 
ATOM     15  C   UNL     1      13.307  -3.712  -7.134  1.00  0.00     0.074 A 
ATOM     16  C   UNL     1      14.477  -1.535  -7.090  1.00  0.00     0.049 A 
ATOM     17  N   UNL     1      12.648  -3.623  -8.261  1.00  0.00    -0.248 NA
ATOM     18  C   UNL     1      13.080  -4.966  -6.400  1.00  0.00     0.031 C 
ATOM     19  C   UNL     1      15.384  -0.509  -6.571  1.00  0.00     0.029 A 
ATOM     20  N   UNL     1      13.974  -0.985  -8.239  1.00  0.00    -0.354 N 
ATOM     21  C   UNL     1      11.950  -4.816  -8.386  1.00  0.00     0.074 A 
ATOM     22  C   UNL     1      12.286  -5.624  -7.233  1.00  0.00     0.031 C 
ATOM     23  C   UNL     1      15.366   0.549  -7.391  1.00  0.00     0.029 A 
ATOM     24  C   UNL     1      14.507   0.246  -8.529  1.00  0.00     0.049 A 
ATOM     25  H   UNL     1      13.298  -1.428  -8.801  1.00  0.00     0.167 HD
ATOM     26  C   UNL     1      11.106  -5.194  -9.377  1.00  0.00     0.037 A 
ATOM     27  C   UNL     1      14.360   1.028  -9.614  1.00  0.00     0.037 A 
ATOM     28  C   UNL     1      10.784  -4.371 -10.515  1.00  0.00     0.049 A 
ATOM     29  C   UNL     1      13.453   0.572 -10.718  1.00  0.00     0.074 A 
ATOM     30  C   UNL     1       9.904  -4.635 -11.549  1.00  0.00     0.029 A 
ATOM     31  N   UNL     1      11.347  -3.128 -10.778  1.00  0.00    -0.354 N 
ATOM     32  N   UNL     1      12.760  -0.537 -10.808  1.00  0.00    -0.248 NA
ATOM     33  C   UNL     1      13.304   1.471 -11.868  1.00  0.00     0.031 C 
ATOM     34  C   UNL     1       9.986  -3.586 -12.471  1.00  0.00     0.029 A 
ATOM     35  C   UNL     1      10.861  -2.631 -11.978  1.00  0.00     0.049 A 
ATOM     36  H   UNL     1      11.995  -2.668 -10.198  1.00  0.00     0.167 HD
ATOM     37  C   UNL     1      12.076  -0.463 -12.012  1.00  0.00     0.074 A 
ATOM     38  C   UNL     1      12.432   0.806 -12.614  1.00  0.00     0.031 C 
ATOM     39  C   UNL     1      11.226  -1.364 -12.563  1.00  0.00     0.037 A 
BRANCH  26  40
ATOM     40  C   UNL     1      10.509  -6.571  -9.293  1.00  0.00     0.064 A 
ATOM     41  C   UNL     1       9.584  -6.925  -8.300  1.00  0.00     0.173 A 
ATOM     42  C   UNL     1      10.865  -7.553 -10.232  1.00  0.00     0.173 A 
ATOM     43  F   UNL     1       9.212  -6.029  -7.372  1.00  0.00    -0.203 F 
ATOM     44  C   UNL     1       9.074  -8.219  -8.221  1.00  0.00     0.198 A 
ATOM     45  C   UNL     1      10.326  -8.835 -10.172  1.00  0.00     0.198 A 
ATOM     46  F   UNL     1      11.739  -7.270 -11.210  1.00  0.00    -0.203 F 
ATOM     47  F   UNL     1       8.243  -8.550  -7.222  1.00  0.00    -0.200 F 
ATOM     48  C   UNL     1       9.441  -9.171  -9.159  1.00  0.00     0.200 A 
ATOM     49  F   UNL     1      10.671  -9.749 -11.089  1.00  0.00    -0.200 F 
ATOM     50  F   UNL     1       8.953 -10.417  -9.080  1.00  0.00    -0.200 F 
ENDBRANCH  26  40
BRANCH  27  51
ATOM     51  C   UNL     1      15.118   2.301  -9.692  1.00  0.00     0.064 A 
ATOM     52  C   UNL     1      14.472   3.538  -9.579  1.00  0.00     0.173 A 
ATOM     53  C   UNL     1      16.517   2.302  -9.814  1.00  0.00     0.173 A 
ATOM     54  F   UNL     1      13.136   3.588  -9.473  1.00  0.00    -0.203 F 
ATOM     55  C   UNL     1      15.195   4.729  -9.590  1.00  0.00     0.198 A 
ATOM     56  C   UNL     1      17.241   3.490  -9.793  1.00  0.00     0.198 A 
ATOM     57  F   UNL     1      17.183   1.142  -9.911  1.00  0.00    -0.203 F 
ATOM     58  F   UNL     1      14.552   5.901  -9.505  1.00  0.00    -0.200 F 
ATOM     59  C   UNL     1      16.579   4.704  -9.685  1.00  0.00     0.200 A 
ATOM     60  F   UNL     1      18.579   3.459  -9.861  1.00  0.00    -0.200 F 
ATOM     61  F   UNL     1      17.275   5.849  -9.673  1.00  0.00    -0.200 F 
ENDBRANCH  27  51
BRANCH  39  62
ATOM     62  C   UNL     1      10.585  -0.998 -13.870  1.00  0.00     0.064 A 
ATOM     63  C   UNL     1      11.307  -0.995 -15.072  1.00  0.00     0.173 A 
ATOM     64  C   UNL     1       9.211  -0.719 -13.927  1.00  0.00     0.173 A 
ATOM     65  F   UNL     1      12.627  -1.236 -15.068  1.00  0.00    -0.203 F 
ATOM     66  C   UNL     1      10.678  -0.716 -16.282  1.00  0.00     0.198 A 
ATOM     67  C   UNL     1       8.579  -0.472 -15.142  1.00  0.00     0.198 A 
ATOM     68  F   UNL     1       8.475  -0.713 -12.805  1.00  0.00    -0.203 F 
ATOM     69  F   UNL     1      11.393  -0.685 -17.415  1.00  0.00    -0.200 F 
ATOM     70  C   UNL     1       9.313  -0.468 -16.318  1.00  0.00     0.200 A 
ATOM     71  F   UNL     1       7.258  -0.248 -15.175  1.00  0.00    -0.200 F 
ATOM     72  F   UNL     1       8.706  -0.221 -17.487  1.00  0.00    -0.200 F 
ENDBRANCH  39  62
ENDBRANCH  13  14
ENDBRANCH   6   8
ENDBRANCH   3   4
ENDBRANCH   2   3
ENDBRANCH   1   2
BRANCH   1  73
ATOM     73  N   UNL     1      15.044  -4.699   2.554  1.00  0.00    -0.352 N 
ATOM     74  C   UNL     1      13.871  -4.565   3.265  1.00  0.00     0.255 C 
ATOM     75  H   UNL     1      15.792  -4.104   2.792  1.00  0.00     0.163 HD
ATOM     76  O   UNL     1      13.403  -3.437   3.392  1.00  0.00    -0.269 OA
BRANCH  74  77
ATOM     77  C   UNL     1      13.220  -5.783   3.822  1.00  0.00     0.082 A 
ATOM     78  C   UNL     1      13.990  -6.940   4.038  1.00  0.00     0.019 A 
ATOM     79  C   UNL     1      11.893  -5.779   4.278  1.00  0.00     0.139 A 
ATOM     80  C   UNL     1      13.400  -8.101   4.512  1.00  0.00     0.021 A 
ATOM     81  N   UNL     1      11.310  -6.935   4.691  1.00  0.00    -0.239 NA
ATOM     82  C   UNL     1      12.052  -8.060   4.778  1.00  0.00     0.113 A 
BRANCH  79  83
ATOM     83  N   UNL     1      11.237  -4.593   4.587  1.00  0.00    -0.363 N 
ATOM     84  H   UNL     1      11.556  -3.747   4.198  1.00  0.00     0.162 HD
BRANCH  83  85
ATOM     85  C   UNL     1      10.085  -4.584   5.477  1.00  0.00     0.184 C 
BRANCH  85  86
ATOM     86  C   UNL     1      10.114  -3.587   6.699  1.00  0.00     0.234 C 
BRANCH  86  87
ATOM     87  N   UNL     1      11.216  -3.465   7.686  1.00  0.00    -0.323 N 
ATOM     88  C   UNL     1      12.209  -2.396   7.538  1.00  0.00     0.291 C 
ATOM     89  C   UNL     1      11.884  -4.702   8.103  1.00  0.00     0.291 C 
ATOM     90  H   UNL     1      10.605  -3.156   8.442  1.00  0.00     0.348 HD
ATOM     91  C   UNL     1      13.365  -2.793   6.628  1.00  0.00     0.221 C 
ATOM     92  C   UNL     1      13.204  -5.027   7.381  1.00  0.00     0.221 C 
ATOM     93  O   UNL     1      14.072  -3.905   7.189  1.00  0.00    -0.370 OA
ENDBRANCH  86  87
BRANCH  86  94
ATOM     94  C   UNL     1       9.458  -2.236   6.388  1.00  0.00     0.011 A 
ATOM     95  C   UNL     1       9.966  -1.360   5.417  1.00  0.00     0.010 A 
ATOM     96  C   UNL     1       8.362  -1.813   7.164  1.00  0.00     0.010 A 
ATOM     97  C   UNL     1       9.427  -0.079   5.269  1.00  0.00     0.001 A 
ATOM     98  C   UNL     1       7.809  -0.545   6.995  1.00  0.00     0.001 A 
ATOM     99  C   UNL     1       8.352   0.328   6.059  1.00  0.00     0.000 A 
ENDBRANCH  86  94
ENDBRANCH  85  86
ENDBRANCH  83  85
ENDBRANCH  79  83
ENDBRANCH  74  77
ENDBRANCH   1  73
TORSDOF 15
