REMARK SMILES Cc1cc(C(=O)NCCCNC(=O)c2ccc(-c3c4nc(c(-c5c(F)c(F)c(F)c(F)c5F)c5ccc([nH]5)c(-c5c(F)c(F)c(F)c(F)c5F)c5nc(c(-c6c(F)c(F)c(F)c(F)c6F)c6ccc3[nH]6)C=C5)C=C4)cc2)ccc1-c1ccc(C(=O)N2CCCCC2)cc1
REMARK SMILES IDX 9 1 8 2 7 3 5 4 6 5 4 7 1 8 2 9 3 10 79 11 78 12 77 13 80 14
REMARK SMILES IDX 81 15 93 16 82 17 92 18 83 19 84 20 85 21 86 22 87 23 91 24
REMARK SMILES IDX 88 25 90 26 89 27 10 28 11 29 12 30 13 32 14 33 15 34 76 35
REMARK SMILES IDX 16 36 75 37 17 38 18 39 19 40 69 41 20 42 74 43 68 44 70 45
REMARK SMILES IDX 21 46 73 47 67 48 66 49 22 51 54 52 34 53 53 54 35 55 38 56
REMARK SMILES IDX 52 57 71 58 36 59 37 60 51 62 72 63 39 64 23 65 24 66 32 67
REMARK SMILES IDX 25 68 26 69 30 70 33 71 27 72 28 73 31 74 29 75 55 76 56 77
REMARK SMILES IDX 64 78 57 79 58 80 62 81 65 82 59 83 60 84 63 85 61 86 40 87
REMARK SMILES IDX 41 88 49 89 42 90 43 91 47 92 50 93 44 94 45 95 48 96 46 97
REMARK H PARENT 7 6 11 31 70 50 38 61
REMARK Flexibility Score: inf
ROOT
ATOM      1  C   UNL     1      -4.758  -0.558  -1.009  1.00  0.00     0.042 C 
ENDROOT
BRANCH   1   2
ATOM      2  C   UNL     1      -4.315  -1.248   0.284  1.00  0.00     0.118 C 
BRANCH   2   3
ATOM      3  N   UNL     1      -3.318  -2.280   0.032  1.00  0.00    -0.352 N 
ATOM      4  C   UNL     1      -1.949  -2.240  -0.102  1.00  0.00     0.251 C 
ATOM      5  O   UNL     1      -1.373  -3.321  -0.241  1.00  0.00    -0.269 OA
ATOM      6  H   UNL     1      -3.699  -3.183  -0.062  1.00  0.00     0.163 HD
BRANCH   4   7
ATOM      7  C   UNL     1      -1.137  -0.985  -0.079  1.00  0.00     0.040 A 
ATOM      8  C   UNL     1       2.584  -0.208   0.211  1.00  0.00     0.045 C 
ATOM      9  C   UNL     1       1.101   0.028   0.098  1.00  0.00    -0.042 A 
ATOM     10  C   UNL     1       0.255  -1.103   0.073  1.00  0.00     0.018 A 
ATOM     11  C   UNL     1       0.534   1.311  -0.033  1.00  0.00    -0.015 A 
ATOM     12  C   UNL     1      -0.847   1.419  -0.206  1.00  0.00     0.010 A 
ATOM     13  C   UNL     1      -1.658   0.293  -0.244  1.00  0.00     0.014 A 
BRANCH  11  14
ATOM     14  C   UNL     1       1.296   2.558  -0.042  1.00  0.00    -0.018 A 
ATOM     15  C   UNL     1       2.165   2.843  -1.099  1.00  0.00     0.009 A 
ATOM     16  C   UNL     1       1.116   3.517   0.969  1.00  0.00     0.009 A 
ATOM     17  C   UNL     1       2.879   4.036  -1.120  1.00  0.00     0.014 A 
ATOM     18  C   UNL     1       1.806   4.728   0.932  1.00  0.00     0.014 A 
ATOM     19  C   UNL     1       2.698   4.993  -0.113  1.00  0.00     0.040 A 
BRANCH  19  20
ATOM     20  C   UNL     1       3.569   6.197  -0.018  1.00  0.00     0.253 C 
ATOM     21  O   UNL     1       3.699   6.751   1.079  1.00  0.00    -0.269 OA
ATOM     22  N   UNL     1       4.333   6.546  -1.117  1.00  0.00    -0.339 N 
ATOM     23  C   UNL     1       5.728   6.890  -0.906  1.00  0.00     0.120 C 
ATOM     24  C   UNL     1       3.801   6.719  -2.468  1.00  0.00     0.120 C 
ATOM     25  C   UNL     1       6.040   8.291  -1.401  1.00  0.00     0.022 C 
ATOM     26  C   UNL     1       4.097   8.124  -2.991  1.00  0.00     0.022 C 
ATOM     27  C   UNL     1       5.580   8.468  -2.847  1.00  0.00     0.004 C 
ENDBRANCH  19  20
ENDBRANCH  11  14
ENDBRANCH   4   7
ENDBRANCH   2   3
ENDBRANCH   1   2
BRANCH   1  28
ATOM     28  C   UNL     1      -6.026  -1.142  -1.593  1.00  0.00     0.118 C 
BRANCH  28  29
ATOM     29  N   UNL     1      -7.246  -0.435  -1.207  1.00  0.00    -0.352 N 
ATOM     30  C   UNL     1      -8.562  -0.702  -1.548  1.00  0.00     0.251 C 
ATOM     31  H   UNL     1      -7.113   0.344  -0.620  1.00  0.00     0.163 HD
ATOM     32  O   UNL     1      -9.469   0.023  -1.150  1.00  0.00    -0.269 OA
BRANCH  30  33
ATOM     33  C   UNL     1      -8.878  -1.973  -2.243  1.00  0.00     0.039 A 
ATOM     34  C   UNL     1      -9.787  -2.815  -1.594  1.00  0.00     0.014 A 
ATOM     35  C   UNL     1      -7.981  -2.482  -3.171  1.00  0.00     0.014 A 
ATOM     36  C   UNL     1      -9.541  -4.179  -1.582  1.00  0.00     0.010 A 
ATOM     37  C   UNL     1      -7.641  -3.808  -3.049  1.00  0.00     0.010 A 
ATOM     38  C   UNL     1      -8.371  -4.628  -2.183  1.00  0.00    -0.014 A 
BRANCH  38  39
ATOM     39  C   UNL     1      -7.865  -5.976  -2.038  1.00  0.00     0.031 A 
ATOM     40  C   UNL     1      -8.234  -6.930  -3.091  1.00  0.00     0.074 A 
ATOM     41  C   UNL     1      -7.030  -6.301  -1.027  1.00  0.00     0.049 A 
ATOM     42  N   UNL     1      -8.229  -8.206  -2.947  1.00  0.00    -0.248 NA
ATOM     43  C   UNL     1      -8.736  -6.497  -4.390  1.00  0.00     0.031 C 
ATOM     44  C   UNL     1      -6.222  -7.508  -0.897  1.00  0.00     0.029 A 
ATOM     45  N   UNL     1      -6.860  -5.641   0.201  1.00  0.00    -0.354 N 
ATOM     46  C   UNL     1      -8.449  -8.764  -4.185  1.00  0.00     0.074 A 
ATOM     47  C   UNL     1      -8.873  -7.666  -5.017  1.00  0.00     0.031 C 
ATOM     48  C   UNL     1      -5.883  -7.670   0.392  1.00  0.00     0.029 A 
ATOM     49  C   UNL     1      -6.583  -6.657   1.157  1.00  0.00     0.049 A 
ATOM     50  H   UNL     1      -6.921  -4.672   0.367  1.00  0.00     0.167 HD
ATOM     51  C   UNL     1      -8.105 -10.070  -4.367  1.00  0.00     0.037 A 
ATOM     52  C   UNL     1      -7.455  -6.903   2.183  1.00  0.00     0.037 A 
ATOM     53  C   UNL     1      -7.695 -10.661  -3.086  1.00  0.00     0.049 A 
ATOM     54  C   UNL     1      -8.171  -8.228   2.061  1.00  0.00     0.074 A 
ATOM     55  C   UNL     1      -6.470 -10.880  -2.476  1.00  0.00     0.029 A 
ATOM     56  N   UNL     1      -8.639 -10.764  -2.077  1.00  0.00    -0.354 N 
ATOM     57  N   UNL     1      -7.985  -9.079   1.092  1.00  0.00    -0.248 NA
ATOM     58  C   UNL     1      -9.239  -8.637   2.969  1.00  0.00     0.031 C 
ATOM     59  C   UNL     1      -6.699 -11.096  -1.083  1.00  0.00     0.029 A 
ATOM     60  C   UNL     1      -8.063 -11.046  -0.852  1.00  0.00     0.049 A 
ATOM     61  H   UNL     1      -9.607 -10.650  -2.216  1.00  0.00     0.167 HD
ATOM     62  C   UNL     1      -8.883 -10.104   1.203  1.00  0.00     0.074 A 
ATOM     63  C   UNL     1      -9.673  -9.759   2.374  1.00  0.00     0.031 C 
ATOM     64  C   UNL     1      -8.927 -11.146   0.317  1.00  0.00     0.037 A 
BRANCH  51  65
ATOM     65  C   UNL     1      -7.891 -10.738  -5.711  1.00  0.00     0.064 A 
ATOM     66  C   UNL     1      -7.104 -11.908  -5.795  1.00  0.00     0.173 A 
ATOM     67  C   UNL     1      -8.357 -10.267  -6.956  1.00  0.00     0.173 A 
ATOM     68  F   UNL     1      -6.661 -12.531  -4.696  1.00  0.00    -0.203 F 
ATOM     69  C   UNL     1      -6.736 -12.486  -7.015  1.00  0.00     0.198 A 
ATOM     70  C   UNL     1      -7.958 -10.821  -8.178  1.00  0.00     0.198 A 
ATOM     71  F   UNL     1      -9.263  -9.294  -7.055  1.00  0.00    -0.203 F 
ATOM     72  F   UNL     1      -5.973 -13.588  -7.023  1.00  0.00    -0.200 F 
ATOM     73  C   UNL     1      -7.138 -11.925  -8.208  1.00  0.00     0.200 A 
ATOM     74  F   UNL     1      -8.385 -10.271  -9.325  1.00  0.00    -0.200 F 
ATOM     75  F   UNL     1      -6.762 -12.460  -9.377  1.00  0.00    -0.200 F 
ENDBRANCH  51  65
BRANCH  52  76
ATOM     76  C   UNL     1      -8.059  -5.640   2.705  1.00  0.00     0.064 A 
ATOM     77  C   UNL     1      -7.135  -4.677   3.153  1.00  0.00     0.173 A 
ATOM     78  C   UNL     1      -9.274  -5.191   2.180  1.00  0.00     0.173 A 
ATOM     79  F   UNL     1      -6.000  -5.064   3.758  1.00  0.00    -0.203 F 
ATOM     80  C   UNL     1      -7.261  -3.355   2.748  1.00  0.00     0.198 A 
ATOM     81  C   UNL     1      -9.428  -3.849   1.845  1.00  0.00     0.198 A 
ATOM     82  F   UNL     1     -10.236  -6.059   1.839  1.00  0.00    -0.203 F 
ATOM     83  F   UNL     1      -6.240  -2.504   2.925  1.00  0.00    -0.200 F 
ATOM     84  C   UNL     1      -8.380  -2.958   2.036  1.00  0.00     0.200 A 
ATOM     85  F   UNL     1     -10.548  -3.446   1.231  1.00  0.00    -0.200 F 
ATOM     86  F   UNL     1      -8.418  -1.738   1.486  1.00  0.00    -0.200 F 
ENDBRANCH  52  76
BRANCH  64  87
ATOM     87  C   UNL     1      -9.844 -12.334   0.480  1.00  0.00     0.064 A 
ATOM     88  C   UNL     1     -10.210 -12.843   1.737  1.00  0.00     0.173 A 
ATOM     89  C   UNL     1     -10.330 -13.066  -0.628  1.00  0.00     0.173 A 
ATOM     90  F   UNL     1      -9.662 -12.367   2.865  1.00  0.00    -0.203 F 
ATOM     91  C   UNL     1     -11.125 -13.888   1.875  1.00  0.00     0.198 A 
ATOM     92  C   UNL     1     -11.193 -14.150  -0.488  1.00  0.00     0.198 A 
ATOM     93  F   UNL     1     -10.000 -12.760  -1.889  1.00  0.00    -0.203 F 
ATOM     94  F   UNL     1     -11.518 -14.265   3.099  1.00  0.00    -0.200 F 
ATOM     95  C   UNL     1     -11.622 -14.536   0.762  1.00  0.00     0.200 A 
ATOM     96  F   UNL     1     -11.611 -14.806  -1.579  1.00  0.00    -0.200 F 
ATOM     97  F   UNL     1     -12.499 -15.539   0.893  1.00  0.00    -0.200 F 
ENDBRANCH  64  87
ENDBRANCH  38  39
ENDBRANCH  30  33
ENDBRANCH  28  29
ENDBRANCH   1  28
TORSDOF 12
