REMARK SMILES C#CC[C@@H](C(=O)NCCCNC(=O)c1ccc(-c2c3nc(c(-c4c(F)c(F)c(F)c(F)c4F)c4ccc([nH]4)c(-c4c(F)c(F)c(F)c(F)c4F)c4nc(c(-c5c(F)c(F)c(F)c(F)c5F)c5ccc2[nH]5)C=C4)C=C3)cc1)[C@H]1CCS(=O)(=O)C1
REMARK SMILES IDX 9 1 8 2 7 3 5 4 6 5 4 7 3 8 2 9 1 10 77 11 78 12 83 13 79 14
REMARK SMILES IDX 80 15 81 16 82 17 10 18 11 19 12 20 13 22 14 23 15 24 76 25
REMARK SMILES IDX 16 26 75 27 17 28 18 29 19 30 69 31 20 32 74 33 68 34 70 35
REMARK SMILES IDX 21 36 73 37 67 38 66 39 22 41 54 42 34 43 53 44 35 45 38 46
REMARK SMILES IDX 52 47 71 48 36 49 37 50 51 52 72 53 39 54 23 55 24 56 32 57
REMARK SMILES IDX 25 58 26 59 30 60 33 61 27 62 28 63 31 64 29 65 55 66 56 67
REMARK SMILES IDX 64 68 57 69 58 70 62 71 65 72 59 73 60 74 63 75 61 76 40 77
REMARK SMILES IDX 41 78 49 79 42 80 43 81 47 82 50 83 44 84 45 85 48 86 46 87
REMARK H PARENT 7 6 11 21 70 40 38 51
REMARK Flexibility Score: inf
ROOT
ATOM      1  C   UNL     1      -4.332  -6.491   1.903  1.00  0.00     0.042 C 
ENDROOT
BRANCH   1   2
ATOM      2  C   UNL     1      -5.280  -5.302   1.754  1.00  0.00     0.117 C 
BRANCH   2   3
ATOM      3  N   UNL     1      -4.673  -4.111   2.317  1.00  0.00    -0.356 N 
ATOM      4  C   UNL     1      -3.898  -3.172   1.714  1.00  0.00     0.224 C 
ATOM      5  O   UNL     1      -3.151  -2.510   2.435  1.00  0.00    -0.275 OA
ATOM      6  H   UNL     1      -4.848  -3.962   3.275  1.00  0.00     0.163 HD
BRANCH   4   7
ATOM      7  C   UNL     1      -3.986  -2.931   0.206  1.00  0.00     0.094 C 
BRANCH   7   8
ATOM      8  C   UNL     1      -2.908  -3.765  -0.522  1.00  0.00     0.103 C 
BRANCH   8   9
ATOM      9  C   UNL     1      -3.357  -5.095  -0.971  1.00  0.00    -0.106 C 
ATOM     10  C   UNL     1      -3.651  -6.197  -1.337  1.00  0.00     0.004 C 
ENDBRANCH   8   9
ENDBRANCH   7   8
BRANCH   7  11
ATOM     11  C   UNL     1      -3.731  -1.425  -0.108  1.00  0.00     0.018 C 
ATOM     12  C   UNL     1      -4.295  -1.017  -1.487  1.00  0.00     0.021 C 
ATOM     13  C   UNL     1      -4.357  -0.396   0.849  1.00  0.00     0.141 C 
ATOM     14  C   UNL     1      -4.045   0.482  -1.642  1.00  0.00     0.137 C 
ATOM     15  S   UNL     1      -4.170   1.168   0.000  1.00  0.00     0.150 S 
ATOM     16  O   UNL     1      -2.884   1.737   0.349  1.00  0.00    -0.229 OA
ATOM     17  O   UNL     1      -5.404   1.915   0.112  1.00  0.00    -0.229 OA
ENDBRANCH   7  11
ENDBRANCH   4   7
ENDBRANCH   2   3
ENDBRANCH   1   2
BRANCH   1  18
ATOM     18  C   UNL     1      -4.154  -6.953   3.342  1.00  0.00     0.118 C 
BRANCH  18  19
ATOM     19  N   UNL     1      -5.345  -7.612   3.850  1.00  0.00    -0.352 N 
ATOM     20  C   UNL     1      -5.541  -8.918   4.220  1.00  0.00     0.251 C 
ATOM     21  H   UNL     1      -6.134  -7.031   3.943  1.00  0.00     0.163 HD
ATOM     22  O   UNL     1      -6.688  -9.332   4.366  1.00  0.00    -0.269 OA
BRANCH  20  23
ATOM     23  C   UNL     1      -4.397  -9.832   4.449  1.00  0.00     0.039 A 
ATOM     24  C   UNL     1      -4.559 -11.191   4.167  1.00  0.00     0.014 A 
ATOM     25  C   UNL     1      -3.199  -9.383   5.011  1.00  0.00     0.014 A 
ATOM     26  C   UNL     1      -3.525 -12.089   4.440  1.00  0.00     0.010 A 
ATOM     27  C   UNL     1      -2.129 -10.258   5.174  1.00  0.00     0.010 A 
ATOM     28  C   UNL     1      -2.295 -11.629   4.937  1.00  0.00    -0.014 A 
BRANCH  28  29
ATOM     29  C   UNL     1      -1.209 -12.577   5.295  1.00  0.00     0.031 A 
ATOM     30  C   UNL     1      -0.729 -12.668   6.721  1.00  0.00     0.074 A 
ATOM     31  C   UNL     1      -0.638 -13.338   4.342  1.00  0.00     0.049 A 
ATOM     32  N   UNL     1       0.222 -13.409   7.233  1.00  0.00    -0.248 NA
ATOM     33  C   UNL     1      -1.382 -11.781   7.698  1.00  0.00     0.031 C 
ATOM     34  C   UNL     1      -0.978 -13.306   2.920  1.00  0.00     0.029 A 
ATOM     35  N   UNL     1       0.352 -14.285   4.428  1.00  0.00    -0.354 N 
ATOM     36  C   UNL     1       0.283 -13.070   8.579  1.00  0.00     0.074 A 
ATOM     37  C   UNL     1      -0.664 -11.999   8.789  1.00  0.00     0.031 C 
ATOM     38  C   UNL     1      -0.232 -14.214   2.270  1.00  0.00     0.029 A 
ATOM     39  C   UNL     1       0.665 -14.862   3.222  1.00  0.00     0.049 A 
ATOM     40  H   UNL     1       0.794 -14.527   5.273  1.00  0.00     0.167 HD
ATOM     41  C   UNL     1       1.031 -13.625   9.563  1.00  0.00     0.037 A 
ATOM     42  C   UNL     1       1.577 -15.806   2.920  1.00  0.00     0.037 A 
ATOM     43  C   UNL     1       1.964 -14.701   9.352  1.00  0.00     0.049 A 
ATOM     44  C   UNL     1       2.403 -16.405   4.026  1.00  0.00     0.074 A 
ATOM     45  C   UNL     1       2.749 -15.360  10.281  1.00  0.00     0.029 A 
ATOM     46  N   UNL     1       2.238 -15.275   8.118  1.00  0.00    -0.354 N 
ATOM     47  N   UNL     1       2.409 -16.119   5.306  1.00  0.00    -0.248 NA
ATOM     48  C   UNL     1       3.337 -17.474   3.647  1.00  0.00     0.031 C 
ATOM     49  C   UNL     1       3.539 -16.293   9.602  1.00  0.00     0.029 A 
ATOM     50  C   UNL     1       3.193 -16.269   8.261  1.00  0.00     0.049 A 
ATOM     51  H   UNL     1       1.817 -15.014   7.268  1.00  0.00     0.167 HD
ATOM     52  C   UNL     1       3.316 -16.994   5.890  1.00  0.00     0.074 A 
ATOM     53  C   UNL     1       3.829 -17.831   4.824  1.00  0.00     0.031 C 
ATOM     54  C   UNL     1       3.687 -17.100   7.191  1.00  0.00     0.037 A 
BRANCH  41  55
ATOM     55  C   UNL     1       0.865 -13.074  10.953  1.00  0.00     0.064 A 
ATOM     56  C   UNL     1      -0.338 -13.217  11.665  1.00  0.00     0.173 A 
ATOM     57  C   UNL     1       1.920 -12.401  11.587  1.00  0.00     0.173 A 
ATOM     58  F   UNL     1      -1.385 -13.841  11.105  1.00  0.00    -0.203 F 
ATOM     59  C   UNL     1      -0.492 -12.668  12.936  1.00  0.00     0.198 A 
ATOM     60  C   UNL     1       1.776 -11.889  12.875  1.00  0.00     0.198 A 
ATOM     61  F   UNL     1       3.094 -12.239  10.960  1.00  0.00    -0.203 F 
ATOM     62  F   UNL     1      -1.673 -12.756  13.564  1.00  0.00    -0.200 F 
ATOM     63  C   UNL     1       0.567 -12.011  13.542  1.00  0.00     0.200 A 
ATOM     64  F   UNL     1       2.806 -11.268  13.466  1.00  0.00    -0.200 F 
ATOM     65  F   UNL     1       0.419 -11.485  14.766  1.00  0.00    -0.200 F 
ENDBRANCH  41  55
BRANCH  42  66
ATOM     66  C   UNL     1       1.731 -16.261   1.512  1.00  0.00     0.064 A 
ATOM     67  C   UNL     1       1.357 -17.554   1.122  1.00  0.00     0.173 A 
ATOM     68  C   UNL     1       2.252 -15.408   0.527  1.00  0.00     0.173 A 
ATOM     69  F   UNL     1       0.869 -18.413   2.029  1.00  0.00    -0.203 F 
ATOM     70  C   UNL     1       1.522 -17.986  -0.193  1.00  0.00     0.198 A 
ATOM     71  C   UNL     1       2.384 -15.830  -0.794  1.00  0.00     0.198 A 
ATOM     72  F   UNL     1       2.615 -14.157   0.845  1.00  0.00    -0.203 F 
ATOM     73  F   UNL     1       1.203 -19.244  -0.527  1.00  0.00    -0.200 F 
ATOM     74  C   UNL     1       2.029 -17.122  -1.151  1.00  0.00     0.200 A 
ATOM     75  F   UNL     1       2.855 -14.984  -1.721  1.00  0.00    -0.200 F 
ATOM     76  F   UNL     1       2.180 -17.535  -2.417  1.00  0.00    -0.200 F 
ENDBRANCH  42  66
BRANCH  54  77
ATOM     77  C   UNL     1       4.651 -18.197   7.545  1.00  0.00     0.064 A 
ATOM     78  C   UNL     1       5.989 -18.181   7.124  1.00  0.00     0.173 A 
ATOM     79  C   UNL     1       4.229 -19.275   8.340  1.00  0.00     0.173 A 
ATOM     80  F   UNL     1       6.443 -17.180   6.354  1.00  0.00    -0.203 F 
ATOM     81  C   UNL     1       6.855 -19.223   7.447  1.00  0.00     0.198 A 
ATOM     82  C   UNL     1       5.108 -20.294   8.696  1.00  0.00     0.198 A 
ATOM     83  F   UNL     1       2.963 -19.336   8.781  1.00  0.00    -0.203 F 
ATOM     84  F   UNL     1       8.109 -19.220   6.975  1.00  0.00    -0.200 F 
ATOM     85  C   UNL     1       6.416 -20.274   8.238  1.00  0.00     0.200 A 
ATOM     86  F   UNL     1       4.686 -21.298   9.476  1.00  0.00    -0.200 F 
ATOM     87  F   UNL     1       7.251 -21.275   8.550  1.00  0.00    -0.200 F 
ENDBRANCH  54  77
ENDBRANCH  28  29
ENDBRANCH  20  23
ENDBRANCH  18  19
ENDBRANCH   1  18
TORSDOF 13
