REMARK SMILES C[C@H]1C[NH+](CC[C@@H]2CCC[C@]2([NH3+])C(=O)NCCCNC(=O)c2ccc(-c3c4nc(c(-c5c(F)c(F)c(F)c(F)c5F)c5ccc([nH]5)c(-c5c(F)c(F)c(F)c(F)c5F)c5nc(c(-c6c(F)c(F)c(F)c(F)c6F)c6ccc3[nH]6)C=C5)C=C4)cc2)C[C@H](C)O1
REMARK SMILES IDX 16 1 15 2 13 3 14 4 11 6 7 7 8 8 9 9 10 10 6 11 5 12 4 13
REMARK SMILES IDX 1 14 2 15 3 16 88 17 86 18 85 19 87 21 12 22 17 26 18 27
REMARK SMILES IDX 19 28 20 29 21 31 22 32 23 33 84 34 24 35 83 36 25 37 26 38
REMARK SMILES IDX 27 39 77 40 28 41 82 42 76 43 78 44 29 45 81 46 75 47 74 48
REMARK SMILES IDX 30 50 62 51 42 52 61 53 43 54 46 55 60 56 79 57 44 58 45 59
REMARK SMILES IDX 59 61 80 62 47 63 31 64 32 65 40 66 33 67 34 68 38 69 41 70
REMARK SMILES IDX 35 71 36 72 39 73 37 74 63 75 64 76 72 77 65 78 66 79 70 80
REMARK SMILES IDX 73 81 67 82 68 83 71 84 69 85 48 86 49 87 57 88 50 89 51 90
REMARK SMILES IDX 55 91 58 92 52 93 53 94 56 95 54 96
REMARK H PARENT 15 5 4 20 12 23 12 24 12 25 19 30 78 49 46 60
REMARK Flexibility Score: inf
ROOT
ATOM      1  C   UNL     1      -4.926  -0.534  -1.643  1.00  0.00     0.118 C 
ENDROOT
BRANCH   1   2
ATOM      2  N   UNL     1      -4.447   0.646  -0.927  1.00  0.00    -0.351 N 
ATOM      3  C   UNL     1      -4.044   1.889  -1.337  1.00  0.00     0.281 C 
ATOM      4  O   UNL     1      -3.767   2.681  -0.429  1.00  0.00    -0.268 OA
ATOM      5  H   UNL     1      -4.406   0.522   0.049  1.00  0.00     0.163 HD
BRANCH   3   6
ATOM      6  C   UNL     1      -3.857   2.292  -2.850  1.00  0.00     0.177 C 
ATOM      7  C   UNL     1      -2.445   1.942  -3.411  1.00  0.00     0.066 C 
ATOM      8  C   UNL     1      -1.570   3.111  -2.952  1.00  0.00     0.011 C 
ATOM      9  C   UNL     1      -2.479   4.322  -2.784  1.00  0.00     0.008 C 
ATOM     10  C   UNL     1      -3.901   3.829  -3.000  1.00  0.00     0.079 C 
BRANCH   7  11
ATOM     11  C   UNL     1      -1.975   0.519  -3.062  1.00  0.00     0.072 C 
BRANCH  11  12
ATOM     12  C   UNL     1      -0.524   0.049  -3.272  1.00  0.00     0.262 C 
BRANCH  12  13
ATOM     13  N   UNL     1       0.521   0.473  -2.329  1.00  0.00    -0.331 N 
ATOM     14  C   UNL     1       0.667   1.505   1.363  1.00  0.00     0.045 C 
ATOM     15  C   UNL     1       1.192   1.264  -0.050  1.00  0.00     0.170 C 
ATOM     16  C   UNL     1       0.105   0.639  -0.935  1.00  0.00     0.294 C 
ATOM     17  O   UNL     1       1.562   2.541  -0.581  1.00  0.00    -0.364 OA
ATOM     18  C   UNL     1       2.142   2.451  -1.886  1.00  0.00     0.170 C 
ATOM     19  C   UNL     1       1.393   1.516  -2.869  1.00  0.00     0.294 C 
ATOM     20  H   UNL     1       1.125  -0.344  -2.241  1.00  0.00     0.348 HD
ATOM     21  C   UNL     1       3.624   2.118  -1.768  1.00  0.00     0.045 C 
ENDBRANCH  12  13
ENDBRANCH  11  12
ENDBRANCH   7  11
BRANCH   6  22
ATOM     22  N   UNL     1      -4.959   1.740  -3.664  1.00  0.00    -0.345 N 
ATOM     23  H   UNL     1      -4.828   2.007  -4.639  1.00  0.00     0.345 HD
ATOM     24  H   UNL     1      -5.848   2.109  -3.327  1.00  0.00     0.345 HD
ATOM     25  H   UNL     1      -4.962   0.723  -3.587  1.00  0.00     0.345 HD
ENDBRANCH   6  22
ENDBRANCH   3   6
ENDBRANCH   1   2
BRANCH   1  26
ATOM     26  C   UNL     1      -4.041  -1.775  -1.484  1.00  0.00     0.042 C 
BRANCH  26  27
ATOM     27  C   UNL     1      -3.854  -2.259  -0.054  1.00  0.00     0.118 C 
BRANCH  27  28
ATOM     28  N   UNL     1      -4.977  -3.062   0.397  1.00  0.00    -0.352 N 
ATOM     29  C   UNL     1      -5.088  -4.422   0.556  1.00  0.00     0.251 C 
ATOM     30  H   UNL     1      -5.787  -2.550   0.624  1.00  0.00     0.163 HD
ATOM     31  O   UNL     1      -6.204  -4.918   0.694  1.00  0.00    -0.269 OA
BRANCH  29  32
ATOM     32  C   UNL     1      -3.897  -5.307   0.560  1.00  0.00     0.039 A 
ATOM     33  C   UNL     1      -4.005  -6.576  -0.022  1.00  0.00     0.014 A 
ATOM     34  C   UNL     1      -2.709  -4.949   1.203  1.00  0.00     0.014 A 
ATOM     35  C   UNL     1      -2.922  -7.461   0.009  1.00  0.00     0.010 A 
ATOM     36  C   UNL     1      -1.603  -5.802   1.168  1.00  0.00     0.010 A 
ATOM     37  C   UNL     1      -1.703  -7.076   0.587  1.00  0.00    -0.014 A 
BRANCH  37  38
ATOM     38  C   UNL     1      -0.540  -8.003   0.628  1.00  0.00     0.031 A 
ATOM     39  C   UNL     1      -0.013  -8.504   1.947  1.00  0.00     0.074 A 
ATOM     40  C   UNL     1       0.076  -8.363  -0.515  1.00  0.00     0.049 A 
ATOM     41  N   UNL     1       1.028  -9.261   2.192  1.00  0.00    -0.248 NA
ATOM     42  C   UNL     1      -0.740  -8.078   3.153  1.00  0.00     0.031 C 
ATOM     43  C   UNL     1      -0.307  -7.922  -1.856  1.00  0.00     0.029 A 
ATOM     44  N   UNL     1       1.164  -9.174  -0.730  1.00  0.00    -0.354 N 
ATOM     45  C   UNL     1       1.092  -9.381   3.575  1.00  0.00     0.074 A 
ATOM     46  C   UNL     1       0.013  -8.585   4.118  1.00  0.00     0.031 C 
ATOM     47  C   UNL     1       0.519  -8.481  -2.755  1.00  0.00     0.029 A 
ATOM     48  C   UNL     1       1.511  -9.291  -2.053  1.00  0.00     0.049 A 
ATOM     49  H   UNL     1       1.649  -9.628  -0.003  1.00  0.00     0.167 HD
ATOM     50  C   UNL     1       1.958 -10.106   4.324  1.00  0.00     0.037 A 
ATOM     51  C   UNL     1       2.518  -9.969  -2.636  1.00  0.00     0.037 A 
ATOM     52  C   UNL     1       3.009 -10.930   3.786  1.00  0.00     0.049 A 
ATOM     53  C   UNL     1       3.462 -10.773  -1.782  1.00  0.00     0.074 A 
ATOM     54  C   UNL     1       3.894 -11.751   4.462  1.00  0.00     0.029 A 
ATOM     55  N   UNL     1       3.314 -11.038   2.438  1.00  0.00    -0.354 N 
ATOM     56  N   UNL     1       3.475 -10.924  -0.481  1.00  0.00    -0.248 NA
ATOM     57  C   UNL     1       4.528 -11.504  -2.482  1.00  0.00     0.031 C 
ATOM     58  C   UNL     1       4.760 -12.328   3.527  1.00  0.00     0.029 A 
ATOM     59  C   UNL     1       4.386 -11.899   2.264  1.00  0.00     0.049 A 
ATOM     60  H   UNL     1       2.839 -10.572   1.712  1.00  0.00     0.167 HD
ATOM     61  C   UNL     1       4.529 -11.785  -0.208  1.00  0.00     0.074 A 
ATOM     62  C   UNL     1       5.126 -12.134  -1.480  1.00  0.00     0.031 C 
ATOM     63  C   UNL     1       4.964 -12.245   0.991  1.00  0.00     0.037 A 
BRANCH  50  64
ATOM     64  C   UNL     1       1.803 -10.046   5.816  1.00  0.00     0.064 A 
ATOM     65  C   UNL     1       0.725 -10.662   6.468  1.00  0.00     0.173 A 
ATOM     66  C   UNL     1       2.766  -9.400   6.606  1.00  0.00     0.173 A 
ATOM     67  F   UNL     1      -0.228 -11.284   5.758  1.00  0.00    -0.203 F 
ATOM     68  C   UNL     1       0.600 -10.608   7.854  1.00  0.00     0.198 A 
ATOM     69  C   UNL     1       2.653  -9.372   7.994  1.00  0.00     0.198 A 
ATOM     70  F   UNL     1       3.821  -8.802   6.033  1.00  0.00    -0.203 F 
ATOM     71  F   UNL     1      -0.463 -11.163   8.452  1.00  0.00    -0.200 F 
ATOM     72  C   UNL     1       1.567  -9.969   8.616  1.00  0.00     0.200 A 
ATOM     73  F   UNL     1       3.595  -8.766   8.730  1.00  0.00    -0.200 F 
ATOM     74  F   UNL     1       1.449  -9.924   9.950  1.00  0.00    -0.200 F 
ENDBRANCH  50  64
BRANCH  51  75
ATOM     75  C   UNL     1       2.672  -9.939  -4.113  1.00  0.00     0.064 A 
ATOM     76  C   UNL     1       2.390 -11.072  -4.888  1.00  0.00     0.173 A 
ATOM     77  C   UNL     1       3.104  -8.783  -4.778  1.00  0.00     0.173 A 
ATOM     78  F   UNL     1       1.997 -12.208  -4.293  1.00  0.00    -0.203 F 
ATOM     79  C   UNL     1       2.550 -11.056  -6.271  1.00  0.00     0.198 A 
ATOM     80  C   UNL     1       3.238  -8.759  -6.165  1.00  0.00     0.198 A 
ATOM     81  F   UNL     1       3.384  -7.672  -4.082  1.00  0.00    -0.203 F 
ATOM     82  F   UNL     1       2.312 -12.165  -6.984  1.00  0.00    -0.200 F 
ATOM     83  C   UNL     1       2.967  -9.898  -6.910  1.00  0.00     0.200 A 
ATOM     84  F   UNL     1       3.631  -7.635  -6.779  1.00  0.00    -0.200 F 
ATOM     85  F   UNL     1       3.116  -9.881  -8.241  1.00  0.00    -0.200 F 
ENDBRANCH  51  75
BRANCH  63  86
ATOM     86  C   UNL     1       6.119 -13.202   0.984  1.00  0.00     0.064 A 
ATOM     87  C   UNL     1       7.427 -12.773   0.717  1.00  0.00     0.173 A 
ATOM     88  C   UNL     1       5.920 -14.557   1.288  1.00  0.00     0.173 A 
ATOM     89  F   UNL     1       7.666 -11.490   0.405  1.00  0.00    -0.203 F 
ATOM     90  C   UNL     1       8.491 -13.671   0.733  1.00  0.00     0.198 A 
ATOM     91  C   UNL     1       6.990 -15.447   1.329  1.00  0.00     0.198 A 
ATOM     92  F   UNL     1       4.688 -15.016   1.556  1.00  0.00    -0.203 F 
ATOM     93  F   UNL     1       9.727 -13.247   0.433  1.00  0.00    -0.200 F 
ATOM     94  C   UNL     1       8.273 -15.004   1.046  1.00  0.00     0.200 A 
ATOM     95  F   UNL     1       6.779 -16.733   1.641  1.00  0.00    -0.200 F 
ATOM     96  F   UNL     1       9.300 -15.865   1.067  1.00  0.00    -0.200 F 
ENDBRANCH  63  86
ENDBRANCH  37  38
ENDBRANCH  29  32
ENDBRANCH  27  28
ENDBRANCH  26  27
ENDBRANCH   1  26
TORSDOF 14
