REMARK SMILES C[C@H](C(=O)NCCCNC(=O)c1ccc(-c2c3nc(c(-c4c(F)c(F)c(F)c(F)c4F)c4ccc([nH]4)c(-c4c(F)c(F)c(F)c(F)c4F)c4nc(c(-c5c(F)c(F)c(F)c(F)c5F)c5ccc2[nH]5)C=C4)C=C3)cc1)N1C(=O)C[C@@H](N2C(=O)/C(=C/c3ccccc3)SC2=S)C1=O
REMARK SMILES IDX 6 1 5 2 3 3 4 4 2 6 1 7 75 8 76 9 94 10 77 11 78 12 79 13
REMARK SMILES IDX 95 14 80 15 81 16 92 17 82 18 83 19 91 20 93 21 84 22 85 23
REMARK SMILES IDX 86 24 90 25 87 26 89 27 88 28 7 29 8 30 9 31 10 32 11 34
REMARK SMILES IDX 12 35 13 36 74 37 14 38 73 39 15 40 16 41 17 42 67 43 18 44
REMARK SMILES IDX 72 45 66 46 68 47 19 48 71 49 65 50 64 51 20 53 52 54 32 55
REMARK SMILES IDX 51 56 33 57 36 58 50 59 69 60 34 61 35 62 49 64 70 65 37 66
REMARK SMILES IDX 21 67 22 68 30 69 23 70 24 71 28 72 31 73 25 74 26 75 29 76
REMARK SMILES IDX 27 77 53 78 54 79 62 80 55 81 56 82 60 83 63 84 57 85 58 86
REMARK SMILES IDX 61 87 59 88 38 89 39 90 47 91 40 92 41 93 45 94 48 95 42 96
REMARK SMILES IDX 43 97 46 98 44 99
REMARK H PARENT 5 5 9 33 68 52 36 63
REMARK Flexibility Score: inf
ROOT
ATOM      1  C   UNL     1      -0.241   1.780   1.152  1.00  0.00     0.117 C 
ENDROOT
BRANCH   1   2
ATOM      2  N   UNL     1       0.582   0.600   0.990  1.00  0.00    -0.354 N 
ATOM      3  C   UNL     1       0.951  -0.076  -0.141  1.00  0.00     0.243 C 
ATOM      4  O   UNL     1       1.834  -0.925   0.004  1.00  0.00    -0.273 OA
ATOM      5  H   UNL     1       0.932   0.222   1.829  1.00  0.00     0.163 HD
BRANCH   3   6
ATOM      6  C   UNL     1       0.409   0.341  -1.529  1.00  0.00     0.179 C 
ATOM      7  C   UNL     1       0.981  -0.497  -2.681  1.00  0.00     0.042 C 
BRANCH   6   8
ATOM      8  N   UNL     1      -1.053   0.390  -1.559  1.00  0.00    -0.268 N 
ATOM      9  C   UNL     1      -1.768   1.525  -1.822  1.00  0.00     0.232 C 
ATOM     10  C   UNL     1      -1.851  -0.718  -1.467  1.00  0.00     0.253 C 
ATOM     11  O   UNL     1      -1.321   2.646  -2.014  1.00  0.00    -0.274 OA
ATOM     12  C   UNL     1      -3.235   1.224  -1.737  1.00  0.00     0.136 C 
ATOM     13  C   UNL     1      -3.291  -0.295  -1.688  1.00  0.00     0.191 C 
ATOM     14  O   UNL     1      -1.489  -1.874  -1.302  1.00  0.00    -0.272 OA
BRANCH  13  15
ATOM     15  N   UNL     1      -3.838  -0.927  -2.897  1.00  0.00    -0.280 N 
ATOM     16  C   UNL     1      -3.285  -0.610  -4.126  1.00  0.00     0.266 C 
ATOM     17  C   UNL     1      -4.889  -1.820  -2.916  1.00  0.00     0.149 C 
ATOM     18  O   UNL     1      -2.324   0.121  -4.303  1.00  0.00    -0.268 OA
ATOM     19  C   UNL     1      -4.047  -1.249  -5.223  1.00  0.00     0.081 C 
ATOM     20  S   UNL     1      -5.267  -2.263  -4.577  1.00  0.00    -0.054 SA
ATOM     21  S   UNL     1      -5.773  -2.397  -1.625  1.00  0.00    -0.052 S 
ATOM     22  C   UNL     1      -3.766  -0.972  -6.502  1.00  0.00     0.029 C 
BRANCH  22  23
ATOM     23  C   UNL     1      -4.501  -1.454  -7.672  1.00  0.00    -0.024 A 
ATOM     24  C   UNL     1      -3.838  -2.217  -8.638  1.00  0.00     0.008 A 
ATOM     25  C   UNL     1      -5.843  -1.108  -7.869  1.00  0.00     0.008 A 
ATOM     26  C   UNL     1      -4.520  -2.651  -9.776  1.00  0.00     0.001 A 
ATOM     27  C   UNL     1      -6.523  -1.544  -9.006  1.00  0.00     0.001 A 
ATOM     28  C   UNL     1      -5.861  -2.317  -9.958  1.00  0.00     0.000 A 
ENDBRANCH  22  23
ENDBRANCH  13  15
ENDBRANCH   6   8
ENDBRANCH   3   6
ENDBRANCH   1   2
BRANCH   1  29
ATOM     29  C   UNL     1      -1.626   1.435   1.694  1.00  0.00     0.042 C 
BRANCH  29  30
ATOM     30  C   UNL     1      -1.617   0.989   3.153  1.00  0.00     0.118 C 
BRANCH  30  31
ATOM     31  N   UNL     1      -1.177   2.048   4.046  1.00  0.00    -0.352 N 
ATOM     32  C   UNL     1      -1.785   2.617   5.133  1.00  0.00     0.251 C 
ATOM     33  H   UNL     1      -0.291   2.420   3.833  1.00  0.00     0.163 HD
ATOM     34  O   UNL     1      -1.317   3.652   5.601  1.00  0.00    -0.269 OA
BRANCH  32  35
ATOM     35  C   UNL     1      -2.993   2.020   5.746  1.00  0.00     0.039 A 
ATOM     36  C   UNL     1      -3.951   2.884   6.285  1.00  0.00     0.014 A 
ATOM     37  C   UNL     1      -3.165   0.637   5.860  1.00  0.00     0.014 A 
ATOM     38  C   UNL     1      -5.091   2.365   6.897  1.00  0.00     0.010 A 
ATOM     39  C   UNL     1      -4.343   0.120   6.399  1.00  0.00     0.010 A 
ATOM     40  C   UNL     1      -5.314   0.979   6.932  1.00  0.00    -0.014 A 
BRANCH  40  41
ATOM     41  C   UNL     1      -6.572   0.439   7.508  1.00  0.00     0.031 A 
ATOM     42  C   UNL     1      -6.553  -0.420   8.742  1.00  0.00     0.074 A 
ATOM     43  C   UNL     1      -7.741   0.720   6.900  1.00  0.00     0.049 A 
ATOM     44  N   UNL     1      -7.558  -0.942   9.401  1.00  0.00    -0.248 NA
ATOM     45  C   UNL     1      -5.234  -0.757   9.298  1.00  0.00     0.031 C 
ATOM     46  C   UNL     1      -7.882   1.492   5.664  1.00  0.00     0.029 A 
ATOM     47  N   UNL     1      -9.030   0.397   7.238  1.00  0.00    -0.354 N 
ATOM     48  C   UNL     1      -6.995  -1.663  10.445  1.00  0.00     0.074 A 
ATOM     49  C   UNL     1      -5.559  -1.566  10.297  1.00  0.00     0.031 C 
ATOM     50  C   UNL     1      -9.184   1.617   5.370  1.00  0.00     0.029 A 
ATOM     51  C   UNL     1      -9.968   0.903   6.372  1.00  0.00     0.049 A 
ATOM     52  H   UNL     1      -9.261  -0.147   8.026  1.00  0.00     0.167 HD
ATOM     53  C   UNL     1      -7.619  -2.323  11.451  1.00  0.00     0.037 A 
ATOM     54  C   UNL     1     -11.311   0.806   6.386  1.00  0.00     0.037 A 
ATOM     55  C   UNL     1      -9.050  -2.413  11.597  1.00  0.00     0.049 A 
ATOM     56  C   UNL     1     -11.977   0.064   7.511  1.00  0.00     0.074 A 
ATOM     57  C   UNL     1      -9.780  -3.017  12.605  1.00  0.00     0.029 A 
ATOM     58  N   UNL     1      -9.970  -1.888  10.699  1.00  0.00    -0.354 N 
ATOM     59  N   UNL     1     -11.435  -0.546   8.538  1.00  0.00    -0.248 NA
ATOM     60  C   UNL     1     -13.444   0.008   7.486  1.00  0.00     0.031 C 
ATOM     61  C   UNL     1     -11.139  -2.906  12.290  1.00  0.00     0.029 A 
ATOM     62  C   UNL     1     -11.260  -2.179  11.117  1.00  0.00     0.049 A 
ATOM     63  H   UNL     1      -9.740  -1.385   9.885  1.00  0.00     0.167 HD
ATOM     64  C   UNL     1     -12.492  -1.041   9.289  1.00  0.00     0.074 A 
ATOM     65  C   UNL     1     -13.707  -0.630   8.617  1.00  0.00     0.031 C 
ATOM     66  C   UNL     1     -12.460  -1.774  10.430  1.00  0.00     0.037 A 
BRANCH  53  67
ATOM     67  C   UNL     1      -6.756  -3.001  12.480  1.00  0.00     0.064 A 
ATOM     68  C   UNL     1      -5.975  -2.265  13.386  1.00  0.00     0.173 A 
ATOM     69  C   UNL     1      -6.739  -4.399  12.591  1.00  0.00     0.173 A 
ATOM     70  F   UNL     1      -5.946  -0.925  13.319  1.00  0.00    -0.203 F 
ATOM     71  C   UNL     1      -5.189  -2.904  14.342  1.00  0.00     0.198 A 
ATOM     72  C   UNL     1      -5.978  -5.034  13.569  1.00  0.00     0.198 A 
ATOM     73  F   UNL     1      -7.471  -5.153  11.756  1.00  0.00    -0.203 F 
ATOM     74  F   UNL     1      -4.414  -2.180  15.161  1.00  0.00    -0.200 F 
ATOM     75  C   UNL     1      -5.197  -4.287  14.438  1.00  0.00     0.200 A 
ATOM     76  F   UNL     1      -5.999  -6.370  13.671  1.00  0.00    -0.200 F 
ATOM     77  F   UNL     1      -4.448  -4.900  15.365  1.00  0.00    -0.200 F 
ENDBRANCH  53  67
BRANCH  54  78
ATOM     78  C   UNL     1     -12.112   1.449   5.311  1.00  0.00     0.064 A 
ATOM     79  C   UNL     1     -12.943   2.545   5.585  1.00  0.00     0.173 A 
ATOM     80  C   UNL     1     -12.065   0.981   3.990  1.00  0.00     0.173 A 
ATOM     81  F   UNL     1     -13.035   3.019   6.836  1.00  0.00    -0.203 F 
ATOM     82  C   UNL     1     -13.715   3.131   4.584  1.00  0.00     0.198 A 
ATOM     83  C   UNL     1     -12.812   1.589   2.983  1.00  0.00     0.198 A 
ATOM     84  F   UNL     1     -11.279  -0.059   3.673  1.00  0.00    -0.203 F 
ATOM     85  F   UNL     1     -14.538   4.144   4.883  1.00  0.00    -0.200 F 
ATOM     86  C   UNL     1     -13.643   2.657   3.283  1.00  0.00     0.200 A 
ATOM     87  F   UNL     1     -12.724   1.141   1.723  1.00  0.00    -0.200 F 
ATOM     88  F   UNL     1     -14.380   3.225   2.319  1.00  0.00    -0.200 F 
ENDBRANCH  54  78
BRANCH  66  89
ATOM     89  C   UNL     1     -13.785  -2.161  11.026  1.00  0.00     0.064 A 
ATOM     90  C   UNL     1     -14.636  -3.083  10.395  1.00  0.00     0.173 A 
ATOM     91  C   UNL     1     -14.209  -1.606  12.243  1.00  0.00     0.173 A 
ATOM     92  F   UNL     1     -14.285  -3.632   9.222  1.00  0.00    -0.203 F 
ATOM     93  C   UNL     1     -15.879  -3.397  10.937  1.00  0.00     0.198 A 
ATOM     94  C   UNL     1     -15.436  -1.952  12.801  1.00  0.00     0.198 A 
ATOM     95  F   UNL     1     -13.432  -0.727  12.893  1.00  0.00    -0.203 F 
ATOM     96  F   UNL     1     -16.704  -4.225  10.280  1.00  0.00    -0.200 F 
ATOM     97  C   UNL     1     -16.276  -2.836  12.141  1.00  0.00     0.200 A 
ATOM     98  F   UNL     1     -15.812  -1.420  13.972  1.00  0.00    -0.200 F 
ATOM     99  F   UNL     1     -17.474  -3.138  12.660  1.00  0.00    -0.200 F 
ENDBRANCH  66  89
ENDBRANCH  40  41
ENDBRANCH  32  35
ENDBRANCH  30  31
ENDBRANCH  29  30
ENDBRANCH   1  29
TORSDOF 13
