REMARK SMILES C#CCN(CC(=O)NCCCNC(=O)c1ccc(-c2c3nc(c(-c4c(F)c(F)c(F)c(F)c4F)c4ccc([nH]4)c(-c4c(F)c(F)c(F)c(F)c4F)c4nc(c(-c5c(F)c(F)c(F)c(F)c5F)c5ccc2[nH]5)C=C4)C=C3)cc1)C(=O)/C=C/c1ccnn1C
REMARK SMILES IDX 9 1 8 2 6 3 7 4 5 6 4 7 3 8 2 9 1 10 78 11 79 12 80 13 81 14
REMARK SMILES IDX 82 15 83 16 86 17 84 18 85 19 87 20 10 21 11 22 12 23 13 24
REMARK SMILES IDX 14 26 15 27 16 28 77 29 17 30 76 31 18 32 19 33 20 34 70 35
REMARK SMILES IDX 21 36 75 37 69 38 71 39 22 40 74 41 68 42 67 43 23 45 55 46
REMARK SMILES IDX 35 47 54 48 36 49 39 50 53 51 72 52 37 53 38 54 52 56 73 57
REMARK SMILES IDX 40 58 24 59 25 60 33 61 26 62 27 63 31 64 34 65 28 66 29 67
REMARK SMILES IDX 32 68 30 69 56 70 57 71 65 72 58 73 59 74 63 75 66 76 60 77
REMARK SMILES IDX 61 78 64 79 62 80 41 81 42 82 50 83 43 84 44 85 48 86 51 87
REMARK SMILES IDX 45 88 46 89 49 90 47 91
REMARK H PARENT 8 5 12 25 71 44 39 55
REMARK Flexibility Score: inf
ROOT
ATOM      1  C   UNL     1      -5.151  -0.008  -0.349  1.00  0.00     0.117 C 
ENDROOT
BRANCH   1   2
ATOM      2  N   UNL     1      -5.422   0.015   1.074  1.00  0.00    -0.354 N 
ATOM      3  C   UNL     1      -4.640   0.453   2.101  1.00  0.00     0.239 C 
ATOM      4  O   UNL     1      -5.210   0.723   3.163  1.00  0.00    -0.273 OA
ATOM      5  H   UNL     1      -6.302  -0.338   1.339  1.00  0.00     0.163 HD
BRANCH   3   6
ATOM      6  C   UNL     1      -3.136   0.729   1.931  1.00  0.00     0.220 C 
BRANCH   6   7
ATOM      7  N   UNL     1      -2.375  -0.361   1.322  1.00  0.00    -0.319 N 
BRANCH   7   8
ATOM      8  C   UNL     1      -1.777  -0.086   0.020  1.00  0.00     0.210 C 
BRANCH   8   9
ATOM      9  C   UNL     1      -0.257  -0.086   0.020  1.00  0.00    -0.085 C 
ATOM     10  C   UNL     1       1.047  -0.086   0.020  1.00  0.00     0.006 C 
ENDBRANCH   8   9
ENDBRANCH   7   8
BRANCH   7  11
ATOM     11  C   UNL     1      -2.185  -1.628   1.843  1.00  0.00     0.247 C 
ATOM     12  O   UNL     1      -1.654  -2.516   1.167  1.00  0.00    -0.270 OA
BRANCH  11  13
ATOM     13  C   UNL     1      -2.658  -2.066   3.194  1.00  0.00     0.073 C 
ATOM     14  C   UNL     1      -3.091  -1.405   4.276  1.00  0.00     0.033 C 
BRANCH  14  15
ATOM     15  C   UNL     1      -3.456  -2.113   5.449  1.00  0.00     0.061 A 
ATOM     16  C   UNL     1      -2.753  -2.902   6.335  1.00  0.00     0.050 A 
ATOM     17  N   UNL     1      -4.739  -2.053   5.948  1.00  0.00    -0.269 N 
ATOM     18  C   UNL     1      -3.674  -3.227   7.346  1.00  0.00     0.136 A 
ATOM     19  N   UNL     1      -4.884  -2.719   7.114  1.00  0.00    -0.181 NA
ATOM     20  C   UNL     1      -5.901  -1.424   5.364  1.00  0.00     0.174 C 
ENDBRANCH  14  15
ENDBRANCH  11  13
ENDBRANCH   7  11
ENDBRANCH   6   7
ENDBRANCH   3   6
ENDBRANCH   1   2
BRANCH   1  21
ATOM     21  C   UNL     1      -4.985  -1.413  -0.919  1.00  0.00     0.042 C 
BRANCH  21  22
ATOM     22  C   UNL     1      -6.238  -2.284  -0.848  1.00  0.00     0.118 C 
BRANCH  22  23
ATOM     23  N   UNL     1      -7.379  -1.693  -1.536  1.00  0.00    -0.352 N 
ATOM     24  C   UNL     1      -8.023  -2.051  -2.691  1.00  0.00     0.251 C 
ATOM     25  H   UNL     1      -7.752  -0.897  -1.093  1.00  0.00     0.163 HD
ATOM     26  O   UNL     1      -8.835  -1.266  -3.190  1.00  0.00    -0.269 OA
BRANCH  24  27
ATOM     27  C   UNL     1      -7.757  -3.340  -3.362  1.00  0.00     0.039 A 
ATOM     28  C   UNL     1      -7.694  -3.370  -4.760  1.00  0.00     0.014 A 
ATOM     29  C   UNL     1      -7.625  -4.527  -2.637  1.00  0.00     0.014 A 
ATOM     30  C   UNL     1      -7.413  -4.568  -5.422  1.00  0.00     0.010 A 
ATOM     31  C   UNL     1      -7.281  -5.708  -3.292  1.00  0.00     0.010 A 
ATOM     32  C   UNL     1      -7.157  -5.738  -4.689  1.00  0.00    -0.014 A 
BRANCH  32  33
ATOM     33  C   UNL     1      -6.707  -6.986  -5.357  1.00  0.00     0.031 A 
ATOM     34  C   UNL     1      -7.556  -8.223  -5.323  1.00  0.00     0.074 A 
ATOM     35  C   UNL     1      -5.481  -7.024  -5.915  1.00  0.00     0.049 A 
ATOM     36  N   UNL     1      -7.276  -9.431  -5.743  1.00  0.00    -0.248 NA
ATOM     37  C   UNL     1      -8.889  -8.093  -4.715  1.00  0.00     0.031 C 
ATOM     38  C   UNL     1      -4.547  -5.899  -5.975  1.00  0.00     0.029 A 
ATOM     39  N   UNL     1      -4.801  -8.053  -6.516  1.00  0.00    -0.354 N 
ATOM     40  C   UNL     1      -8.386 -10.206  -5.439  1.00  0.00     0.074 A 
ATOM     41  C   UNL     1      -9.332  -9.342  -4.764  1.00  0.00     0.031 C 
ATOM     42  C   UNL     1      -3.418  -6.296  -6.582  1.00  0.00     0.029 A 
ATOM     43  C   UNL     1      -3.531  -7.713  -6.914  1.00  0.00     0.049 A 
ATOM     44  H   UNL     1      -5.185  -8.950  -6.649  1.00  0.00     0.167 HD
ATOM     45  C   UNL     1      -8.601 -11.516  -5.711  1.00  0.00     0.037 A 
ATOM     46  C   UNL     1      -2.557  -8.462  -7.463  1.00  0.00     0.037 A 
ATOM     47  C   UNL     1      -7.665 -12.367  -6.401  1.00  0.00     0.049 A 
ATOM     48  C   UNL     1      -2.812  -9.920  -7.729  1.00  0.00     0.074 A 
ATOM     49  C   UNL     1      -7.825 -13.684  -6.795  1.00  0.00     0.029 A 
ATOM     50  N   UNL     1      -6.389 -11.986  -6.790  1.00  0.00    -0.354 N 
ATOM     51  N   UNL     1      -3.892 -10.625  -7.501  1.00  0.00    -0.248 NA
ATOM     52  C   UNL     1      -1.709 -10.686  -8.325  1.00  0.00     0.031 C 
ATOM     53  C   UNL     1      -6.628 -14.116  -7.378  1.00  0.00     0.029 A 
ATOM     54  C   UNL     1      -5.739 -13.054  -7.388  1.00  0.00     0.049 A 
ATOM     55  H   UNL     1      -6.003 -11.090  -6.660  1.00  0.00     0.167 HD
ATOM     56  C   UNL     1      -3.607 -11.911  -7.936  1.00  0.00     0.074 A 
ATOM     57  C   UNL     1      -2.258 -11.885  -8.463  1.00  0.00     0.031 C 
ATOM     58  C   UNL     1      -4.391 -13.016  -7.897  1.00  0.00     0.037 A 
BRANCH  45  59
ATOM     59  C   UNL     1      -9.901 -12.117  -5.262  1.00  0.00     0.064 A 
ATOM     60  C   UNL     1     -11.116 -11.789  -5.882  1.00  0.00     0.173 A 
ATOM     61  C   UNL     1      -9.927 -13.068  -4.231  1.00  0.00     0.173 A 
ATOM     62  F   UNL     1     -11.148 -10.879  -6.867  1.00  0.00    -0.203 F 
ATOM     63  C   UNL     1     -12.312 -12.372  -5.469  1.00  0.00     0.198 A 
ATOM     64  C   UNL     1     -11.120 -13.670  -3.839  1.00  0.00     0.198 A 
ATOM     65  F   UNL     1      -8.792 -13.423  -3.610  1.00  0.00    -0.203 F 
ATOM     66  F   UNL     1     -13.466 -12.012  -6.048  1.00  0.00    -0.200 F 
ATOM     67  C   UNL     1     -12.312 -13.317  -4.454  1.00  0.00     0.200 A 
ATOM     68  F   UNL     1     -11.117 -14.592  -2.866  1.00  0.00    -0.200 F 
ATOM     69  F   UNL     1     -13.462 -13.883  -4.064  1.00  0.00    -0.200 F 
ENDBRANCH  45  59
BRANCH  46  70
ATOM     70  C   UNL     1      -1.247  -7.844  -7.794  1.00  0.00     0.064 A 
ATOM     71  C   UNL     1      -0.864  -7.646  -9.127  1.00  0.00     0.173 A 
ATOM     72  C   UNL     1      -0.358  -7.434  -6.790  1.00  0.00     0.173 A 
ATOM     73  F   UNL     1      -1.671  -8.042 -10.121  1.00  0.00    -0.203 F 
ATOM     74  C   UNL     1       0.366  -7.073  -9.444  1.00  0.00     0.198 A 
ATOM     75  C   UNL     1       0.860  -6.837  -7.107  1.00  0.00     0.198 A 
ATOM     76  F   UNL     1      -0.681  -7.600  -5.498  1.00  0.00    -0.203 F 
ATOM     77  F   UNL     1       0.725  -6.931 -10.727  1.00  0.00    -0.200 F 
ATOM     78  C   UNL     1       1.224  -6.663  -8.434  1.00  0.00     0.200 A 
ATOM     79  F   UNL     1       1.679  -6.429  -6.129  1.00  0.00    -0.200 F 
ATOM     80  F   UNL     1       2.403  -6.106  -8.739  1.00  0.00    -0.200 F 
ENDBRANCH  46  70
BRANCH  58  81
ATOM     81  C   UNL     1      -3.811 -14.286  -8.445  1.00  0.00     0.064 A 
ATOM     82  C   UNL     1      -2.816 -14.993  -7.753  1.00  0.00     0.173 A 
ATOM     83  C   UNL     1      -4.276 -14.821  -9.656  1.00  0.00     0.173 A 
ATOM     84  F   UNL     1      -2.325 -14.512  -6.600  1.00  0.00    -0.203 F 
ATOM     85  C   UNL     1      -2.294 -16.178  -8.263  1.00  0.00     0.198 A 
ATOM     86  C   UNL     1      -3.772 -16.021 -10.149  1.00  0.00     0.198 A 
ATOM     87  F   UNL     1      -5.229 -14.185 -10.354  1.00  0.00    -0.203 F 
ATOM     88  F   UNL     1      -1.313 -16.813  -7.607  1.00  0.00    -0.200 F 
ATOM     89  C   UNL     1      -2.777 -16.695  -9.456  1.00  0.00     0.200 A 
ATOM     90  F   UNL     1      -4.247 -16.525 -11.296  1.00  0.00    -0.200 F 
ATOM     91  F   UNL     1      -2.278 -17.840  -9.942  1.00  0.00    -0.200 F 
ENDBRANCH  58  81
ENDBRANCH  32  33
ENDBRANCH  24  27
ENDBRANCH  22  23
ENDBRANCH  21  22
ENDBRANCH   1  21
TORSDOF 16
