REMARK SMILES CCc1ccsc1-c1nnnn1C[C@H](CC(C)C)C(=O)NCCCNC(=O)c1ccc(-c2c3nc(c(-c4c(F)c(F)c(F)c(F)c4F)c4ccc([nH]4)c(-c4c(F)c(F)c(F)c(F)c4F)c4nc(c(-c5c(F)c(F)c(F)c(F)c5F)c5ccc2[nH]5)C=C4)C=C3)cc1
REMARK SMILES IDX 22 1 21 2 19 3 20 4 14 6 13 7 12 8 8 9 9 10 10 11 11 12 7 13
REMARK SMILES IDX 3 14 4 15 5 16 6 17 2 18 1 19 15 20 16 21 17 22 18 23 23 24
REMARK SMILES IDX 24 25 25 26 26 27 27 29 28 30 29 31 90 32 30 33 89 34 31 35
REMARK SMILES IDX 32 36 33 37 83 38 34 39 88 40 82 41 84 42 35 43 87 44 81 45
REMARK SMILES IDX 80 46 36 48 68 49 48 50 67 51 49 52 52 53 66 54 85 55 50 56
REMARK SMILES IDX 51 57 65 59 86 60 53 61 37 62 38 63 46 64 39 65 40 66 44 67
REMARK SMILES IDX 47 68 41 69 42 70 45 71 43 72 69 73 70 74 78 75 71 76 72 77
REMARK SMILES IDX 76 78 79 79 73 80 74 81 77 82 75 83 54 84 55 85 63 86 56 87
REMARK SMILES IDX 57 88 61 89 64 90 58 91 59 92 62 93 60 94
REMARK H PARENT 21 5 25 28 84 47 52 58
REMARK Flexibility Score: inf
ROOT
ATOM      1  C   UNL     1      -3.894  -1.167   1.133  1.00  0.00     0.117 C 
ENDROOT
BRANCH   1   2
ATOM      2  N   UNL     1      -4.125  -0.480   2.386  1.00  0.00    -0.356 N 
ATOM      3  C   UNL     1      -4.154   0.859   2.634  1.00  0.00     0.224 C 
ATOM      4  O   UNL     1      -4.700   1.235   3.675  1.00  0.00    -0.275 OA
ATOM      5  H   UNL     1      -4.281  -1.060   3.166  1.00  0.00     0.163 HD
BRANCH   3   6
ATOM      6  C   UNL     1      -3.527   1.889   1.694  1.00  0.00     0.100 C 
BRANCH   6   7
ATOM      7  C   UNL     1      -4.456   2.280   0.523  1.00  0.00     0.162 C 
BRANCH   7   8
ATOM      8  N   UNL     1      -4.502   1.427  -0.638  1.00  0.00    -0.224 N 
ATOM      9  C   UNL     1      -5.495   0.601  -1.109  1.00  0.00     0.192 A 
ATOM     10  N   UNL     1      -4.980  -0.129  -2.080  1.00  0.00    -0.108 NA
ATOM     11  N   UNL     1      -3.704   0.335  -2.278  1.00  0.00    -0.023 NA
ATOM     12  N   UNL     1      -3.419   1.314  -1.432  1.00  0.00    -0.045 NA
BRANCH   9  13
ATOM     13  C   UNL     1      -6.849   0.520  -0.655  1.00  0.00     0.077 A 
ATOM     14  C   UNL     1      -7.816   1.516  -0.698  1.00  0.00    -0.026 A 
ATOM     15  C   UNL     1      -9.043   1.060  -0.102  1.00  0.00     0.016 A 
ATOM     16  C   UNL     1      -8.989  -0.257   0.293  1.00  0.00     0.066 A 
ATOM     17  S   UNL     1      -7.481  -0.959  -0.063  1.00  0.00    -0.140 S 
BRANCH  14  18
ATOM     18  C   UNL     1      -7.645   2.891  -1.287  1.00  0.00     0.034 C 
ATOM     19  C   UNL     1      -7.329   2.873  -2.777  1.00  0.00     0.009 C 
ENDBRANCH  14  18
ENDBRANCH   9  13
ENDBRANCH   7   8
ENDBRANCH   6   7
BRANCH   6  20
ATOM     20  C   UNL     1      -2.048   1.560   1.414  1.00  0.00     0.018 C 
BRANCH  20  21
ATOM     21  C   UNL     1      -1.174   2.726   0.917  1.00  0.00    -0.017 C 
ATOM     22  C   UNL     1      -0.937   3.776   2.004  1.00  0.00     0.007 C 
ATOM     23  C   UNL     1       0.175   2.168   0.448  1.00  0.00     0.007 C 
ENDBRANCH  20  21
ENDBRANCH   6  20
ENDBRANCH   3   6
ENDBRANCH   1   2
BRANCH   1  24
ATOM     24  C   UNL     1      -2.904  -2.316   1.146  1.00  0.00     0.042 C 
BRANCH  24  25
ATOM     25  C   UNL     1      -3.531  -3.619   1.601  1.00  0.00     0.118 C 
BRANCH  25  26
ATOM     26  N   UNL     1      -4.659  -4.049   0.770  1.00  0.00    -0.352 N 
ATOM     27  C   UNL     1      -5.608  -5.018   1.063  1.00  0.00     0.251 C 
ATOM     28  H   UNL     1      -4.755  -3.597  -0.099  1.00  0.00     0.163 HD
ATOM     29  O   UNL     1      -6.360  -5.469   0.231  1.00  0.00    -0.269 OA
BRANCH  27  30
ATOM     30  C   UNL     1      -5.628  -5.511   2.452  1.00  0.00     0.039 A 
ATOM     31  C   UNL     1      -5.283  -6.836   2.714  1.00  0.00     0.014 A 
ATOM     32  C   UNL     1      -5.739  -4.570   3.470  1.00  0.00     0.014 A 
ATOM     33  C   UNL     1      -4.904  -7.179   4.009  1.00  0.00     0.010 A 
ATOM     34  C   UNL     1      -5.234  -4.885   4.716  1.00  0.00     0.010 A 
ATOM     35  C   UNL     1      -4.813  -6.187   5.002  1.00  0.00    -0.014 A 
BRANCH  35  36
ATOM     36  C   UNL     1      -4.141  -6.499   6.274  1.00  0.00     0.031 A 
ATOM     37  C   UNL     1      -2.846  -7.242   6.179  1.00  0.00     0.074 A 
ATOM     38  C   UNL     1      -4.508  -6.013   7.480  1.00  0.00     0.049 A 
ATOM     39  N   UNL     1      -2.575  -8.415   6.656  1.00  0.00    -0.248 NA
ATOM     40  C   UNL     1      -1.731  -6.637   5.434  1.00  0.00     0.031 C 
ATOM     41  C   UNL     1      -5.550  -5.025   7.772  1.00  0.00     0.029 A 
ATOM     42  N   UNL     1      -3.948  -6.239   8.710  1.00  0.00    -0.354 N 
ATOM     43  C   UNL     1      -1.218  -8.636   6.421  1.00  0.00     0.074 A 
ATOM     44  C   UNL     1      -0.776  -7.563   5.568  1.00  0.00     0.031 C 
ATOM     45  C   UNL     1      -5.397  -4.563   9.030  1.00  0.00     0.029 A 
ATOM     46  C   UNL     1      -4.391  -5.370   9.693  1.00  0.00     0.049 A 
ATOM     47  H   UNL     1      -3.292  -6.953   8.879  1.00  0.00     0.167 HD
ATOM     48  C   UNL     1      -0.526  -9.569   7.135  1.00  0.00     0.037 A 
ATOM     49  C   UNL     1      -4.018  -5.312  10.990  1.00  0.00     0.037 A 
ATOM     50  C   UNL     1      -1.413 -10.427   7.873  1.00  0.00     0.049 A 
ATOM     51  C   UNL     1      -3.508  -6.638  11.391  1.00  0.00     0.074 A 
ATOM     52  C   UNL     1      -2.166 -11.554   7.638  1.00  0.00     0.029 A 
ATOM     53  N   UNL     1      -1.819  -9.906   9.068  1.00  0.00    -0.354 N 
ATOM     54  N   UNL     1      -4.256  -7.704  11.467  1.00  0.00    -0.248 NA
ATOM     55  C   UNL     1      -2.071  -6.875  11.471  1.00  0.00     0.031 C 
ATOM     56  C   UNL     1      -3.156 -11.598   8.668  1.00  0.00     0.029 A 
ATOM     57  C   UNL     1      -2.972 -10.501   9.503  1.00  0.00     0.049 A 
ATOM     58  H   UNL     1      -1.343  -9.195   9.554  1.00  0.00     0.167 HD
ATOM     59  C   UNL     1      -3.395  -8.738  11.172  1.00  0.00     0.074 A 
ATOM     60  C   UNL     1      -2.058  -8.207  11.384  1.00  0.00     0.031 C 
ATOM     61  C   UNL     1      -3.818  -9.810  10.446  1.00  0.00     0.037 A 
BRANCH  48  62
ATOM     62  C   UNL     1       0.930  -9.476   7.551  1.00  0.00     0.064 A 
ATOM     63  C   UNL     1       1.534 -10.583   8.191  1.00  0.00     0.173 A 
ATOM     64  C   UNL     1       1.633  -8.259   7.660  1.00  0.00     0.173 A 
ATOM     65  F   UNL     1       0.951 -11.791   8.163  1.00  0.00    -0.203 F 
ATOM     66  C   UNL     1       2.703 -10.458   8.948  1.00  0.00     0.198 A 
ATOM     67  C   UNL     1       2.827  -8.149   8.376  1.00  0.00     0.198 A 
ATOM     68  F   UNL     1       1.137  -7.112   7.183  1.00  0.00    -0.203 F 
ATOM     69  F   UNL     1       3.167 -11.509   9.639  1.00  0.00    -0.200 F 
ATOM     70  C   UNL     1       3.345  -9.239   9.046  1.00  0.00     0.200 A 
ATOM     71  F   UNL     1       3.427  -6.955   8.477  1.00  0.00    -0.200 F 
ATOM     72  F   UNL     1       4.429  -9.100   9.820  1.00  0.00    -0.200 F 
ENDBRANCH  48  62
BRANCH  49  73
ATOM     73  C   UNL     1      -4.024  -4.148  11.895  1.00  0.00     0.064 A 
ATOM     74  C   UNL     1      -4.106  -4.301  13.285  1.00  0.00     0.173 A 
ATOM     75  C   UNL     1      -3.693  -2.867  11.413  1.00  0.00     0.173 A 
ATOM     76  F   UNL     1      -4.388  -5.498  13.818  1.00  0.00    -0.203 F 
ATOM     77  C   UNL     1      -3.838  -3.238  14.150  1.00  0.00     0.198 A 
ATOM     78  C   UNL     1      -3.433  -1.805  12.278  1.00  0.00     0.198 A 
ATOM     79  F   UNL     1      -3.532  -2.651  10.099  1.00  0.00    -0.203 F 
ATOM     80  F   UNL     1      -3.865  -3.435  15.476  1.00  0.00    -0.200 F 
ATOM     81  C   UNL     1      -3.490  -1.995  13.646  1.00  0.00     0.200 A 
ATOM     82  F   UNL     1      -3.068  -0.616  11.779  1.00  0.00    -0.200 F 
ATOM     83  F   UNL     1      -3.170  -0.994  14.477  1.00  0.00    -0.200 F 
ENDBRANCH  49  73
BRANCH  61  84
ATOM     84  C   UNL     1      -5.277 -10.130  10.482  1.00  0.00     0.064 A 
ATOM     85  C   UNL     1      -6.277  -9.317   9.928  1.00  0.00     0.173 A 
ATOM     86  C   UNL     1      -5.672 -11.335  11.076  1.00  0.00     0.173 A 
ATOM     87  F   UNL     1      -5.966  -8.190   9.276  1.00  0.00    -0.203 F 
ATOM     88  C   UNL     1      -7.622  -9.673  10.016  1.00  0.00     0.198 A 
ATOM     89  C   UNL     1      -7.011 -11.705  11.133  1.00  0.00     0.198 A 
ATOM     90  F   UNL     1      -4.750 -12.169  11.584  1.00  0.00    -0.203 F 
ATOM     91  F   UNL     1      -8.565  -8.866   9.508  1.00  0.00    -0.200 F 
ATOM     92  C   UNL     1      -7.987 -10.867  10.616  1.00  0.00     0.200 A 
ATOM     93  F   UNL     1      -7.356 -12.879  11.681  1.00  0.00    -0.200 F 
ATOM     94  F   UNL     1      -9.278 -11.220  10.683  1.00  0.00    -0.200 F 
ENDBRANCH  61  84
ENDBRANCH  35  36
ENDBRANCH  27  30
ENDBRANCH  25  26
ENDBRANCH  24  25
ENDBRANCH   1  24
TORSDOF 16
