REMARK SMILES Cc1c(CC(=O)N[C@H](CO)C(=O)NCCCNC(=O)c2ccc(-c3c4nc(c(-c5c(F)c(F)c(F)c(F)c5F)c5ccc([nH]5)c(-c5c(F)c(F)c(F)c(F)c5F)c5nc(c(-c6c(F)c(F)c(F)c(F)c6F)c6ccc3[nH]6)C=C5)C=C4)cc2)cc(-c2ccc(S(C)(=O)=O)cc2)n1-c1ccc(F)cc1
REMARK SMILES IDX 11 1 12 2 13 3 8 5 7 6 5 7 6 8 4 10 3 11 1 12 2 13 95 14
REMARK SMILES IDX 83 15 84 16 96 17 97 18 102 19 98 20 101 21 99 22 100 23
REMARK SMILES IDX 85 24 86 25 94 26 87 27 93 28 88 29 89 30 90 31 91 32 92 33
REMARK SMILES IDX 9 34 10 35 14 37 15 38 16 39 17 40 18 41 19 43 20 44 21 45
REMARK SMILES IDX 82 46 22 47 81 48 23 49 24 50 25 51 75 52 26 53 80 54 74 55
REMARK SMILES IDX 76 56 27 57 79 58 73 59 72 60 28 62 60 63 40 64 59 65 41 66
REMARK SMILES IDX 44 67 58 68 77 69 42 70 43 71 57 73 78 74 45 75 29 76 30 77
REMARK SMILES IDX 38 78 31 79 32 80 36 81 39 82 33 83 34 84 37 85 35 86 61 87
REMARK SMILES IDX 62 88 70 89 63 90 64 91 68 92 71 93 65 94 66 95 69 96 67 97
REMARK SMILES IDX 46 98 47 99 55 100 48 101 49 102 53 103 56 104 50 105 51 106
REMARK SMILES IDX 54 107 52 108
REMARK H PARENT 13 4 7 9 10 36 17 42 76 61 44 72
REMARK Flexibility Score: inf
ROOT
ATOM      1  C   UNL     1       3.726  -3.394  -3.068  1.00  0.00     0.244 C 
ATOM      2  O   UNL     1       3.043  -4.393  -2.809  1.00  0.00    -0.273 OA
ATOM      3  N   UNL     1       5.068  -3.574  -3.127  1.00  0.00    -0.354 N 
ATOM      4  H   UNL     1       5.297  -4.435  -3.546  1.00  0.00     0.163 HD
ENDROOT
BRANCH   1   5
ATOM      5  C   UNL     1       2.996  -2.063  -3.147  1.00  0.00     0.197 C 
BRANCH   5   6
ATOM      6  N   UNL     1       3.747  -1.093  -3.923  1.00  0.00    -0.342 N 
ATOM      7  C   UNL     1       4.003  -1.067  -5.265  1.00  0.00     0.225 C 
ATOM      8  O   UNL     1       4.748  -0.155  -5.645  1.00  0.00    -0.275 OA
ATOM      9  H   UNL     1       4.128  -0.345  -3.407  1.00  0.00     0.164 HD
BRANCH   7  10
ATOM     10  C   UNL     1       3.346  -1.993  -6.300  1.00  0.00     0.137 C 
BRANCH  10  11
ATOM     11  C   UNL     1       3.451  -3.490  -6.130  1.00  0.00    -0.017 A 
ATOM     12  C   UNL     1       5.994  -3.983  -6.405  1.00  0.00     0.065 C 
ATOM     13  C   UNL     1       4.570  -4.329  -6.118  1.00  0.00     0.024 A 
ATOM     14  N   UNL     1       4.145  -5.605  -5.721  1.00  0.00    -0.314 N 
ATOM     15  C   UNL     1       2.321  -4.356  -6.045  1.00  0.00     0.033 A 
ATOM     16  C   UNL     1       2.753  -5.629  -5.731  1.00  0.00     0.053 A 
BRANCH  14  17
ATOM     17  C   UNL     1       4.931  -6.666  -5.173  1.00  0.00     0.046 A 
ATOM     18  C   UNL     1       5.269  -7.758  -5.970  1.00  0.00     0.029 A 
ATOM     19  C   UNL     1       5.024  -6.795  -3.775  1.00  0.00     0.029 A 
ATOM     20  C   UNL     1       5.711  -8.942  -5.360  1.00  0.00     0.041 A 
ATOM     21  C   UNL     1       5.491  -7.956  -3.172  1.00  0.00     0.041 A 
ATOM     22  C   UNL     1       5.807  -9.032  -3.974  1.00  0.00     0.123 A 
ATOM     23  F   UNL     1       6.168 -10.185  -3.400  1.00  0.00    -0.207 F 
ENDBRANCH  14  17
BRANCH  16  24
ATOM     24  C   UNL     1       1.952  -6.779  -5.299  1.00  0.00    -0.001 A 
ATOM     25  C   UNL     1       1.899  -7.114  -3.938  1.00  0.00     0.011 A 
ATOM     26  C   UNL     1       1.234  -7.555  -6.210  1.00  0.00     0.011 A 
ATOM     27  C   UNL     1       1.199  -8.221  -3.482  1.00  0.00     0.021 A 
ATOM     28  C   UNL     1       0.499  -8.661  -5.760  1.00  0.00     0.021 A 
ATOM     29  C   UNL     1       0.499  -8.992  -4.400  1.00  0.00     0.067 A 
BRANCH  29  30
ATOM     30  S   UNL     1      -0.462 -10.347  -3.784  1.00  0.00     0.175 S 
ATOM     31  C   UNL     1       0.743 -11.488  -3.156  1.00  0.00     0.163 C 
ATOM     32  O   UNL     1      -1.229  -9.840  -2.660  1.00  0.00    -0.224 OA
ATOM     33  O   UNL     1      -1.118 -10.973  -4.916  1.00  0.00    -0.224 OA
ENDBRANCH  29  30
ENDBRANCH  16  24
ENDBRANCH  10  11
ENDBRANCH   7  10
ENDBRANCH   5   6
BRANCH   5  34
ATOM     34  C   UNL     1       2.704  -1.677  -1.685  1.00  0.00     0.191 C 
BRANCH  34  35
ATOM     35  O   UNL     1       1.891  -2.643  -1.004  1.00  0.00    -0.394 OA
ATOM     36  H   UNL     1       1.031  -2.710  -1.447  1.00  0.00     0.210 HD
ENDBRANCH  34  35
ENDBRANCH   5  34
ENDBRANCH   1   5
BRANCH   3  37
ATOM     37  C   UNL     1       6.254  -2.843  -2.742  1.00  0.00     0.117 C 
BRANCH  37  38
ATOM     38  C   UNL     1       7.314  -3.753  -1.992  1.00  0.00     0.042 C 
BRANCH  38  39
ATOM     39  C   UNL     1       7.567  -5.247  -2.450  1.00  0.00     0.118 C 
BRANCH  39  40
ATOM     40  N   UNL     1       8.965  -5.764  -2.376  1.00  0.00    -0.352 N 
ATOM     41  C   UNL     1       9.661  -6.942  -2.040  1.00  0.00     0.251 C 
ATOM     42  H   UNL     1       9.600  -5.061  -2.645  1.00  0.00     0.163 HD
ATOM     43  O   UNL     1      10.794  -7.006  -2.540  1.00  0.00    -0.269 OA
BRANCH  41  44
ATOM     44  C   UNL     1       9.273  -8.131  -1.131  1.00  0.00     0.039 A 
ATOM     45  C   UNL     1      10.061  -8.514  -0.013  1.00  0.00     0.014 A 
ATOM     46  C   UNL     1       8.571  -9.226  -1.587  1.00  0.00     0.014 A 
ATOM     47  C   UNL     1       9.962  -9.819   0.765  1.00  0.00     0.010 A 
ATOM     48  C   UNL     1       8.519 -10.514  -0.838  1.00  0.00     0.010 A 
ATOM     49  C   UNL     1       9.078 -10.899   0.480  1.00  0.00    -0.014 A 
BRANCH  49  50
ATOM     50  C   UNL     1       9.443 -12.594   1.016  1.00  0.00     0.031 A 
ATOM     51  C   UNL     1      10.778 -12.691   0.311  1.00  0.00     0.074 A 
ATOM     52  C   UNL     1       9.002 -13.942   1.568  1.00  0.00     0.049 A 
ATOM     53  N   UNL     1      10.776 -12.306  -0.932  1.00  0.00    -0.248 NA
ATOM     54  C   UNL     1      11.813 -13.653   0.601  1.00  0.00     0.031 C 
ATOM     55  C   UNL     1       9.637 -15.268   1.122  1.00  0.00     0.029 A 
ATOM     56  N   UNL     1       7.929 -14.648   2.338  1.00  0.00    -0.354 N 
ATOM     57  C   UNL     1      10.842 -13.523  -1.532  1.00  0.00     0.074 A 
ATOM     58  C   UNL     1      11.755 -14.248  -0.605  1.00  0.00     0.031 C 
ATOM     59  C   UNL     1       9.193 -16.420   1.661  1.00  0.00     0.029 A 
ATOM     60  C   UNL     1       8.054 -16.174   2.523  1.00  0.00     0.049 A 
ATOM     61  H   UNL     1       7.167 -14.153   2.715  1.00  0.00     0.167 HD
ATOM     62  C   UNL     1       9.690 -13.910  -2.181  1.00  0.00     0.037 A 
ATOM     63  C   UNL     1       7.426 -17.360   3.049  1.00  0.00     0.037 A 
ATOM     64  C   UNL     1       8.287 -13.931  -1.607  1.00  0.00     0.049 A 
ATOM     65  C   UNL     1       6.296 -17.061   2.063  1.00  0.00     0.074 A 
ATOM     66  C   UNL     1       7.357 -13.229  -0.827  1.00  0.00     0.029 A 
ATOM     67  N   UNL     1       7.436 -14.912  -2.083  1.00  0.00    -0.354 N 
ATOM     68  N   UNL     1       6.082 -17.677   0.934  1.00  0.00    -0.248 NA
ATOM     69  C   UNL     1       5.364 -15.975   2.383  1.00  0.00     0.031 C 
ATOM     70  C   UNL     1       6.122 -13.885  -0.680  1.00  0.00     0.029 A 
ATOM     71  C   UNL     1       6.350 -15.104  -1.238  1.00  0.00     0.049 A 
ATOM     72  H   UNL     1       7.581 -15.413  -2.918  1.00  0.00     0.167 HD
ATOM     73  C   UNL     1       5.368 -16.727   0.221  1.00  0.00     0.074 A 
ATOM     74  C   UNL     1       4.796 -15.814   1.198  1.00  0.00     0.031 C 
ATOM     75  C   UNL     1       5.859 -16.425  -1.010  1.00  0.00     0.037 A 
BRANCH  62  76
ATOM     76  C   UNL     1       9.876 -13.491  -3.628  1.00  0.00     0.064 A 
ATOM     77  C   UNL     1      11.157 -13.424  -4.230  1.00  0.00     0.173 A 
ATOM     78  C   UNL     1       8.785 -13.171  -4.453  1.00  0.00     0.173 A 
ATOM     79  F   UNL     1      12.277 -13.707  -3.542  1.00  0.00    -0.203 F 
ATOM     80  C   UNL     1      11.323 -13.088  -5.564  1.00  0.00     0.198 A 
ATOM     81  C   UNL     1       8.954 -12.890  -5.802  1.00  0.00     0.198 A 
ATOM     82  F   UNL     1       7.527 -13.143  -3.994  1.00  0.00    -0.203 F 
ATOM     83  F   UNL     1      12.556 -13.034  -6.085  1.00  0.00    -0.200 F 
ATOM     84  C   UNL     1      10.219 -12.853  -6.358  1.00  0.00     0.200 A 
ATOM     85  F   UNL     1       7.874 -12.687  -6.568  1.00  0.00    -0.200 F 
ATOM     86  F   UNL     1      10.369 -12.618  -7.666  1.00  0.00    -0.200 F 
ENDBRANCH  62  76
BRANCH  63  87
ATOM     87  C   UNL     1       6.573 -18.561   3.788  1.00  0.00     0.064 A 
ATOM     88  C   UNL     1       7.045 -19.914   3.882  1.00  0.00     0.173 A 
ATOM     89  C   UNL     1       5.288 -18.430   4.392  1.00  0.00     0.173 A 
ATOM     90  F   UNL     1       8.190 -20.276   3.284  1.00  0.00    -0.203 F 
ATOM     91  C   UNL     1       6.348 -20.959   4.583  1.00  0.00     0.198 A 
ATOM     92  C   UNL     1       4.591 -19.468   5.062  1.00  0.00     0.198 A 
ATOM     93  F   UNL     1       4.621 -17.275   4.352  1.00  0.00    -0.203 F 
ATOM     94  F   UNL     1       6.860 -22.201   4.662  1.00  0.00    -0.200 F 
ATOM     95  C   UNL     1       5.133 -20.723   5.196  1.00  0.00     0.200 A 
ATOM     96  F   UNL     1       3.378 -19.219   5.582  1.00  0.00    -0.200 F 
ATOM     97  F   UNL     1       4.492 -21.675   5.895  1.00  0.00    -0.200 F 
ENDBRANCH  63  87
BRANCH  75  98
ATOM     98  C   UNL     1       6.332 -17.567  -1.824  1.00  0.00     0.064 A 
ATOM     99  C   UNL     1       5.369 -18.350  -2.454  1.00  0.00     0.173 A 
ATOM    100  C   UNL     1       7.685 -17.783  -2.132  1.00  0.00     0.173 A 
ATOM    101  F   UNL     1       4.068 -18.180  -2.170  1.00  0.00    -0.203 F 
ATOM    102  C   UNL     1       5.742 -19.254  -3.437  1.00  0.00     0.198 A 
ATOM    103  C   UNL     1       8.046 -18.627  -3.166  1.00  0.00     0.198 A 
ATOM    104  F   UNL     1       8.659 -17.071  -1.542  1.00  0.00    -0.203 F 
ATOM    105  F   UNL     1       4.803 -19.974  -4.061  1.00  0.00    -0.200 F 
ATOM    106  C   UNL     1       7.073 -19.362  -3.818  1.00  0.00     0.200 A 
ATOM    107  F   UNL     1       9.321 -18.659  -3.577  1.00  0.00    -0.200 F 
ATOM    108  F   UNL     1       7.417 -20.156  -4.839  1.00  0.00    -0.200 F 
ENDBRANCH  75  98
ENDBRANCH  49  50
ENDBRANCH  41  44
ENDBRANCH  39  40
ENDBRANCH  38  39
ENDBRANCH  37  38
ENDBRANCH   3  37
TORSDOF 18
