REMARK SMILES CCC1C[NH+]([C@H](C(=O)NCCCNC(=O)c2ccc(-c3c4nc(c(-c5c(F)c(F)c(F)c(F)c5F)c5ccc([nH]5)c(-c5c(F)c(F)c(F)c(F)c5F)c5nc(c(-c6c(F)c(F)c(F)c(F)c6F)c6ccc3[nH]6)C=C5)C=C4)cc2)C(C)C)C1
REMARK SMILES IDX 11 1 10 2 9 3 7 4 8 5 6 7 5 8 3 9 4 10 82 11 2 13 1 14 79 15
REMARK SMILES IDX 80 16 81 17 12 18 13 19 14 20 15 22 16 23 17 24 78 25 18 26
REMARK SMILES IDX 77 27 19 28 20 29 21 30 71 31 22 32 76 33 70 34 72 35 23 36
REMARK SMILES IDX 75 37 69 38 68 39 24 41 56 42 36 43 55 44 37 45 40 46 54 47
REMARK SMILES IDX 73 48 38 49 39 50 53 52 74 53 41 54 25 55 26 56 34 57 27 58
REMARK SMILES IDX 28 59 32 60 35 61 29 62 30 63 33 64 31 65 57 66 58 67 66 68
REMARK SMILES IDX 59 69 60 70 64 71 67 72 61 73 62 74 65 75 63 76 42 77 43 78
REMARK SMILES IDX 51 79 44 80 45 81 49 82 52 83 46 84 47 85 50 86 48 87
REMARK H PARENT 9 6 5 12 13 21 72 40 40 51
REMARK Flexibility Score: inf
ROOT
ATOM      1  C   UNL     1       1.178  -3.093  -0.378  1.00  0.00     0.042 C 
ENDROOT
BRANCH   1   2
ATOM      2  C   UNL     1       0.393  -2.431   0.755  1.00  0.00     0.118 C 
BRANCH   2   3
ATOM      3  N   UNL     1       0.008  -3.401   1.755  1.00  0.00    -0.351 N 
ATOM      4  C   UNL     1       0.536  -3.947   2.865  1.00  0.00     0.278 C 
ATOM      5  O   UNL     1      -0.049  -5.011   3.154  1.00  0.00    -0.268 OA
ATOM      6  H   UNL     1      -0.890  -3.761   1.574  1.00  0.00     0.163 HD
BRANCH   4   7
ATOM      7  C   UNL     1       1.624  -3.453   3.853  1.00  0.00     0.276 C 
BRANCH   7   8
ATOM      8  N   UNL     1       2.800  -2.662   3.468  1.00  0.00    -0.324 N 
ATOM      9  C   UNL     1       3.800  -1.425   2.113  1.00  0.00     0.099 C 
ATOM     10  C   UNL     1       2.667  -1.245   3.174  1.00  0.00     0.272 C 
ATOM     11  C   UNL     1       3.491  -2.956   2.232  1.00  0.00     0.272 C 
ATOM     12  H   UNL     1       3.257  -2.918   4.343  1.00  0.00     0.348 HD
BRANCH   9  13
ATOM     13  C   UNL     1       3.657  -0.721   0.769  1.00  0.00     0.012 C 
ATOM     14  C   UNL     1       4.203   0.696   0.830  1.00  0.00     0.004 C 
ENDBRANCH   9  13
ENDBRANCH   7   8
BRANCH   7  15
ATOM     15  C   UNL     1       1.041  -2.893   5.194  1.00  0.00     0.051 C 
ATOM     16  C   UNL     1      -0.210  -3.620   5.702  1.00  0.00     0.014 C 
ATOM     17  C   UNL     1       2.105  -2.962   6.308  1.00  0.00     0.014 C 
ENDBRANCH   7  15
ENDBRANCH   4   7
ENDBRANCH   2   3
ENDBRANCH   1   2
BRANCH   1  18
ATOM     18  C   UNL     1       0.697  -2.736  -1.772  1.00  0.00     0.118 C 
BRANCH  18  19
ATOM     19  N   UNL     1       0.850  -1.325  -2.096  1.00  0.00    -0.352 N 
ATOM     20  C   UNL     1       1.448  -0.715  -3.175  1.00  0.00     0.251 C 
ATOM     21  H   UNL     1       0.463  -0.706  -1.435  1.00  0.00     0.163 HD
ATOM     22  O   UNL     1       1.542   0.510  -3.196  1.00  0.00    -0.269 OA
BRANCH  20  23
ATOM     23  C   UNL     1       2.023  -1.513  -4.285  1.00  0.00     0.039 A 
ATOM     24  C   UNL     1       3.220  -1.087  -4.871  1.00  0.00     0.014 A 
ATOM     25  C   UNL     1       1.412  -2.680  -4.742  1.00  0.00     0.014 A 
ATOM     26  C   UNL     1       3.850  -1.883  -5.832  1.00  0.00     0.010 A 
ATOM     27  C   UNL     1       2.092  -3.525  -5.613  1.00  0.00     0.010 A 
ATOM     28  C   UNL     1       3.322  -3.139  -6.166  1.00  0.00    -0.014 A 
BRANCH  28  29
ATOM     29  C   UNL     1       4.030  -4.078  -7.075  1.00  0.00     0.031 A 
ATOM     30  C   UNL     1       3.355  -4.559  -8.331  1.00  0.00     0.074 A 
ATOM     31  C   UNL     1       5.227  -4.583  -6.716  1.00  0.00     0.049 A 
ATOM     32  N   UNL     1       3.727  -5.497  -9.166  1.00  0.00    -0.248 NA
ATOM     33  C   UNL     1       2.067  -3.932  -8.669  1.00  0.00     0.031 C 
ATOM     34  C   UNL     1       5.959  -4.242  -5.494  1.00  0.00     0.029 A 
ATOM     35  N   UNL     1       6.030  -5.511  -7.332  1.00  0.00    -0.354 N 
ATOM     36  C   UNL     1       2.705  -5.594 -10.101  1.00  0.00     0.074 A 
ATOM     37  C   UNL     1       1.676  -4.658  -9.706  1.00  0.00     0.031 C 
ATOM     38  C   UNL     1       7.109  -4.935  -5.460  1.00  0.00     0.029 A 
ATOM     39  C   UNL     1       7.175  -5.804  -6.629  1.00  0.00     0.049 A 
ATOM     40  H   UNL     1       5.808  -5.927  -8.196  1.00  0.00     0.167 HD
ATOM     41  C   UNL     1       2.642  -6.378 -11.204  1.00  0.00     0.037 A 
ATOM     42  C   UNL     1       8.157  -6.688  -6.889  1.00  0.00     0.037 A 
ATOM     43  C   UNL     1       3.693  -7.266 -11.622  1.00  0.00     0.049 A 
ATOM     44  C   UNL     1       8.072  -7.532  -8.131  1.00  0.00     0.074 A 
ATOM     45  C   UNL     1       3.770  -8.029 -12.774  1.00  0.00     0.029 A 
ATOM     46  N   UNL     1       4.854  -7.506 -10.902  1.00  0.00    -0.354 N 
ATOM     47  N   UNL     1       7.135  -7.562  -9.047  1.00  0.00    -0.248 NA
ATOM     48  C   UNL     1       9.181  -8.466  -8.376  1.00  0.00     0.031 C 
ATOM     49  C   UNL     1       4.960  -8.764 -12.731  1.00  0.00     0.029 A 
ATOM     50  C   UNL     1       5.643  -8.426 -11.573  1.00  0.00     0.049 A 
ATOM     51  H   UNL     1       5.084  -7.086 -10.042  1.00  0.00     0.167 HD
ATOM     52  C   UNL     1       7.546  -8.501  -9.983  1.00  0.00     0.074 A 
ATOM     53  C   UNL     1       8.828  -9.005  -9.535  1.00  0.00     0.031 C 
ATOM     54  C   UNL     1       6.918  -8.912 -11.111  1.00  0.00     0.037 A 
BRANCH  41  55
ATOM     55  C   UNL     1       1.400  -6.301 -12.044  1.00  0.00     0.064 A 
ATOM     56  C   UNL     1       1.096  -5.164 -12.808  1.00  0.00     0.173 A 
ATOM     57  C   UNL     1       0.522  -7.393 -12.116  1.00  0.00     0.173 A 
ATOM     58  F   UNL     1       1.897  -4.089 -12.767  1.00  0.00    -0.203 F 
ATOM     59  C   UNL     1      -0.057  -5.111 -13.588  1.00  0.00     0.198 A 
ATOM     60  C   UNL     1      -0.614  -7.348 -12.920  1.00  0.00     0.198 A 
ATOM     61  F   UNL     1       0.768  -8.507 -11.410  1.00  0.00    -0.203 F 
ATOM     62  F   UNL     1      -0.352  -3.995 -14.268  1.00  0.00    -0.200 F 
ATOM     63  C   UNL     1      -0.906  -6.205 -13.649  1.00  0.00     0.200 A 
ATOM     64  F   UNL     1      -1.428  -8.411 -12.988  1.00  0.00    -0.200 F 
ATOM     65  F   UNL     1      -2.012  -6.155 -14.405  1.00  0.00    -0.200 F 
ENDBRANCH  41  55
BRANCH  42  66
ATOM     66  C   UNL     1       9.312  -6.810  -5.961  1.00  0.00     0.064 A 
ATOM     67  C   UNL     1      10.587  -6.367  -6.339  1.00  0.00     0.173 A 
ATOM     68  C   UNL     1       9.168  -7.368  -4.682  1.00  0.00     0.173 A 
ATOM     69  F   UNL     1      10.778  -5.846  -7.560  1.00  0.00    -0.203 F 
ATOM     70  C   UNL     1      11.678  -6.493  -5.481  1.00  0.00     0.198 A 
ATOM     71  C   UNL     1      10.254  -7.468  -3.814  1.00  0.00     0.198 A 
ATOM     72  F   UNL     1       7.969  -7.803  -4.269  1.00  0.00    -0.203 F 
ATOM     73  F   UNL     1      12.893  -6.100  -5.885  1.00  0.00    -0.200 F 
ATOM     74  C   UNL     1      11.509  -7.038  -4.217  1.00  0.00     0.200 A 
ATOM     75  F   UNL     1      10.085  -7.983  -2.589  1.00  0.00    -0.200 F 
ATOM     76  F   UNL     1      12.558  -7.154  -3.391  1.00  0.00    -0.200 F 
ENDBRANCH  42  66
BRANCH  54  77
ATOM     77  C   UNL     1       7.612  -9.943 -11.949  1.00  0.00     0.064 A 
ATOM     78  C   UNL     1       7.683 -11.284 -11.547  1.00  0.00     0.173 A 
ATOM     79  C   UNL     1       8.163  -9.596 -13.192  1.00  0.00     0.173 A 
ATOM     80  F   UNL     1       7.185 -11.661 -10.360  1.00  0.00    -0.203 F 
ATOM     81  C   UNL     1       8.293 -12.240 -12.355  1.00  0.00     0.198 A 
ATOM     82  C   UNL     1       8.748 -10.559 -14.008  1.00  0.00     0.198 A 
ATOM     83  F   UNL     1       8.116  -8.326 -13.622  1.00  0.00    -0.203 F 
ATOM     84  F   UNL     1       8.382 -13.510 -11.936  1.00  0.00    -0.200 F 
ATOM     85  C   UNL     1       8.817 -11.878 -13.587  1.00  0.00     0.200 A 
ATOM     86  F   UNL     1       9.242 -10.211 -15.204  1.00  0.00    -0.200 F 
ATOM     87  F   UNL     1       9.393 -12.802 -14.369  1.00  0.00    -0.200 F 
ENDBRANCH  54  77
ENDBRANCH  28  29
ENDBRANCH  20  23
ENDBRANCH  18  19
ENDBRANCH   1  18
TORSDOF 13
