REMARK SMILES C[C@H](Cc1cccs1)N(C)C(=O)N1CC[C@@H](CC(=O)NCCCNC(=O)c2ccc(-c3c4nc(c(-c5c(F)c(F)c(F)c(F)c5F)c5ccc([nH]5)c(-c5c(F)c(F)c(F)c(F)c5F)c5nc(c(-c6c(F)c(F)c(F)c(F)c6F)c6ccc3[nH]6)C=C5)C=C4)cc2)C1
REMARK SMILES IDX 18 1 19 2 20 3 17 5 16 6 13 7 14 8 90 9 15 10 11 11 12 12
REMARK SMILES IDX 9 13 10 14 2 15 1 16 3 17 4 18 5 19 8 20 6 21 7 22 21 23
REMARK SMILES IDX 22 24 23 25 24 26 25 27 26 29 27 30 28 31 89 32 29 33 88 34
REMARK SMILES IDX 30 35 31 36 32 37 82 38 33 39 87 40 81 41 83 42 34 43 86 44
REMARK SMILES IDX 80 45 79 46 35 48 67 49 47 50 66 51 48 52 51 53 65 54 84 55
REMARK SMILES IDX 49 56 50 57 64 59 85 60 52 61 36 62 37 63 45 64 38 65 39 66
REMARK SMILES IDX 43 67 46 68 40 69 41 70 44 71 42 72 68 73 69 74 77 75 70 76
REMARK SMILES IDX 71 77 75 78 78 79 72 80 73 81 76 82 74 83 53 84 54 85 62 86
REMARK SMILES IDX 55 87 56 88 60 89 63 90 57 91 58 92 61 93 59 94
REMARK H PARENT 20 4 24 28 83 47 51 58
REMARK Flexibility Score: inf
ROOT
ATOM      1  C   UNL     1      -5.974   3.505   0.301  1.00  0.00     0.220 C 
ATOM      2  O   UNL     1      -6.026   3.975  -0.835  1.00  0.00    -0.275 OA
ATOM      3  N   UNL     1      -5.503   4.280   1.319  1.00  0.00    -0.356 N 
ATOM      4  H   UNL     1      -5.370   5.230   1.096  1.00  0.00     0.163 HD
ENDROOT
BRANCH   1   5
ATOM      5  C   UNL     1      -6.439   2.091   0.583  1.00  0.00     0.105 C 
BRANCH   5   6
ATOM      6  C   UNL     1      -5.502   0.949   0.158  1.00  0.00     0.020 C 
ATOM      7  N   UNL     1      -3.235   0.628   0.903  1.00  0.00    -0.324 N 
ATOM      8  C   UNL     1      -4.097   0.064   1.925  1.00  0.00     0.122 C 
ATOM      9  C   UNL     1      -4.035   1.285  -0.127  1.00  0.00     0.125 C 
ATOM     10  C   UNL     1      -5.423  -0.162   1.217  1.00  0.00     0.027 C 
BRANCH   7  11
ATOM     11  C   UNL     1      -1.901   0.969   1.004  1.00  0.00     0.320 C 
ATOM     12  O   UNL     1      -1.536   2.073   0.594  1.00  0.00    -0.248 OA
BRANCH  11  13
ATOM     13  N   UNL     1      -0.991   0.025   1.459  1.00  0.00    -0.325 N 
ATOM     14  C   UNL     1      -1.350  -1.319   1.882  1.00  0.00     0.149 C 
BRANCH  13  15
ATOM     15  C   UNL     1       0.466   0.252   1.245  1.00  0.00     0.088 C 
ATOM     16  C   UNL     1       1.004   1.615   1.694  1.00  0.00     0.031 C 
BRANCH  15  17
ATOM     17  C   UNL     1       0.960  -0.172  -0.166  1.00  0.00     0.071 C 
BRANCH  17  18
ATOM     18  C   UNL     1       0.403   0.594  -1.336  1.00  0.00     0.007 A 
ATOM     19  C   UNL     1      -0.823   0.436  -1.957  1.00  0.00     0.015 A 
ATOM     20  S   UNL     1       1.340   1.796  -2.122  1.00  0.00    -0.149 S 
ATOM     21  C   UNL     1      -1.031   1.371  -3.009  1.00  0.00     0.012 A 
ATOM     22  C   UNL     1       0.078   2.158  -3.219  1.00  0.00     0.065 A 
ENDBRANCH  17  18
ENDBRANCH  15  17
ENDBRANCH  13  15
ENDBRANCH  11  13
ENDBRANCH   7  11
ENDBRANCH   5   6
ENDBRANCH   1   5
BRANCH   3  23
ATOM     23  C   UNL     1      -5.169   3.911   2.686  1.00  0.00     0.117 C 
BRANCH  23  24
ATOM     24  C   UNL     1      -3.686   3.599   2.824  1.00  0.00     0.042 C 
BRANCH  24  25
ATOM     25  C   UNL     1      -2.788   4.824   2.889  1.00  0.00     0.118 C 
BRANCH  25  26
ATOM     26  N   UNL     1      -2.760   5.383   4.230  1.00  0.00    -0.352 N 
ATOM     27  C   UNL     1      -1.741   5.459   5.146  1.00  0.00     0.251 C 
ATOM     28  H   UNL     1      -3.613   5.772   4.532  1.00  0.00     0.163 HD
ATOM     29  O   UNL     1      -2.024   5.722   6.313  1.00  0.00    -0.269 OA
BRANCH  27  30
ATOM     30  C   UNL     1      -0.317   5.239   4.776  1.00  0.00     0.039 A 
ATOM     31  C   UNL     1       0.547   4.740   5.760  1.00  0.00     0.014 A 
ATOM     32  C   UNL     1       0.209   5.604   3.535  1.00  0.00     0.014 A 
ATOM     33  C   UNL     1       1.913   4.596   5.497  1.00  0.00     0.010 A 
ATOM     34  C   UNL     1       1.558   5.380   3.243  1.00  0.00     0.010 A 
ATOM     35  C   UNL     1       2.432   4.901   4.229  1.00  0.00    -0.014 A 
BRANCH  35  36
ATOM     36  C   UNL     1       3.885   4.762   3.943  1.00  0.00     0.031 A 
ATOM     37  C   UNL     1       4.721   5.974   3.620  1.00  0.00     0.074 A 
ATOM     38  C   UNL     1       4.456   3.542   3.947  1.00  0.00     0.049 A 
ATOM     39  N   UNL     1       5.998   6.049   3.334  1.00  0.00    -0.248 NA
ATOM     40  C   UNL     1       4.028   7.271   3.600  1.00  0.00     0.031 C 
ATOM     41  C   UNL     1       3.758   2.284   4.209  1.00  0.00     0.029 A 
ATOM     42  N   UNL     1       5.755   3.160   3.714  1.00  0.00    -0.354 N 
ATOM     43  C   UNL     1       6.255   7.392   3.091  1.00  0.00     0.074 A 
ATOM     44  C   UNL     1       4.993   8.091   3.210  1.00  0.00     0.031 C 
ATOM     45  C   UNL     1       4.635   1.270   4.132  1.00  0.00     0.029 A 
ATOM     46  C   UNL     1       5.952   1.803   3.794  1.00  0.00     0.049 A 
ATOM     47  H   UNL     1       6.476   3.798   3.510  1.00  0.00     0.167 HD
ATOM     48  C   UNL     1       7.438   7.996   2.820  1.00  0.00     0.037 A 
ATOM     49  C   UNL     1       7.067   1.070   3.615  1.00  0.00     0.037 A 
ATOM     50  C   UNL     1       8.700   7.309   2.727  1.00  0.00     0.049 A 
ATOM     51  C   UNL     1       8.368   1.762   3.316  1.00  0.00     0.074 A 
ATOM     52  C   UNL     1       9.960   7.841   2.518  1.00  0.00     0.029 A 
ATOM     53  N   UNL     1       8.860   5.936   2.836  1.00  0.00    -0.354 N 
ATOM     54  N   UNL     1       8.611   3.041   3.167  1.00  0.00    -0.248 NA
ATOM     55  C   UNL     1       9.557   0.907   3.180  1.00  0.00     0.031 C 
ATOM     56  C   UNL     1      10.878   6.787   2.461  1.00  0.00     0.029 A 
ATOM     57  C   UNL     1      10.197   5.602   2.683  1.00  0.00     0.049 A 
ATOM     58  H   UNL     1       8.132   5.293   2.999  1.00  0.00     0.167 HD
ATOM     59  C   UNL     1       9.979   3.149   2.958  1.00  0.00     0.074 A 
ATOM     60  C   UNL     1      10.516   1.806   3.007  1.00  0.00     0.031 C 
ATOM     61  C   UNL     1      10.722   4.263   2.749  1.00  0.00     0.037 A 
BRANCH  48  62
ATOM     62  C   UNL     1       7.428   9.484   2.616  1.00  0.00     0.064 A 
ATOM     63  C   UNL     1       7.207  10.369   3.683  1.00  0.00     0.173 A 
ATOM     64  C   UNL     1       7.685  10.033   1.351  1.00  0.00     0.173 A 
ATOM     65  F   UNL     1       6.949   9.895   4.911  1.00  0.00    -0.203 F 
ATOM     66  C   UNL     1       7.215  11.747   3.485  1.00  0.00     0.198 A 
ATOM     67  C   UNL     1       7.721  11.413   1.162  1.00  0.00     0.198 A 
ATOM     68  F   UNL     1       7.912   9.233   0.299  1.00  0.00    -0.203 F 
ATOM     69  F   UNL     1       6.958  12.571   4.509  1.00  0.00    -0.200 F 
ATOM     70  C   UNL     1       7.479  12.268   2.227  1.00  0.00     0.200 A 
ATOM     71  F   UNL     1       7.991  11.915  -0.051  1.00  0.00    -0.200 F 
ATOM     72  F   UNL     1       7.495  13.595   2.039  1.00  0.00    -0.200 F 
ENDBRANCH  48  62
BRANCH  49  73
ATOM     73  C   UNL     1       7.007  -0.407   3.759  1.00  0.00     0.064 A 
ATOM     74  C   UNL     1       7.598  -1.048   4.856  1.00  0.00     0.173 A 
ATOM     75  C   UNL     1       6.357  -1.206   2.807  1.00  0.00     0.173 A 
ATOM     76  F   UNL     1       8.246  -0.327   5.783  1.00  0.00    -0.203 F 
ATOM     77  C   UNL     1       7.559  -2.435   4.986  1.00  0.00     0.198 A 
ATOM     78  C   UNL     1       6.295  -2.590   2.952  1.00  0.00     0.198 A 
ATOM     79  F   UNL     1       5.766  -0.640   1.744  1.00  0.00    -0.203 F 
ATOM     80  F   UNL     1       8.166  -3.025   6.024  1.00  0.00    -0.200 F 
ATOM     81  C   UNL     1       6.903  -3.204   4.037  1.00  0.00     0.200 A 
ATOM     82  F   UNL     1       5.645  -3.328   2.042  1.00  0.00    -0.200 F 
ATOM     83  F   UNL     1       6.859  -4.537   4.166  1.00  0.00    -0.200 F 
ENDBRANCH  49  73
BRANCH  61  84
ATOM     84  C   UNL     1      12.205   4.084   2.607  1.00  0.00     0.064 A 
ATOM     85  C   UNL     1      12.774   3.513   1.459  1.00  0.00     0.173 A 
ATOM     86  C   UNL     1      13.071   4.517   3.623  1.00  0.00     0.173 A 
ATOM     87  F   UNL     1      11.989   3.068   0.467  1.00  0.00    -0.203 F 
ATOM     88  C   UNL     1      14.153   3.357   1.346  1.00  0.00     0.198 A 
ATOM     89  C   UNL     1      14.450   4.386   3.495  1.00  0.00     0.198 A 
ATOM     90  F   UNL     1      12.578   5.075   4.739  1.00  0.00    -0.203 F 
ATOM     91  F   UNL     1      14.672   2.764   0.262  1.00  0.00    -0.200 F 
ATOM     92  C   UNL     1      14.990   3.799   2.360  1.00  0.00     0.200 A 
ATOM     93  F   UNL     1      15.258   4.824   4.471  1.00  0.00    -0.200 F 
ATOM     94  F   UNL     1      16.317   3.651   2.248  1.00  0.00    -0.200 F 
ENDBRANCH  61  84
ENDBRANCH  35  36
ENDBRANCH  27  30
ENDBRANCH  25  26
ENDBRANCH  24  25
ENDBRANCH  23  24
ENDBRANCH   3  23
TORSDOF 16
