REMARK SMILES CN1C(=O)CC[C@H]([NH2+]Cc2ccc(C(=O)NCCCNC(=O)c3ccc(-c4c5nc(c(-c6c(F)c(F)c(F)c(F)c6F)c6ccc([nH]6)c(-c6c(F)c(F)c(F)c(F)c6F)c6nc(c(-c7c(F)c(F)c(F)c(F)c7F)c7ccc4[nH]7)C=C6)C=C5)cc3)cn2)C1=O
REMARK SMILES IDX 17 1 16 2 14 3 15 4 13 6 10 7 11 8 87 9 12 10 86 11 9 12
REMARK SMILES IDX 8 13 7 16 1 17 2 18 3 19 88 20 4 21 5 22 89 23 6 24 18 25
REMARK SMILES IDX 19 26 20 27 21 28 22 30 23 31 24 32 85 33 25 34 84 35 26 36
REMARK SMILES IDX 27 37 28 38 78 39 29 40 83 41 77 42 79 43 30 44 82 45 76 46
REMARK SMILES IDX 75 47 31 49 63 50 43 51 62 52 44 53 47 54 61 55 80 56 45 57
REMARK SMILES IDX 46 58 60 60 81 61 48 62 32 63 33 64 41 65 34 66 35 67 39 68
REMARK SMILES IDX 42 69 36 70 37 71 40 72 38 73 64 74 65 75 73 76 66 77 67 78
REMARK SMILES IDX 71 79 74 80 68 81 69 82 72 83 70 84 49 85 50 86 58 87 51 88
REMARK SMILES IDX 52 89 56 90 59 91 53 92 54 93 57 94 55 95
REMARK H PARENT 16 5 8 14 8 15 20 29 79 48 47 59
REMARK Flexibility Score: inf
ROOT
ATOM      1  C   UNL     1       7.478  -8.922   3.502  1.00  0.00     0.118 C 
ENDROOT
BRANCH   1   2
ATOM      2  N   UNL     1       6.350  -9.835   3.451  1.00  0.00    -0.352 N 
ATOM      3  C   UNL     1       5.077  -9.684   2.963  1.00  0.00     0.252 C 
ATOM      4  O   UNL     1       4.340 -10.668   2.959  1.00  0.00    -0.269 OA
ATOM      5  H   UNL     1       6.531 -10.722   3.837  1.00  0.00     0.163 HD
BRANCH   3   6
ATOM      6  C   UNL     1       4.576  -8.411   2.404  1.00  0.00     0.058 A 
ATOM      7  C   UNL     1       3.489  -6.185   1.187  1.00  0.00     0.094 A 
ATOM      8  C   UNL     1       4.364  -6.015   2.256  1.00  0.00     0.030 A 
ATOM      9  N   UNL     1       3.110  -7.411   0.743  1.00  0.00    -0.255 NA
ATOM     10  C   UNL     1       4.904  -7.142   2.875  1.00  0.00     0.017 A 
ATOM     11  C   UNL     1       3.656  -8.488   1.364  1.00  0.00     0.125 A 
BRANCH   7  12
ATOM     12  C   UNL     1       2.855  -4.983   0.516  1.00  0.00     0.318 C 
BRANCH  12  13
ATOM     13  N   UNL     1       1.491  -4.769   1.025  1.00  0.00    -0.331 N 
ATOM     14  H   UNL     1       0.970  -5.642   0.944  1.00  0.00     0.347 HD
ATOM     15  H   UNL     1       1.565  -4.468   1.997  1.00  0.00     0.347 HD
BRANCH  13  16
ATOM     16  C   UNL     1       0.773  -3.717   0.281  1.00  0.00     0.274 C 
ATOM     17  C   UNL     1       0.855   0.104   0.555  1.00  0.00     0.156 C 
ATOM     18  N   UNL     1       0.372  -1.256   0.393  1.00  0.00    -0.281 N 
ATOM     19  C   UNL     1      -0.982  -1.396   0.099  1.00  0.00     0.229 C 
ATOM     20  C   UNL     1       1.273  -2.298   0.637  1.00  0.00     0.287 C 
ATOM     21  O   UNL     1      -1.748  -0.437  -0.011  1.00  0.00    -0.274 OA
ATOM     22  C   UNL     1      -1.486  -2.794  -0.155  1.00  0.00     0.107 C 
ATOM     23  O   UNL     1       2.414  -2.082   1.052  1.00  0.00    -0.267 OA
ATOM     24  C   UNL     1      -0.708  -3.832   0.625  1.00  0.00     0.085 C 
ENDBRANCH  13  16
ENDBRANCH  12  13
ENDBRANCH   7  12
ENDBRANCH   3   6
ENDBRANCH   1   2
BRANCH   1  25
ATOM     25  C   UNL     1       7.690  -8.377   4.914  1.00  0.00     0.042 C 
BRANCH  25  26
ATOM     26  C   UNL     1       8.220  -9.415   5.901  1.00  0.00     0.118 C 
BRANCH  26  27
ATOM     27  N   UNL     1       9.591  -9.799   5.608  1.00  0.00    -0.352 N 
ATOM     28  C   UNL     1      10.716  -9.746   6.390  1.00  0.00     0.251 C 
ATOM     29  H   UNL     1       9.736 -10.153   4.701  1.00  0.00     0.163 HD
ATOM     30  O   UNL     1      11.815  -9.915   5.868  1.00  0.00    -0.269 OA
BRANCH  28  31
ATOM     31  C   UNL     1      10.633  -9.489   7.847  1.00  0.00     0.039 A 
ATOM     32  C   UNL     1      11.643  -8.727   8.443  1.00  0.00     0.014 A 
ATOM     33  C   UNL     1       9.633 -10.057   8.642  1.00  0.00     0.014 A 
ATOM     34  C   UNL     1      11.637  -8.513   9.823  1.00  0.00     0.010 A 
ATOM     35  C   UNL     1       9.591  -9.790  10.011  1.00  0.00     0.010 A 
ATOM     36  C   UNL     1      10.603  -9.032  10.618  1.00  0.00    -0.014 A 
BRANCH  36  37
ATOM     37  C   UNL     1      10.594  -8.811  12.086  1.00  0.00     0.031 A 
ATOM     38  C   UNL     1      10.786  -9.966  13.030  1.00  0.00     0.074 A 
ATOM     39  C   UNL     1      10.383  -7.573  12.571  1.00  0.00     0.049 A 
ATOM     40  N   UNL     1      10.798  -9.974  14.340  1.00  0.00    -0.248 NA
ATOM     41  C   UNL     1      10.964 -11.294  12.422  1.00  0.00     0.031 C 
ATOM     42  C   UNL     1      10.134  -6.380  11.760  1.00  0.00     0.029 A 
ATOM     43  N   UNL     1      10.343  -7.112  13.863  1.00  0.00    -0.354 N 
ATOM     44  C   UNL     1      10.969 -11.302  14.710  1.00  0.00     0.074 A 
ATOM     45  C   UNL     1      11.008 -12.078  13.490  1.00  0.00     0.031 C 
ATOM     46  C   UNL     1       9.992  -5.320  12.572  1.00  0.00     0.029 A 
ATOM     47  C   UNL     1      10.116  -5.762  13.958  1.00  0.00     0.049 A 
ATOM     48  H   UNL     1      10.465  -7.695  14.647  1.00  0.00     0.167 HD
ATOM     49  C   UNL     1      11.104 -11.823  15.953  1.00  0.00     0.037 A 
ATOM     50  C   UNL     1      10.024  -4.969  15.042  1.00  0.00     0.037 A 
ATOM     51  C   UNL     1      11.095 -11.046  17.165  1.00  0.00     0.049 A 
ATOM     52  C   UNL     1      10.212  -5.568  16.409  1.00  0.00     0.074 A 
ATOM     53  C   UNL     1      11.277 -11.473  18.469  1.00  0.00     0.029 A 
ATOM     54  N   UNL     1      10.896  -9.674  17.219  1.00  0.00    -0.354 N 
ATOM     55  N   UNL     1      10.437  -6.815  16.742  1.00  0.00    -0.248 NA
ATOM     56  C   UNL     1      10.146  -4.644  17.549  1.00  0.00     0.031 C 
ATOM     57  C   UNL     1      11.155 -10.365  19.315  1.00  0.00     0.029 A 
ATOM     58  C   UNL     1      10.940  -9.240  18.534  1.00  0.00     0.049 A 
ATOM     59  H   UNL     1      10.746  -9.094  16.438  1.00  0.00     0.167 HD
ATOM     60  C   UNL     1      10.566  -6.823  18.124  1.00  0.00     0.074 A 
ATOM     61  C   UNL     1      10.412  -5.452  18.565  1.00  0.00     0.031 C 
ATOM     62  C   UNL     1      10.789  -7.871  18.954  1.00  0.00     0.037 A 
BRANCH  49  63
ATOM     63  C   UNL     1      11.280 -13.310  16.064  1.00  0.00     0.064 A 
ATOM     64  C   UNL     1      12.466 -13.942  15.660  1.00  0.00     0.173 A 
ATOM     65  C   UNL     1      10.263 -14.111  16.607  1.00  0.00     0.173 A 
ATOM     66  F   UNL     1      13.464 -13.224  15.123  1.00  0.00    -0.203 F 
ATOM     67  C   UNL     1      12.616 -15.322  15.767  1.00  0.00     0.198 A 
ATOM     68  C   UNL     1      10.428 -15.487  16.739  1.00  0.00     0.198 A 
ATOM     69  F   UNL     1       9.111 -13.557  17.014  1.00  0.00    -0.203 F 
ATOM     70  F   UNL     1      13.739 -15.909  15.329  1.00  0.00    -0.200 F 
ATOM     71  C   UNL     1      11.600 -16.093  16.312  1.00  0.00     0.200 A 
ATOM     72  F   UNL     1       9.450 -16.229  17.276  1.00  0.00    -0.200 F 
ATOM     73  F   UNL     1      11.748 -17.421  16.418  1.00  0.00    -0.200 F 
ENDBRANCH  49  63
BRANCH  50  74
ATOM     74  C   UNL     1       9.786  -3.513  14.875  1.00  0.00     0.064 A 
ATOM     75  C   UNL     1      10.804  -2.585  15.134  1.00  0.00     0.173 A 
ATOM     76  C   UNL     1       8.543  -3.020  14.453  1.00  0.00     0.173 A 
ATOM     77  F   UNL     1      12.003  -3.009  15.559  1.00  0.00    -0.203 F 
ATOM     78  C   UNL     1      10.582  -1.216  14.997  1.00  0.00     0.198 A 
ATOM     79  C   UNL     1       8.330  -1.653  14.291  1.00  0.00     0.198 A 
ATOM     80  F   UNL     1       7.540  -3.869  14.186  1.00  0.00    -0.203 F 
ATOM     81  F   UNL     1      11.559  -0.349  15.293  1.00  0.00    -0.200 F 
ATOM     82  C   UNL     1       9.347  -0.752  14.571  1.00  0.00     0.200 A 
ATOM     83  F   UNL     1       7.139  -1.208  13.867  1.00  0.00    -0.200 F 
ATOM     84  F   UNL     1       9.134   0.564  14.436  1.00  0.00    -0.200 F 
ENDBRANCH  50  74
BRANCH  62  85
ATOM     85  C   UNL     1      10.910  -7.567  20.418  1.00  0.00     0.064 A 
ATOM     86  C   UNL     1       9.794  -7.207  21.189  1.00  0.00     0.173 A 
ATOM     87  C   UNL     1      12.154  -7.650  21.061  1.00  0.00     0.173 A 
ATOM     88  F   UNL     1       8.585  -7.099  20.616  1.00  0.00    -0.203 F 
ATOM     89  C   UNL     1       9.926  -6.910  22.543  1.00  0.00     0.198 A 
ATOM     90  C   UNL     1      12.277  -7.379  22.420  1.00  0.00     0.198 A 
ATOM     91  F   UNL     1      13.251  -7.995  20.369  1.00  0.00    -0.203 F 
ATOM     92  F   UNL     1       8.856  -6.516  23.247  1.00  0.00    -0.200 F 
ATOM     93  C   UNL     1      11.166  -7.001  23.158  1.00  0.00     0.200 A 
ATOM     94  F   UNL     1      13.474  -7.477  23.016  1.00  0.00    -0.200 F 
ATOM     95  F   UNL     1      11.291  -6.713  24.460  1.00  0.00    -0.200 F 
ENDBRANCH  62  85
ENDBRANCH  36  37
ENDBRANCH  28  31
ENDBRANCH  26  27
ENDBRANCH  25  26
ENDBRANCH   1  25
TORSDOF 13
