REMARK SMILES COC(=O)c1ccc(C)c(NC(=O)[C@H]2CC=CC[C@H]2C(=O)NCCCNC(=O)c2ccc(-c3c4nc(c(-c5c(F)c(F)c(F)c(F)c5F)c5ccc([nH]5)c(-c5c(F)c(F)c(F)c(F)c5F)c5nc(c(-c6c(F)c(F)c(F)c(F)c6F)c6ccc3[nH]6)C=C5)C=C4)cc2)c1
REMARK SMILES IDX 23 1 22 2 20 3 21 4 19 6 14 7 15 8 16 9 18 10 17 11 12 12
REMARK SMILES IDX 11 13 13 15 10 16 5 17 6 18 92 19 7 20 8 21 9 22 3 23 4 24
REMARK SMILES IDX 2 25 1 26 24 27 25 28 26 29 27 30 28 32 29 33 30 34 91 35
REMARK SMILES IDX 31 36 90 37 32 38 33 39 34 40 84 41 35 42 89 43 83 44 85 45
REMARK SMILES IDX 36 46 88 47 82 48 81 49 37 51 69 52 49 53 68 54 50 55 53 56
REMARK SMILES IDX 67 57 86 58 51 59 52 60 66 62 87 63 54 64 38 65 39 66 47 67
REMARK SMILES IDX 40 68 41 69 45 70 48 71 42 72 43 73 46 74 44 75 70 76 71 77
REMARK SMILES IDX 79 78 72 79 73 80 77 81 80 82 74 83 75 84 78 85 76 86 55 87
REMARK SMILES IDX 56 88 64 89 57 90 58 91 62 92 65 93 59 94 60 95 63 96 61 97
REMARK H PARENT 22 5 11 14 26 31 85 50 53 61
REMARK Flexibility Score: inf
ROOT
ATOM      1  C   UNL     1       6.265   1.946  -2.176  1.00  0.00     0.117 C 
ENDROOT
BRANCH   1   2
ATOM      2  N   UNL     1       7.518   1.955  -2.903  1.00  0.00    -0.356 N 
ATOM      3  C   UNL     1       8.278   1.014  -3.503  1.00  0.00     0.224 C 
ATOM      4  O   UNL     1       9.359   1.443  -3.935  1.00  0.00    -0.275 OA
ATOM      5  H   UNL     1       7.905   2.857  -2.978  1.00  0.00     0.163 HD
BRANCH   3   6
ATOM      6  C   UNL     1       7.895  -0.437  -3.827  1.00  0.00     0.095 C 
ATOM      7  C   UNL     1       7.602  -1.530  -2.756  1.00  0.00     0.095 C 
ATOM      8  C   UNL     1       7.302  -2.919  -3.340  1.00  0.00     0.041 C 
ATOM      9  C   UNL     1       6.684  -2.928  -4.702  1.00  0.00    -0.030 C 
ATOM     10  C   UNL     1       7.092  -0.487  -5.141  1.00  0.00     0.041 C 
ATOM     11  C   UNL     1       6.587  -1.856  -5.499  1.00  0.00    -0.030 C 
BRANCH   7  12
ATOM     12  C   UNL     1       6.964  -1.311  -1.378  1.00  0.00     0.228 C 
ATOM     13  N   UNL     1       5.673  -1.409  -0.965  1.00  0.00    -0.326 N 
ATOM     14  H   UNL     1       5.584  -1.103  -0.034  1.00  0.00     0.169 HD
ATOM     15  O   UNL     1       7.750  -1.083  -0.436  1.00  0.00    -0.274 OA
BRANCH  13  16
ATOM     16  C   UNL     1       4.426  -1.817  -1.473  1.00  0.00     0.044 A 
ATOM     17  C   UNL     1       2.096  -2.356  -1.030  1.00  0.00     0.062 A 
ATOM     18  C   UNL     1       1.970  -2.932  -2.294  1.00  0.00     0.016 A 
ATOM     19  C   UNL     1       3.359  -1.926  -0.576  1.00  0.00     0.042 A 
ATOM     20  C   UNL     1       3.014  -2.792  -3.190  1.00  0.00     0.006 A 
ATOM     21  C   UNL     1       4.105  -1.998  -2.812  1.00  0.00    -0.027 A 
ATOM     22  C   UNL     1       4.285  -0.797  -3.705  1.00  0.00     0.046 C 
BRANCH  17  23
ATOM     23  C   UNL     1       0.830  -1.941  -0.359  1.00  0.00     0.337 C 
ATOM     24  O   UNL     1      -0.279  -2.192  -0.780  1.00  0.00    -0.246 OA
BRANCH  23  25
ATOM     25  O   UNL     1       1.133  -0.998   0.571  1.00  0.00    -0.465 OA
ATOM     26  C   UNL     1       0.554   0.281   0.298  1.00  0.00     0.282 C 
ENDBRANCH  23  25
ENDBRANCH  17  23
ENDBRANCH  13  16
ENDBRANCH   7  12
ENDBRANCH   3   6
ENDBRANCH   1   2
BRANCH   1  27
ATOM     27  C   UNL     1       6.487   1.730  -0.697  1.00  0.00     0.042 C 
BRANCH  27  28
ATOM     28  C   UNL     1       6.943   2.936   0.078  1.00  0.00     0.118 C 
BRANCH  28  29
ATOM     29  N   UNL     1       5.867   3.670   0.714  1.00  0.00    -0.352 N 
ATOM     30  C   UNL     1       5.909   4.491   1.826  1.00  0.00     0.251 C 
ATOM     31  H   UNL     1       4.982   3.570   0.295  1.00  0.00     0.163 HD
ATOM     32  O   UNL     1       4.855   4.835   2.353  1.00  0.00    -0.269 OA
BRANCH  30  33
ATOM     33  C   UNL     1       7.188   5.138   2.235  1.00  0.00     0.039 A 
ATOM     34  C   UNL     1       7.093   6.508   2.523  1.00  0.00     0.014 A 
ATOM     35  C   UNL     1       8.402   4.611   1.828  1.00  0.00     0.014 A 
ATOM     36  C   UNL     1       8.074   7.364   2.052  1.00  0.00     0.010 A 
ATOM     37  C   UNL     1       9.237   5.440   1.139  1.00  0.00     0.010 A 
ATOM     38  C   UNL     1       9.044   6.818   1.229  1.00  0.00    -0.014 A 
BRANCH  38  39
ATOM     39  C   UNL     1      10.049   7.559   0.514  1.00  0.00     0.031 A 
ATOM     40  C   UNL     1      11.373   7.611   1.153  1.00  0.00     0.074 A 
ATOM     41  C   UNL     1       9.798   7.879  -0.774  1.00  0.00     0.049 A 
ATOM     42  N   UNL     1      12.318   8.381   0.770  1.00  0.00    -0.248 NA
ATOM     43  C   UNL     1      11.742   6.796   2.312  1.00  0.00     0.031 C 
ATOM     44  C   UNL     1      10.751   8.222  -1.823  1.00  0.00     0.029 A 
ATOM     45  N   UNL     1       8.544   8.122  -1.362  1.00  0.00    -0.354 N 
ATOM     46  C   UNL     1      13.475   7.961   1.387  1.00  0.00     0.074 A 
ATOM     47  C   UNL     1      13.053   7.032   2.401  1.00  0.00     0.031 C 
ATOM     48  C   UNL     1      10.113   8.929  -2.773  1.00  0.00     0.029 A 
ATOM     49  C   UNL     1       8.772   9.180  -2.277  1.00  0.00     0.049 A 
ATOM     50  H   UNL     1       7.695   7.659  -1.179  1.00  0.00     0.167 HD
ATOM     51  C   UNL     1      14.653   8.367   0.843  1.00  0.00     0.037 A 
ATOM     52  C   UNL     1       8.252  10.421  -2.034  1.00  0.00     0.037 A 
ATOM     53  C   UNL     1      14.379   9.265  -0.275  1.00  0.00     0.049 A 
ATOM     54  C   UNL     1       9.325  11.467  -1.838  1.00  0.00     0.074 A 
ATOM     55  C   UNL     1      14.281   9.059  -1.641  1.00  0.00     0.029 A 
ATOM     56  N   UNL     1      13.747  10.471  -0.010  1.00  0.00    -0.354 N 
ATOM     57  N   UNL     1      10.532  11.206  -1.410  1.00  0.00    -0.248 NA
ATOM     58  C   UNL     1       9.148  12.873  -2.180  1.00  0.00     0.031 C 
ATOM     59  C   UNL     1      13.574  10.158  -2.197  1.00  0.00     0.029 A 
ATOM     60  C   UNL     1      13.254  11.029  -1.168  1.00  0.00     0.049 A 
ATOM     61  H   UNL     1      13.663  10.873   0.885  1.00  0.00     0.167 HD
ATOM     62  C   UNL     1      11.300  12.345  -1.466  1.00  0.00     0.074 A 
ATOM     63  C   UNL     1      10.381  13.359  -1.950  1.00  0.00     0.031 C 
ATOM     64  C   UNL     1      12.630  12.341  -1.133  1.00  0.00     0.037 A 
BRANCH  51  65
ATOM     65  C   UNL     1      16.023   7.813   1.135  1.00  0.00     0.064 A 
ATOM     66  C   UNL     1      17.052   7.941   0.172  1.00  0.00     0.173 A 
ATOM     67  C   UNL     1      16.401   7.147   2.315  1.00  0.00     0.173 A 
ATOM     68  F   UNL     1      16.856   8.589  -0.983  1.00  0.00    -0.203 F 
ATOM     69  C   UNL     1      18.327   7.405   0.354  1.00  0.00     0.198 A 
ATOM     70  C   UNL     1      17.671   6.581   2.483  1.00  0.00     0.198 A 
ATOM     71  F   UNL     1      15.583   7.062   3.368  1.00  0.00    -0.203 F 
ATOM     72  F   UNL     1      19.255   7.567  -0.600  1.00  0.00    -0.200 F 
ATOM     73  C   UNL     1      18.633   6.710   1.503  1.00  0.00     0.200 A 
ATOM     74  F   UNL     1      17.957   5.917   3.612  1.00  0.00    -0.200 F 
ATOM     75  F   UNL     1      19.854   6.187   1.674  1.00  0.00    -0.200 F 
ENDBRANCH  51  65
BRANCH  52  76
ATOM     76  C   UNL     1       6.927  10.330  -1.347  1.00  0.00     0.064 A 
ATOM     77  C   UNL     1       5.900   9.673  -2.060  1.00  0.00     0.173 A 
ATOM     78  C   UNL     1       6.826  10.350   0.050  1.00  0.00     0.173 A 
ATOM     79  F   UNL     1       5.929   9.653  -3.403  1.00  0.00    -0.203 F 
ATOM     80  C   UNL     1       4.953   8.887  -1.407  1.00  0.00     0.198 A 
ATOM     81  C   UNL     1       5.841   9.597   0.701  1.00  0.00     0.198 A 
ATOM     82  F   UNL     1       7.756  10.969   0.790  1.00  0.00    -0.203 F 
ATOM     83  F   UNL     1       4.113   8.122  -2.119  1.00  0.00    -0.200 F 
ATOM     84  C   UNL     1       4.954   8.815  -0.026  1.00  0.00     0.200 A 
ATOM     85  F   UNL     1       5.820   9.542   2.041  1.00  0.00    -0.200 F 
ATOM     86  F   UNL     1       4.131   7.962   0.601  1.00  0.00    -0.200 F 
ENDBRANCH  52  76
BRANCH  64  87
ATOM     87  C   UNL     1      13.530  13.526  -0.801  1.00  0.00     0.064 A 
ATOM     88  C   UNL     1      13.082  14.835  -0.573  1.00  0.00     0.173 A 
ATOM     89  C   UNL     1      14.919  13.328  -0.537  1.00  0.00     0.173 A 
ATOM     90  F   UNL     1      11.793  15.168  -0.674  1.00  0.00    -0.203 F 
ATOM     91  C   UNL     1      13.945  15.859  -0.164  1.00  0.00     0.198 A 
ATOM     92  C   UNL     1      15.754  14.328  -0.045  1.00  0.00     0.198 A 
ATOM     93  F   UNL     1      15.525  12.146  -0.717  1.00  0.00    -0.203 F 
ATOM     94  F   UNL     1      13.466  17.102  -0.015  1.00  0.00    -0.200 F 
ATOM     95  C   UNL     1      15.271  15.603   0.123  1.00  0.00     0.200 A 
ATOM     96  F   UNL     1      17.020  14.034   0.284  1.00  0.00    -0.200 F 
ATOM     97  F   UNL     1      16.074  16.574   0.576  1.00  0.00    -0.200 F 
ENDBRANCH  64  87
ENDBRANCH  38  39
ENDBRANCH  30  33
ENDBRANCH  28  29
ENDBRANCH  27  28
ENDBRANCH   1  27
TORSDOF 14
