REMARK SMILES Cc1cccc2nc(C(=O)NCC(=O)NCCCNC(=O)c3ccc(-c4c5nc(c(-c6c(F)c(F)c(F)c(F)c6F)c6ccc([nH]6)c(-c6c(F)c(F)c(F)c(F)c6F)c6nc(c(-c7c(F)c(F)c(F)c(F)c7F)c7ccc4[nH]7)C=C6)C=C5)cc3)cn12
REMARK SMILES IDX 17 1 16 2 15 3 13 4 14 5 12 7 11 8 9 9 10 10 8 12 1 13 2 14
REMARK SMILES IDX 3 15 86 16 4 17 6 18 85 19 5 20 7 21 18 22 19 23 20 24 21 26
REMARK SMILES IDX 22 27 23 28 84 29 24 30 83 31 25 32 26 33 27 34 77 35 28 36
REMARK SMILES IDX 82 37 76 38 78 39 29 40 81 41 75 42 74 43 30 45 62 46 42 47
REMARK SMILES IDX 61 48 43 49 46 50 60 51 79 52 44 53 45 54 59 56 80 57 47 58
REMARK SMILES IDX 31 59 32 60 40 61 33 62 34 63 38 64 41 65 35 66 36 67 39 68
REMARK SMILES IDX 37 69 63 70 64 71 72 72 65 73 66 74 70 75 73 76 67 77 68 78
REMARK SMILES IDX 71 79 69 80 48 81 49 82 57 83 50 84 51 85 55 86 58 87 52 88
REMARK SMILES IDX 53 89 56 90 54 91
REMARK H PARENT 15 6 11 11 19 25 78 44 46 55
REMARK Flexibility Score: inf
ROOT
ATOM      1  C   UNL     1       3.052   4.901   4.078  1.00  0.00     0.042 C 
ENDROOT
BRANCH   1   2
ATOM      2  C   UNL     1       2.136   5.774   3.218  1.00  0.00     0.117 C 
BRANCH   2   3
ATOM      3  N   UNL     1       2.634   7.126   3.067  1.00  0.00    -0.355 N 
ATOM      4  C   UNL     1       3.266   7.693   1.998  1.00  0.00     0.239 C 
ATOM      5  O   UNL     1       3.470   8.909   2.035  1.00  0.00    -0.273 OA
ATOM      6  H   UNL     1       2.498   7.718   3.841  1.00  0.00     0.163 HD
BRANCH   4   7
ATOM      7  C   UNL     1       3.611   6.872   0.747  1.00  0.00     0.216 C 
BRANCH   7   8
ATOM      8  N   UNL     1       4.461   5.719   1.016  1.00  0.00    -0.342 N 
ATOM      9  C   UNL     1       4.258   4.372   0.850  1.00  0.00     0.271 C 
ATOM     10  O   UNL     1       5.170   3.617   1.191  1.00  0.00    -0.267 OA
ATOM     11  H   UNL     1       5.345   5.949   1.384  1.00  0.00     0.164 HD
BRANCH   9  12
ATOM     12  C   UNL     1       2.980   3.848   0.351  1.00  0.00     0.147 A 
ATOM     13  C   UNL     1       0.991  -0.053  -0.092  1.00  0.00     0.065 C 
ATOM     14  C   UNL     1       0.487   1.338  -0.326  1.00  0.00     0.021 A 
ATOM     15  C   UNL     1      -0.771   1.576  -0.755  1.00  0.00     0.022 A 
ATOM     16  N   UNL     1       1.332   2.443  -0.117  1.00  0.00    -0.304 N 
ATOM     17  C   UNL     1      -1.220   2.943  -0.963  1.00  0.00     0.006 A 
ATOM     18  C   UNL     1       0.939   3.760  -0.341  1.00  0.00     0.137 A 
ATOM     19  C   UNL     1       2.630   2.508   0.329  1.00  0.00     0.127 A 
ATOM     20  C   UNL     1      -0.397   3.989  -0.767  1.00  0.00     0.048 A 
ATOM     21  N   UNL     1       1.914   4.605  -0.091  1.00  0.00    -0.223 NA
ENDBRANCH   9  12
ENDBRANCH   7   8
ENDBRANCH   4   7
ENDBRANCH   2   3
ENDBRANCH   1   2
BRANCH   1  22
ATOM     22  C   UNL     1       2.817   5.143   5.561  1.00  0.00     0.118 C 
BRANCH  22  23
ATOM     23  N   UNL     1       1.510   4.649   5.991  1.00  0.00    -0.352 N 
ATOM     24  C   UNL     1       0.935   4.689   7.242  1.00  0.00     0.251 C 
ATOM     25  H   UNL     1       0.964   4.228   5.287  1.00  0.00     0.163 HD
ATOM     26  O   UNL     1      -0.014   3.974   7.516  1.00  0.00    -0.269 OA
BRANCH  24  27
ATOM     27  C   UNL     1       1.483   5.611   8.250  1.00  0.00     0.039 A 
ATOM     28  C   UNL     1       1.601   5.204   9.584  1.00  0.00     0.014 A 
ATOM     29  C   UNL     1       1.857   6.895   7.858  1.00  0.00     0.014 A 
ATOM     30  C   UNL     1       2.157   6.079  10.511  1.00  0.00     0.010 A 
ATOM     31  C   UNL     1       2.508   7.716   8.744  1.00  0.00     0.010 A 
ATOM     32  C   UNL     1       2.616   7.329  10.079  1.00  0.00    -0.014 A 
BRANCH  32  33
ATOM     33  C   UNL     1       3.292   8.232  10.998  1.00  0.00     0.031 A 
ATOM     34  C   UNL     1       4.592   7.745  11.540  1.00  0.00     0.074 A 
ATOM     35  C   UNL     1       2.892   9.514  11.133  1.00  0.00     0.049 A 
ATOM     36  N   UNL     1       4.937   7.613  12.779  1.00  0.00    -0.248 NA
ATOM     37  C   UNL     1       5.611   7.270  10.588  1.00  0.00     0.031 C 
ATOM     38  C   UNL     1       1.812  10.204  10.419  1.00  0.00     0.029 A 
ATOM     39  N   UNL     1       3.462  10.515  11.853  1.00  0.00    -0.354 N 
ATOM     40  C   UNL     1       6.263   7.185  12.774  1.00  0.00     0.074 A 
ATOM     41  C   UNL     1       6.581   6.861  11.408  1.00  0.00     0.031 C 
ATOM     42  C   UNL     1       1.958  11.539  10.563  1.00  0.00     0.029 A 
ATOM     43  C   UNL     1       3.045  11.789  11.492  1.00  0.00     0.049 A 
ATOM     44  H   UNL     1       4.115  10.351  12.571  1.00  0.00     0.167 HD
ATOM     45  C   UNL     1       7.059   7.319  13.872  1.00  0.00     0.037 A 
ATOM     46  C   UNL     1       3.587  12.964  11.896  1.00  0.00     0.037 A 
ATOM     47  C   UNL     1       6.280   7.571  15.055  1.00  0.00     0.049 A 
ATOM     48  C   UNL     1       4.383  12.684  13.118  1.00  0.00     0.074 A 
ATOM     49  C   UNL     1       5.303   6.866  15.731  1.00  0.00     0.029 A 
ATOM     50  N   UNL     1       6.188   8.864  15.507  1.00  0.00    -0.354 N 
ATOM     51  N   UNL     1       3.853  12.346  14.262  1.00  0.00    -0.248 NA
ATOM     52  C   UNL     1       5.783  12.320  12.946  1.00  0.00     0.031 C 
ATOM     53  C   UNL     1       4.368   7.853  16.155  1.00  0.00     0.029 A 
ATOM     54  C   UNL     1       4.864   9.101  15.775  1.00  0.00     0.049 A 
ATOM     55  H   UNL     1       6.931   9.500  15.618  1.00  0.00     0.167 HD
ATOM     56  C   UNL     1       4.697  11.365  14.763  1.00  0.00     0.074 A 
ATOM     57  C   UNL     1       5.914  11.458  13.959  1.00  0.00     0.031 C 
ATOM     58  C   UNL     1       4.223  10.379  15.578  1.00  0.00     0.037 A 
BRANCH  45  59
ATOM     59  C   UNL     1       8.548   7.550  13.839  1.00  0.00     0.064 A 
ATOM     60  C   UNL     1       9.287   7.482  15.039  1.00  0.00     0.173 A 
ATOM     61  C   UNL     1       9.221   8.124  12.741  1.00  0.00     0.173 A 
ATOM     62  F   UNL     1       8.738   6.974  16.152  1.00  0.00    -0.203 F 
ATOM     63  C   UNL     1      10.573   8.018  15.145  1.00  0.00     0.198 A 
ATOM     64  C   UNL     1      10.524   8.608  12.836  1.00  0.00     0.198 A 
ATOM     65  F   UNL     1       8.609   8.345  11.571  1.00  0.00    -0.203 F 
ATOM     66  F   UNL     1      11.187   8.045  16.336  1.00  0.00    -0.200 F 
ATOM     67  C   UNL     1      11.188   8.586  14.045  1.00  0.00     0.200 A 
ATOM     68  F   UNL     1      11.097   9.173  11.764  1.00  0.00    -0.200 F 
ATOM     69  F   UNL     1      12.396   9.155  14.158  1.00  0.00    -0.200 F 
ENDBRANCH  45  59
BRANCH  46  70
ATOM     70  C   UNL     1       3.655  14.252  11.167  1.00  0.00     0.064 A 
ATOM     71  C   UNL     1       3.930  15.456  11.835  1.00  0.00     0.173 A 
ATOM     72  C   UNL     1       3.699  14.296   9.758  1.00  0.00     0.173 A 
ATOM     73  F   UNL     1       3.954  15.493  13.175  1.00  0.00    -0.203 F 
ATOM     74  C   UNL     1       4.247  16.627  11.137  1.00  0.00     0.198 A 
ATOM     75  C   UNL     1       4.006  15.467   9.064  1.00  0.00     0.198 A 
ATOM     76  F   UNL     1       3.534  13.183   9.030  1.00  0.00    -0.203 F 
ATOM     77  F   UNL     1       4.560  17.743  11.812  1.00  0.00    -0.200 F 
ATOM     78  C   UNL     1       4.293  16.630   9.753  1.00  0.00     0.200 A 
ATOM     79  F   UNL     1       4.081  15.446   7.725  1.00  0.00    -0.200 F 
ATOM     80  F   UNL     1       4.651  17.736   9.087  1.00  0.00    -0.200 F 
ENDBRANCH  46  70
BRANCH  58  81
ATOM     81  C   UNL     1       2.819  10.506  16.103  1.00  0.00     0.064 A 
ATOM     82  C   UNL     1       1.675  10.494  15.285  1.00  0.00     0.173 A 
ATOM     83  C   UNL     1       2.618  10.448  17.488  1.00  0.00     0.173 A 
ATOM     84  F   UNL     1       1.779  10.444  13.953  1.00  0.00    -0.203 F 
ATOM     85  C   UNL     1       0.394  10.458  15.829  1.00  0.00     0.198 A 
ATOM     86  C   UNL     1       1.337  10.375  18.029  1.00  0.00     0.198 A 
ATOM     87  F   UNL     1       3.672  10.398  18.317  1.00  0.00    -0.203 F 
ATOM     88  F   UNL     1      -0.679  10.447  15.023  1.00  0.00    -0.200 F 
ATOM     89  C   UNL     1       0.226  10.387  17.201  1.00  0.00     0.200 A 
ATOM     90  F   UNL     1       1.181  10.253  19.354  1.00  0.00    -0.200 F 
ATOM     91  F   UNL     1      -1.005  10.298  17.724  1.00  0.00    -0.200 F 
ENDBRANCH  58  81
ENDBRANCH  32  33
ENDBRANCH  24  27
ENDBRANCH  22  23
ENDBRANCH   1  22
TORSDOF 12
