REMARK SMILES Nc1oc2ccc(F)cc2c(=O)c1[C@@H]1[NH2+][C@H](C(=O)NCCCNC(=O)c2ccc(-c3c4nc(c(-c5c(F)c(F)c(F)c(F)c5F)c5ccc([nH]5)c(-c5c(F)c(F)c(F)c(F)c5F)c5nc(c(-c6c(F)c(F)c(F)c(F)c6F)c6ccc3[nH]6)C=C5)C=C4)cc2)CS1
REMARK SMILES IDX 21 1 20 2 19 3 17 4 18 5 16 7 14 8 15 9 90 10 89 13 13 14
REMARK SMILES IDX 2 15 3 16 4 17 11 18 5 19 10 20 12 21 6 22 9 23 7 24 8 25
REMARK SMILES IDX 1 26 22 29 23 30 24 31 25 33 26 34 27 35 88 36 28 37 87 38
REMARK SMILES IDX 29 39 30 40 31 41 81 42 32 43 86 44 80 45 82 46 33 47 85 48
REMARK SMILES IDX 79 49 78 50 34 52 66 53 46 54 65 55 47 56 50 57 64 58 83 59
REMARK SMILES IDX 48 60 49 61 63 63 84 64 51 65 35 66 36 67 44 68 37 69 38 70
REMARK SMILES IDX 42 71 45 72 39 73 40 74 43 75 41 76 67 77 68 78 76 79 69 80
REMARK SMILES IDX 70 81 74 82 77 83 71 84 72 85 75 86 73 87 52 88 53 89 61 90
REMARK SMILES IDX 54 91 55 92 59 93 62 94 56 95 57 96 60 97 58 98
REMARK H PARENT 19 6 15 11 15 12 1 27 1 28 23 32 82 51 50 62
REMARK Flexibility Score: inf
ROOT
ATOM      1  C   UNL     1      -1.191   1.351   1.658  1.00  0.00     0.042 C 
ENDROOT
BRANCH   1   2
ATOM      2  C   UNL     1      -0.475   1.448   0.314  1.00  0.00     0.118 C 
BRANCH   2   3
ATOM      3  N   UNL     1       0.305   2.665   0.190  1.00  0.00    -0.351 N 
ATOM      4  C   UNL     1       1.592   2.925   0.572  1.00  0.00     0.279 C 
ATOM      5  O   UNL     1       2.037   4.047   0.308  1.00  0.00    -0.268 OA
ATOM      6  H   UNL     1      -0.164   3.420  -0.234  1.00  0.00     0.163 HD
BRANCH   4   7
ATOM      7  C   UNL     1       2.510   1.863   1.211  1.00  0.00     0.283 C 
ATOM      8  C   UNL     1       2.370  -0.340   2.245  1.00  0.00     0.283 C 
ATOM      9  N   UNL     1       1.804   1.019   2.196  1.00  0.00    -0.320 N 
ATOM     10  S   UNL     1       3.694  -0.454   1.009  1.00  0.00    -0.087 SA
ATOM     11  H   UNL     1       1.887   1.446   3.118  1.00  0.00     0.348 HD
ATOM     12  H   UNL     1       0.827   0.949   1.914  1.00  0.00     0.348 HD
ATOM     13  C   UNL     1       3.142   1.016   0.122  1.00  0.00     0.151 C 
BRANCH   8  14
ATOM     14  C   UNL     1       1.242  -1.344   2.094  1.00  0.00     0.128 A 
ATOM     15  C   UNL     1       0.777  -1.969   0.986  1.00  0.00     0.205 A 
ATOM     16  O   UNL     1      -0.374  -2.738   0.956  1.00  0.00    -0.440 OA
ATOM     17  C   UNL     1      -1.149  -2.843   2.072  1.00  0.00     0.140 A 
ATOM     18  C   UNL     1       0.511  -1.599   3.375  1.00  0.00     0.205 A 
ATOM     19  C   UNL     1      -2.376  -3.496   1.940  1.00  0.00     0.051 A 
ATOM     20  C   UNL     1      -0.750  -2.347   3.304  1.00  0.00     0.068 A 
ATOM     21  O   UNL     1       0.909  -1.174   4.454  1.00  0.00    -0.288 OA
ATOM     22  C   UNL     1      -3.188  -3.675   3.059  1.00  0.00     0.043 A 
ATOM     23  C   UNL     1      -1.555  -2.527   4.432  1.00  0.00     0.055 A 
ATOM     24  C   UNL     1      -2.766  -3.194   4.296  1.00  0.00     0.124 A 
ATOM     25  F   UNL     1      -3.550  -3.366   5.369  1.00  0.00    -0.207 F 
BRANCH  15  26
ATOM     26  N   UNL     1       1.336  -1.890  -0.256  1.00  0.00    -0.369 N 
ATOM     27  H   UNL     1       0.932  -2.378  -1.009  1.00  0.00     0.159 HD
ATOM     28  H   UNL     1       2.143  -1.345  -0.398  1.00  0.00     0.159 HD
ENDBRANCH  15  26
ENDBRANCH   8  14
ENDBRANCH   4   7
ENDBRANCH   2   3
ENDBRANCH   1   2
BRANCH   1  29
ATOM     29  C   UNL     1      -2.692   1.569   1.585  1.00  0.00     0.118 C 
BRANCH  29  30
ATOM     30  N   UNL     1      -3.405   0.494   0.900  1.00  0.00    -0.352 N 
ATOM     31  C   UNL     1      -4.524  -0.221   1.262  1.00  0.00     0.251 C 
ATOM     32  H   UNL     1      -3.018   0.236   0.032  1.00  0.00     0.163 HD
ATOM     33  O   UNL     1      -4.893  -1.156   0.553  1.00  0.00    -0.269 OA
BRANCH  31  34
ATOM     34  C   UNL     1      -5.259   0.077   2.517  1.00  0.00     0.039 A 
ATOM     35  C   UNL     1      -5.379   1.374   3.008  1.00  0.00     0.014 A 
ATOM     36  C   UNL     1      -5.832  -0.980   3.235  1.00  0.00     0.014 A 
ATOM     37  C   UNL     1      -5.848   1.585   4.299  1.00  0.00     0.010 A 
ATOM     38  C   UNL     1      -6.414  -0.751   4.488  1.00  0.00     0.010 A 
ATOM     39  C   UNL     1      -6.368   0.526   5.061  1.00  0.00    -0.014 A 
BRANCH  39  40
ATOM     40  C   UNL     1      -6.852   0.802   6.441  1.00  0.00     0.031 A 
ATOM     41  C   UNL     1      -6.201   0.157   7.637  1.00  0.00     0.074 A 
ATOM     42  C   UNL     1      -7.832   1.711   6.618  1.00  0.00     0.049 A 
ATOM     43  N   UNL     1      -6.448   0.348   8.910  1.00  0.00    -0.248 NA
ATOM     44  C   UNL     1      -5.144  -0.834   7.380  1.00  0.00     0.031 C 
ATOM     45  C   UNL     1      -8.546   2.395   5.538  1.00  0.00     0.029 A 
ATOM     46  N   UNL     1      -8.369   2.250   7.761  1.00  0.00    -0.354 N 
ATOM     47  C   UNL     1      -5.599  -0.509   9.598  1.00  0.00     0.074 A 
ATOM     48  C   UNL     1      -4.844  -1.242   8.606  1.00  0.00     0.031 C 
ATOM     49  C   UNL     1      -9.364   3.316   6.064  1.00  0.00     0.029 A 
ATOM     50  C   UNL     1      -9.290   3.240   7.519  1.00  0.00     0.049 A 
ATOM     51  H   UNL     1      -8.117   1.956   8.666  1.00  0.00     0.167 HD
ATOM     52  C   UNL     1      -5.455  -0.660  10.936  1.00  0.00     0.037 A 
ATOM     53  C   UNL     1     -10.005   4.001   8.370  1.00  0.00     0.037 A 
ATOM     54  C   UNL     1      -6.176   0.101  11.922  1.00  0.00     0.049 A 
ATOM     55  C   UNL     1      -9.828   3.806   9.848  1.00  0.00     0.074 A 
ATOM     56  C   UNL     1      -6.062   0.050  13.300  1.00  0.00     0.029 A 
ATOM     57  N   UNL     1      -7.141   1.055  11.635  1.00  0.00    -0.354 N 
ATOM     58  N   UNL     1      -9.005   3.007  10.480  1.00  0.00    -0.248 NA
ATOM     59  C   UNL     1     -10.688   4.606  10.731  1.00  0.00     0.031 C 
ATOM     60  C   UNL     1      -6.988   0.941  13.849  1.00  0.00     0.029 A 
ATOM     61  C   UNL     1      -7.649   1.580  12.813  1.00  0.00     0.049 A 
ATOM     62  H   UNL     1      -7.423   1.320  10.730  1.00  0.00     0.167 HD
ATOM     63  C   UNL     1      -9.245   3.204  11.832  1.00  0.00     0.074 A 
ATOM     64  C   UNL     1     -10.272   4.221  11.931  1.00  0.00     0.031 C 
ATOM     65  C   UNL     1      -8.673   2.589  12.893  1.00  0.00     0.037 A 
BRANCH  52  66
ATOM     66  C   UNL     1      -4.480  -1.688  11.432  1.00  0.00     0.064 A 
ATOM     67  C   UNL     1      -3.096  -1.474  11.379  1.00  0.00     0.173 A 
ATOM     68  C   UNL     1      -4.942  -2.856  12.059  1.00  0.00     0.173 A 
ATOM     69  F   UNL     1      -2.604  -0.376  10.786  1.00  0.00    -0.203 F 
ATOM     70  C   UNL     1      -2.208  -2.396  11.930  1.00  0.00     0.198 A 
ATOM     71  C   UNL     1      -4.053  -3.764  12.629  1.00  0.00     0.198 A 
ATOM     72  F   UNL     1      -6.258  -3.102  12.146  1.00  0.00    -0.203 F 
ATOM     73  F   UNL     1      -0.888  -2.181  11.853  1.00  0.00    -0.200 F 
ATOM     74  C   UNL     1      -2.688  -3.534  12.563  1.00  0.00     0.200 A 
ATOM     75  F   UNL     1      -4.519  -4.853  13.255  1.00  0.00    -0.200 F 
ATOM     76  F   UNL     1      -1.833  -4.407  13.113  1.00  0.00    -0.200 F 
ENDBRANCH  52  66
BRANCH  53  77
ATOM     77  C   UNL     1     -10.951   5.011   7.831  1.00  0.00     0.064 A 
ATOM     78  C   UNL     1     -10.701   6.383   7.969  1.00  0.00     0.173 A 
ATOM     79  C   UNL     1     -12.105   4.625   7.131  1.00  0.00     0.173 A 
ATOM     80  F   UNL     1      -9.622   6.802   8.646  1.00  0.00    -0.203 F 
ATOM     81  C   UNL     1     -11.569   7.330   7.428  1.00  0.00     0.198 A 
ATOM     82  C   UNL     1     -12.955   5.571   6.565  1.00  0.00     0.198 A 
ATOM     83  F   UNL     1     -12.387   3.324   6.968  1.00  0.00    -0.203 F 
ATOM     84  F   UNL     1     -11.322   8.636   7.596  1.00  0.00    -0.200 F 
ATOM     85  C   UNL     1     -12.689   6.923   6.717  1.00  0.00     0.200 A 
ATOM     86  F   UNL     1     -14.024   5.173   5.862  1.00  0.00    -0.200 F 
ATOM     87  F   UNL     1     -13.512   7.834   6.180  1.00  0.00    -0.200 F 
ENDBRANCH  53  77
BRANCH  65  88
ATOM     88  C   UNL     1      -9.140   2.988  14.260  1.00  0.00     0.064 A 
ATOM     89  C   UNL     1     -10.377   2.555  14.758  1.00  0.00     0.173 A 
ATOM     90  C   UNL     1      -8.311   3.737  15.108  1.00  0.00     0.173 A 
ATOM     91  F   UNL     1     -11.209   1.848  13.979  1.00  0.00    -0.203 F 
ATOM     92  C   UNL     1     -10.769   2.863  16.058  1.00  0.00     0.198 A 
ATOM     93  C   UNL     1      -8.696   4.022  16.414  1.00  0.00     0.198 A 
ATOM     94  F   UNL     1      -7.115   4.168  14.677  1.00  0.00    -0.203 F 
ATOM     95  F   UNL     1     -11.966   2.460  16.507  1.00  0.00    -0.200 F 
ATOM     96  C   UNL     1      -9.925   3.586  16.887  1.00  0.00     0.200 A 
ATOM     97  F   UNL     1      -7.874   4.709  17.219  1.00  0.00    -0.200 F 
ATOM     98  F   UNL     1     -10.297   3.865  18.144  1.00  0.00    -0.200 F 
ENDBRANCH  65  88
ENDBRANCH  39  40
ENDBRANCH  31  34
ENDBRANCH  29  30
ENDBRANCH   1  29
TORSDOF 12
