REMARK SMILES CCCCCCC(=O)N1C[C@@H](O)C[C@@H]1C(=O)NCCCNC(=O)c1ccc(-c2c3nc(c(-c4c(F)c(F)c(F)c(F)c4F)c4ccc([nH]4)c(-c4c(F)c(F)c(F)c(F)c4F)c4nc(c(-c5c(F)c(F)c(F)c(F)c5F)c5ccc2[nH]5)C=C4)C=C3)cc1
REMARK SMILES IDX 15 1 16 2 17 3 14 5 9 6 10 7 11 8 13 9 7 10 8 11 6 12 5 13
REMARK SMILES IDX 4 14 3 15 2 16 1 17 12 18 18 20 19 21 20 22 21 23 22 24
REMARK SMILES IDX 23 26 24 27 25 28 86 29 26 30 85 31 27 32 28 33 29 34 79 35
REMARK SMILES IDX 30 36 84 37 78 38 80 39 31 40 83 41 77 42 76 43 32 45 64 46
REMARK SMILES IDX 44 47 63 48 45 49 48 50 62 51 81 52 46 53 47 54 61 56 82 57
REMARK SMILES IDX 49 58 33 59 34 60 42 61 35 62 36 63 40 64 43 65 37 66 38 67
REMARK SMILES IDX 41 68 39 69 65 70 66 71 74 72 67 73 68 74 72 75 75 76 69 77
REMARK SMILES IDX 70 78 73 79 71 80 50 81 51 82 59 83 52 84 53 85 57 86 60 87
REMARK SMILES IDX 54 88 55 89 58 90 56 91
REMARK H PARENT 17 4 12 19 21 25 80 44 48 55
REMARK Flexibility Score: inf
ROOT
ATOM      1  C   UNL     1       0.696   6.846   2.108  1.00  0.00     0.242 C 
ATOM      2  O   UNL     1       1.426   6.356   2.973  1.00  0.00    -0.273 OA
ATOM      3  N   UNL     1      -0.496   7.371   2.517  1.00  0.00    -0.354 N 
ATOM      4  H   UNL     1      -0.584   7.507   3.488  1.00  0.00     0.163 HD
ENDROOT
BRANCH   1   5
ATOM      5  C   UNL     1       1.059   6.811   0.612  1.00  0.00     0.177 C 
ATOM      6  N   UNL     1       0.764   5.487   0.042  1.00  0.00    -0.328 N 
ATOM      7  C   UNL     1       1.975   4.949  -0.541  1.00  0.00     0.152 C 
ATOM      8  C   UNL     1       3.104   5.590   0.246  1.00  0.00     0.136 C 
ATOM      9  C   UNL     1       2.577   7.004   0.436  1.00  0.00     0.069 C 
BRANCH   6  10
ATOM     10  C   UNL     1      -0.463   5.224  -0.538  1.00  0.00     0.223 C 
ATOM     11  O   UNL     1      -1.025   6.032  -1.274  1.00  0.00    -0.275 OA
BRANCH  10  12
ATOM     12  C   UNL     1      -1.173   3.971  -0.035  1.00  0.00     0.100 C 
BRANCH  12  13
ATOM     13  C   UNL     1      -1.143   2.724  -0.909  1.00  0.00     0.010 C 
BRANCH  13  14
ATOM     14  C   UNL     1       0.210   2.037  -1.076  1.00  0.00     0.001 C 
BRANCH  14  15
ATOM     15  C   UNL     1       0.964   1.736   0.228  1.00  0.00    -0.000 C 
BRANCH  15  16
ATOM     16  C   UNL     1       0.505   0.483   0.966  1.00  0.00    -0.003 C 
ATOM     17  C   UNL     1       0.977  -0.785   0.273  1.00  0.00     0.004 C 
ENDBRANCH  15  16
ENDBRANCH  14  15
ENDBRANCH  13  14
ENDBRANCH  12  13
ENDBRANCH  10  12
ENDBRANCH   6  10
BRANCH   8  18
ATOM     18  O   UNL     1       4.343   5.566  -0.440  1.00  0.00    -0.391 OA
ATOM     19  H   UNL     1       4.247   6.011  -1.296  1.00  0.00     0.211 HD
ENDBRANCH   8  18
ENDBRANCH   1   5
BRANCH   3  20
ATOM     20  C   UNL     1      -1.654   7.756   1.730  1.00  0.00     0.117 C 
BRANCH  20  21
ATOM     21  C   UNL     1      -2.731   6.681   1.794  1.00  0.00     0.042 C 
BRANCH  21  22
ATOM     22  C   UNL     1      -3.419   6.558   3.145  1.00  0.00     0.118 C 
BRANCH  22  23
ATOM     23  N   UNL     1      -4.282   7.690   3.437  1.00  0.00    -0.352 N 
ATOM     24  C   UNL     1      -5.633   7.727   3.665  1.00  0.00     0.251 C 
ATOM     25  H   UNL     1      -3.828   8.562   3.477  1.00  0.00     0.163 HD
ATOM     26  O   UNL     1      -6.210   8.816   3.712  1.00  0.00    -0.269 OA
BRANCH  24  27
ATOM     27  C   UNL     1      -6.412   6.481   3.836  1.00  0.00     0.039 A 
ATOM     28  C   UNL     1      -7.681   6.397   3.253  1.00  0.00     0.014 A 
ATOM     29  C   UNL     1      -5.923   5.412   4.591  1.00  0.00     0.014 A 
ATOM     30  C   UNL     1      -8.432   5.226   3.382  1.00  0.00     0.010 A 
ATOM     31  C   UNL     1      -6.635   4.215   4.648  1.00  0.00     0.010 A 
ATOM     32  C   UNL     1      -7.902   4.113   4.054  1.00  0.00    -0.014 A 
BRANCH  32  33
ATOM     33  C   UNL     1      -8.665   2.843   4.170  1.00  0.00     0.031 A 
ATOM     34  C   UNL     1      -9.081   2.337   5.524  1.00  0.00     0.074 A 
ATOM     35  C   UNL     1      -8.935   2.118   3.067  1.00  0.00     0.049 A 
ATOM     36  N   UNL     1      -9.669   1.212   5.846  1.00  0.00    -0.248 NA
ATOM     37  C   UNL     1      -8.773   3.201   6.675  1.00  0.00     0.031 C 
ATOM     38  C   UNL     1      -8.562   2.485   1.700  1.00  0.00     0.029 A 
ATOM     39  N   UNL     1      -9.579   0.914   2.922  1.00  0.00    -0.354 N 
ATOM     40  C   UNL     1      -9.789   1.230   7.230  1.00  0.00     0.074 A 
ATOM     41  C   UNL     1      -9.160   2.447   7.693  1.00  0.00     0.031 C 
ATOM     42  C   UNL     1      -8.999   1.538   0.855  1.00  0.00     0.029 A 
ATOM     43  C   UNL     1      -9.642   0.475   1.622  1.00  0.00     0.049 A 
ATOM     44  H   UNL     1      -9.959   0.412   3.679  1.00  0.00     0.167 HD
ATOM     45  C   UNL     1     -10.394   0.327   8.039  1.00  0.00     0.037 A 
ATOM     46  C   UNL     1     -10.149  -0.662   1.109  1.00  0.00     0.037 A 
ATOM     47  C   UNL     1     -11.034  -0.875   7.574  1.00  0.00     0.049 A 
ATOM     48  C   UNL     1     -10.782  -1.667   2.035  1.00  0.00     0.074 A 
ATOM     49  C   UNL     1     -11.704  -1.837   8.309  1.00  0.00     0.029 A 
ATOM     50  N   UNL     1     -11.084  -1.279   6.247  1.00  0.00    -0.354 N 
ATOM     51  N   UNL     1     -10.936  -1.614   3.336  1.00  0.00    -0.248 NA
ATOM     52  C   UNL     1     -11.315  -2.891   1.419  1.00  0.00     0.031 C 
ATOM     53  C   UNL     1     -12.118  -2.847   7.435  1.00  0.00     0.029 A 
ATOM     54  C   UNL     1     -11.757  -2.487   6.147  1.00  0.00     0.049 A 
ATOM     55  H   UNL     1     -10.699  -0.782   5.490  1.00  0.00     0.167 HD
ATOM     56  C   UNL     1     -11.614  -2.773   3.688  1.00  0.00     0.074 A 
ATOM     57  C   UNL     1     -11.852  -3.507   2.463  1.00  0.00     0.031 C 
ATOM     58  C   UNL     1     -12.005  -3.193   4.917  1.00  0.00     0.037 A 
BRANCH  45  59
ATOM     59  C   UNL     1     -10.397   0.610   9.514  1.00  0.00     0.064 A 
ATOM     60  C   UNL     1     -11.151   1.661  10.059  1.00  0.00     0.173 A 
ATOM     61  C   UNL     1      -9.670  -0.201  10.399  1.00  0.00     0.173 A 
ATOM     62  F   UNL     1     -11.856   2.473   9.257  1.00  0.00    -0.203 F 
ATOM     63  C   UNL     1     -11.152   1.908  11.430  1.00  0.00     0.198 A 
ATOM     64  C   UNL     1      -9.700   0.029  11.773  1.00  0.00     0.198 A 
ATOM     65  F   UNL     1      -8.937  -1.224   9.934  1.00  0.00    -0.203 F 
ATOM     66  F   UNL     1     -11.838   2.950  11.920  1.00  0.00    -0.200 F 
ATOM     67  C   UNL     1     -10.433   1.088  12.286  1.00  0.00     0.200 A 
ATOM     68  F   UNL     1      -9.017  -0.774  12.600  1.00  0.00    -0.200 F 
ATOM     69  F   UNL     1     -10.442   1.322  13.605  1.00  0.00    -0.200 F 
ENDBRANCH  45  59
BRANCH  46  70
ATOM     70  C   UNL     1     -10.095  -0.912  -0.357  1.00  0.00     0.064 A 
ATOM     71  C   UNL     1     -11.267  -0.947  -1.125  1.00  0.00     0.173 A 
ATOM     72  C   UNL     1      -8.878  -1.146  -1.014  1.00  0.00     0.173 A 
ATOM     73  F   UNL     1     -12.457  -0.751  -0.539  1.00  0.00    -0.203 F 
ATOM     74  C   UNL     1     -11.227  -1.235  -2.488  1.00  0.00     0.198 A 
ATOM     75  C   UNL     1      -8.836  -1.402  -2.383  1.00  0.00     0.198 A 
ATOM     76  F   UNL     1      -7.726  -1.120  -0.327  1.00  0.00    -0.203 F 
ATOM     77  F   UNL     1     -12.368  -1.319  -3.186  1.00  0.00    -0.200 F 
ATOM     78  C   UNL     1     -10.012  -1.458  -3.117  1.00  0.00     0.200 A 
ATOM     79  F   UNL     1      -7.658  -1.602  -2.990  1.00  0.00    -0.200 F 
ATOM     80  F   UNL     1      -9.974  -1.737  -4.427  1.00  0.00    -0.200 F 
ENDBRANCH  46  70
BRANCH  58  81
ATOM     81  C   UNL     1     -12.778  -4.478   4.995  1.00  0.00     0.064 A 
ATOM     82  C   UNL     1     -12.171  -5.722   4.775  1.00  0.00     0.173 A 
ATOM     83  C   UNL     1     -14.138  -4.463   5.344  1.00  0.00     0.173 A 
ATOM     84  F   UNL     1     -10.878  -5.790   4.424  1.00  0.00    -0.203 F 
ATOM     85  C   UNL     1     -12.902  -6.903   4.878  1.00  0.00     0.198 A 
ATOM     86  C   UNL     1     -14.857  -5.647   5.478  1.00  0.00     0.198 A 
ATOM     87  F   UNL     1     -14.765  -3.299   5.572  1.00  0.00    -0.203 F 
ATOM     88  F   UNL     1     -12.313  -8.078   4.617  1.00  0.00    -0.200 F 
ATOM     89  C   UNL     1     -14.241  -6.865   5.238  1.00  0.00     0.200 A 
ATOM     90  F   UNL     1     -16.147  -5.608   5.842  1.00  0.00    -0.200 F 
ATOM     91  F   UNL     1     -14.939  -8.003   5.348  1.00  0.00    -0.200 F 
ENDBRANCH  58  81
ENDBRANCH  32  33
ENDBRANCH  24  27
ENDBRANCH  22  23
ENDBRANCH  21  22
ENDBRANCH  20  21
ENDBRANCH   3  20
TORSDOF 17
