REMARK SMILES Cc1ccc(CSCC(=O)N[C@H]2C=C[C@@H](C(=O)NCCCNC(=O)c3ccc(-c4c5nc(c(-c6c(F)c(F)c(F)c(F)c6F)c6ccc([nH]6)c(-c6c(F)c(F)c(F)c(F)c6F)c6nc(c(-c7c(F)c(F)c(F)c(F)c7F)c7ccc4[nH]7)C=C6)C=C5)cc3)C2)cc1
REMARK SMILES IDX 16 1 17 2 18 3 15 5 12 6 13 7 88 8 14 9 11 10 9 11 10 12
REMARK SMILES IDX 8 14 7 15 6 16 5 17 1 18 2 19 3 20 90 21 4 22 89 23 19 24
REMARK SMILES IDX 20 25 21 26 22 27 23 28 24 30 25 31 26 32 87 33 27 34 86 35
REMARK SMILES IDX 28 36 29 37 30 38 80 39 31 40 85 41 79 42 81 43 32 44 84 45
REMARK SMILES IDX 78 46 77 47 33 49 65 50 45 51 64 52 46 53 49 54 63 55 82 56
REMARK SMILES IDX 47 57 48 58 62 60 83 61 50 62 34 63 35 64 43 65 36 66 37 67
REMARK SMILES IDX 41 68 44 69 38 70 39 71 42 72 40 73 66 74 67 75 75 76 68 77
REMARK SMILES IDX 69 78 73 79 76 80 70 81 71 82 74 83 72 84 51 85 52 86 60 87
REMARK SMILES IDX 53 88 54 89 58 90 61 91 55 92 56 93 59 94 57 95
REMARK H PARENT 18 4 11 13 22 29 81 48 49 59
REMARK Flexibility Score: inf
ROOT
ATOM      1  C   UNL     1      -7.783  -1.144  -0.122  1.00  0.00     0.227 C 
ATOM      2  O   UNL     1      -8.843  -1.439   0.440  1.00  0.00    -0.274 OA
ATOM      3  N   UNL     1      -6.660  -1.154   0.645  1.00  0.00    -0.356 N 
ATOM      4  H   UNL     1      -6.815  -1.363   1.595  1.00  0.00     0.163 HD
ENDROOT
BRANCH   1   5
ATOM      5  C   UNL     1      -7.783  -0.780  -1.613  1.00  0.00     0.103 C 
ATOM      6  C   UNL     1      -6.367   0.543  -3.161  1.00  0.00     0.106 C 
ATOM      7  C   UNL     1      -6.156  -0.922  -3.300  1.00  0.00    -0.006 C 
ATOM      8  C   UNL     1      -7.319   0.642  -1.944  1.00  0.00     0.047 C 
ATOM      9  C   UNL     1      -6.915  -1.644  -2.468  1.00  0.00    -0.016 C 
BRANCH   6  10
ATOM     10  N   UNL     1      -5.167   1.321  -2.884  1.00  0.00    -0.349 N 
ATOM     11  C   UNL     1      -3.926   1.407  -3.423  1.00  0.00     0.230 C 
ATOM     12  O   UNL     1      -3.274   2.414  -3.121  1.00  0.00    -0.274 OA
ATOM     13  H   UNL     1      -5.286   1.932  -2.121  1.00  0.00     0.164 HD
BRANCH  11  14
ATOM     14  C   UNL     1      -3.307   0.330  -4.283  1.00  0.00     0.169 C 
BRANCH  14  15
ATOM     15  S   UNL     1      -2.715  -1.139  -3.381  1.00  0.00    -0.147 SA
BRANCH  15  16
ATOM     16  C   UNL     1      -2.317  -0.470  -1.751  1.00  0.00     0.105 C 
BRANCH  16  17
ATOM     17  C   UNL     1      -0.858  -0.263  -1.462  1.00  0.00    -0.038 A 
ATOM     18  C   UNL     1       3.159   0.205   0.042  1.00  0.00     0.044 C 
ATOM     19  C   UNL     1       1.782   0.067  -0.535  1.00  0.00    -0.051 A 
ATOM     20  C   UNL     1       1.305  -1.202  -0.882  1.00  0.00     0.004 A 
ATOM     21  C   UNL     1       0.939   1.174  -0.675  1.00  0.00     0.004 A 
ATOM     22  C   UNL     1      -0.002  -1.365  -1.344  1.00  0.00     0.005 A 
ATOM     23  C   UNL     1      -0.370   1.012  -1.140  1.00  0.00     0.005 A 
ENDBRANCH  16  17
ENDBRANCH  15  16
ENDBRANCH  14  15
ENDBRANCH  11  14
ENDBRANCH   6  10
ENDBRANCH   1   5
BRANCH   3  24
ATOM     24  C   UNL     1      -5.275  -0.910   0.302  1.00  0.00     0.117 C 
BRANCH  24  25
ATOM     25  C   UNL     1      -4.782   0.424   0.849  1.00  0.00     0.042 C 
BRANCH  25  26
ATOM     26  C   UNL     1      -3.756   0.289   1.971  1.00  0.00     0.118 C 
BRANCH  26  27
ATOM     27  N   UNL     1      -2.522  -0.377   1.559  1.00  0.00    -0.352 N 
ATOM     28  C   UNL     1      -1.212  -0.385   2.010  1.00  0.00     0.251 C 
ATOM     29  H   UNL     1      -2.652  -0.958   0.774  1.00  0.00     0.163 HD
ATOM     30  O   UNL     1      -0.513  -1.311   1.642  1.00  0.00    -0.269 OA
BRANCH  28  31
ATOM     31  C   UNL     1      -0.693   0.522   3.087  1.00  0.00     0.039 A 
ATOM     32  C   UNL     1       0.010  -0.233   4.037  1.00  0.00     0.014 A 
ATOM     33  C   UNL     1      -1.528   1.529   3.525  1.00  0.00     0.014 A 
ATOM     34  C   UNL     1      -0.612  -0.470   5.250  1.00  0.00     0.010 A 
ATOM     35  C   UNL     1      -2.215   1.257   4.688  1.00  0.00     0.010 A 
ATOM     36  C   UNL     1      -1.825   0.164   5.476  1.00  0.00    -0.014 A 
BRANCH  36  37
ATOM     37  C   UNL     1      -2.795  -0.296   6.452  1.00  0.00     0.031 A 
ATOM     38  C   UNL     1      -2.997   0.517   7.661  1.00  0.00     0.074 A 
ATOM     39  C   UNL     1      -3.556  -1.386   6.199  1.00  0.00     0.049 A 
ATOM     40  N   UNL     1      -3.580   0.101   8.729  1.00  0.00    -0.248 NA
ATOM     41  C   UNL     1      -2.460   1.867   7.790  1.00  0.00     0.031 C 
ATOM     42  C   UNL     1      -4.773  -1.789   6.900  1.00  0.00     0.029 A 
ATOM     43  N   UNL     1      -3.271  -2.470   5.349  1.00  0.00    -0.354 N 
ATOM     44  C   UNL     1      -3.749   1.180   9.563  1.00  0.00     0.074 A 
ATOM     45  C   UNL     1      -2.934   2.217   8.986  1.00  0.00     0.031 C 
ATOM     46  C   UNL     1      -4.990  -3.095   6.686  1.00  0.00     0.029 A 
ATOM     47  C   UNL     1      -3.840  -3.610   5.967  1.00  0.00     0.049 A 
ATOM     48  H   UNL     1      -2.777  -2.442   4.498  1.00  0.00     0.167 HD
ATOM     49  C   UNL     1      -4.670   1.077  10.562  1.00  0.00     0.037 A 
ATOM     50  C   UNL     1      -3.063  -4.643   6.403  1.00  0.00     0.037 A 
ATOM     51  C   UNL     1      -5.087  -0.321  10.716  1.00  0.00     0.049 A 
ATOM     52  C   UNL     1      -3.124  -4.872   7.898  1.00  0.00     0.074 A 
ATOM     53  C   UNL     1      -6.211  -1.028  10.320  1.00  0.00     0.029 A 
ATOM     54  N   UNL     1      -4.133  -1.272  11.074  1.00  0.00    -0.354 N 
ATOM     55  N   UNL     1      -3.570  -3.989   8.749  1.00  0.00    -0.248 NA
ATOM     56  C   UNL     1      -2.668  -6.094   8.555  1.00  0.00     0.031 C 
ATOM     57  C   UNL     1      -5.897  -2.413  10.373  1.00  0.00     0.029 A 
ATOM     58  C   UNL     1      -4.598  -2.550  10.832  1.00  0.00     0.049 A 
ATOM     59  H   UNL     1      -3.247  -1.061  11.449  1.00  0.00     0.167 HD
ATOM     60  C   UNL     1      -3.436  -4.469  10.026  1.00  0.00     0.074 A 
ATOM     61  C   UNL     1      -2.889  -5.801   9.850  1.00  0.00     0.031 C 
ATOM     62  C   UNL     1      -3.767  -3.714  11.116  1.00  0.00     0.037 A 
BRANCH  49  63
ATOM     63  C   UNL     1      -5.385   2.244  11.227  1.00  0.00     0.064 A 
ATOM     64  C   UNL     1      -6.551   2.009  11.994  1.00  0.00     0.173 A 
ATOM     65  C   UNL     1      -5.070   3.611  11.074  1.00  0.00     0.173 A 
ATOM     66  F   UNL     1      -6.958   0.766  12.284  1.00  0.00    -0.203 F 
ATOM     67  C   UNL     1      -7.358   3.043  12.486  1.00  0.00     0.198 A 
ATOM     68  C   UNL     1      -5.877   4.643  11.563  1.00  0.00     0.198 A 
ATOM     69  F   UNL     1      -3.969   4.033  10.457  1.00  0.00    -0.203 F 
ATOM     70  F   UNL     1      -8.470   2.749  13.172  1.00  0.00    -0.200 F 
ATOM     71  C   UNL     1      -7.029   4.362  12.256  1.00  0.00     0.200 A 
ATOM     72  F   UNL     1      -5.521   5.918  11.339  1.00  0.00    -0.200 F 
ATOM     73  F   UNL     1      -7.808   5.353  12.706  1.00  0.00    -0.200 F 
ENDBRANCH  49  63
BRANCH  50  74
ATOM     74  C   UNL     1      -1.885  -4.892   5.535  1.00  0.00     0.064 A 
ATOM     75  C   UNL     1      -2.107  -5.431   4.255  1.00  0.00     0.173 A 
ATOM     76  C   UNL     1      -0.656  -4.262   5.766  1.00  0.00     0.173 A 
ATOM     77  F   UNL     1      -3.271  -6.043   3.981  1.00  0.00    -0.203 F 
ATOM     78  C   UNL     1      -1.185  -5.261   3.224  1.00  0.00     0.198 A 
ATOM     79  C   UNL     1       0.266  -4.091   4.730  1.00  0.00     0.198 A 
ATOM     80  F   UNL     1      -0.393  -3.713   6.961  1.00  0.00    -0.203 F 
ATOM     81  F   UNL     1      -1.467  -5.716   1.994  1.00  0.00    -0.200 F 
ATOM     82  C   UNL     1      -0.009  -4.567   3.456  1.00  0.00     0.200 A 
ATOM     83  F   UNL     1       1.394  -3.400   4.951  1.00  0.00    -0.200 F 
ATOM     84  F   UNL     1       0.851  -4.346   2.451  1.00  0.00    -0.200 F 
ENDBRANCH  50  74
BRANCH  62  85
ATOM     85  C   UNL     1      -3.408  -4.015  12.556  1.00  0.00     0.064 A 
ATOM     86  C   UNL     1      -2.292  -4.772  12.950  1.00  0.00     0.173 A 
ATOM     87  C   UNL     1      -4.115  -3.388  13.613  1.00  0.00     0.173 A 
ATOM     88  F   UNL     1      -1.469  -5.325  12.050  1.00  0.00    -0.203 F 
ATOM     89  C   UNL     1      -1.942  -4.933  14.295  1.00  0.00     0.198 A 
ATOM     90  C   UNL     1      -3.725  -3.497  14.947  1.00  0.00     0.198 A 
ATOM     91  F   UNL     1      -5.191  -2.621  13.379  1.00  0.00    -0.203 F 
ATOM     92  F   UNL     1      -0.890  -5.698  14.618  1.00  0.00    -0.200 F 
ATOM     93  C   UNL     1      -2.647  -4.284  15.290  1.00  0.00     0.200 A 
ATOM     94  F   UNL     1      -4.387  -2.815  15.892  1.00  0.00    -0.200 F 
ATOM     95  F   UNL     1      -2.274  -4.396  16.572  1.00  0.00    -0.200 F 
ENDBRANCH  62  85
ENDBRANCH  36  37
ENDBRANCH  28  31
ENDBRANCH  26  27
ENDBRANCH  25  26
ENDBRANCH  24  25
ENDBRANCH   3  24
TORSDOF 15
