REMARK SMILES O=C(NCCCNC(=O)c1c(F)cccc1Oc1cccc(Cl)c1)c1ccc(-c2c3nc(c(-c4c(F)c(F)c(F)c(F)c4F)c4ccc([nH]4)c(-c4c(F)c(F)c(F)c(F)c4F)c4nc(c(-c5c(F)c(F)c(F)c(F)c5F)c5ccc2[nH]5)C=C4)C=C3)cc1
REMARK SMILES IDX 5 1 4 2 3 3 1 4 2 5 25 7 26 8 87 9 27 10 86 11 28 12 29 13
REMARK SMILES IDX 30 14 80 15 31 16 85 17 79 18 81 19 32 20 84 21 78 22 77 23
REMARK SMILES IDX 33 25 65 26 45 27 64 28 46 29 49 30 63 31 82 32 47 33 48 34
REMARK SMILES IDX 62 36 83 37 50 38 34 39 35 40 43 41 36 42 37 43 41 44 44 45
REMARK SMILES IDX 38 46 39 47 42 48 40 49 66 50 67 51 75 52 68 53 69 54 73 55
REMARK SMILES IDX 76 56 70 57 71 58 74 59 72 60 51 61 52 62 60 63 53 64 54 65
REMARK SMILES IDX 58 66 61 67 55 68 56 69 59 70 57 71 6 72 7 73 8 74 9 76
REMARK SMILES IDX 10 77 11 78 16 79 12 80 13 81 15 82 14 83 17 84 18 85 19 86
REMARK SMILES IDX 24 87 20 88 22 89 21 90 23 91
REMARK H PARENT 3 6 81 24 49 35 7 75
REMARK Flexibility Score: inf
ROOT
ATOM      1  C   UNL     1       4.959  -2.580  -0.336  1.00  0.00     0.042 C 
ENDROOT
BRANCH   1   2
ATOM      2  C   UNL     1       4.577  -1.242  -0.954  1.00  0.00     0.118 C 
BRANCH   2   3
ATOM      3  N   UNL     1       3.154  -0.940  -0.856  1.00  0.00    -0.352 N 
ATOM      4  O   UNL     1       1.230  -0.060  -0.102  1.00  0.00    -0.269 OA
ATOM      5  C   UNL     1       2.459  -0.030  -0.097  1.00  0.00     0.251 C 
ATOM      6  H   UNL     1       2.586  -1.489  -1.444  1.00  0.00     0.163 HD
BRANCH   5   7
ATOM      7  C   UNL     1       3.155   0.958   0.760  1.00  0.00     0.039 A 
ATOM      8  C   UNL     1       4.315   1.604   0.341  1.00  0.00     0.014 A 
ATOM      9  C   UNL     1       2.609   1.271   2.011  1.00  0.00     0.014 A 
ATOM     10  C   UNL     1       5.034   2.391   1.235  1.00  0.00     0.010 A 
ATOM     11  C   UNL     1       3.275   2.153   2.870  1.00  0.00     0.010 A 
ATOM     12  C   UNL     1       4.525   2.677   2.512  1.00  0.00    -0.014 A 
BRANCH  12  13
ATOM     13  C   UNL     1       5.316   3.534   3.436  1.00  0.00     0.031 A 
ATOM     14  C   UNL     1       5.838   2.993   4.741  1.00  0.00     0.074 A 
ATOM     15  C   UNL     1       5.621   4.793   3.064  1.00  0.00     0.049 A 
ATOM     16  N   UNL     1       6.598   3.581   5.632  1.00  0.00    -0.248 NA
ATOM     17  C   UNL     1       5.456   1.619   5.099  1.00  0.00     0.031 C 
ATOM     18  C   UNL     1       5.165   5.436   1.831  1.00  0.00     0.029 A 
ATOM     19  N   UNL     1       6.408   5.744   3.664  1.00  0.00    -0.354 N 
ATOM     20  C   UNL     1       6.770   2.659   6.657  1.00  0.00     0.074 A 
ATOM     21  C   UNL     1       6.008   1.483   6.296  1.00  0.00     0.031 C 
ATOM     22  C   UNL     1       5.731   6.647   1.733  1.00  0.00     0.029 A 
ATOM     23  C   UNL     1       6.540   6.892   2.922  1.00  0.00     0.049 A 
ATOM     24  H   UNL     1       6.836   5.615   4.541  1.00  0.00     0.167 HD
ATOM     25  C   UNL     1       7.509   2.777   7.787  1.00  0.00     0.037 A 
ATOM     26  C   UNL     1       7.234   8.019   3.167  1.00  0.00     0.037 A 
ATOM     27  C   UNL     1       8.283   3.941   8.136  1.00  0.00     0.049 A 
ATOM     28  C   UNL     1       8.039   8.127   4.430  1.00  0.00     0.074 A 
ATOM     29  C   UNL     1       9.074   4.146   9.253  1.00  0.00     0.029 A 
ATOM     30  N   UNL     1       8.365   5.095   7.371  1.00  0.00    -0.354 N 
ATOM     31  N   UNL     1       8.203   7.241   5.381  1.00  0.00    -0.248 NA
ATOM     32  C   UNL     1       8.754   9.391   4.655  1.00  0.00     0.031 C 
ATOM     33  C   UNL     1       9.602   5.439   9.185  1.00  0.00     0.029 A 
ATOM     34  C   UNL     1       9.184   6.021   7.999  1.00  0.00     0.049 A 
ATOM     35  H   UNL     1       7.909   5.237   6.510  1.00  0.00     0.167 HD
ATOM     36  C   UNL     1       9.051   7.830   6.308  1.00  0.00     0.074 A 
ATOM     37  C   UNL     1       9.381   9.144   5.797  1.00  0.00     0.031 C 
ATOM     38  C   UNL     1       9.511   7.324   7.478  1.00  0.00     0.037 A 
BRANCH  25  39
ATOM     39  C   UNL     1       7.519   1.617   8.741  1.00  0.00     0.064 A 
ATOM     40  C   UNL     1       6.901   1.722   9.997  1.00  0.00     0.173 A 
ATOM     41  C   UNL     1       8.195   0.424   8.442  1.00  0.00     0.173 A 
ATOM     42  F   UNL     1       6.247   2.843  10.337  1.00  0.00    -0.203 F 
ATOM     43  C   UNL     1       6.969   0.681  10.920  1.00  0.00     0.198 A 
ATOM     44  C   UNL     1       8.237  -0.625   9.357  1.00  0.00     0.198 A 
ATOM     45  F   UNL     1       8.793   0.268   7.251  1.00  0.00    -0.203 F 
ATOM     46  F   UNL     1       6.396   0.817  12.124  1.00  0.00    -0.200 F 
ATOM     47  C   UNL     1       7.632  -0.492  10.598  1.00  0.00     0.200 A 
ATOM     48  F   UNL     1       8.858  -1.768   9.034  1.00  0.00    -0.200 F 
ATOM     49  F   UNL     1       7.686  -1.498  11.482  1.00  0.00    -0.200 F 
ENDBRANCH  25  39
BRANCH  26  50
ATOM     50  C   UNL     1       7.208   9.119   2.170  1.00  0.00     0.064 A 
ATOM     51  C   UNL     1       6.040   9.858   1.933  1.00  0.00     0.173 A 
ATOM     52  C   UNL     1       8.337   9.414   1.394  1.00  0.00     0.173 A 
ATOM     53  F   UNL     1       4.931   9.608   2.645  1.00  0.00    -0.203 F 
ATOM     54  C   UNL     1       5.994  10.832   0.939  1.00  0.00     0.198 A 
ATOM     55  C   UNL     1       8.298  10.408   0.418  1.00  0.00     0.198 A 
ATOM     56  F   UNL     1       9.482   8.745   1.596  1.00  0.00    -0.203 F 
ATOM     57  F   UNL     1       4.851  11.492   0.702  1.00  0.00    -0.200 F 
ATOM     58  C   UNL     1       7.123  11.108   0.184  1.00  0.00     0.200 A 
ATOM     59  F   UNL     1       9.397  10.686  -0.295  1.00  0.00    -0.200 F 
ATOM     60  F   UNL     1       7.080  12.048  -0.770  1.00  0.00    -0.200 F 
ENDBRANCH  26  50
BRANCH  38  61
ATOM     61  C   UNL     1      10.447   8.177   8.282  1.00  0.00     0.064 A 
ATOM     62  C   UNL     1      11.800   7.827   8.400  1.00  0.00     0.173 A 
ATOM     63  C   UNL     1       9.995   9.302   8.987  1.00  0.00     0.173 A 
ATOM     64  F   UNL     1      12.280   6.755   7.752  1.00  0.00    -0.203 F 
ATOM     65  C   UNL     1      12.664   8.565   9.204  1.00  0.00     0.198 A 
ATOM     66  C   UNL     1      10.868  10.055   9.767  1.00  0.00     0.198 A 
ATOM     67  F   UNL     1       8.712   9.685   8.895  1.00  0.00    -0.203 F 
ATOM     68  F   UNL     1      13.946   8.194   9.325  1.00  0.00    -0.200 F 
ATOM     69  C   UNL     1      12.199   9.681   9.883  1.00  0.00     0.200 A 
ATOM     70  F   UNL     1      10.422  11.147  10.404  1.00  0.00    -0.200 F 
ATOM     71  F   UNL     1      13.034  10.399  10.646  1.00  0.00    -0.200 F 
ENDBRANCH  38  61
ENDBRANCH  12  13
ENDBRANCH   5   7
ENDBRANCH   2   3
ENDBRANCH   1   2
BRANCH   1  72
ATOM     72  C   UNL     1       4.339  -3.795  -1.010  1.00  0.00     0.118 C 
BRANCH  72  73
ATOM     73  N   UNL     1       4.620  -3.880  -2.436  1.00  0.00    -0.352 N 
ATOM     74  C   UNL     1       5.297  -4.841  -3.151  1.00  0.00     0.258 C 
ATOM     75  H   UNL     1       4.271  -3.132  -2.973  1.00  0.00     0.163 HD
ATOM     76  O   UNL     1       5.294  -4.805  -4.379  1.00  0.00    -0.269 OA
BRANCH  74  77
ATOM     77  C   UNL     1       6.006  -5.922  -2.454  1.00  0.00     0.118 A 
ATOM     78  C   UNL     1       5.202  -6.841  -1.765  1.00  0.00     0.139 A 
ATOM     79  C   UNL     1       7.391  -6.136  -2.515  1.00  0.00     0.143 A 
ATOM     80  F   UNL     1       3.869  -6.691  -1.730  1.00  0.00    -0.206 F 
ATOM     81  C   UNL     1       5.749  -7.924  -1.083  1.00  0.00     0.040 A 
ATOM     82  C   UNL     1       7.930  -7.244  -1.832  1.00  0.00     0.048 A 
ATOM     83  C   UNL     1       7.122  -8.124  -1.111  1.00  0.00     0.007 A 
BRANCH  79  84
ATOM     84  O   UNL     1       8.364  -5.456  -3.218  1.00  0.00    -0.456 OA
BRANCH  84  85
ATOM     85  C   UNL     1       8.158  -4.187  -3.681  1.00  0.00     0.128 A 
ATOM     86  C   UNL     1       8.018  -3.102  -2.816  1.00  0.00     0.047 A 
ATOM     87  C   UNL     1       8.223  -3.991  -5.061  1.00  0.00     0.067 A 
ATOM     88  C   UNL     1       7.860  -1.818  -3.341  1.00  0.00     0.005 A 
ATOM     89  C   UNL     1       8.068  -2.708  -5.578  1.00  0.00     0.044 A 
ATOM     90  C   UNL     1       7.877  -1.622  -4.724  1.00  0.00     0.021 A 
ATOM     91  Cl  UNL     1       8.129  -2.457  -7.279  1.00  0.00    -0.084 Cl
ENDBRANCH  84  85
ENDBRANCH  79  84
ENDBRANCH  74  77
ENDBRANCH  72  73
ENDBRANCH   1  72
TORSDOF 12
