REMARK SMILES Cc1ccc2cc(C[N@H+]3CC[NH2+][C@H](C(=O)NCCCNC(=O)c4ccc(-c5c6nc(c(-c7c(F)c(F)c(F)c(F)c7F)c7ccc([nH]7)c(-c7c(F)c(F)c(F)c(F)c7F)c7nc(c(-c8c(F)c(F)c(F)c(F)c8F)c8ccc5[nH]8)C=C7)C=C6)cc4)C3)c(N3CCOCC3)nc2c1
REMARK SMILES IDX 17 1 16 2 14 3 15 4 13 6 9 7 10 8 86 9 11 11 12 12 8 15 7 16
REMARK SMILES IDX 1 17 2 18 3 19 96 20 4 21 95 22 5 23 94 24 6 25 87 26 88 27
REMARK SMILES IDX 89 28 93 29 90 30 92 31 91 32 18 33 19 34 20 35 21 36 22 38
REMARK SMILES IDX 23 39 24 40 85 41 25 42 84 43 26 44 27 45 28 46 78 47 29 48
REMARK SMILES IDX 83 49 77 50 79 51 30 52 82 53 76 54 75 55 31 57 63 58 43 59
REMARK SMILES IDX 62 60 44 61 47 62 61 63 80 64 45 65 46 66 60 68 81 69 48 70
REMARK SMILES IDX 32 71 33 72 41 73 34 74 35 75 39 76 42 77 36 78 37 79 40 80
REMARK SMILES IDX 38 81 64 82 65 83 73 84 66 85 67 86 71 87 74 88 68 89 69 90
REMARK SMILES IDX 72 91 70 92 49 93 50 94 58 95 51 96 52 97 56 98 59 99 53 100
REMARK SMILES IDX 54 101 57 102 55 103
REMARK H PARENT 16 5 9 10 12 13 12 14 20 37 79 56 47 67
REMARK Flexibility Score: inf
ROOT
ATOM      1  C   UNL     1      -4.447   2.392   2.809  1.00  0.00     0.118 C 
ENDROOT
BRANCH   1   2
ATOM      2  N   UNL     1      -3.877   2.484   4.140  1.00  0.00    -0.351 N 
ATOM      3  C   UNL     1      -3.121   3.460   4.713  1.00  0.00     0.284 C 
ATOM      4  O   UNL     1      -2.802   3.282   5.894  1.00  0.00    -0.268 OA
ATOM      5  H   UNL     1      -4.069   1.714   4.724  1.00  0.00     0.163 HD
BRANCH   3   6
ATOM      6  C   UNL     1      -2.555   4.631   3.897  1.00  0.00     0.328 C 
ATOM      7  N   UNL     1      -1.393   6.891   4.212  1.00  0.00    -0.321 N 
ATOM      8  C   UNL     1      -2.143   7.338   3.027  1.00  0.00     0.324 C 
ATOM      9  C   UNL     1      -2.001   5.717   4.859  1.00  0.00     0.339 C 
ATOM     10  H   UNL     1      -1.493   7.652   4.884  1.00  0.00     0.348 HD
ATOM     11  C   UNL     1      -2.767   6.228   2.151  1.00  0.00     0.323 C 
ATOM     12  N   UNL     1      -3.522   5.249   2.955  1.00  0.00    -0.327 N 
ATOM     13  H   UNL     1      -3.928   4.536   2.350  1.00  0.00     0.347 HD
ATOM     14  H   UNL     1      -4.286   5.701   3.458  1.00  0.00     0.347 HD
BRANCH   7  15
ATOM     15  C   UNL     1       0.069   6.824   4.049  1.00  0.00     0.303 C 
BRANCH  15  16
ATOM     16  C   UNL     1       0.614   5.771   3.107  1.00  0.00     0.049 A 
ATOM     17  C   UNL     1       0.964   0.190  -0.166  1.00  0.00     0.044 C 
ATOM     18  C   UNL     1       0.888   1.311   0.827  1.00  0.00    -0.049 A 
ATOM     19  C   UNL     1       0.690   1.034   2.180  1.00  0.00     0.004 A 
ATOM     20  C   UNL     1       1.061   2.649   0.419  1.00  0.00     0.032 A 
ATOM     21  C   UNL     1       0.666   2.075   3.100  1.00  0.00     0.010 A 
ATOM     22  C   UNL     1       0.999   3.718   1.313  1.00  0.00     0.073 A 
ATOM     23  C   UNL     1       0.818   3.403   2.669  1.00  0.00     0.001 A 
ATOM     24  N   UNL     1       1.072   4.999   0.880  1.00  0.00    -0.230 NA
ATOM     25  C   UNL     1       0.700   4.453   3.571  1.00  0.00     0.023 A 
ATOM     26  C   UNL     1       0.890   6.019   1.755  1.00  0.00     0.138 A 
BRANCH  26  27
ATOM     27  N   UNL     1       0.904   7.314   1.276  1.00  0.00    -0.352 N 
ATOM     28  C   UNL     1       1.958   8.230   1.733  1.00  0.00     0.146 C 
ATOM     29  C   UNL     1       0.451   7.599  -0.086  1.00  0.00     0.146 C 
ATOM     30  C   UNL     1       1.397   9.661   1.670  1.00  0.00     0.181 C 
ATOM     31  C   UNL     1      -0.033   9.065  -0.128  1.00  0.00     0.181 C 
ATOM     32  O   UNL     1       0.973   9.989   0.334  1.00  0.00    -0.378 OA
ENDBRANCH  26  27
ENDBRANCH  15  16
ENDBRANCH   7  15
ENDBRANCH   3   6
ENDBRANCH   1   2
BRANCH   1  33
ATOM     33  C   UNL     1      -3.848   1.264   1.991  1.00  0.00     0.042 C 
BRANCH  33  34
ATOM     34  C   UNL     1      -4.060  -0.110   2.604  1.00  0.00     0.118 C 
BRANCH  34  35
ATOM     35  N   UNL     1      -5.470  -0.418   2.843  1.00  0.00    -0.352 N 
ATOM     36  C   UNL     1      -6.282  -1.373   2.280  1.00  0.00     0.251 C 
ATOM     37  H   UNL     1      -5.908   0.150   3.517  1.00  0.00     0.163 HD
ATOM     38  O   UNL     1      -7.497  -1.337   2.457  1.00  0.00    -0.269 OA
BRANCH  36  39
ATOM     39  C   UNL     1      -5.688  -2.429   1.439  1.00  0.00     0.039 A 
ATOM     40  C   UNL     1      -4.477  -3.006   1.810  1.00  0.00     0.014 A 
ATOM     41  C   UNL     1      -6.317  -2.816   0.253  1.00  0.00     0.014 A 
ATOM     42  C   UNL     1      -3.778  -3.768   0.890  1.00  0.00     0.010 A 
ATOM     43  C   UNL     1      -5.671  -3.704  -0.613  1.00  0.00     0.010 A 
ATOM     44  C   UNL     1      -4.363  -4.130  -0.335  1.00  0.00    -0.014 A 
BRANCH  44  45
ATOM     45  C   UNL     1      -3.557  -4.934  -1.292  1.00  0.00     0.031 A 
ATOM     46  C   UNL     1      -3.209  -4.394  -2.654  1.00  0.00     0.074 A 
ATOM     47  C   UNL     1      -3.041  -6.109  -0.878  1.00  0.00     0.049 A 
ATOM     48  N   UNL     1      -2.436  -4.918  -3.573  1.00  0.00    -0.248 NA
ATOM     49  C   UNL     1      -3.805  -3.106  -3.046  1.00  0.00     0.031 C 
ATOM     50  C   UNL     1      -3.305  -6.727   0.424  1.00  0.00     0.029 A 
ATOM     51  N   UNL     1      -2.151  -6.965  -1.474  1.00  0.00    -0.354 N 
ATOM     52  C   UNL     1      -2.471  -4.040  -4.648  1.00  0.00     0.074 A 
ATOM     53  C   UNL     1      -3.370  -2.967  -4.290  1.00  0.00     0.031 C 
ATOM     54  C   UNL     1      -2.524  -7.805   0.567  1.00  0.00     0.029 A 
ATOM     55  C   UNL     1      -1.770  -8.008  -0.665  1.00  0.00     0.049 A 
ATOM     56  H   UNL     1      -1.817  -6.844  -2.392  1.00  0.00     0.167 HD
ATOM     57  C   UNL     1      -1.794  -4.112  -5.819  1.00  0.00     0.037 A 
ATOM     58  C   UNL     1      -0.914  -9.024  -0.889  1.00  0.00     0.037 A 
ATOM     59  C   UNL     1      -0.870  -5.163  -6.154  1.00  0.00     0.049 A 
ATOM     60  C   UNL     1      -0.216  -9.104  -2.216  1.00  0.00     0.074 A 
ATOM     61  C   UNL     1      -0.110  -5.306  -7.301  1.00  0.00     0.029 A 
ATOM     62  N   UNL     1      -0.577  -6.247  -5.340  1.00  0.00    -0.354 N 
ATOM     63  N   UNL     1      -0.240  -8.252  -3.211  1.00  0.00    -0.248 NA
ATOM     64  C   UNL     1       0.611 -10.293  -2.461  1.00  0.00     0.031 C 
ATOM     65  C   UNL     1       0.603  -6.503  -7.205  1.00  0.00     0.029 A 
ATOM     66  C   UNL     1       0.327  -7.082  -5.976  1.00  0.00     0.049 A 
ATOM     67  H   UNL     1      -0.956  -6.401  -4.444  1.00  0.00     0.167 HD
ATOM     68  C   UNL     1       0.569  -8.796  -4.198  1.00  0.00     0.074 A 
ATOM     69  C   UNL     1       1.092 -10.040  -3.671  1.00  0.00     0.031 C 
ATOM     70  C   UNL     1       0.841  -8.314  -5.434  1.00  0.00     0.037 A 
BRANCH  57  71
ATOM     71  C   UNL     1      -2.017  -3.026  -6.833  1.00  0.00     0.064 A 
ATOM     72  C   UNL     1      -1.519  -1.729  -6.643  1.00  0.00     0.173 A 
ATOM     73  C   UNL     1      -2.670  -3.308  -8.043  1.00  0.00     0.173 A 
ATOM     74  F   UNL     1      -0.896  -1.405  -5.500  1.00  0.00    -0.203 F 
ATOM     75  C   UNL     1      -1.680  -0.749  -7.620  1.00  0.00     0.198 A 
ATOM     76  C   UNL     1      -2.803  -2.334  -9.030  1.00  0.00     0.198 A 
ATOM     77  F   UNL     1      -3.157  -4.535  -8.280  1.00  0.00    -0.203 F 
ATOM     78  F   UNL     1      -1.226   0.492  -7.402  1.00  0.00    -0.200 F 
ATOM     79  C   UNL     1      -2.312  -1.055  -8.816  1.00  0.00     0.200 A 
ATOM     80  F   UNL     1      -3.399  -2.636 -10.192  1.00  0.00    -0.200 F 
ATOM     81  F   UNL     1      -2.450  -0.116  -9.762  1.00  0.00    -0.200 F 
ENDBRANCH  57  71
BRANCH  58  82
ATOM     82  C   UNL     1      -0.683 -10.039   0.172  1.00  0.00     0.064 A 
ATOM     83  C   UNL     1       0.560 -10.145   0.810  1.00  0.00     0.173 A 
ATOM     84  C   UNL     1      -1.708 -10.899   0.595  1.00  0.00     0.173 A 
ATOM     85  F   UNL     1       1.577  -9.358   0.430  1.00  0.00    -0.203 F 
ATOM     86  C   UNL     1       0.769 -11.075   1.827  1.00  0.00     0.198 A 
ATOM     87  C   UNL     1      -1.508 -11.804   1.634  1.00  0.00     0.198 A 
ATOM     88  F   UNL     1      -2.918 -10.835   0.020  1.00  0.00    -0.203 F 
ATOM     89  F   UNL     1       1.976 -11.177   2.400  1.00  0.00    -0.200 F 
ATOM     90  C   UNL     1      -0.268 -11.896   2.246  1.00  0.00     0.200 A 
ATOM     91  F   UNL     1      -2.519 -12.579   2.048  1.00  0.00    -0.200 F 
ATOM     92  F   UNL     1      -0.071 -12.776   3.236  1.00  0.00    -0.200 F 
ENDBRANCH  58  82
BRANCH  70  93
ATOM     93  C   UNL     1       1.741  -9.124  -6.317  1.00  0.00     0.064 A 
ATOM     94  C   UNL     1       1.285 -10.296  -6.936  1.00  0.00     0.173 A 
ATOM     95  C   UNL     1       3.028  -8.665  -6.638  1.00  0.00     0.173 A 
ATOM     96  F   UNL     1       0.068 -10.781  -6.648  1.00  0.00    -0.203 F 
ATOM     97  C   UNL     1       2.083 -10.978  -7.849  1.00  0.00     0.198 A 
ATOM     98  C   UNL     1       3.812  -9.334  -7.572  1.00  0.00     0.198 A 
ATOM     99  F   UNL     1       3.505  -7.544  -6.076  1.00  0.00    -0.203 F 
ATOM    100  F   UNL     1       1.635 -12.106  -8.417  1.00  0.00    -0.200 F 
ATOM    101  C   UNL     1       3.340 -10.489  -8.177  1.00  0.00     0.200 A 
ATOM    102  F   UNL     1       5.018  -8.850  -7.901  1.00  0.00    -0.200 F 
ATOM    103  F   UNL     1       4.094 -11.130  -9.080  1.00  0.00    -0.200 F 
ENDBRANCH  70  93
ENDBRANCH  44  45
ENDBRANCH  36  39
ENDBRANCH  34  35
ENDBRANCH  33  34
ENDBRANCH   1  33
TORSDOF 13
