REMARK SMILES O=C(C[C@H](C(=O)NCCCNC(=O)c1ccc(-c2c3nc(c(-c4c(F)c(F)c(F)c(F)c4F)c4ccc([nH]4)c(-c4c(F)c(F)c(F)c(F)c4F)c4nc(c(-c5c(F)c(F)c(F)c(F)c5F)c5ccc2[nH]5)C=C4)C=C3)cc1)c1ccccc1)Nc1ccc(Cl)cc1Cl
REMARK SMILES IDX 8 1 7 2 5 3 6 4 4 6 3 7 2 8 1 9 83 10 84 12 85 13 90 14
REMARK SMILES IDX 86 15 89 16 91 17 87 18 88 19 77 20 78 21 82 22 79 23 81 24
REMARK SMILES IDX 80 25 9 26 10 27 11 28 12 29 13 31 14 32 15 33 76 34 16 35
REMARK SMILES IDX 75 36 17 37 18 38 19 39 69 40 20 41 74 42 68 43 70 44 21 45
REMARK SMILES IDX 73 46 67 47 66 48 22 50 54 51 34 52 53 53 35 54 38 55 52 56
REMARK SMILES IDX 71 57 36 58 37 59 51 61 72 62 39 63 23 64 24 65 32 66 25 67
REMARK SMILES IDX 26 68 30 69 33 70 27 71 28 72 31 73 29 74 55 75 56 76 64 77
REMARK SMILES IDX 57 78 58 79 62 80 65 81 59 82 60 83 63 84 61 85 40 86 41 87
REMARK SMILES IDX 49 88 42 89 43 90 47 91 50 92 44 93 45 94 48 95 46 96
REMARK H PARENT 7 5 83 11 11 30 70 49 38 60
REMARK Flexibility Score: inf
ROOT
ATOM      1  C   UNL     1       1.234  -2.540   1.036  1.00  0.00     0.117 C 
ENDROOT
BRANCH   1   2
ATOM      2  N   UNL     1       1.667  -1.155   1.031  1.00  0.00    -0.355 N 
ATOM      3  C   UNL     1       2.922  -0.630   1.095  1.00  0.00     0.228 C 
ATOM      4  O   UNL     1       3.030   0.581   1.287  1.00  0.00    -0.274 OA
ATOM      5  H   UNL     1       0.941  -0.493   0.972  1.00  0.00     0.163 HD
BRANCH   3   6
ATOM      6  C   UNL     1       4.131  -1.543   0.889  1.00  0.00     0.118 C 
BRANCH   6   7
ATOM      7  C   UNL     1       5.059  -0.950  -0.179  1.00  0.00     0.118 C 
BRANCH   7   8
ATOM      8  C   UNL     1       4.321  -0.409  -1.406  1.00  0.00     0.225 C 
ATOM      9  O   UNL     1       4.540   0.730  -1.808  1.00  0.00    -0.275 OA
ATOM     10  N   UNL     1       3.406  -1.284  -1.979  1.00  0.00    -0.325 N 
ATOM     11  H   UNL     1       3.268  -2.155  -1.542  1.00  0.00     0.169 HD
BRANCH  10  12
ATOM     12  C   UNL     1       2.657  -1.007  -3.150  1.00  0.00     0.060 A 
ATOM     13  C   UNL     1       1.307  -1.397  -3.127  1.00  0.00     0.029 A 
ATOM     14  C   UNL     1       3.164  -0.404  -4.316  1.00  0.00     0.066 A 
ATOM     15  C   UNL     1       0.461  -1.109  -4.202  1.00  0.00     0.023 A 
ATOM     16  C   UNL     1       2.313  -0.114  -5.390  1.00  0.00     0.043 A 
ATOM     17  Cl  UNL     1       4.858  -0.187  -4.605  1.00  0.00    -0.082 Cl
ATOM     18  C   UNL     1       0.965  -0.453  -5.321  1.00  0.00     0.042 A 
ATOM     19  Cl  UNL     1      -0.077  -0.094  -6.642  1.00  0.00    -0.084 Cl
ENDBRANCH  10  12
ENDBRANCH   7   8
ENDBRANCH   6   7
BRANCH   6  20
ATOM     20  C   UNL     1       4.794  -1.874   2.216  1.00  0.00    -0.035 A 
ATOM     21  C   UNL     1       4.832  -3.204   2.667  1.00  0.00     0.004 A 
ATOM     22  C   UNL     1       5.304  -0.869   3.052  1.00  0.00     0.004 A 
ATOM     23  C   UNL     1       5.346  -3.516   3.928  1.00  0.00     0.000 A 
ATOM     24  C   UNL     1       5.815  -1.184   4.313  1.00  0.00     0.000 A 
ATOM     25  C   UNL     1       5.832  -2.506   4.753  1.00  0.00     0.000 A 
ENDBRANCH   6  20
ENDBRANCH   3   6
ENDBRANCH   1   2
BRANCH   1  26
ATOM     26  C   UNL     1       0.667  -2.943   2.389  1.00  0.00     0.042 C 
BRANCH  26  27
ATOM     27  C   UNL     1      -0.595  -2.174   2.762  1.00  0.00     0.118 C 
BRANCH  27  28
ATOM     28  N   UNL     1      -1.659  -2.350   1.778  1.00  0.00    -0.352 N 
ATOM     29  C   UNL     1      -2.845  -3.029   1.871  1.00  0.00     0.251 C 
ATOM     30  H   UNL     1      -1.498  -1.912   0.912  1.00  0.00     0.163 HD
ATOM     31  O   UNL     1      -3.478  -3.289   0.847  1.00  0.00    -0.269 OA
BRANCH  29  32
ATOM     32  C   UNL     1      -3.358  -3.457   3.186  1.00  0.00     0.039 A 
ATOM     33  C   UNL     1      -3.968  -4.708   3.308  1.00  0.00     0.014 A 
ATOM     34  C   UNL     1      -3.254  -2.616   4.296  1.00  0.00     0.014 A 
ATOM     35  C   UNL     1      -4.404  -5.143   4.561  1.00  0.00     0.010 A 
ATOM     36  C   UNL     1      -3.599  -3.087   5.556  1.00  0.00     0.010 A 
ATOM     37  C   UNL     1      -4.183  -4.354   5.702  1.00  0.00    -0.014 A 
BRANCH  37  38
ATOM     38  C   UNL     1      -4.549  -4.832   7.058  1.00  0.00     0.031 A 
ATOM     39  C   UNL     1      -5.562  -4.080   7.876  1.00  0.00     0.074 A 
ATOM     40  C   UNL     1      -3.908  -5.896   7.580  1.00  0.00     0.049 A 
ATOM     41  N   UNL     1      -5.949  -4.289   9.109  1.00  0.00    -0.248 NA
ATOM     42  C   UNL     1      -6.202  -2.921   7.235  1.00  0.00     0.031 C 
ATOM     43  C   UNL     1      -2.867  -6.672   6.903  1.00  0.00     0.029 A 
ATOM     44  N   UNL     1      -4.028  -6.500   8.806  1.00  0.00    -0.354 N 
ATOM     45  C   UNL     1      -6.862  -3.282   9.393  1.00  0.00     0.074 A 
ATOM     46  C   UNL     1      -6.928  -2.428   8.227  1.00  0.00     0.031 C 
ATOM     47  C   UNL     1      -2.462  -7.664   7.711  1.00  0.00     0.029 A 
ATOM     48  C   UNL     1      -3.180  -7.567   8.978  1.00  0.00     0.049 A 
ATOM     49  H   UNL     1      -4.661  -6.198   9.496  1.00  0.00     0.167 HD
ATOM     50  C   UNL     1      -7.598  -3.101  10.515  1.00  0.00     0.037 A 
ATOM     51  C   UNL     1      -2.996  -8.370  10.043  1.00  0.00     0.037 A 
ATOM     52  C   UNL     1      -7.544  -3.969  11.662  1.00  0.00     0.049 A 
ATOM     53  C   UNL     1      -3.821  -8.143  11.281  1.00  0.00     0.074 A 
ATOM     54  C   UNL     1      -8.293  -3.910  12.825  1.00  0.00     0.029 A 
ATOM     55  N   UNL     1      -6.688  -5.053  11.792  1.00  0.00    -0.354 N 
ATOM     56  N   UNL     1      -4.735  -7.231  11.511  1.00  0.00    -0.248 NA
ATOM     57  C   UNL     1      -3.593  -9.061  12.405  1.00  0.00     0.031 C 
ATOM     58  C   UNL     1      -7.853  -4.925  13.680  1.00  0.00     0.029 A 
ATOM     59  C   UNL     1      -6.873  -5.656  13.026  1.00  0.00     0.049 A 
ATOM     60  H   UNL     1      -6.045  -5.351  11.109  1.00  0.00     0.167 HD
ATOM     61  C   UNL     1      -5.213  -7.485  12.789  1.00  0.00     0.074 A 
ATOM     62  C   UNL     1      -4.498  -8.645  13.279  1.00  0.00     0.031 C 
ATOM     63  C   UNL     1      -6.160  -6.817  13.494  1.00  0.00     0.037 A 
BRANCH  50  64
ATOM     64  C   UNL     1      -8.528  -1.922  10.557  1.00  0.00     0.064 A 
ATOM     65  C   UNL     1      -9.672  -1.856   9.746  1.00  0.00     0.173 A 
ATOM     66  C   UNL     1      -8.295  -0.862  11.446  1.00  0.00     0.173 A 
ATOM     67  F   UNL     1      -9.936  -2.837   8.870  1.00  0.00    -0.203 F 
ATOM     68  C   UNL     1     -10.530  -0.760   9.803  1.00  0.00     0.198 A 
ATOM     69  C   UNL     1      -9.173   0.216  11.524  1.00  0.00     0.198 A 
ATOM     70  F   UNL     1      -7.220  -0.875  12.248  1.00  0.00    -0.203 F 
ATOM     71  F   UNL     1     -11.587  -0.697   8.981  1.00  0.00    -0.200 F 
ATOM     72  C   UNL     1     -10.284   0.270  10.697  1.00  0.00     0.200 A 
ATOM     73  F   UNL     1      -8.942   1.204  12.399  1.00  0.00    -0.200 F 
ATOM     74  F   UNL     1     -11.116   1.319  10.757  1.00  0.00    -0.200 F 
ENDBRANCH  50  64
BRANCH  51  75
ATOM     75  C   UNL     1      -2.005  -9.477   9.978  1.00  0.00     0.064 A 
ATOM     76  C   UNL     1      -2.421 -10.816   9.976  1.00  0.00     0.173 A 
ATOM     77  C   UNL     1      -0.627  -9.223   9.919  1.00  0.00     0.173 A 
ATOM     78  F   UNL     1      -3.728 -11.110  10.048  1.00  0.00    -0.203 F 
ATOM     79  C   UNL     1      -1.497 -11.858   9.944  1.00  0.00     0.198 A 
ATOM     80  C   UNL     1       0.295 -10.266   9.855  1.00  0.00     0.198 A 
ATOM     81  F   UNL     1      -0.176  -7.960   9.909  1.00  0.00    -0.203 F 
ATOM     82  F   UNL     1      -1.921 -13.128   9.994  1.00  0.00    -0.200 F 
ATOM     83  C   UNL     1      -0.140 -11.582   9.878  1.00  0.00     0.200 A 
ATOM     84  F   UNL     1       1.605  -9.995   9.773  1.00  0.00    -0.200 F 
ATOM     85  F   UNL     1       0.749 -12.585   9.842  1.00  0.00    -0.200 F 
ENDBRANCH  51  75
BRANCH  63  86
ATOM     86  C   UNL     1      -6.510  -7.350  14.854  1.00  0.00     0.064 A 
ATOM     87  C   UNL     1      -5.626  -7.247  15.938  1.00  0.00     0.173 A 
ATOM     88  C   UNL     1      -7.765  -7.935  15.082  1.00  0.00     0.173 A 
ATOM     89  F   UNL     1      -4.409  -6.710  15.768  1.00  0.00    -0.203 F 
ATOM     90  C   UNL     1      -5.976  -7.736  17.194  1.00  0.00     0.198 A 
ATOM     91  C   UNL     1      -8.124  -8.392  16.346  1.00  0.00     0.198 A 
ATOM     92  F   UNL     1      -8.650  -8.051  14.080  1.00  0.00    -0.203 F 
ATOM     93  F   UNL     1      -5.096  -7.675  18.203  1.00  0.00    -0.200 F 
ATOM     94  C   UNL     1      -7.226  -8.300  17.399  1.00  0.00     0.200 A 
ATOM     95  F   UNL     1      -9.339  -8.921  16.546  1.00  0.00    -0.200 F 
ATOM     96  F   UNL     1      -7.564  -8.761  18.611  1.00  0.00    -0.200 F 
ENDBRANCH  63  86
ENDBRANCH  37  38
ENDBRANCH  29  32
ENDBRANCH  27  28
ENDBRANCH  26  27
ENDBRANCH   1  26
TORSDOF 14
