REMARK SMILES Cc1c(CC(=O)NCCCNC(=O)c2ccc(-c3c4nc(c(-c5c(F)c(F)c(F)c(F)c5F)c5ccc([nH]5)c(-c5c(F)c(F)c(F)c(F)c5F)c5nc(c(-c6c(F)c(F)c(F)c(F)c6F)c6ccc3[nH]6)C=C5)C=C4)cc2)cccc1-c1ccn(C(F)F)c(=O)c1
REMARK SMILES IDX 8 1 7 2 5 3 6 4 4 6 3 7 1 8 2 9 80 10 77 11 79 12 78 13
REMARK SMILES IDX 81 14 82 15 90 16 83 17 88 18 84 19 89 20 85 21 86 22 87 23
REMARK SMILES IDX 9 24 10 25 11 26 12 27 13 29 14 30 15 31 76 32 16 33 75 34
REMARK SMILES IDX 17 35 18 36 19 37 69 38 20 39 74 40 68 41 70 42 21 43 73 44
REMARK SMILES IDX 67 45 66 46 22 48 54 49 34 50 53 51 35 52 38 53 52 54 71 55
REMARK SMILES IDX 36 56 37 57 51 59 72 60 39 61 23 62 24 63 32 64 25 65 26 66
REMARK SMILES IDX 30 67 33 68 27 69 28 70 31 71 29 72 55 73 56 74 64 75 57 76
REMARK SMILES IDX 58 77 62 78 65 79 59 80 60 81 63 82 61 83 40 84 41 85 49 86
REMARK SMILES IDX 42 87 43 88 47 89 50 90 44 91 45 92 48 93 46 94
REMARK H PARENT 7 5 11 28 70 47 38 58
REMARK Flexibility Score: inf
ROOT
ATOM      1  C   UNL     1       2.054  -1.885   2.692  1.00  0.00     0.117 C 
ENDROOT
BRANCH   1   2
ATOM      2  N   UNL     1       1.120  -2.947   2.346  1.00  0.00    -0.356 N 
ATOM      3  C   UNL     1       0.609  -3.294   1.125  1.00  0.00     0.224 C 
ATOM      4  O   UNL     1      -0.175  -4.245   1.076  1.00  0.00    -0.275 OA
ATOM      5  H   UNL     1       0.809  -3.495   3.102  1.00  0.00     0.163 HD
BRANCH   3   6
ATOM      6  C   UNL     1       1.003  -2.533  -0.140  1.00  0.00     0.135 C 
BRANCH   6   7
ATOM      7  C   UNL     1       0.339  -1.172  -0.259  1.00  0.00    -0.035 A 
ATOM      8  C   UNL     1       2.562   0.045  -0.534  1.00  0.00     0.045 C 
ATOM      9  C   UNL     1       1.062   0.047  -0.350  1.00  0.00    -0.040 A 
ATOM     10  C   UNL     1       0.346   1.274  -0.295  1.00  0.00    -0.015 A 
ATOM     11  C   UNL     1      -1.069  -1.137  -0.212  1.00  0.00     0.004 A 
ATOM     12  C   UNL     1      -1.057   1.268  -0.224  1.00  0.00     0.009 A 
ATOM     13  C   UNL     1      -1.761   0.070  -0.199  1.00  0.00     0.001 A 
BRANCH  10  14
ATOM     14  C   UNL     1       1.035   2.583  -0.217  1.00  0.00    -0.011 A 
ATOM     15  C   UNL     1       1.801   3.149  -1.310  1.00  0.00     0.027 A 
ATOM     16  C   UNL     1       1.007   3.228   0.963  1.00  0.00     0.080 A 
ATOM     17  C   UNL     1       2.542   4.247  -1.120  1.00  0.00     0.095 A 
ATOM     18  C   UNL     1       1.779   4.483   1.171  1.00  0.00     0.255 A 
ATOM     19  N   UNL     1       2.557   4.895   0.101  1.00  0.00    -0.258 N 
ATOM     20  O   UNL     1       1.701   5.043   2.259  1.00  0.00    -0.269 OA
BRANCH  19  21
ATOM     21  C   UNL     1       3.389   6.052   0.310  1.00  0.00     0.451 C 
ATOM     22  F   UNL     1       2.643   7.151   0.573  1.00  0.00    -0.185 F 
ATOM     23  F   UNL     1       4.237   5.859   1.350  1.00  0.00    -0.185 F 
ENDBRANCH  19  21
ENDBRANCH  10  14
ENDBRANCH   6   7
ENDBRANCH   3   6
ENDBRANCH   1   2
BRANCH   1  24
ATOM     24  C   UNL     1       1.366  -0.539   2.909  1.00  0.00     0.042 C 
BRANCH  24  25
ATOM     25  C   UNL     1       0.866  -0.319   4.327  1.00  0.00     0.118 C 
BRANCH  25  26
ATOM     26  N   UNL     1       1.707   0.560   5.132  1.00  0.00    -0.352 N 
ATOM     27  C   UNL     1       1.606   0.866   6.480  1.00  0.00     0.251 C 
ATOM     28  H   UNL     1       2.448   0.995   4.652  1.00  0.00     0.163 HD
ATOM     29  O   UNL     1       2.386   1.645   7.001  1.00  0.00    -0.269 OA
BRANCH  27  30
ATOM     30  C   UNL     1       0.620   0.133   7.309  1.00  0.00     0.039 A 
ATOM     31  C   UNL     1       1.071  -0.463   8.492  1.00  0.00     0.014 A 
ATOM     32  C   UNL     1      -0.653  -0.145   6.822  1.00  0.00     0.014 A 
ATOM     33  C   UNL     1       0.349  -1.521   9.039  1.00  0.00     0.010 A 
ATOM     34  C   UNL     1      -1.312  -1.262   7.292  1.00  0.00     0.010 A 
ATOM     35  C   UNL     1      -0.773  -1.991   8.358  1.00  0.00    -0.014 A 
BRANCH  35  36
ATOM     36  C   UNL     1      -1.362  -3.302   8.600  1.00  0.00     0.031 A 
ATOM     37  C   UNL     1      -2.686  -3.434   9.242  1.00  0.00     0.074 A 
ATOM     38  C   UNL     1      -0.735  -4.399   8.117  1.00  0.00     0.049 A 
ATOM     39  N   UNL     1      -3.096  -4.501   9.841  1.00  0.00    -0.248 NA
ATOM     40  C   UNL     1      -3.655  -2.346   9.284  1.00  0.00     0.031 C 
ATOM     41  C   UNL     1      -1.289  -5.742   7.970  1.00  0.00     0.029 A 
ATOM     42  N   UNL     1       0.631  -4.551   7.819  1.00  0.00    -0.354 N 
ATOM     43  C   UNL     1      -4.439  -4.350  10.101  1.00  0.00     0.074 A 
ATOM     44  C   UNL     1      -4.726  -2.969   9.785  1.00  0.00     0.031 C 
ATOM     45  C   UNL     1      -0.279  -6.623   7.910  1.00  0.00     0.029 A 
ATOM     46  C   UNL     1       0.946  -5.887   8.164  1.00  0.00     0.049 A 
ATOM     47  H   UNL     1       1.240  -3.872   7.449  1.00  0.00     0.167 HD
ATOM     48  C   UNL     1      -5.185  -5.445  10.430  1.00  0.00     0.037 A 
ATOM     49  C   UNL     1       1.841  -6.180   9.151  1.00  0.00     0.037 A 
ATOM     50  C   UNL     1      -4.358  -6.645  10.508  1.00  0.00     0.049 A 
ATOM     51  C   UNL     1       1.269  -7.009  10.275  1.00  0.00     0.074 A 
ATOM     52  C   UNL     1      -4.105  -7.665   9.605  1.00  0.00     0.029 A 
ATOM     53  N   UNL     1      -3.402  -6.761  11.511  1.00  0.00    -0.354 N 
ATOM     54  N   UNL     1      -0.007  -7.120  10.516  1.00  0.00    -0.248 NA
ATOM     55  C   UNL     1       2.085  -7.745  11.237  1.00  0.00     0.031 C 
ATOM     56  C   UNL     1      -2.965  -8.376  10.050  1.00  0.00     0.029 A 
ATOM     57  C   UNL     1      -2.535  -7.799  11.232  1.00  0.00     0.049 A 
ATOM     58  H   UNL     1      -3.351  -6.184  12.307  1.00  0.00     0.167 HD
ATOM     59  C   UNL     1      -0.196  -7.889  11.634  1.00  0.00     0.074 A 
ATOM     60  C   UNL     1       1.143  -8.274  12.038  1.00  0.00     0.031 C 
ATOM     61  C   UNL     1      -1.444  -8.128  12.134  1.00  0.00     0.037 A 
BRANCH  48  62
ATOM     62  C   UNL     1      -6.697  -5.477  10.383  1.00  0.00     0.064 A 
ATOM     63  C   UNL     1      -7.390  -6.655  10.025  1.00  0.00     0.173 A 
ATOM     64  C   UNL     1      -7.521  -4.363  10.626  1.00  0.00     0.173 A 
ATOM     65  F   UNL     1      -6.758  -7.827   9.883  1.00  0.00    -0.203 F 
ATOM     66  C   UNL     1      -8.768  -6.677   9.795  1.00  0.00     0.198 A 
ATOM     67  C   UNL     1      -8.891  -4.368  10.341  1.00  0.00     0.198 A 
ATOM     68  F   UNL     1      -7.035  -3.254  11.196  1.00  0.00    -0.203 F 
ATOM     69  F   UNL     1      -9.366  -7.825   9.445  1.00  0.00    -0.200 F 
ATOM     70  C   UNL     1      -9.513  -5.523   9.911  1.00  0.00     0.200 A 
ATOM     71  F   UNL     1      -9.605  -3.243  10.488  1.00  0.00    -0.200 F 
ATOM     72  F   UNL     1     -10.824  -5.529   9.637  1.00  0.00    -0.200 F 
ENDBRANCH  48  62
BRANCH  49  73
ATOM     73  C   UNL     1       2.904  -5.154   9.302  1.00  0.00     0.064 A 
ATOM     74  C   UNL     1       3.802  -4.963   8.235  1.00  0.00     0.173 A 
ATOM     75  C   UNL     1       2.810  -4.138  10.260  1.00  0.00     0.173 A 
ATOM     76  F   UNL     1       3.925  -5.907   7.287  1.00  0.00    -0.203 F 
ATOM     77  C   UNL     1       4.484  -3.761   8.069  1.00  0.00     0.198 A 
ATOM     78  C   UNL     1       3.506  -2.938  10.096  1.00  0.00     0.198 A 
ATOM     79  F   UNL     1       1.956  -4.251  11.288  1.00  0.00    -0.203 F 
ATOM     80  F   UNL     1       5.243  -3.568   6.980  1.00  0.00    -0.200 F 
ATOM     81  C   UNL     1       4.313  -2.738   8.985  1.00  0.00     0.200 A 
ATOM     82  F   UNL     1       3.318  -1.935  10.966  1.00  0.00    -0.200 F 
ATOM     83  F   UNL     1       4.891  -1.547   8.777  1.00  0.00    -0.200 F 
ENDBRANCH  49  73
BRANCH  61  84
ATOM     84  C   UNL     1      -1.773  -8.765  13.462  1.00  0.00     0.064 A 
ATOM     85  C   UNL     1      -0.947  -8.691  14.595  1.00  0.00     0.173 A 
ATOM     86  C   UNL     1      -3.044  -9.357  13.673  1.00  0.00     0.173 A 
ATOM     87  F   UNL     1       0.232  -8.056  14.557  1.00  0.00    -0.203 F 
ATOM     88  C   UNL     1      -1.338  -9.216  15.830  1.00  0.00     0.198 A 
ATOM     89  C   UNL     1      -3.453  -9.827  14.920  1.00  0.00     0.198 A 
ATOM     90  F   UNL     1      -3.939  -9.471  12.681  1.00  0.00    -0.203 F 
ATOM     91  F   UNL     1      -0.497  -9.153  16.872  1.00  0.00    -0.200 F 
ATOM     92  C   UNL     1      -2.594  -9.771  15.996  1.00  0.00     0.200 A 
ATOM     93  F   UNL     1      -4.692 -10.315  15.074  1.00  0.00    -0.200 F 
ATOM     94  F   UNL     1      -2.981 -10.228  17.194  1.00  0.00    -0.200 F 
ENDBRANCH  61  84
ENDBRANCH  35  36
ENDBRANCH  27  30
ENDBRANCH  25  26
ENDBRANCH  24  25
ENDBRANCH   1  24
TORSDOF 13
