REMARK SMILES CCOC(=O)C1=NN(c2ccc(OC(F)(F)F)cc2)[C@@](C)(C(=O)NCCCNC(=O)c2ccc(-c3c4nc(c(-c5c(F)c(F)c(F)c(F)c5F)c5ccc([nH]5)c(-c5c(F)c(F)c(F)c(F)c5F)c5nc(c(-c6c(F)c(F)c(F)c(F)c6F)c6ccc3[nH]6)C=C5)C=C4)cc2)C1
REMARK SMILES IDX 25 1 24 2 22 3 23 4 20 6 6 7 7 8 94 9 8 10 21 11 4 12 5 13
REMARK SMILES IDX 3 14 2 15 1 16 9 17 10 18 19 19 11 20 18 21 12 22 13 23
REMARK SMILES IDX 14 24 15 25 16 26 17 27 26 28 27 29 28 30 29 31 30 33 31 34
REMARK SMILES IDX 32 35 93 36 33 37 92 38 34 39 35 40 36 41 86 42 37 43 91 44
REMARK SMILES IDX 85 45 87 46 38 47 90 48 84 49 83 50 39 52 71 53 51 54 70 55
REMARK SMILES IDX 52 56 55 57 69 58 88 59 53 60 54 61 68 63 89 64 56 65 40 66
REMARK SMILES IDX 41 67 49 68 42 69 43 70 47 71 50 72 44 73 45 74 48 75 46 76
REMARK SMILES IDX 72 77 73 78 81 79 74 80 75 81 79 82 82 83 76 84 77 85 80 86
REMARK SMILES IDX 78 87 57 88 58 89 66 90 59 91 60 92 64 93 67 94 61 95 62 96
REMARK SMILES IDX 65 97 63 98
REMARK H PARENT 24 5 28 32 87 51 55 62
REMARK Flexibility Score: inf
ROOT
ATOM      1  C   UNL     1       5.713   1.656   8.261  1.00  0.00     0.117 C 
ENDROOT
BRANCH   1   2
ATOM      2  N   UNL     1       5.997   0.956   7.025  1.00  0.00    -0.354 N 
ATOM      3  C   UNL     1       5.393   0.913   5.808  1.00  0.00     0.248 C 
ATOM      4  O   UNL     1       5.936   0.136   5.008  1.00  0.00    -0.272 OA
ATOM      5  H   UNL     1       6.800   0.389   7.079  1.00  0.00     0.163 HD
BRANCH   3   6
ATOM      6  C   UNL     1       4.148   1.760   5.386  1.00  0.00     0.144 C 
ATOM      7  C   UNL     1       2.865   0.410   4.007  1.00  0.00     0.149 C 
ATOM      8  N   UNL     1       2.299   0.290   5.166  1.00  0.00    -0.169 NA
ATOM      9  C   UNL     1       3.880   1.484   3.877  1.00  0.00     0.106 C 
ATOM     10  N   UNL     1       2.900   1.217   5.990  1.00  0.00    -0.249 N 
ATOM     11  C   UNL     1       4.380   3.262   5.505  1.00  0.00     0.048 C 
BRANCH   7  12
ATOM     12  C   UNL     1       2.477  -0.396   2.802  1.00  0.00     0.354 C 
ATOM     13  O   UNL     1       3.277  -1.081   2.194  1.00  0.00    -0.245 OA
BRANCH  12  14
ATOM     14  O   UNL     1       1.188  -0.143   2.497  1.00  0.00    -0.461 OA
BRANCH  14  15
ATOM     15  C   UNL     1       0.684  -0.821   1.340  1.00  0.00     0.230 C 
ATOM     16  C   UNL     1       0.966  -0.004   0.093  1.00  0.00     0.049 C 
ENDBRANCH  14  15
ENDBRANCH  12  14
ENDBRANCH   7  12
BRANCH  10  17
ATOM     17  C   UNL     1       2.351   1.386   7.252  1.00  0.00     0.061 A 
ATOM     18  C   UNL     1       1.703   0.311   7.887  1.00  0.00     0.032 A 
ATOM     19  C   UNL     1       2.343   2.601   7.943  1.00  0.00     0.032 A 
ATOM     20  C   UNL     1       1.145   0.425   9.166  1.00  0.00     0.049 A 
ATOM     21  C   UNL     1       1.784   2.728   9.228  1.00  0.00     0.049 A 
ATOM     22  C   UNL     1       1.196   1.634   9.854  1.00  0.00     0.129 A 
BRANCH  22  23
ATOM     23  O   UNL     1       0.633   1.607  11.095  1.00  0.00    -0.406 OA
BRANCH  23  24
ATOM     24  C   UNL     1       0.738   2.774  11.891  1.00  0.00     0.573 C 
ATOM     25  F   UNL     1       2.030   3.119  12.082  1.00  0.00    -0.132 F 
ATOM     26  F   UNL     1       0.074   3.808  11.331  1.00  0.00    -0.132 F 
ATOM     27  F   UNL     1       0.189   2.525  13.100  1.00  0.00    -0.132 F 
ENDBRANCH  23  24
ENDBRANCH  22  23
ENDBRANCH  10  17
ENDBRANCH   3   6
ENDBRANCH   1   2
BRANCH   1  28
ATOM     28  C   UNL     1       5.216   0.734   9.371  1.00  0.00     0.042 C 
BRANCH  28  29
ATOM     29  C   UNL     1       6.192  -0.354   9.811  1.00  0.00     0.118 C 
BRANCH  29  30
ATOM     30  N   UNL     1       7.411   0.181  10.393  1.00  0.00    -0.352 N 
ATOM     31  C   UNL     1       8.004  -0.065  11.604  1.00  0.00     0.251 C 
ATOM     32  H   UNL     1       7.890   0.826   9.824  1.00  0.00     0.163 HD
ATOM     33  O   UNL     1       8.964   0.622  11.947  1.00  0.00    -0.269 OA
BRANCH  31  34
ATOM     34  C   UNL     1       7.518  -1.130  12.513  1.00  0.00     0.039 A 
ATOM     35  C   UNL     1       7.513  -0.868  13.889  1.00  0.00     0.014 A 
ATOM     36  C   UNL     1       7.171  -2.404  12.052  1.00  0.00     0.014 A 
ATOM     37  C   UNL     1       7.136  -1.862  14.795  1.00  0.00     0.010 A 
ATOM     38  C   UNL     1       6.762  -3.390  12.956  1.00  0.00     0.010 A 
ATOM     39  C   UNL     1       6.753  -3.129  14.334  1.00  0.00    -0.014 A 
BRANCH  39  40
ATOM     40  C   UNL     1       6.402  -4.205  15.292  1.00  0.00     0.031 A 
ATOM     41  C   UNL     1       7.357  -5.339  15.530  1.00  0.00     0.074 A 
ATOM     42  C   UNL     1       5.223  -4.178  15.941  1.00  0.00     0.049 A 
ATOM     43  N   UNL     1       7.180  -6.435  16.224  1.00  0.00    -0.248 NA
ATOM     44  C   UNL     1       8.677  -5.237  14.890  1.00  0.00     0.031 C 
ATOM     45  C   UNL     1       4.197  -3.147  15.794  1.00  0.00     0.029 A 
ATOM     46  N   UNL     1       4.696  -5.050  16.860  1.00  0.00    -0.354 N 
ATOM     47  C   UNL     1       8.336  -7.181  16.051  1.00  0.00     0.074 A 
ATOM     48  C   UNL     1       9.228  -6.397  15.223  1.00  0.00     0.031 C 
ATOM     49  C   UNL     1       3.169  -3.436  16.611  1.00  0.00     0.029 A 
ATOM     50  C   UNL     1       3.462  -4.676  17.326  1.00  0.00     0.049 A 
ATOM     51  H   UNL     1       5.159  -5.867  17.156  1.00  0.00     0.167 HD
ATOM     52  C   UNL     1       8.615  -8.420  16.520  1.00  0.00     0.037 A 
ATOM     53  C   UNL     1       2.662  -5.264  18.234  1.00  0.00     0.037 A 
ATOM     54  C   UNL     1       7.750  -9.187  17.374  1.00  0.00     0.049 A 
ATOM     55  C   UNL     1       3.093  -6.537  18.899  1.00  0.00     0.074 A 
ATOM     56  C   UNL     1       7.888 -10.494  17.809  1.00  0.00     0.029 A 
ATOM     57  N   UNL     1       6.599  -8.688  17.961  1.00  0.00    -0.354 N 
ATOM     58  N   UNL     1       4.141  -7.281  18.649  1.00  0.00    -0.248 NA
ATOM     59  C   UNL     1       2.237  -7.048  19.981  1.00  0.00     0.031 C 
ATOM     60  C   UNL     1       6.834 -10.776  18.689  1.00  0.00     0.029 A 
ATOM     61  C   UNL     1       6.046  -9.642  18.799  1.00  0.00     0.049 A 
ATOM     62  H   UNL     1       6.229  -7.790  17.806  1.00  0.00     0.167 HD
ATOM     63  C   UNL     1       4.064  -8.353  19.524  1.00  0.00     0.074 A 
ATOM     64  C   UNL     1       2.881  -8.153  20.335  1.00  0.00     0.031 C 
ATOM     65  C   UNL     1       4.891  -9.420  19.624  1.00  0.00     0.037 A 
BRANCH  52  66
ATOM     66  C   UNL     1       9.901  -9.038  16.079  1.00  0.00     0.064 A 
ATOM     67  C   UNL     1      11.095  -8.809  16.774  1.00  0.00     0.173 A 
ATOM     68  C   UNL     1       9.933  -9.880  14.958  1.00  0.00     0.173 A 
ATOM     69  F   UNL     1      11.110  -7.996  17.841  1.00  0.00    -0.203 F 
ATOM     70  C   UNL     1      12.284  -9.401  16.357  1.00  0.00     0.198 A 
ATOM     71  C   UNL     1      11.121 -10.475  14.548  1.00  0.00     0.198 A 
ATOM     72  F   UNL     1       8.812 -10.119  14.261  1.00  0.00    -0.203 F 
ATOM     73  F   UNL     1      13.422  -9.158  17.021  1.00  0.00    -0.200 F 
ATOM     74  C   UNL     1      12.295 -10.235  15.247  1.00  0.00     0.200 A 
ATOM     75  F   UNL     1      11.132 -11.277  13.474  1.00  0.00    -0.200 F 
ATOM     76  F   UNL     1      13.442 -10.801  14.844  1.00  0.00    -0.200 F 
ENDBRANCH  52  66
BRANCH  53  77
ATOM     77  C   UNL     1       1.373  -4.631  18.588  1.00  0.00     0.064 A 
ATOM     78  C   UNL     1       1.283  -3.756  19.678  1.00  0.00     0.173 A 
ATOM     79  C   UNL     1       0.217  -4.879  17.839  1.00  0.00     0.173 A 
ATOM     80  F   UNL     1       2.366  -3.508  20.429  1.00  0.00    -0.203 F 
ATOM     81  C   UNL     1       0.074  -3.150  20.009  1.00  0.00     0.198 A 
ATOM     82  C   UNL     1      -0.990  -4.268  18.168  1.00  0.00     0.198 A 
ATOM     83  F   UNL     1       0.263  -5.715  16.792  1.00  0.00    -0.203 F 
ATOM     84  F   UNL     1       0.006  -2.327  21.064  1.00  0.00    -0.200 F 
ATOM     85  C   UNL     1      -1.061  -3.405  19.253  1.00  0.00     0.200 A 
ATOM     86  F   UNL     1      -2.086  -4.517  17.439  1.00  0.00    -0.200 F 
ATOM     87  F   UNL     1      -2.225  -2.824  19.574  1.00  0.00    -0.200 F 
ENDBRANCH  53  77
BRANCH  65  88
ATOM     88  C   UNL     1       4.556 -10.449  20.652  1.00  0.00     0.064 A 
ATOM     89  C   UNL     1       3.710 -11.523  20.344  1.00  0.00     0.173 A 
ATOM     90  C   UNL     1       5.103 -10.380  21.940  1.00  0.00     0.173 A 
ATOM     91  F   UNL     1       3.158 -11.620  19.126  1.00  0.00    -0.203 F 
ATOM     92  C   UNL     1       3.422 -12.497  21.296  1.00  0.00     0.198 A 
ATOM     93  C   UNL     1       4.813 -11.355  22.889  1.00  0.00     0.198 A 
ATOM     94  F   UNL     1       5.907  -9.360  22.277  1.00  0.00    -0.203 F 
ATOM     95  F   UNL     1       2.605 -13.513  20.987  1.00  0.00    -0.200 F 
ATOM     96  C   UNL     1       3.974 -12.413  22.566  1.00  0.00     0.200 A 
ATOM     97  F   UNL     1       5.337 -11.269  24.119  1.00  0.00    -0.200 F 
ATOM     98  F   UNL     1       3.691 -13.348  23.483  1.00  0.00    -0.200 F 
ENDBRANCH  65  88
ENDBRANCH  39  40
ENDBRANCH  31  34
ENDBRANCH  29  30
ENDBRANCH  28  29
ENDBRANCH   1  28
TORSDOF 16
