REMARK SMILES Nc1oc(-c2ccccc2)cc1C(=O)NCCCNC(=O)c1ccc(-c2c3nc(c(-c4c(F)c(F)c(F)c(F)c4F)c4ccc([nH]4)c(-c4c(F)c(F)c(F)c(F)c4F)c4nc(c(-c5c(F)c(F)c(F)c(F)c5F)c5ccc2[nH]5)C=C4)C=C3)cc1
REMARK SMILES IDX 17 1 16 2 15 3 13 4 14 5 12 7 2 8 3 9 4 10 11 11 1 12 5 15
REMARK SMILES IDX 6 16 10 17 7 18 9 19 8 20 18 21 19 22 20 23 21 25 22 26
REMARK SMILES IDX 23 27 84 28 24 29 83 30 25 31 26 32 27 33 77 34 28 35 82 36
REMARK SMILES IDX 76 37 78 38 29 39 81 40 75 41 74 42 30 44 62 45 42 46 61 47
REMARK SMILES IDX 43 48 46 49 60 50 79 51 44 52 45 53 59 55 80 56 47 57 31 58
REMARK SMILES IDX 32 59 40 60 33 61 34 62 38 63 41 64 35 65 36 66 39 67 37 68
REMARK SMILES IDX 63 69 64 70 72 71 65 72 66 73 70 74 73 75 67 76 68 77 71 78
REMARK SMILES IDX 69 79 48 80 49 81 57 82 50 83 51 84 55 85 58 86 52 87 53 88
REMARK SMILES IDX 56 89 54 90
REMARK H PARENT 15 6 1 13 1 14 19 24 78 43 46 54
REMARK Flexibility Score: inf
ROOT
ATOM      1  C   UNL     1      -3.775  -1.728  -3.548  1.00  0.00     0.042 C 
ENDROOT
BRANCH   1   2
ATOM      2  C   UNL     1      -2.489  -0.981  -3.927  1.00  0.00     0.118 C 
BRANCH   2   3
ATOM      3  N   UNL     1      -2.181   0.105  -3.007  1.00  0.00    -0.352 N 
ATOM      4  C   UNL     1      -1.348   0.145  -1.909  1.00  0.00     0.256 C 
ATOM      5  O   UNL     1      -1.151   1.246  -1.392  1.00  0.00    -0.269 OA
ATOM      6  H   UNL     1      -2.645   0.951  -3.201  1.00  0.00     0.163 HD
BRANCH   4   7
ATOM      7  C   UNL     1      -0.712  -1.068  -1.424  1.00  0.00     0.103 A 
ATOM      8  C   UNL     1       0.428  -1.106  -0.635  1.00  0.00     0.203 A 
ATOM      9  O   UNL     1       0.848  -2.386  -0.431  1.00  0.00    -0.440 OA
ATOM     10  C   UNL     1      -0.044  -3.186  -1.068  1.00  0.00     0.137 A 
ATOM     11  C   UNL     1      -1.060  -2.433  -1.601  1.00  0.00     0.067 A 
BRANCH   8  12
ATOM     12  N   UNL     1       1.183  -0.152  -0.083  1.00  0.00    -0.369 N 
ATOM     13  H   UNL     1       1.970  -0.398   0.455  1.00  0.00     0.159 HD
ATOM     14  H   UNL     1       0.953   0.796  -0.214  1.00  0.00     0.159 HD
ENDBRANCH   8  12
BRANCH  10  15
ATOM     15  C   UNL     1       0.221  -4.605  -1.144  1.00  0.00     0.017 A 
ATOM     16  C   UNL     1       0.095  -5.428  -0.025  1.00  0.00     0.012 A 
ATOM     17  C   UNL     1       0.471  -5.179  -2.401  1.00  0.00     0.012 A 
ATOM     18  C   UNL     1       0.192  -6.814  -0.167  1.00  0.00     0.001 A 
ATOM     19  C   UNL     1       0.576  -6.562  -2.539  1.00  0.00     0.001 A 
ATOM     20  C   UNL     1       0.426  -7.379  -1.422  1.00  0.00     0.000 A 
ENDBRANCH  10  15
ENDBRANCH   4   7
ENDBRANCH   2   3
ENDBRANCH   1   2
BRANCH   1  21
ATOM     21  C   UNL     1      -5.008  -1.077  -4.147  1.00  0.00     0.118 C 
BRANCH  21  22
ATOM     22  N   UNL     1      -5.069  -1.233  -5.608  1.00  0.00    -0.352 N 
ATOM     23  C   UNL     1      -5.971  -0.694  -6.513  1.00  0.00     0.251 C 
ATOM     24  H   UNL     1      -4.368  -1.802  -6.000  1.00  0.00     0.163 HD
ATOM     25  O   UNL     1      -6.096  -1.151  -7.633  1.00  0.00    -0.269 OA
BRANCH  23  26
ATOM     26  C   UNL     1      -6.773   0.463  -6.083  1.00  0.00     0.039 A 
ATOM     27  C   UNL     1      -8.120   0.627  -6.428  1.00  0.00     0.014 A 
ATOM     28  C   UNL     1      -6.133   1.378  -5.263  1.00  0.00     0.014 A 
ATOM     29  C   UNL     1      -8.826   1.693  -5.872  1.00  0.00     0.010 A 
ATOM     30  C   UNL     1      -6.880   2.233  -4.519  1.00  0.00     0.010 A 
ATOM     31  C   UNL     1      -8.189   2.484  -4.911  1.00  0.00    -0.014 A 
BRANCH  31  32
ATOM     32  C   UNL     1      -8.823   3.602  -4.231  1.00  0.00     0.031 A 
ATOM     33  C   UNL     1      -9.901   3.230  -3.278  1.00  0.00     0.074 A 
ATOM     34  C   UNL     1      -8.188   4.797  -4.208  1.00  0.00     0.049 A 
ATOM     35  N   UNL     1     -11.138   3.605  -3.275  1.00  0.00    -0.248 NA
ATOM     36  C   UNL     1      -9.591   2.211  -2.258  1.00  0.00     0.031 C 
ATOM     37  C   UNL     1      -6.896   5.152  -4.825  1.00  0.00     0.029 A 
ATOM     38  N   UNL     1      -8.482   5.914  -3.497  1.00  0.00    -0.354 N 
ATOM     39  C   UNL     1     -11.709   3.026  -2.142  1.00  0.00     0.074 A 
ATOM     40  C   UNL     1     -10.784   2.022  -1.695  1.00  0.00     0.031 C 
ATOM     41  C   UNL     1      -6.421   6.287  -4.271  1.00  0.00     0.029 A 
ATOM     42  C   UNL     1      -7.441   6.831  -3.400  1.00  0.00     0.049 A 
ATOM     43  H   UNL     1      -9.363   6.063  -3.082  1.00  0.00     0.167 HD
ATOM     44  C   UNL     1     -12.763   3.611  -1.506  1.00  0.00     0.037 A 
ATOM     45  C   UNL     1      -7.418   7.936  -2.616  1.00  0.00     0.037 A 
ATOM     46  C   UNL     1     -13.393   4.590  -2.358  1.00  0.00     0.049 A 
ATOM     47  C   UNL     1      -8.826   8.217  -2.232  1.00  0.00     0.074 A 
ATOM     48  C   UNL     1     -14.023   4.551  -3.586  1.00  0.00     0.029 A 
ATOM     49  N   UNL     1     -13.090   5.913  -2.141  1.00  0.00    -0.354 N 
ATOM     50  N   UNL     1      -9.753   8.566  -3.083  1.00  0.00    -0.248 NA
ATOM     51  C   UNL     1      -9.306   7.643  -0.985  1.00  0.00     0.031 C 
ATOM     52  C   UNL     1     -13.625   5.754  -4.244  1.00  0.00     0.029 A 
ATOM     53  C   UNL     1     -12.833   6.486  -3.358  1.00  0.00     0.049 A 
ATOM     54  H   UNL     1     -13.063   6.367  -1.268  1.00  0.00     0.167 HD
ATOM     55  C   UNL     1     -10.892   7.891  -2.667  1.00  0.00     0.074 A 
ATOM     56  C   UNL     1     -10.575   7.404  -1.326  1.00  0.00     0.031 C 
ATOM     57  C   UNL     1     -11.862   7.537  -3.561  1.00  0.00     0.037 A 
BRANCH  44  58
ATOM     58  C   UNL     1     -12.986   3.598  -0.005  1.00  0.00     0.064 A 
ATOM     59  C   UNL     1     -14.152   4.204   0.510  1.00  0.00     0.173 A 
ATOM     60  C   UNL     1     -11.993   3.299   0.955  1.00  0.00     0.173 A 
ATOM     61  F   UNL     1     -15.168   4.532  -0.302  1.00  0.00    -0.203 F 
ATOM     62  C   UNL     1     -14.264   4.578   1.852  1.00  0.00     0.198 A 
ATOM     63  C   UNL     1     -12.133   3.624   2.304  1.00  0.00     0.198 A 
ATOM     64  F   UNL     1     -10.805   2.782   0.630  1.00  0.00    -0.203 F 
ATOM     65  F   UNL     1     -15.331   5.278   2.259  1.00  0.00    -0.200 F 
ATOM     66  C   UNL     1     -13.249   4.299   2.746  1.00  0.00     0.200 A 
ATOM     67  F   UNL     1     -11.131   3.350   3.153  1.00  0.00    -0.200 F 
ATOM     68  F   UNL     1     -13.321   4.718   4.016  1.00  0.00    -0.200 F 
ENDBRANCH  44  58
BRANCH  45  69
ATOM     69  C   UNL     1      -6.258   8.553  -1.930  1.00  0.00     0.064 A 
ATOM     70  C   UNL     1      -6.316   9.868  -1.444  1.00  0.00     0.173 A 
ATOM     71  C   UNL     1      -5.165   7.775  -1.498  1.00  0.00     0.173 A 
ATOM     72  F   UNL     1      -7.348  10.660  -1.771  1.00  0.00    -0.203 F 
ATOM     73  C   UNL     1      -5.352  10.369  -0.562  1.00  0.00     0.198 A 
ATOM     74  C   UNL     1      -4.200   8.277  -0.622  1.00  0.00     0.198 A 
ATOM     75  F   UNL     1      -5.063   6.483  -1.842  1.00  0.00    -0.203 F 
ATOM     76  F   UNL     1      -5.473  11.611  -0.073  1.00  0.00    -0.200 F 
ATOM     77  C   UNL     1      -4.301   9.570  -0.144  1.00  0.00     0.200 A 
ATOM     78  F   UNL     1      -3.209   7.480  -0.196  1.00  0.00    -0.200 F 
ATOM     79  F   UNL     1      -3.412  10.028   0.748  1.00  0.00    -0.200 F 
ENDBRANCH  45  69
BRANCH  57  80
ATOM     80  C   UNL     1     -11.773   8.106  -4.952  1.00  0.00     0.064 A 
ATOM     81  C   UNL     1     -10.758   7.777  -5.869  1.00  0.00     0.173 A 
ATOM     82  C   UNL     1     -12.841   8.872  -5.431  1.00  0.00     0.173 A 
ATOM     83  F   UNL     1      -9.754   6.968  -5.522  1.00  0.00    -0.203 F 
ATOM     84  C   UNL     1     -10.795   8.221  -7.189  1.00  0.00     0.198 A 
ATOM     85  C   UNL     1     -12.895   9.287  -6.760  1.00  0.00     0.198 A 
ATOM     86  F   UNL     1     -13.868   9.169  -4.620  1.00  0.00    -0.203 F 
ATOM     87  F   UNL     1      -9.811   7.888  -8.039  1.00  0.00    -0.200 F 
ATOM     88  C   UNL     1     -11.870   8.968  -7.636  1.00  0.00     0.200 A 
ATOM     89  F   UNL     1     -13.962   9.967  -7.200  1.00  0.00    -0.200 F 
ATOM     90  F   UNL     1     -11.934   9.354  -8.918  1.00  0.00    -0.200 F 
ENDBRANCH  57  80
ENDBRANCH  31  32
ENDBRANCH  23  26
ENDBRANCH  21  22
ENDBRANCH   1  21
TORSDOF 12
