REMARK SMILES CN1C(=O)C[C@@H](C(=O)NCCCNC(=O)c2ccc(-c3c4nc(c(-c5c(F)c(F)c(F)c(F)c5F)c5ccc([nH]5)c(-c5c(F)c(F)c(F)c(F)c5F)c5nc(c(-c6c(F)c(F)c(F)c(F)c6F)c6ccc3[nH]6)C=C5)C=C4)cc2)C12CCN(C(=O)c1ccccc1-n1cccn1)CC2
REMARK SMILES IDX 11 1 10 2 9 3 7 4 8 5 6 7 1 8 2 9 3 10 79 11 4 12 5 13 80 14
REMARK SMILES IDX 97 15 81 16 96 17 82 18 83 19 84 20 85 21 86 22 90 23 87 24
REMARK SMILES IDX 89 25 88 26 91 27 92 28 95 29 93 30 94 31 12 32 13 33 14 34
REMARK SMILES IDX 15 36 16 37 17 38 78 39 18 40 77 41 19 42 20 43 21 44 71 45
REMARK SMILES IDX 22 46 76 47 70 48 72 49 23 50 75 51 69 52 68 53 24 55 56 56
REMARK SMILES IDX 36 57 55 58 37 59 40 60 54 61 73 62 38 63 39 64 53 66 74 67
REMARK SMILES IDX 41 68 25 69 26 70 34 71 27 72 28 73 32 74 35 75 29 76 30 77
REMARK SMILES IDX 33 78 31 79 57 80 58 81 66 82 59 83 60 84 64 85 67 86 61 87
REMARK SMILES IDX 62 88 65 89 63 90 42 91 43 92 51 93 44 94 45 95 49 96 52 97
REMARK SMILES IDX 46 98 47 99 50 100 48 101
REMARK H PARENT 9 6 13 35 72 54 40 65
REMARK Flexibility Score: inf
ROOT
ATOM      1  C   UNL     1      -1.661  -0.855   1.908  1.00  0.00     0.042 C 
ENDROOT
BRANCH   1   2
ATOM      2  C   UNL     1      -2.373   0.306   1.207  1.00  0.00     0.117 C 
BRANCH   2   3
ATOM      3  N   UNL     1      -2.556   1.493   2.033  1.00  0.00    -0.356 N 
ATOM      4  C   UNL     1      -2.015   2.737   2.050  1.00  0.00     0.226 C 
ATOM      5  O   UNL     1      -2.488   3.514   2.890  1.00  0.00    -0.275 OA
ATOM      6  H   UNL     1      -3.227   1.362   2.741  1.00  0.00     0.163 HD
BRANCH   4   7
ATOM      7  C   UNL     1      -0.853   3.229   1.181  1.00  0.00     0.113 C 
ATOM      8  C   UNL     1       1.406   0.468   0.079  1.00  0.00     0.147 C 
ATOM      9  N   UNL     1       0.500   1.590   0.232  1.00  0.00    -0.339 N 
ATOM     10  C   UNL     1      -0.336   2.003  -0.798  1.00  0.00     0.223 C 
ATOM     11  C   UNL     1       0.508   2.524   1.371  1.00  0.00     0.058 C 
ATOM     12  O   UNL     1      -0.436   1.495  -1.906  1.00  0.00    -0.275 OA
ATOM     13  C   UNL     1      -1.155   3.165  -0.314  1.00  0.00     0.116 C 
ATOM     14  C   UNL     1       0.647   1.856   2.755  1.00  0.00     0.051 C 
ATOM     15  C   UNL     1       1.710   3.502   1.171  1.00  0.00     0.051 C 
ATOM     16  C   UNL     1       0.860   2.860   3.883  1.00  0.00     0.122 C 
ATOM     17  C   UNL     1       2.010   4.400   2.375  1.00  0.00     0.122 C 
ATOM     18  N   UNL     1       2.066   3.626   3.611  1.00  0.00    -0.338 N 
ATOM     19  C   UNL     1       3.193   3.700   4.430  1.00  0.00     0.256 C 
ATOM     20  O   UNL     1       4.173   4.395   4.171  1.00  0.00    -0.269 OA
BRANCH  19  21
ATOM     21  C   UNL     1       3.230   2.945   5.708  1.00  0.00     0.065 A 
ATOM     22  C   UNL     1       3.209   3.728   6.875  1.00  0.00     0.016 A 
ATOM     23  C   UNL     1       3.219   1.546   5.817  1.00  0.00     0.077 A 
ATOM     24  C   UNL     1       3.137   3.126   8.133  1.00  0.00     0.001 A 
ATOM     25  C   UNL     1       3.084   0.952   7.087  1.00  0.00     0.029 A 
ATOM     26  C   UNL     1       3.059   1.740   8.238  1.00  0.00     0.002 A 
BRANCH  23  27
ATOM     27  N   UNL     1       3.359   0.684   4.703  1.00  0.00    -0.240 N 
ATOM     28  C   UNL     1       4.072   0.886   3.542  1.00  0.00     0.115 A 
ATOM     29  N   UNL     1       2.751  -0.535   4.700  1.00  0.00    -0.177 NA
ATOM     30  C   UNL     1       3.889  -0.228   2.756  1.00  0.00     0.042 A 
ATOM     31  C   UNL     1       3.052  -1.060   3.512  1.00  0.00     0.135 A 
ENDBRANCH  23  27
ENDBRANCH  19  21
ENDBRANCH   4   7
ENDBRANCH   2   3
ENDBRANCH   1   2
BRANCH   1  32
ATOM     32  C   UNL     1      -2.423  -1.429   3.097  1.00  0.00     0.118 C 
BRANCH  32  33
ATOM     33  N   UNL     1      -3.626  -2.124   2.668  1.00  0.00    -0.352 N 
ATOM     34  C   UNL     1      -3.911  -3.464   2.619  1.00  0.00     0.251 C 
ATOM     35  H   UNL     1      -4.355  -1.536   2.364  1.00  0.00     0.163 HD
ATOM     36  O   UNL     1      -4.845  -3.847   1.918  1.00  0.00    -0.269 OA
BRANCH  34  37
ATOM     37  C   UNL     1      -3.125  -4.455   3.392  1.00  0.00     0.039 A 
ATOM     38  C   UNL     1      -2.959  -5.736   2.855  1.00  0.00     0.014 A 
ATOM     39  C   UNL     1      -2.629  -4.174   4.668  1.00  0.00     0.014 A 
ATOM     40  C   UNL     1      -2.274  -6.714   3.579  1.00  0.00     0.010 A 
ATOM     41  C   UNL     1      -1.867  -5.123   5.351  1.00  0.00     0.010 A 
ATOM     42  C   UNL     1      -1.696  -6.410   4.824  1.00  0.00    -0.014 A 
BRANCH  42  43
ATOM     43  C   UNL     1      -0.918  -7.439   5.562  1.00  0.00     0.031 A 
ATOM     44  C   UNL     1      -1.376  -7.942   6.905  1.00  0.00     0.074 A 
ATOM     45  C   UNL     1       0.221  -7.913   5.020  1.00  0.00     0.049 A 
ATOM     46  N   UNL     1      -0.846  -8.868   7.667  1.00  0.00    -0.248 NA
ATOM     47  C   UNL     1      -2.570  -7.307   7.483  1.00  0.00     0.031 C 
ATOM     48  C   UNL     1       0.805  -7.459   3.757  1.00  0.00     0.029 A 
ATOM     49  N   UNL     1       1.086  -8.886   5.454  1.00  0.00    -0.354 N 
ATOM     50  C   UNL     1      -1.637  -8.922   8.807  1.00  0.00     0.074 A 
ATOM     51  C   UNL     1      -2.644  -7.893   8.669  1.00  0.00     0.031 C 
ATOM     52  C   UNL     1       1.904  -8.183   3.494  1.00  0.00     0.029 A 
ATOM     53  C   UNL     1       2.123  -9.126   4.586  1.00  0.00     0.049 A 
ATOM     54  H   UNL     1       0.974  -9.367   6.306  1.00  0.00     0.167 HD
ATOM     55  C   UNL     1      -1.550  -9.770   9.861  1.00  0.00     0.037 A 
ATOM     56  C   UNL     1       3.135 -10.011   4.658  1.00  0.00     0.037 A 
ATOM     57  C   UNL     1      -0.553 -10.803   9.987  1.00  0.00     0.049 A 
ATOM     58  C   UNL     1       3.204 -10.946   5.834  1.00  0.00     0.074 A 
ATOM     59  C   UNL     1      -0.414 -11.753  10.984  1.00  0.00     0.029 A 
ATOM     60  N   UNL     1       0.482 -11.016   9.088  1.00  0.00    -0.354 N 
ATOM     61  N   UNL     1       2.398 -11.046   6.864  1.00  0.00    -0.248 NA
ATOM     62  C   UNL     1       4.318 -11.903   5.850  1.00  0.00     0.031 C 
ATOM     63  C   UNL     1       0.737 -12.504  10.718  1.00  0.00     0.029 A 
ATOM     64  C   UNL     1       1.281 -12.064   9.522  1.00  0.00     0.049 A 
ATOM     65  H   UNL     1       0.628 -10.500   8.262  1.00  0.00     0.167 HD
ATOM     66  C   UNL     1       2.895 -12.085   7.638  1.00  0.00     0.074 A 
ATOM     67  C   UNL     1       4.053 -12.605   6.941  1.00  0.00     0.031 C 
ATOM     68  C   UNL     1       2.438 -12.562   8.823  1.00  0.00     0.037 A 
BRANCH  55  69
ATOM     69  C   UNL     1      -2.561  -9.620  10.964  1.00  0.00     0.064 A 
ATOM     70  C   UNL     1      -3.917  -9.930  10.768  1.00  0.00     0.173 A 
ATOM     71  C   UNL     1      -2.166  -9.200  12.243  1.00  0.00     0.173 A 
ATOM     72  F   UNL     1      -4.352 -10.328   9.563  1.00  0.00    -0.203 F 
ATOM     73  C   UNL     1      -4.841  -9.794  11.802  1.00  0.00     0.198 A 
ATOM     74  C   UNL     1      -3.088  -9.097  13.283  1.00  0.00     0.198 A 
ATOM     75  F   UNL     1      -0.883  -8.896  12.490  1.00  0.00    -0.203 F 
ATOM     76  F   UNL     1      -6.138 -10.046  11.575  1.00  0.00    -0.200 F 
ATOM     77  C   UNL     1      -4.425  -9.386  13.059  1.00  0.00     0.200 A 
ATOM     78  F   UNL     1      -2.681  -8.717  14.502  1.00  0.00    -0.200 F 
ATOM     79  F   UNL     1      -5.314  -9.264  14.055  1.00  0.00    -0.200 F 
ENDBRANCH  55  69
BRANCH  56  80
ATOM     80  C   UNL     1       4.143 -10.078   3.567  1.00  0.00     0.064 A 
ATOM     81  C   UNL     1       4.223 -11.195   2.723  1.00  0.00     0.173 A 
ATOM     82  C   UNL     1       5.050  -9.031   3.348  1.00  0.00     0.173 A 
ATOM     83  F   UNL     1       3.390 -12.231   2.904  1.00  0.00    -0.203 F 
ATOM     84  C   UNL     1       5.185 -11.273   1.719  1.00  0.00     0.198 A 
ATOM     85  C   UNL     1       5.990  -9.095   2.322  1.00  0.00     0.198 A 
ATOM     86  F   UNL     1       5.011  -7.935   4.120  1.00  0.00    -0.203 F 
ATOM     87  F   UNL     1       5.272 -12.374   0.961  1.00  0.00    -0.200 F 
ATOM     88  C   UNL     1       6.064 -10.220   1.515  1.00  0.00     0.200 A 
ATOM     89  F   UNL     1       6.824  -8.067   2.116  1.00  0.00    -0.200 F 
ATOM     90  F   UNL     1       6.986 -10.292   0.546  1.00  0.00    -0.200 F 
ENDBRANCH  56  80
BRANCH  68  91
ATOM     91  C   UNL     1       3.189 -13.717   9.425  1.00  0.00     0.064 A 
ATOM     92  C   UNL     1       4.493 -13.567   9.925  1.00  0.00     0.173 A 
ATOM     93  C   UNL     1       2.600 -14.988   9.503  1.00  0.00     0.173 A 
ATOM     94  F   UNL     1       5.107 -12.376   9.863  1.00  0.00    -0.203 F 
ATOM     95  C   UNL     1       5.194 -14.657  10.436  1.00  0.00     0.198 A 
ATOM     96  C   UNL     1       3.290 -16.066  10.049  1.00  0.00     0.198 A 
ATOM     97  F   UNL     1       1.353 -15.185   9.049  1.00  0.00    -0.203 F 
ATOM     98  F   UNL     1       6.462 -14.504  10.840  1.00  0.00    -0.200 F 
ATOM     99  C   UNL     1       4.591 -15.903  10.502  1.00  0.00     0.200 A 
ATOM    100  F   UNL     1       2.700 -17.267  10.127  1.00  0.00    -0.200 F 
ATOM    101  F   UNL     1       5.268 -16.951  10.990  1.00  0.00    -0.200 F 
ENDBRANCH  68  91
ENDBRANCH  42  43
ENDBRANCH  34  37
ENDBRANCH  32  33
ENDBRANCH   1  32
TORSDOF 12
