REMARK SMILES C[C@@H](C(=O)NCCCNC(=O)c1ccc(-c2c3nc(c(-c4c(F)c(F)c(F)c(F)c4F)c4ccc([nH]4)c(-c4c(F)c(F)c(F)c(F)c4F)c4nc(c(-c5c(F)c(F)c(F)c(F)c5F)c5ccc2[nH]5)C=C4)C=C3)cc1)N1C(=O)/C(=C/c2nc3ccccc3[nH]2)SC1=S
REMARK SMILES IDX 7 1 6 2 5 3 3 4 4 5 2 7 1 8 75 9 76 10 90 11 77 12 78 13
REMARK SMILES IDX 89 14 91 15 79 16 80 17 81 18 88 19 82 20 87 21 83 23 86 24
REMARK SMILES IDX 84 25 85 26 8 27 9 28 10 29 11 31 12 32 13 33 74 34 14 35
REMARK SMILES IDX 73 36 15 37 16 38 17 39 67 40 18 41 72 42 66 43 68 44 19 45
REMARK SMILES IDX 71 46 65 47 64 48 20 50 52 51 32 52 51 53 33 54 36 55 50 56
REMARK SMILES IDX 69 57 34 58 35 59 49 61 70 62 37 63 21 64 22 65 30 66 23 67
REMARK SMILES IDX 24 68 28 69 31 70 25 71 26 72 29 73 27 74 53 75 54 76 62 77
REMARK SMILES IDX 55 78 56 79 60 80 63 81 57 82 58 83 61 84 59 85 38 86 39 87
REMARK SMILES IDX 47 88 40 89 41 90 45 91 48 92 42 93 43 94 46 95 44 96
REMARK H PARENT 5 6 88 22 9 30 68 49 36 60
REMARK Flexibility Score: inf
ROOT
ATOM      1  C   UNL     1       4.201   0.699   0.945  1.00  0.00     0.042 C 
ENDROOT
BRANCH   1   2
ATOM      2  C   UNL     1       3.409  -0.124   1.955  1.00  0.00     0.117 C 
BRANCH   2   3
ATOM      3  N   UNL     1       2.354   0.638   2.588  1.00  0.00    -0.354 N 
ATOM      4  C   UNL     1       1.003   0.572   2.442  1.00  0.00     0.242 C 
ATOM      5  O   UNL     1       0.338   1.143   3.313  1.00  0.00    -0.273 OA
ATOM      6  H   UNL     1       2.665   1.316   3.231  1.00  0.00     0.163 HD
BRANCH   4   7
ATOM      7  C   UNL     1       0.338  -0.252   1.314  1.00  0.00     0.178 C 
ATOM      8  C   UNL     1       0.848  -0.061  -0.113  1.00  0.00     0.042 C 
BRANCH   7   9
ATOM      9  N   UNL     1      -1.125  -0.047   1.376  1.00  0.00    -0.281 N 
ATOM     10  C   UNL     1      -1.938  -1.145   1.617  1.00  0.00     0.267 C 
ATOM     11  C   UNL     1      -1.771   1.161   1.163  1.00  0.00     0.149 C 
ATOM     12  O   UNL     1      -1.567  -2.295   1.816  1.00  0.00    -0.268 OA
ATOM     13  C   UNL     1      -3.367  -0.760   1.515  1.00  0.00     0.084 C 
ATOM     14  S   UNL     1      -3.489   0.955   1.415  1.00  0.00    -0.054 SA
ATOM     15  S   UNL     1      -1.153   2.647   0.713  1.00  0.00    -0.052 S 
ATOM     16  C   UNL     1      -4.359  -1.663   1.448  1.00  0.00     0.068 C 
BRANCH  16  17
ATOM     17  C   UNL     1      -5.684  -1.253   1.171  1.00  0.00     0.132 A 
ATOM     18  N   UNL     1      -6.104  -0.302   0.364  1.00  0.00    -0.229 NA
ATOM     19  N   UNL     1      -6.743  -1.820   1.840  1.00  0.00    -0.338 N 
ATOM     20  C   UNL     1      -7.419  -0.106   0.669  1.00  0.00     0.089 A 
ATOM     21  C   UNL     1      -7.857  -1.050   1.590  1.00  0.00     0.066 A 
ATOM     22  H   UNL     1      -6.711  -2.631   2.397  1.00  0.00     0.168 HD
ATOM     23  C   UNL     1      -8.290   0.893   0.221  1.00  0.00     0.030 A 
ATOM     24  C   UNL     1      -9.159  -1.068   2.092  1.00  0.00     0.028 A 
ATOM     25  C   UNL     1      -9.590   0.918   0.732  1.00  0.00     0.002 A 
ATOM     26  C   UNL     1     -10.015  -0.050   1.646  1.00  0.00     0.002 A 
ENDBRANCH  16  17
ENDBRANCH   7   9
ENDBRANCH   4   7
ENDBRANCH   2   3
ENDBRANCH   1   2
BRANCH   1  27
ATOM     27  C   UNL     1       4.909   1.914   1.539  1.00  0.00     0.118 C 
BRANCH  27  28
ATOM     28  N   UNL     1       5.937   1.557   2.507  1.00  0.00    -0.352 N 
ATOM     29  C   UNL     1       7.293   1.790   2.489  1.00  0.00     0.251 C 
ATOM     30  H   UNL     1       5.611   1.072   3.299  1.00  0.00     0.163 HD
ATOM     31  O   UNL     1       8.015   1.266   3.326  1.00  0.00    -0.269 OA
BRANCH  29  32
ATOM     32  C   UNL     1       7.885   2.653   1.445  1.00  0.00     0.039 A 
ATOM     33  C   UNL     1       9.049   2.229   0.795  1.00  0.00     0.014 A 
ATOM     34  C   UNL     1       7.305   3.879   1.115  1.00  0.00     0.014 A 
ATOM     35  C   UNL     1       9.584   2.995  -0.243  1.00  0.00     0.010 A 
ATOM     36  C   UNL     1       7.796   4.606   0.035  1.00  0.00     0.010 A 
ATOM     37  C   UNL     1       8.936   4.168  -0.658  1.00  0.00    -0.014 A 
BRANCH  37  38
ATOM     38  C   UNL     1       9.413   4.966  -1.816  1.00  0.00     0.031 A 
ATOM     39  C   UNL     1       9.867   6.382  -1.608  1.00  0.00     0.074 A 
ATOM     40  C   UNL     1       9.316   4.464  -3.061  1.00  0.00     0.049 A 
ATOM     41  N   UNL     1      10.126   7.310  -2.493  1.00  0.00    -0.248 NA
ATOM     42  C   UNL     1      10.014   6.821  -0.212  1.00  0.00     0.031 C 
ATOM     43  C   UNL     1       8.855   3.117  -3.396  1.00  0.00     0.029 A 
ATOM     44  N   UNL     1       9.562   5.046  -4.281  1.00  0.00    -0.354 N 
ATOM     45  C   UNL     1      10.432   8.450  -1.763  1.00  0.00     0.074 A 
ATOM     46  C   UNL     1      10.289   8.107  -0.363  1.00  0.00     0.031 C 
ATOM     47  C   UNL     1       8.840   2.978  -4.731  1.00  0.00     0.029 A 
ATOM     48  C   UNL     1       9.246   4.238  -5.346  1.00  0.00     0.049 A 
ATOM     49  H   UNL     1       9.930   5.953  -4.382  1.00  0.00     0.167 HD
ATOM     50  C   UNL     1      10.808   9.669  -2.219  1.00  0.00     0.037 A 
ATOM     51  C   UNL     1       9.251   4.494  -6.668  1.00  0.00     0.037 A 
ATOM     52  C   UNL     1      10.975   9.994  -3.611  1.00  0.00     0.049 A 
ATOM     53  C   UNL     1       9.677   5.851  -7.156  1.00  0.00     0.074 A 
ATOM     54  C   UNL     1      11.422  11.176  -4.174  1.00  0.00     0.029 A 
ATOM     55  N   UNL     1      10.696   9.130  -4.661  1.00  0.00    -0.354 N 
ATOM     56  N   UNL     1      10.021   6.907  -6.459  1.00  0.00    -0.248 NA
ATOM     57  C   UNL     1       9.720   6.053  -8.611  1.00  0.00     0.031 C 
ATOM     58  C   UNL     1      11.371  11.043  -5.566  1.00  0.00     0.029 A 
ATOM     59  C   UNL     1      10.941   9.761  -5.870  1.00  0.00     0.049 A 
ATOM     60  H   UNL     1      10.373   8.206  -4.561  1.00  0.00     0.167 HD
ATOM     61  C   UNL     1      10.345   7.888  -7.386  1.00  0.00     0.074 A 
ATOM     62  C   UNL     1      10.161   7.301  -8.697  1.00  0.00     0.031 C 
ATOM     63  C   UNL     1      10.764   9.159  -7.167  1.00  0.00     0.037 A 
BRANCH  50  64
ATOM     64  C   UNL     1      11.050  10.742  -1.197  1.00  0.00     0.064 A 
ATOM     65  C   UNL     1      12.138  10.690  -0.313  1.00  0.00     0.173 A 
ATOM     66  C   UNL     1      10.182  11.840  -1.102  1.00  0.00     0.173 A 
ATOM     67  F   UNL     1      12.992   9.656  -0.355  1.00  0.00    -0.203 F 
ATOM     68  C   UNL     1      12.323  11.672   0.656  1.00  0.00     0.198 A 
ATOM     69  C   UNL     1      10.388  12.838  -0.154  1.00  0.00     0.198 A 
ATOM     70  F   UNL     1       9.130  11.945  -1.928  1.00  0.00    -0.203 F 
ATOM     71  F   UNL     1      13.332  11.565   1.532  1.00  0.00    -0.200 F 
ATOM     72  C   UNL     1      11.451  12.747   0.733  1.00  0.00     0.200 A 
ATOM     73  F   UNL     1       9.552  13.884  -0.090  1.00  0.00    -0.200 F 
ATOM     74  F   UNL     1      11.628  13.690   1.668  1.00  0.00    -0.200 F 
ENDBRANCH  50  64
BRANCH  51  75
ATOM     75  C   UNL     1       8.841   3.428  -7.617  1.00  0.00     0.064 A 
ATOM     76  C   UNL     1       9.788   2.768  -8.411  1.00  0.00     0.173 A 
ATOM     77  C   UNL     1       7.503   3.018  -7.717  1.00  0.00     0.173 A 
ATOM     78  F   UNL     1      11.076   3.138  -8.361  1.00  0.00    -0.203 F 
ATOM     79  C   UNL     1       9.412   1.740  -9.273  1.00  0.00     0.198 A 
ATOM     80  C   UNL     1       7.132   1.974  -8.562  1.00  0.00     0.198 A 
ATOM     81  F   UNL     1       6.560   3.614  -6.972  1.00  0.00    -0.203 F 
ATOM     82  F   UNL     1      10.333   1.141 -10.039  1.00  0.00    -0.200 F 
ATOM     83  C   UNL     1       8.086   1.338  -9.341  1.00  0.00     0.200 A 
ATOM     84  F   UNL     1       5.853   1.578  -8.612  1.00  0.00    -0.200 F 
ATOM     85  F   UNL     1       7.728   0.338 -10.158  1.00  0.00    -0.200 F 
ENDBRANCH  51  75
BRANCH  63  86
ATOM     86  C   UNL     1      11.093   9.998  -8.366  1.00  0.00     0.064 A 
ATOM     87  C   UNL     1      10.091  10.547  -9.178  1.00  0.00     0.173 A 
ATOM     88  C   UNL     1      12.428  10.321  -8.655  1.00  0.00     0.173 A 
ATOM     89  F   UNL     1       8.802  10.255  -8.950  1.00  0.00    -0.203 F 
ATOM     90  C   UNL     1      10.415  11.386 -10.242  1.00  0.00     0.198 A 
ATOM     91  C   UNL     1      12.746  11.180  -9.703  1.00  0.00     0.198 A 
ATOM     92  F   UNL     1      13.422   9.824  -7.904  1.00  0.00    -0.203 F 
ATOM     93  F   UNL     1       9.444  11.880 -11.022  1.00  0.00    -0.200 F 
ATOM     94  C   UNL     1      11.740  11.710 -10.496  1.00  0.00     0.200 A 
ATOM     95  F   UNL     1      14.025  11.501  -9.940  1.00  0.00    -0.200 F 
ATOM     96  F   UNL     1      12.047  12.532 -11.509  1.00  0.00    -0.200 F 
ENDBRANCH  63  86
ENDBRANCH  37  38
ENDBRANCH  29  32
ENDBRANCH  27  28
ENDBRANCH   1  27
TORSDOF 12
