REMARK SMILES O=C(NCCCNC(=O)c1cncc(Oc2cc(F)ccc2F)n1)c1ccc(-c2c3nc(c(-c4c(F)c(F)c(F)c(F)c4F)c4ccc([nH]4)c(-c4c(F)c(F)c(F)c(F)c4F)c4nc(c(-c5c(F)c(F)c(F)c(F)c5F)c5ccc2[nH]5)C=C4)C=C3)cc1
REMARK SMILES IDX 5 1 4 2 3 3 1 4 2 5 25 7 26 8 87 9 27 10 86 11 28 12 29 13
REMARK SMILES IDX 30 14 80 15 31 16 85 17 79 18 81 19 32 20 84 21 78 22 77 23
REMARK SMILES IDX 33 25 65 26 45 27 64 28 46 29 49 30 63 31 82 32 47 33 48 34
REMARK SMILES IDX 62 36 83 37 50 38 34 39 35 40 43 41 36 42 37 43 41 44 44 45
REMARK SMILES IDX 38 46 39 47 42 48 40 49 66 50 67 51 75 52 68 53 69 54 73 55
REMARK SMILES IDX 76 56 70 57 71 58 74 59 72 60 51 61 52 62 60 63 53 64 54 65
REMARK SMILES IDX 58 66 61 67 55 68 56 69 59 70 57 71 6 72 7 73 8 74 9 76
REMARK SMILES IDX 10 77 11 78 24 79 12 80 14 81 13 82 15 83 16 84 17 85 22 86
REMARK SMILES IDX 18 87 21 88 23 89 19 90 20 91
REMARK H PARENT 3 6 81 24 49 35 7 75
REMARK Flexibility Score: inf
ROOT
ATOM      1  C   UNL     1       4.773   0.373  -2.745  1.00  0.00     0.042 C 
ENDROOT
BRANCH   1   2
ATOM      2  C   UNL     1       4.449   0.870  -1.343  1.00  0.00     0.118 C 
BRANCH   2   3
ATOM      3  N   UNL     1       3.030   0.790  -1.016  1.00  0.00    -0.352 N 
ATOM      4  O   UNL     1       1.137   0.004  -0.084  1.00  0.00    -0.269 OA
ATOM      5  C   UNL     1       2.366   0.024  -0.087  1.00  0.00     0.251 C 
ATOM      6  H   UNL     1       2.452   1.382  -1.550  1.00  0.00     0.163 HD
BRANCH   5   7
ATOM      7  C   UNL     1       3.114  -0.796   0.891  1.00  0.00     0.039 A 
ATOM      8  C   UNL     1       4.265  -0.306   1.503  1.00  0.00     0.014 A 
ATOM      9  C   UNL     1       2.642  -2.072   1.222  1.00  0.00     0.014 A 
ATOM     10  C   UNL     1       5.044  -1.148   2.285  1.00  0.00     0.010 A 
ATOM     11  C   UNL     1       3.367  -2.879   2.106  1.00  0.00     0.010 A 
ATOM     12  C   UNL     1       4.597  -2.440   2.613  1.00  0.00    -0.014 A 
BRANCH  12  13
ATOM     13  C   UNL     1       5.420  -3.256   3.542  1.00  0.00     0.031 A 
ATOM     14  C   UNL     1       6.059  -4.544   3.108  1.00  0.00     0.074 A 
ATOM     15  C   UNL     1       5.653  -2.771   4.778  1.00  0.00     0.049 A 
ATOM     16  N   UNL     1       6.907  -5.301   3.760  1.00  0.00    -0.248 NA
ATOM     17  C   UNL     1       5.697  -5.061   1.780  1.00  0.00     0.031 C 
ATOM     18  C   UNL     1       5.061  -1.545   5.318  1.00  0.00     0.029 A 
ATOM     19  N   UNL     1       6.480  -3.210   5.780  1.00  0.00    -0.354 N 
ATOM     20  C   UNL     1       7.162  -6.388   2.936  1.00  0.00     0.074 A 
ATOM     21  C   UNL     1       6.361  -6.209   1.744  1.00  0.00     0.031 C 
ATOM     22  C   UNL     1       5.611  -1.280   6.510  1.00  0.00     0.029 A 
ATOM     23  C   UNL     1       6.543  -2.349   6.849  1.00  0.00     0.049 A 
ATOM     24  H   UNL     1       6.978  -4.058   5.739  1.00  0.00     0.167 HD
ATOM     25  C   UNL     1       7.995  -7.433   3.155  1.00  0.00     0.037 A 
ATOM     26  C   UNL     1       7.275  -2.405   7.977  1.00  0.00     0.037 A 
ATOM     27  C   UNL     1       8.811  -7.588   4.332  1.00  0.00     0.049 A 
ATOM     28  C   UNL     1       8.203  -3.563   8.188  1.00  0.00     0.074 A 
ATOM     29  C   UNL     1       9.726  -8.586   4.621  1.00  0.00     0.029 A 
ATOM     30  N   UNL     1       8.810  -6.721   5.416  1.00  0.00    -0.354 N 
ATOM     31  N   UNL     1       8.463  -4.564   7.383  1.00  0.00    -0.248 NA
ATOM     32  C   UNL     1       8.930  -3.608   9.463  1.00  0.00     0.031 C 
ATOM     33  C   UNL     1      10.244  -8.348   5.897  1.00  0.00     0.029 A 
ATOM     34  C   UNL     1       9.688  -7.177   6.386  1.00  0.00     0.049 A 
ATOM     35  H   UNL     1       8.266  -5.904   5.485  1.00  0.00     0.167 HD
ATOM     36  C   UNL     1       9.380  -5.360   8.050  1.00  0.00     0.074 A 
ATOM     37  C   UNL     1       9.651  -4.713   9.318  1.00  0.00     0.031 C 
ATOM     38  C   UNL     1       9.940  -6.526   7.647  1.00  0.00     0.037 A 
BRANCH  25  39
ATOM     39  C   UNL     1       8.065  -8.507   2.108  1.00  0.00     0.064 A 
ATOM     40  C   UNL     1       7.541  -9.783   2.366  1.00  0.00     0.173 A 
ATOM     41  C   UNL     1       8.706  -8.299   0.878  1.00  0.00     0.173 A 
ATOM     42  F   UNL     1       6.925 -10.038   3.531  1.00  0.00    -0.203 F 
ATOM     43  C   UNL     1       7.662 -10.812   1.435  1.00  0.00     0.198 A 
ATOM     44  C   UNL     1       8.804  -9.323  -0.061  1.00  0.00     0.198 A 
ATOM     45  F   UNL     1       9.216  -7.095   0.578  1.00  0.00    -0.203 F 
ATOM     46  F   UNL     1       7.177 -12.029   1.716  1.00  0.00    -0.200 F 
ATOM     47  C   UNL     1       8.290 -10.580   0.221  1.00  0.00     0.200 A 
ATOM     48  F   UNL     1       9.391  -9.091  -1.244  1.00  0.00    -0.200 F 
ATOM     49  F   UNL     1       8.395 -11.567  -0.680  1.00  0.00    -0.200 F 
ENDBRANCH  25  39
BRANCH  26  50
ATOM     50  C   UNL     1       7.160  -1.302   8.964  1.00  0.00     0.064 A 
ATOM     51  C   UNL     1       5.980  -1.107   9.698  1.00  0.00     0.173 A 
ATOM     52  C   UNL     1       8.192  -0.369   9.123  1.00  0.00     0.173 A 
ATOM     53  F   UNL     1       4.960  -1.968   9.571  1.00  0.00    -0.203 F 
ATOM     54  C   UNL     1       5.823   0.002  10.525  1.00  0.00     0.198 A 
ATOM     55  C   UNL     1       8.044   0.726   9.972  1.00  0.00     0.198 A 
ATOM     56  F   UNL     1       9.343  -0.522   8.453  1.00  0.00    -0.203 F 
ATOM     57  F   UNL     1       4.665   0.196  11.171  1.00  0.00    -0.200 F 
ATOM     58  C   UNL     1       6.855   0.918  10.662  1.00  0.00     0.200 A 
ATOM     59  F   UNL     1       9.049   1.601  10.114  1.00  0.00    -0.200 F 
ATOM     60  F   UNL     1       6.702   1.989  11.453  1.00  0.00    -0.200 F 
ENDBRANCH  26  50
BRANCH  38  61
ATOM     61  C   UNL     1      10.902  -7.189   8.585  1.00  0.00     0.064 A 
ATOM     62  C   UNL     1      12.276  -7.202   8.305  1.00  0.00     0.173 A 
ATOM     63  C   UNL     1      10.453  -7.880   9.719  1.00  0.00     0.173 A 
ATOM     64  F   UNL     1      12.752  -6.559   7.228  1.00  0.00    -0.203 F 
ATOM     65  C   UNL     1      13.165  -7.898   9.119  1.00  0.00     0.198 A 
ATOM     66  C   UNL     1      11.347  -8.556  10.544  1.00  0.00     0.198 A 
ATOM     67  F   UNL     1       9.149  -7.884  10.034  1.00  0.00    -0.203 F 
ATOM     68  F   UNL     1      14.470  -7.923   8.816  1.00  0.00    -0.200 F 
ATOM     69  C   UNL     1      12.700  -8.573  10.238  1.00  0.00     0.200 A 
ATOM     70  F   UNL     1      10.900  -9.191  11.636  1.00  0.00    -0.200 F 
ATOM     71  F   UNL     1      13.557  -9.239  11.023  1.00  0.00    -0.200 F 
ENDBRANCH  38  61
ENDBRANCH  12  13
ENDBRANCH   5   7
ENDBRANCH   2   3
ENDBRANCH   1   2
BRANCH   1  72
ATOM     72  C   UNL     1       4.196   1.233  -3.861  1.00  0.00     0.118 C 
BRANCH  72  73
ATOM     73  N   UNL     1       4.715   2.592  -3.832  1.00  0.00    -0.351 N 
ATOM     74  C   UNL     1       5.603   3.223  -4.674  1.00  0.00     0.271 C 
ATOM     75  H   UNL     1       4.378   3.148  -3.093  1.00  0.00     0.163 HD
ATOM     76  O   UNL     1       6.049   4.321  -4.348  1.00  0.00    -0.267 OA
BRANCH  74  77
ATOM     77  C   UNL     1       5.996   2.607  -5.964  1.00  0.00     0.150 A 
ATOM     78  C   UNL     1       5.024   2.171  -6.856  1.00  0.00     0.145 A 
ATOM     79  N   UNL     1       7.324   2.549  -6.246  1.00  0.00    -0.205 NA
ATOM     80  N   UNL     1       5.330   1.599  -8.045  1.00  0.00    -0.257 NA
ATOM     81  C   UNL     1       7.629   2.019  -7.453  1.00  0.00     0.238 A 
ATOM     82  C   UNL     1       6.656   1.536  -8.322  1.00  0.00     0.179 A 
BRANCH  81  83
ATOM     83  O   UNL     1       8.950   1.896  -7.860  1.00  0.00    -0.434 OA
BRANCH  83  84
ATOM     84  C   UNL     1       9.854   2.709  -7.222  1.00  0.00     0.168 A 
ATOM     85  C   UNL     1      10.399   2.335  -5.995  1.00  0.00     0.089 A 
ATOM     86  C   UNL     1      10.296   3.869  -7.861  1.00  0.00     0.166 A 
ATOM     87  C   UNL     1      11.359   3.152  -5.408  1.00  0.00     0.127 A 
ATOM     88  C   UNL     1      11.263   4.680  -7.271  1.00  0.00     0.046 A 
ATOM     89  F   UNL     1       9.801   4.209  -9.060  1.00  0.00    -0.203 F 
ATOM     90  F   UNL     1      11.883   2.805  -4.225  1.00  0.00    -0.207 F 
ATOM     91  C   UNL     1      11.797   4.319  -6.033  1.00  0.00     0.042 A 
ENDBRANCH  83  84
ENDBRANCH  81  83
ENDBRANCH  74  77
ENDBRANCH  72  73
ENDBRANCH   1  72
TORSDOF 12
