REMARK SMILES O=C(NCCCNC(=O)[C@@]1([NH2+]C2CC2)CC[C@@H]([N@@H+]2CC[N@@H+]3CCC[C@@H]3C2)C1)c1ccc(-c2c3nc(c(-c4c(F)c(F)c(F)c(F)c4F)c4ccc([nH]4)c(-c4c(F)c(F)c(F)c(F)c4F)c4nc(c(-c5c(F)c(F)c(F)c(F)c5F)c5ccc2[nH]5)C=C4)C=C3)cc1
REMARK SMILES IDX 5 1 4 2 3 3 1 4 2 5 28 7 29 8 90 9 30 10 89 11 31 12 32 13
REMARK SMILES IDX 33 14 83 15 34 16 88 17 82 18 84 19 35 20 87 21 81 22 80 23
REMARK SMILES IDX 36 25 68 26 48 27 67 28 49 29 52 30 66 31 85 32 50 33 51 34
REMARK SMILES IDX 65 36 86 37 53 38 37 39 38 40 46 41 39 42 40 43 44 44 47 45
REMARK SMILES IDX 41 46 42 47 45 48 43 49 69 50 70 51 78 52 71 53 72 54 76 55
REMARK SMILES IDX 79 56 73 57 74 58 77 59 75 60 54 61 55 62 63 63 56 64 57 65
REMARK SMILES IDX 61 66 64 67 58 68 59 69 62 70 60 71 6 72 7 73 8 74 9 76
REMARK SMILES IDX 10 77 15 78 27 79 16 80 17 81 11 82 12 85 13 86 14 87 18 88
REMARK SMILES IDX 19 89 26 90 20 92 25 93 21 94 24 95 22 96 23 98
REMARK H PARENT 3 6 84 24 52 35 7 75 11 83 11 84 18 91 21 97
REMARK Flexibility Score: inf
ROOT
ATOM      1  C   UNL     1       4.526  -0.796  -2.487  1.00  0.00     0.042 C 
ENDROOT
BRANCH   1   2
ATOM      2  C   UNL     1       4.368   0.248  -1.397  1.00  0.00     0.118 C 
BRANCH   2   3
ATOM      3  N   UNL     1       2.968   0.446  -1.042  1.00  0.00    -0.352 N 
ATOM      4  O   UNL     1       1.076   0.102   0.128  1.00  0.00    -0.269 OA
ATOM      5  C   UNL     1       2.302   0.116   0.110  1.00  0.00     0.251 C 
ATOM      6  H   UNL     1       2.419   0.882  -1.734  1.00  0.00     0.163 HD
BRANCH   5   7
ATOM      7  C   UNL     1       3.067  -0.218   1.328  1.00  0.00     0.039 A 
ATOM      8  C   UNL     1       4.224   0.494   1.647  1.00  0.00     0.014 A 
ATOM      9  C   UNL     1       2.603  -1.223   2.181  1.00  0.00     0.014 A 
ATOM     10  C   UNL     1       4.998   0.107   2.729  1.00  0.00     0.010 A 
ATOM     11  C   UNL     1       3.322  -1.534   3.337  1.00  0.00     0.010 A 
ATOM     12  C   UNL     1       4.536  -0.883   3.609  1.00  0.00    -0.014 A 
BRANCH  12  13
ATOM     13  C   UNL     1       5.302  -1.143   4.851  1.00  0.00     0.031 A 
ATOM     14  C   UNL     1       5.939  -2.477   5.107  1.00  0.00     0.074 A 
ATOM     15  C   UNL     1       5.446  -0.133   5.730  1.00  0.00     0.049 A 
ATOM     16  N   UNL     1       6.657  -2.861   6.133  1.00  0.00    -0.248 NA
ATOM     17  C   UNL     1       5.742  -3.518   4.088  1.00  0.00     0.031 C 
ATOM     18  C   UNL     1       4.859   1.202   5.580  1.00  0.00     0.029 A 
ATOM     19  N   UNL     1       6.141  -0.056   6.908  1.00  0.00    -0.354 N 
ATOM     20  C   UNL     1       6.992  -4.185   5.888  1.00  0.00     0.074 A 
ATOM     21  C   UNL     1       6.367  -4.553   4.635  1.00  0.00     0.031 C 
ATOM     22  C   UNL     1       5.258   1.978   6.597  1.00  0.00     0.029 A 
ATOM     23  C   UNL     1       6.064   1.176   7.509  1.00  0.00     0.049 A 
ATOM     24  H   UNL     1       6.647  -0.811   7.287  1.00  0.00     0.167 HD
ATOM     25  C   UNL     1       7.764  -5.010   6.636  1.00  0.00     0.037 A 
ATOM     26  C   UNL     1       6.565   1.607   8.680  1.00  0.00     0.037 A 
ATOM     27  C   UNL     1       8.376  -4.629   7.885  1.00  0.00     0.049 A 
ATOM     28  C   UNL     1       7.371   0.652   9.512  1.00  0.00     0.074 A 
ATOM     29  C   UNL     1       9.180  -5.387   8.719  1.00  0.00     0.029 A 
ATOM     30  N   UNL     1       8.248  -3.382   8.482  1.00  0.00    -0.354 N 
ATOM     31  N   UNL     1       7.705  -0.589   9.255  1.00  0.00    -0.248 NA
ATOM     32  C   UNL     1       7.870   1.157  10.796  1.00  0.00     0.031 C 
ATOM     33  C   UNL     1       9.495  -4.616   9.844  1.00  0.00     0.029 A 
ATOM     34  C   UNL     1       8.940  -3.357   9.683  1.00  0.00     0.049 A 
ATOM     35  H   UNL     1       7.740  -2.627   8.107  1.00  0.00     0.167 HD
ATOM     36  C   UNL     1       8.472  -1.007  10.333  1.00  0.00     0.074 A 
ATOM     37  C   UNL     1       8.575   0.124  11.233  1.00  0.00     0.031 C 
ATOM     38  C   UNL     1       9.036  -2.218  10.561  1.00  0.00     0.037 A 
BRANCH  25  39
ATOM     39  C   UNL     1       7.981  -6.409   6.135  1.00  0.00     0.064 A 
ATOM     40  C   UNL     1       8.767  -6.672   5.003  1.00  0.00     0.173 A 
ATOM     41  C   UNL     1       7.437  -7.506   6.821  1.00  0.00     0.173 A 
ATOM     42  F   UNL     1       9.302  -5.660   4.302  1.00  0.00    -0.203 F 
ATOM     43  C   UNL     1       8.980  -7.976   4.563  1.00  0.00     0.198 A 
ATOM     44  C   UNL     1       7.677  -8.811   6.397  1.00  0.00     0.198 A 
ATOM     45  F   UNL     1       6.681  -7.314   7.913  1.00  0.00    -0.203 F 
ATOM     46  F   UNL     1       9.698  -8.199   3.453  1.00  0.00    -0.200 F 
ATOM     47  C   UNL     1       8.443  -9.045   5.265  1.00  0.00     0.200 A 
ATOM     48  F   UNL     1       7.168  -9.842   7.085  1.00  0.00    -0.200 F 
ATOM     49  F   UNL     1       8.657 -10.300   4.846  1.00  0.00    -0.200 F 
ENDBRANCH  25  39
BRANCH  26  50
ATOM     50  C   UNL     1       6.299   2.996   9.138  1.00  0.00     0.064 A 
ATOM     51  C   UNL     1       7.337   3.928   9.269  1.00  0.00     0.173 A 
ATOM     52  C   UNL     1       5.000   3.417   9.466  1.00  0.00     0.173 A 
ATOM     53  F   UNL     1       8.598   3.571   8.982  1.00  0.00    -0.203 F 
ATOM     54  C   UNL     1       7.091   5.217   9.738  1.00  0.00     0.198 A 
ATOM     55  C   UNL     1       4.751   4.716   9.899  1.00  0.00     0.198 A 
ATOM     56  F   UNL     1       3.969   2.567   9.350  1.00  0.00    -0.203 F 
ATOM     57  F   UNL     1       8.111   6.070   9.909  1.00  0.00    -0.200 F 
ATOM     58  C   UNL     1       5.798   5.612  10.047  1.00  0.00     0.200 A 
ATOM     59  F   UNL     1       3.497   5.098  10.175  1.00  0.00    -0.200 F 
ATOM     60  F   UNL     1       5.563   6.852  10.497  1.00  0.00    -0.200 F 
ENDBRANCH  26  50
BRANCH  38  61
ATOM     61  C   UNL     1       9.848  -2.363  11.816  1.00  0.00     0.064 A 
ATOM     62  C   UNL     1       9.251  -2.374  13.085  1.00  0.00     0.173 A 
ATOM     63  C   UNL     1      11.242  -2.508  11.743  1.00  0.00     0.173 A 
ATOM     64  F   UNL     1       7.924  -2.220  13.209  1.00  0.00    -0.203 F 
ATOM     65  C   UNL     1      10.024  -2.489  14.238  1.00  0.00     0.198 A 
ATOM     66  C   UNL     1      12.007  -2.659  12.896  1.00  0.00     0.198 A 
ATOM     67  F   UNL     1      11.861  -2.510  10.554  1.00  0.00    -0.203 F 
ATOM     68  F   UNL     1       9.438  -2.433  15.442  1.00  0.00    -0.200 F 
ATOM     69  C   UNL     1      11.399  -2.638  14.142  1.00  0.00     0.200 A 
ATOM     70  F   UNL     1      13.334  -2.818  12.801  1.00  0.00    -0.200 F 
ATOM     71  F   UNL     1      12.140  -2.752  15.252  1.00  0.00    -0.200 F 
ENDBRANCH  38  61
ENDBRANCH  12  13
ENDBRANCH   5   7
ENDBRANCH   2   3
ENDBRANCH   1   2
BRANCH   1  72
ATOM     72  C   UNL     1       3.950  -0.326  -3.812  1.00  0.00     0.118 C 
BRANCH  72  73
ATOM     73  N   UNL     1       4.765   0.695  -4.419  1.00  0.00    -0.351 N 
ATOM     74  C   UNL     1       5.785   0.642  -5.317  1.00  0.00     0.281 C 
ATOM     75  H   UNL     1       4.540   1.608  -4.128  1.00  0.00     0.163 HD
ATOM     76  O   UNL     1       6.213   1.758  -5.644  1.00  0.00    -0.268 OA
BRANCH  74  77
ATOM     77  C   UNL     1       6.299  -0.684  -5.992  1.00  0.00     0.181 C 
ATOM     78  C   UNL     1       6.321  -2.023  -5.236  1.00  0.00     0.085 C 
ATOM     79  C   UNL     1       5.310  -0.967  -7.155  1.00  0.00     0.144 C 
ATOM     80  C   UNL     1       6.168  -3.098  -6.309  1.00  0.00     0.072 C 
ATOM     81  C   UNL     1       5.252  -2.491  -7.382  1.00  0.00     0.191 C 
BRANCH  77  82
ATOM     82  N   UNL     1       7.659  -0.466  -6.554  1.00  0.00    -0.331 N 
ATOM     83  H   UNL     1       7.546   0.102  -7.394  1.00  0.00     0.347 HD
ATOM     84  H   UNL     1       8.022  -1.410  -6.684  1.00  0.00     0.347 HD
BRANCH  82  85
ATOM     85  C   UNL     1       8.683   0.190  -5.728  1.00  0.00     0.183 C 
ATOM     86  C   UNL     1       8.666   0.273  -4.225  1.00  0.00     0.071 C 
ATOM     87  C   UNL     1       9.630  -0.647  -4.906  1.00  0.00     0.071 C 
ENDBRANCH  82  85
ENDBRANCH  77  82
BRANCH  81  88
ATOM     88  N   UNL     1       3.903  -3.086  -7.419  1.00  0.00    -0.323 N 
ATOM     89  C   UNL     1       3.143  -2.724  -8.636  1.00  0.00     0.324 C 
ATOM     90  C   UNL     1       3.079  -2.938  -6.219  1.00  0.00     0.328 C 
ATOM     91  H   UNL     1       4.118  -4.082  -7.450  1.00  0.00     0.348 HD
ATOM     92  C   UNL     1       1.611  -2.508  -8.462  1.00  0.00     0.324 C 
ATOM     93  C   UNL     1       1.744  -3.704  -6.319  1.00  0.00     0.240 C 
ATOM     94  N   UNL     1       0.941  -3.416  -7.523  1.00  0.00    -0.323 N 
ATOM     95  C   UNL     1       0.834  -3.415  -5.123  1.00  0.00     0.077 C 
ATOM     96  C   UNL     1      -0.370  -2.914  -7.095  1.00  0.00     0.263 C 
ATOM     97  H   UNL     1       0.819  -4.279  -8.051  1.00  0.00     0.348 HD
ATOM     98  C   UNL     1      -0.561  -3.499  -5.707  1.00  0.00     0.068 C 
ENDBRANCH  81  88
ENDBRANCH  74  77
ENDBRANCH  72  73
ENDBRANCH   1  72
TORSDOF 13
