REMARK SMILES CC(C)c1nc(OCC(=O)NCCCNC(=O)c2ccc(-c3c4nc(c(-c5c(F)c(F)c(F)c(F)c5F)c5ccc([nH]5)c(-c5c(F)c(F)c(F)c(F)c5F)c5nc(c(-c6c(F)c(F)c(F)c(F)c6F)c6ccc3[nH]6)C=C5)C=C4)cc2)cc(-c2ccccn2)n1
REMARK SMILES IDX 12 1 11 2 9 3 10 4 8 6 7 7 6 8 4 9 5 10 89 11 82 12 81 13
REMARK SMILES IDX 2 14 1 15 3 16 83 17 84 18 88 19 85 20 87 21 86 22 13 23
REMARK SMILES IDX 14 24 15 25 16 26 17 28 18 29 19 30 80 31 20 32 79 33 21 34
REMARK SMILES IDX 22 35 23 36 73 37 24 38 78 39 72 40 74 41 25 42 77 43 71 44
REMARK SMILES IDX 70 45 26 47 58 48 38 49 57 50 39 51 42 52 56 53 75 54 40 55
REMARK SMILES IDX 41 56 55 58 76 59 43 60 27 61 28 62 36 63 29 64 30 65 34 66
REMARK SMILES IDX 37 67 31 68 32 69 35 70 33 71 59 72 60 73 68 74 61 75 62 76
REMARK SMILES IDX 66 77 69 78 63 79 64 80 67 81 65 82 44 83 45 84 53 85 46 86
REMARK SMILES IDX 47 87 51 88 54 89 48 90 49 91 52 92 50 93
REMARK H PARENT 11 5 15 27 74 46 42 57
REMARK Flexibility Score: inf
ROOT
ATOM      1  C   UNL     1      -4.551  -2.294   3.387  1.00  0.00     0.117 C 
ENDROOT
BRANCH   1   2
ATOM      2  N   UNL     1      -5.448  -1.174   3.172  1.00  0.00    -0.353 N 
ATOM      3  C   UNL     1      -5.741  -0.535   2.004  1.00  0.00     0.258 C 
ATOM      4  O   UNL     1      -6.517   0.422   2.032  1.00  0.00    -0.271 OA
ATOM      5  H   UNL     1      -5.905  -0.831   3.974  1.00  0.00     0.163 HD
BRANCH   3   6
ATOM      6  C   UNL     1      -5.111  -1.018   0.693  1.00  0.00     0.331 C 
BRANCH   6   7
ATOM      7  O   UNL     1      -3.699  -0.937   0.626  1.00  0.00    -0.467 OA
BRANCH   7   8
ATOM      8  C   UNL     1      -3.127   0.303   0.603  1.00  0.00     0.217 A 
ATOM      9  C   UNL     1      -1.111   1.411   0.656  1.00  0.00     0.135 A 
ATOM     10  N   UNL     1      -1.788   0.247   0.666  1.00  0.00    -0.198 NA
ATOM     11  N   UNL     1      -1.704   2.615   0.686  1.00  0.00    -0.231 NA
ATOM     12  C   UNL     1      -3.052   2.643   0.618  1.00  0.00     0.096 A 
ATOM     13  C   UNL     1      -3.809   1.491   0.543  1.00  0.00     0.099 A 
BRANCH   9  14
ATOM     14  C   UNL     1       0.406   1.360   0.701  1.00  0.00     0.051 C 
ATOM     15  C   UNL     1       0.965   0.064   0.101  1.00  0.00     0.016 C 
ATOM     16  C   UNL     1       1.041   2.556  -0.019  1.00  0.00     0.016 C 
ENDBRANCH   9  14
BRANCH  12  17
ATOM     17  C   UNL     1      -3.707   3.958   0.669  1.00  0.00     0.089 A 
ATOM     18  C   UNL     1      -4.582   4.288   1.707  1.00  0.00     0.030 A 
ATOM     19  N   UNL     1      -3.479   4.795  -0.376  1.00  0.00    -0.255 NA
ATOM     20  C   UNL     1      -5.245   5.512   1.673  1.00  0.00     0.004 A 
ATOM     21  C   UNL     1      -4.133   5.977  -0.378  1.00  0.00     0.112 A 
ATOM     22  C   UNL     1      -5.019   6.374   0.609  1.00  0.00     0.020 A 
ENDBRANCH  12  17
ENDBRANCH   7   8
ENDBRANCH   6   7
ENDBRANCH   3   6
ENDBRANCH   1   2
BRANCH   1  23
ATOM     23  C   UNL     1      -3.240  -1.875   4.043  1.00  0.00     0.042 C 
BRANCH  23  24
ATOM     24  C   UNL     1      -3.392  -1.216   5.412  1.00  0.00     0.118 C 
BRANCH  24  25
ATOM     25  N   UNL     1      -4.039  -2.075   6.395  1.00  0.00    -0.352 N 
ATOM     26  C   UNL     1      -3.614  -2.503   7.626  1.00  0.00     0.251 C 
ATOM     27  H   UNL     1      -4.930  -2.402   6.132  1.00  0.00     0.163 HD
ATOM     28  O   UNL     1      -4.272  -3.351   8.230  1.00  0.00    -0.269 OA
BRANCH  26  29
ATOM     29  C   UNL     1      -2.370  -1.981   8.233  1.00  0.00     0.039 A 
ATOM     30  C   UNL     1      -1.529  -2.873   8.908  1.00  0.00     0.014 A 
ATOM     31  C   UNL     1      -2.045  -0.624   8.181  1.00  0.00     0.014 A 
ATOM     32  C   UNL     1      -0.335  -2.417   9.470  1.00  0.00     0.010 A 
ATOM     33  C   UNL     1      -0.820  -0.183   8.678  1.00  0.00     0.010 A 
ATOM     34  C   UNL     1       0.047  -1.073   9.329  1.00  0.00    -0.014 A 
BRANCH  34  35
ATOM     35  C   UNL     1       1.346  -0.583   9.855  1.00  0.00     0.031 A 
ATOM     36  C   UNL     1       1.383   0.435  10.960  1.00  0.00     0.074 A 
ATOM     37  C   UNL     1       2.495  -1.007   9.295  1.00  0.00     0.049 A 
ATOM     38  N   UNL     1       2.413   1.033  11.505  1.00  0.00    -0.248 NA
ATOM     39  C   UNL     1       0.086   0.856  11.509  1.00  0.00     0.031 C 
ATOM     40  C   UNL     1       2.594  -1.965   8.194  1.00  0.00     0.029 A 
ATOM     41  N   UNL     1       3.799  -0.680   9.571  1.00  0.00    -0.354 N 
ATOM     42  C   UNL     1       1.889   1.908  12.446  1.00  0.00     0.074 A 
ATOM     43  C   UNL     1       0.447   1.804  12.361  1.00  0.00     0.031 C 
ATOM     44  C   UNL     1       3.889  -2.172   7.908  1.00  0.00     0.029 A 
ATOM     45  C   UNL     1       4.709  -1.333   8.777  1.00  0.00     0.049 A 
ATOM     46  H   UNL     1       4.058  -0.039  10.272  1.00  0.00     0.167 HD
ATOM     47  C   UNL     1       2.547   2.710  13.318  1.00  0.00     0.037 A 
ATOM     48  C   UNL     1       6.053  -1.262   8.752  1.00  0.00     0.037 A 
ATOM     49  C   UNL     1       3.981   2.800  13.413  1.00  0.00     0.049 A 
ATOM     50  C   UNL     1       6.762  -0.347   9.713  1.00  0.00     0.074 A 
ATOM     51  C   UNL     1       4.745   3.543  14.296  1.00  0.00     0.029 A 
ATOM     52  N   UNL     1       4.870   2.124  12.589  1.00  0.00    -0.354 N 
ATOM     53  N   UNL     1       6.258   0.433  10.637  1.00  0.00    -0.248 NA
ATOM     54  C   UNL     1       8.228  -0.308   9.626  1.00  0.00     0.031 C 
ATOM     55  C   UNL     1       6.094   3.351  13.980  1.00  0.00     0.029 A 
ATOM     56  C   UNL     1       6.174   2.450  12.930  1.00  0.00     0.049 A 
ATOM     57  H   UNL     1       4.613   1.505  11.869  1.00  0.00     0.167 HD
ATOM     58  C   UNL     1       7.343   1.032  11.263  1.00  0.00     0.074 A 
ATOM     59  C   UNL     1       8.533   0.518  10.617  1.00  0.00     0.031 C 
ATOM     60  C   UNL     1       7.350   1.925  12.283  1.00  0.00     0.037 A 
BRANCH  47  61
ATOM     61  C   UNL     1       1.712   3.556  14.236  1.00  0.00     0.064 A 
ATOM     62  C   UNL     1       0.946   2.988  15.266  1.00  0.00     0.173 A 
ATOM     63  C   UNL     1       1.679   4.951  14.088  1.00  0.00     0.173 A 
ATOM     64  F   UNL     1       0.934   1.659  15.444  1.00  0.00    -0.203 F 
ATOM     65  C   UNL     1       0.144   3.780  16.084  1.00  0.00     0.198 A 
ATOM     66  C   UNL     1       0.901   5.743  14.929  1.00  0.00     0.198 A 
ATOM     67  F   UNL     1       2.398   5.547  13.125  1.00  0.00    -0.203 F 
ATOM     68  F   UNL     1      -0.628   3.208  17.018  1.00  0.00    -0.200 F 
ATOM     69  C   UNL     1       0.126   5.157  15.918  1.00  0.00     0.200 A 
ATOM     70  F   UNL     1       0.893   7.074  14.775  1.00  0.00    -0.200 F 
ATOM     71  F   UNL     1      -0.649   5.917  16.703  1.00  0.00    -0.200 F 
ENDBRANCH  47  61
BRANCH  48  72
ATOM     72  C   UNL     1       6.818  -2.119   7.811  1.00  0.00     0.064 A 
ATOM     73  C   UNL     1       7.562  -3.208   8.285  1.00  0.00     0.173 A 
ATOM     74  C   UNL     1       6.812  -1.882   6.429  1.00  0.00     0.173 A 
ATOM     75  F   UNL     1       7.614  -3.461   9.601  1.00  0.00    -0.203 F 
ATOM     76  C   UNL     1       8.279  -4.024   7.413  1.00  0.00     0.198 A 
ATOM     77  C   UNL     1       7.510  -2.713   5.555  1.00  0.00     0.198 A 
ATOM     78  F   UNL     1       6.113  -0.854   5.927  1.00  0.00    -0.203 F 
ATOM     79  F   UNL     1       9.008  -5.039   7.896  1.00  0.00    -0.200 F 
ATOM     80  C   UNL     1       8.247  -3.780   6.048  1.00  0.00     0.200 A 
ATOM     81  F   UNL     1       7.468  -2.482   4.236  1.00  0.00    -0.200 F 
ATOM     82  F   UNL     1       8.930  -4.570   5.209  1.00  0.00    -0.200 F 
ENDBRANCH  48  72
BRANCH  60  83
ATOM     83  C   UNL     1       8.689   2.373  12.793  1.00  0.00     0.064 A 
ATOM     84  C   UNL     1       9.506   3.243  12.055  1.00  0.00     0.173 A 
ATOM     85  C   UNL     1       9.145   1.953  14.052  1.00  0.00     0.173 A 
ATOM     86  F   UNL     1       9.122   3.660  10.839  1.00  0.00    -0.203 F 
ATOM     87  C   UNL     1      10.741   3.656  12.549  1.00  0.00     0.198 A 
ATOM     88  C   UNL     1      10.367   2.390  14.554  1.00  0.00     0.198 A 
ATOM     89  F   UNL     1       8.400   1.125  14.799  1.00  0.00    -0.203 F 
ATOM     90  F   UNL     1      11.525   4.449  11.807  1.00  0.00    -0.200 F 
ATOM     91  C   UNL     1      11.167   3.235  13.800  1.00  0.00     0.200 A 
ATOM     92  F   UNL     1      10.772   1.992  15.768  1.00  0.00    -0.200 F 
ATOM     93  F   UNL     1      12.354   3.638  14.275  1.00  0.00    -0.200 F 
ENDBRANCH  60  83
ENDBRANCH  34  35
ENDBRANCH  26  29
ENDBRANCH  24  25
ENDBRANCH  23  24
ENDBRANCH   1  23
TORSDOF 14
