REMARK SMILES CCCc1n[nH]c(C(=O)NC2(CC(=O)NCCCNC(=O)c3ccc(-c4c5nc(c(-c6c(F)c(F)c(F)c(F)c6F)c6ccc([nH]6)c(-c6c(F)c(F)c(F)c(F)c6F)c6nc(c(-c7c(F)c(F)c(F)c(F)c7F)c7ccc4[nH]7)C=C6)C=C5)cc3)CCC2)n1
REMARK SMILES IDX 13 1 14 2 15 3 12 5 11 6 85 7 87 8 86 9 10 10 8 11 9 12 7 14
REMARK SMILES IDX 4 15 5 16 88 17 6 18 3 20 2 21 1 22 16 23 17 24 18 25 19 26
REMARK SMILES IDX 20 27 21 29 22 30 23 31 84 32 24 33 83 34 25 35 26 36 27 37
REMARK SMILES IDX 77 38 28 39 82 40 76 41 78 42 29 43 81 44 75 45 74 46 30 48
REMARK SMILES IDX 62 49 42 50 61 51 43 52 46 53 60 54 79 55 44 56 45 57 59 59
REMARK SMILES IDX 80 60 47 61 31 62 32 63 40 64 33 65 34 66 38 67 41 68 35 69
REMARK SMILES IDX 36 70 39 71 37 72 63 73 64 74 72 75 65 76 66 77 70 78 73 79
REMARK SMILES IDX 67 80 68 81 71 82 69 83 48 84 49 85 57 86 50 87 51 88 55 89
REMARK SMILES IDX 58 90 52 91 53 92 56 93 54 94
REMARK H PARENT 15 4 10 13 6 19 19 28 78 47 46 58
REMARK Flexibility Score: inf
ROOT
ATOM      1  C   UNL     1       2.121  -7.738  -4.375  1.00  0.00     0.222 C 
ATOM      2  O   UNL     1       1.248  -8.479  -3.920  1.00  0.00    -0.275 OA
ATOM      3  N   UNL     1       3.273  -8.314  -4.813  1.00  0.00    -0.356 N 
ATOM      4  H   UNL     1       3.224  -9.285  -4.969  1.00  0.00     0.163 HD
ENDROOT
BRANCH   1   5
ATOM      5  C   UNL     1       1.919  -6.238  -4.438  1.00  0.00     0.128 C 
BRANCH   5   6
ATOM      6  C   UNL     1       2.170  -5.459  -3.130  1.00  0.00     0.049 C 
ATOM      7  C   UNL     1       2.123  -3.911  -3.345  1.00  0.00     0.029 C 
ATOM      8  C   UNL     1       3.658  -5.161  -2.708  1.00  0.00     0.029 C 
ATOM      9  C   UNL     1       3.623  -3.951  -3.656  1.00  0.00     0.005 C 
BRANCH   6  10
ATOM     10  N   UNL     1       1.415  -6.120  -2.028  1.00  0.00    -0.343 N 
ATOM     11  C   UNL     1       0.441  -5.757  -1.115  1.00  0.00     0.289 C 
ATOM     12  O   UNL     1       0.118  -6.605  -0.289  1.00  0.00    -0.266 OA
ATOM     13  H   UNL     1       1.678  -7.062  -1.922  1.00  0.00     0.164 HD
BRANCH  11  14
ATOM     14  C   UNL     1      -0.101  -4.427  -1.063  1.00  0.00     0.214 A 
ATOM     15  C   UNL     1      -0.353  -2.355  -1.325  1.00  0.00     0.151 A 
ATOM     16  N   UNL     1      -0.721  -2.531  -0.050  1.00  0.00    -0.158 NA
ATOM     17  N   UNL     1      -0.137  -3.521  -2.011  1.00  0.00    -0.207 NA
ATOM     18  N   UNL     1      -0.616  -3.869   0.073  1.00  0.00    -0.255 N 
ATOM     19  H   UNL     1      -0.877  -4.378   0.875  1.00  0.00     0.192 HD
BRANCH  15  20
ATOM     20  C   UNL     1       0.050  -1.063  -1.948  1.00  0.00     0.079 C 
BRANCH  20  21
ATOM     21  C   UNL     1      -0.078   0.197  -1.099  1.00  0.00     0.005 C 
ATOM     22  C   UNL     1       0.907   0.264   0.062  1.00  0.00     0.004 C 
ENDBRANCH  20  21
ENDBRANCH  15  20
ENDBRANCH  11  14
ENDBRANCH   6  10
ENDBRANCH   5   6
ENDBRANCH   1   5
BRANCH   3  23
ATOM     23  C   UNL     1       4.564  -7.709  -5.086  1.00  0.00     0.117 C 
BRANCH  23  24
ATOM     24  C   UNL     1       5.496  -7.886  -3.888  1.00  0.00     0.042 C 
BRANCH  24  25
ATOM     25  C   UNL     1       6.124  -9.263  -3.779  1.00  0.00     0.118 C 
BRANCH  25  26
ATOM     26  N   UNL     1       7.224  -9.438  -4.709  1.00  0.00    -0.352 N 
ATOM     27  C   UNL     1       8.583  -9.386  -4.521  1.00  0.00     0.251 C 
ATOM     28  H   UNL     1       6.948  -9.627  -5.635  1.00  0.00     0.163 HD
ATOM     29  O   UNL     1       9.310  -9.333  -5.512  1.00  0.00    -0.269 OA
BRANCH  27  30
ATOM     30  C   UNL     1       9.198  -9.375  -3.170  1.00  0.00     0.039 A 
ATOM     31  C   UNL     1      10.399  -8.676  -2.992  1.00  0.00     0.014 A 
ATOM     32  C   UNL     1       8.674 -10.103  -2.100  1.00  0.00     0.014 A 
ATOM     33  C   UNL     1      11.040  -8.674  -1.748  1.00  0.00     0.010 A 
ATOM     34  C   UNL     1       9.257 -10.020  -0.835  1.00  0.00     0.010 A 
ATOM     35  C   UNL     1      10.460  -9.325  -0.649  1.00  0.00    -0.014 A 
BRANCH  35  36
ATOM     36  C   UNL     1      11.116  -9.330   0.686  1.00  0.00     0.031 A 
ATOM     37  C   UNL     1      11.557 -10.629   1.309  1.00  0.00     0.074 A 
ATOM     38  C   UNL     1      11.266  -8.177   1.367  1.00  0.00     0.049 A 
ATOM     39  N   UNL     1      12.069 -10.850   2.495  1.00  0.00    -0.248 NA
ATOM     40  C   UNL     1      11.371 -11.847   0.504  1.00  0.00     0.031 C 
ATOM     41  C   UNL     1      10.844  -6.857   0.897  1.00  0.00     0.029 A 
ATOM     42  N   UNL     1      11.806  -7.931   2.605  1.00  0.00    -0.354 N 
ATOM     43  C   UNL     1      12.235 -12.227   2.586  1.00  0.00     0.074 A 
ATOM     44  C   UNL     1      11.728 -12.796   1.356  1.00  0.00     0.031 C 
ATOM     45  C   UNL     1      11.162  -5.938   1.823  1.00  0.00     0.029 A 
ATOM     46  C   UNL     1      11.775  -6.607   2.967  1.00  0.00     0.049 A 
ATOM     47  H   UNL     1      12.181  -8.638   3.179  1.00  0.00     0.167 HD
ATOM     48  C   UNL     1      12.781 -12.950   3.592  1.00  0.00     0.037 A 
ATOM     49  C   UNL     1      12.188  -6.000   4.096  1.00  0.00     0.037 A 
ATOM     50  C   UNL     1      13.330 -12.380   4.794  1.00  0.00     0.049 A 
ATOM     51  C   UNL     1      12.808  -6.823   5.192  1.00  0.00     0.074 A 
ATOM     52  C   UNL     1      13.975 -13.022   5.837  1.00  0.00     0.029 A 
ATOM     53  N   UNL     1      13.302 -11.031   5.112  1.00  0.00    -0.354 N 
ATOM     54  N   UNL     1      13.015  -8.116   5.239  1.00  0.00    -0.248 NA
ATOM     55  C   UNL     1      13.258  -6.100   6.389  1.00  0.00     0.031 C 
ATOM     56  C   UNL     1      14.301 -12.066   6.805  1.00  0.00     0.029 A 
ATOM     57  C   UNL     1      13.901 -10.823   6.344  1.00  0.00     0.049 A 
ATOM     58  H   UNL     1      12.914 -10.325   4.545  1.00  0.00     0.167 HD
ATOM     59  C   UNL     1      13.640  -8.359   6.454  1.00  0.00     0.074 A 
ATOM     60  C   UNL     1      13.792  -7.077   7.109  1.00  0.00     0.031 C 
ATOM     61  C   UNL     1      14.051  -9.539   6.979  1.00  0.00     0.037 A 
BRANCH  48  62
ATOM     62  C   UNL     1      12.819 -14.444   3.437  1.00  0.00     0.064 A 
ATOM     63  C   UNL     1      13.671 -15.067   2.512  1.00  0.00     0.173 A 
ATOM     64  C   UNL     1      12.023 -15.264   4.250  1.00  0.00     0.173 A 
ATOM     65  F   UNL     1      14.445 -14.329   1.703  1.00  0.00    -0.203 F 
ATOM     66  C   UNL     1      13.703 -16.454   2.388  1.00  0.00     0.198 A 
ATOM     67  C   UNL     1      12.079 -16.651   4.144  1.00  0.00     0.198 A 
ATOM     68  F   UNL     1      11.195 -14.720   5.155  1.00  0.00    -0.203 F 
ATOM     69  F   UNL     1      14.488 -17.024   1.464  1.00  0.00    -0.200 F 
ATOM     70  C   UNL     1      12.912 -17.244   3.208  1.00  0.00     0.200 A 
ATOM     71  F   UNL     1      11.324 -17.414   4.947  1.00  0.00    -0.200 F 
ATOM     72  F   UNL     1      12.949 -18.579   3.093  1.00  0.00    -0.200 F 
ENDBRANCH  48  62
BRANCH  49  73
ATOM     73  C   UNL     1      12.054  -4.527   4.234  1.00  0.00     0.064 A 
ATOM     74  C   UNL     1      13.184  -3.698   4.205  1.00  0.00     0.173 A 
ATOM     75  C   UNL     1      10.801  -3.917   4.390  1.00  0.00     0.173 A 
ATOM     76  F   UNL     1      14.406  -4.237   4.079  1.00  0.00    -0.203 F 
ATOM     77  C   UNL     1      13.068  -2.317   4.342  1.00  0.00     0.198 A 
ATOM     78  C   UNL     1      10.683  -2.533   4.500  1.00  0.00     0.198 A 
ATOM     79  F   UNL     1       9.688  -4.666   4.419  1.00  0.00    -0.203 F 
ATOM     80  F   UNL     1      14.168  -1.552   4.351  1.00  0.00    -0.200 F 
ATOM     81  C   UNL     1      11.817  -1.735   4.483  1.00  0.00     0.200 A 
ATOM     82  F   UNL     1       9.472  -1.973   4.622  1.00  0.00    -0.200 F 
ATOM     83  F   UNL     1      11.705  -0.405   4.608  1.00  0.00    -0.200 F 
ENDBRANCH  49  73
BRANCH  61  84
ATOM     84  C   UNL     1      14.734  -9.497   8.315  1.00  0.00     0.064 A 
ATOM     85  C   UNL     1      14.022  -9.250   9.497  1.00  0.00     0.173 A 
ATOM     86  C   UNL     1      16.111  -9.750   8.415  1.00  0.00     0.173 A 
ATOM     87  F   UNL     1      12.707  -8.988   9.451  1.00  0.00    -0.203 F 
ATOM     88  C   UNL     1      14.668  -9.236  10.730  1.00  0.00     0.198 A 
ATOM     89  C   UNL     1      16.748  -9.762   9.652  1.00  0.00     0.198 A 
ATOM     90  F   UNL     1      16.835  -9.998   7.314  1.00  0.00    -0.203 F 
ATOM     91  F   UNL     1      13.977  -8.954  11.843  1.00  0.00    -0.200 F 
ATOM     92  C   UNL     1      16.028  -9.499  10.808  1.00  0.00     0.200 A 
ATOM     93  F   UNL     1      18.059 -10.029   9.726  1.00  0.00    -0.200 F 
ATOM     94  F   UNL     1      16.646  -9.492  11.997  1.00  0.00    -0.200 F 
ENDBRANCH  61  84
ENDBRANCH  35  36
ENDBRANCH  27  30
ENDBRANCH  25  26
ENDBRANCH  24  25
ENDBRANCH  23  24
ENDBRANCH   3  23
TORSDOF 15
