REMARK SMILES CS(=O)(=O)c1ccc(/C=C(/C(=O)NCCCNC(=O)c2ccc(-c3c4nc(c(-c5c(F)c(F)c(F)c(F)c5F)c5ccc([nH]5)c(-c5c(F)c(F)c(F)c(F)c5F)c5nc(c(-c6c(F)c(F)c(F)c(F)c6F)c6ccc3[nH]6)C=C5)C=C4)cc2)c2ccc(-c3ccc(S(C)(=O)=O)cc3)cc2)cc1
REMARK SMILES IDX 14 1 13 2 11 3 12 4 10 6 9 7 8 8 5 9 6 10 100 11 7 12 99 13
REMARK SMILES IDX 2 14 1 15 3 16 4 17 83 18 84 19 98 20 85 21 97 22 86 23
REMARK SMILES IDX 87 24 88 25 96 26 89 27 95 28 90 29 91 30 92 31 93 32 94 33
REMARK SMILES IDX 15 34 16 35 17 36 18 37 19 39 20 40 21 41 82 42 22 43 81 44
REMARK SMILES IDX 23 45 24 46 25 47 75 48 26 49 80 50 74 51 76 52 27 53 79 54
REMARK SMILES IDX 73 55 72 56 28 58 60 59 40 60 59 61 41 62 44 63 58 64 77 65
REMARK SMILES IDX 42 66 43 67 57 69 78 70 45 71 29 72 30 73 38 74 31 75 32 76
REMARK SMILES IDX 36 77 39 78 33 79 34 80 37 81 35 82 61 83 62 84 70 85 63 86
REMARK SMILES IDX 64 87 68 88 71 89 65 90 66 91 69 92 67 93 46 94 47 95 55 96
REMARK SMILES IDX 48 97 49 98 53 99 56 100 50 101 51 102 54 103 52 104
REMARK H PARENT 13 5 17 38 76 57 44 68
REMARK Flexibility Score: inf
ROOT
ATOM      1  C   UNL     1       2.834  -4.722  -7.586  1.00  0.00     0.118 C 
ENDROOT
BRANCH   1   2
ATOM      2  N   UNL     1       2.572  -6.124  -7.331  1.00  0.00    -0.352 N 
ATOM      3  C   UNL     1       2.204  -6.830  -6.232  1.00  0.00     0.251 C 
ATOM      4  O   UNL     1       2.154  -8.054  -6.379  1.00  0.00    -0.269 OA
ATOM      5  H   UNL     1       2.685  -6.688  -8.131  1.00  0.00     0.163 HD
BRANCH   3   6
ATOM      6  C   UNL     1       1.785  -6.189  -4.929  1.00  0.00     0.047 C 
ATOM      7  C   UNL     1       2.387  -5.076  -4.446  1.00  0.00     0.022 C 
BRANCH   7   8
ATOM      8  C   UNL     1       2.028  -4.254  -3.266  1.00  0.00    -0.025 A 
ATOM      9  C   UNL     1       1.098  -2.571  -1.212  1.00  0.00     0.067 A 
ATOM     10  C   UNL     1       1.179  -3.950  -1.007  1.00  0.00     0.021 A 
ATOM     11  C   UNL     1       1.550  -2.013  -2.406  1.00  0.00     0.021 A 
ATOM     12  C   UNL     1       1.670  -4.780  -2.020  1.00  0.00     0.009 A 
ATOM     13  C   UNL     1       2.012  -2.856  -3.425  1.00  0.00     0.009 A 
BRANCH   9  14
ATOM     14  S   UNL     1       0.379  -1.580   0.076  1.00  0.00     0.175 S 
ATOM     15  C   UNL     1       1.058   0.047  -0.077  1.00  0.00     0.163 C 
ATOM     16  O   UNL     1       0.860  -2.119   1.335  1.00  0.00    -0.224 OA
ATOM     17  O   UNL     1      -1.039  -1.500  -0.215  1.00  0.00    -0.224 OA
ENDBRANCH   9  14
ENDBRANCH   7   8
BRANCH   6  18
ATOM     18  C   UNL     1       0.802  -6.944  -4.112  1.00  0.00    -0.013 A 
ATOM     19  C   UNL     1       1.183  -8.192  -3.600  1.00  0.00     0.009 A 
ATOM     20  C   UNL     1      -0.447  -6.427  -3.754  1.00  0.00     0.009 A 
ATOM     21  C   UNL     1       0.359  -8.888  -2.717  1.00  0.00     0.009 A 
ATOM     22  C   UNL     1      -1.258  -7.114  -2.840  1.00  0.00     0.009 A 
ATOM     23  C   UNL     1      -0.864  -8.349  -2.292  1.00  0.00    -0.018 A 
BRANCH  23  24
ATOM     24  C   UNL     1      -1.685  -9.059  -1.292  1.00  0.00    -0.018 A 
ATOM     25  C   UNL     1      -1.089  -9.666  -0.167  1.00  0.00     0.010 A 
ATOM     26  C   UNL     1      -3.080  -9.159  -1.429  1.00  0.00     0.010 A 
ATOM     27  C   UNL     1      -1.850 -10.365   0.772  1.00  0.00     0.021 A 
ATOM     28  C   UNL     1      -3.852  -9.855  -0.494  1.00  0.00     0.021 A 
ATOM     29  C   UNL     1      -3.229 -10.467   0.592  1.00  0.00     0.067 A 
BRANCH  29  30
ATOM     30  S   UNL     1      -4.189 -11.378   1.775  1.00  0.00     0.175 S 
ATOM     31  C   UNL     1      -3.664 -13.056   1.535  1.00  0.00     0.163 C 
ATOM     32  O   UNL     1      -3.763 -10.950   3.092  1.00  0.00    -0.224 OA
ATOM     33  O   UNL     1      -5.582 -11.294   1.374  1.00  0.00    -0.224 OA
ENDBRANCH  29  30
ENDBRANCH  23  24
ENDBRANCH   6  18
ENDBRANCH   3   6
ENDBRANCH   1   2
BRANCH   1  34
ATOM     34  C   UNL     1       4.341  -4.465  -7.611  1.00  0.00     0.042 C 
BRANCH  34  35
ATOM     35  C   UNL     1       5.046  -5.117  -8.801  1.00  0.00     0.118 C 
BRANCH  35  36
ATOM     36  N   UNL     1       4.638  -4.527 -10.069  1.00  0.00    -0.352 N 
ATOM     37  C   UNL     1       5.376  -3.850 -11.006  1.00  0.00     0.251 C 
ATOM     38  H   UNL     1       3.684  -4.631 -10.287  1.00  0.00     0.163 HD
ATOM     39  O   UNL     1       4.804  -3.213 -11.885  1.00  0.00    -0.269 OA
BRANCH  37  40
ATOM     40  C   UNL     1       6.853  -3.876 -10.961  1.00  0.00     0.039 A 
ATOM     41  C   UNL     1       7.556  -2.702 -11.248  1.00  0.00     0.014 A 
ATOM     42  C   UNL     1       7.548  -5.057 -10.688  1.00  0.00     0.014 A 
ATOM     43  C   UNL     1       8.951  -2.700 -11.206  1.00  0.00     0.010 A 
ATOM     44  C   UNL     1       8.935  -5.037 -10.571  1.00  0.00     0.010 A 
ATOM     45  C   UNL     1       9.652  -3.860 -10.834  1.00  0.00    -0.014 A 
BRANCH  45  46
ATOM     46  C   UNL     1      11.132  -3.858 -10.717  1.00  0.00     0.031 A 
ATOM     47  C   UNL     1      11.965  -4.728 -11.617  1.00  0.00     0.074 A 
ATOM     48  C   UNL     1      11.721  -3.116  -9.758  1.00  0.00     0.049 A 
ATOM     49  N   UNL     1      13.261  -4.921 -11.615  1.00  0.00    -0.248 NA
ATOM     50  C   UNL     1      11.245  -5.505 -12.637  1.00  0.00     0.031 C 
ATOM     51  C   UNL     1      11.017  -2.268  -8.796  1.00  0.00     0.029 A 
ATOM     52  N   UNL     1      13.044  -2.968  -9.425  1.00  0.00    -0.354 N 
ATOM     53  C   UNL     1      13.506  -5.842 -12.625  1.00  0.00     0.074 A 
ATOM     54  C   UNL     1      12.223  -6.217 -13.177  1.00  0.00     0.031 C 
ATOM     55  C   UNL     1      11.914  -1.677  -7.991  1.00  0.00     0.029 A 
ATOM     56  C   UNL     1      13.251  -2.135  -8.352  1.00  0.00     0.049 A 
ATOM     57  H   UNL     1      13.775  -3.415  -9.910  1.00  0.00     0.167 HD
ATOM     58  C   UNL     1      14.697  -6.311 -13.070  1.00  0.00     0.037 A 
ATOM     59  C   UNL     1      14.390  -1.793  -7.721  1.00  0.00     0.037 A 
ATOM     60  C   UNL     1      15.972  -5.927 -12.524  1.00  0.00     0.049 A 
ATOM     61  C   UNL     1      15.698  -2.344  -8.222  1.00  0.00     0.074 A 
ATOM     62  C   UNL     1      17.238  -6.315 -12.928  1.00  0.00     0.029 A 
ATOM     63  N   UNL     1      16.143  -5.064 -11.450  1.00  0.00    -0.354 N 
ATOM     64  N   UNL     1      15.923  -3.167  -9.218  1.00  0.00    -0.248 NA
ATOM     65  C   UNL     1      16.913  -1.911  -7.518  1.00  0.00     0.031 C 
ATOM     66  C   UNL     1      18.171  -5.728 -12.068  1.00  0.00     0.029 A 
ATOM     67  C   UNL     1      17.493  -4.924 -11.166  1.00  0.00     0.049 A 
ATOM     68  H   UNL     1      15.414  -4.617 -10.963  1.00  0.00     0.167 HD
ATOM     69  C   UNL     1      17.301  -3.327  -9.278  1.00  0.00     0.074 A 
ATOM     70  C   UNL     1      17.862  -2.501  -8.229  1.00  0.00     0.031 C 
ATOM     71  C   UNL     1      18.035  -4.091 -10.123  1.00  0.00     0.037 A 
BRANCH  58  72
ATOM     72  C   UNL     1      14.677  -7.290 -14.211  1.00  0.00     0.064 A 
ATOM     73  C   UNL     1      14.296  -6.901 -15.505  1.00  0.00     0.173 A 
ATOM     74  C   UNL     1      15.081  -8.620 -14.021  1.00  0.00     0.173 A 
ATOM     75  F   UNL     1      13.891  -5.644 -15.740  1.00  0.00    -0.203 F 
ATOM     76  C   UNL     1      14.291  -7.813 -16.557  1.00  0.00     0.198 A 
ATOM     77  C   UNL     1      15.107  -9.521 -15.082  1.00  0.00     0.198 A 
ATOM     78  F   UNL     1      15.461  -9.045 -12.806  1.00  0.00    -0.203 F 
ATOM     79  F   UNL     1      13.874  -7.430 -17.772  1.00  0.00    -0.200 F 
ATOM     80  C   UNL     1      14.704  -9.120 -16.347  1.00  0.00     0.200 A 
ATOM     81  F   UNL     1      15.521 -10.780 -14.881  1.00  0.00    -0.200 F 
ATOM     82  F   UNL     1      14.708  -9.994 -17.363  1.00  0.00    -0.200 F 
ENDBRANCH  58  72
BRANCH  59  83
ATOM     83  C   UNL     1      14.345  -0.877  -6.550  1.00  0.00     0.064 A 
ATOM     84  C   UNL     1      14.891   0.412  -6.618  1.00  0.00     0.173 A 
ATOM     85  C   UNL     1      13.766  -1.275  -5.336  1.00  0.00     0.173 A 
ATOM     86  F   UNL     1      15.472   0.834  -7.751  1.00  0.00    -0.203 F 
ATOM     87  C   UNL     1      14.883   1.258  -5.510  1.00  0.00     0.198 A 
ATOM     88  C   UNL     1      13.728  -0.417  -4.239  1.00  0.00     0.198 A 
ATOM     89  F   UNL     1      13.221  -2.496  -5.219  1.00  0.00    -0.203 F 
ATOM     90  F   UNL     1      15.459   2.465  -5.588  1.00  0.00    -0.200 F 
ATOM     91  C   UNL     1      14.297   0.845  -4.323  1.00  0.00     0.200 A 
ATOM     92  F   UNL     1      13.143  -0.814  -3.100  1.00  0.00    -0.200 F 
ATOM     93  F   UNL     1      14.286   1.659  -3.260  1.00  0.00    -0.200 F 
ENDBRANCH  59  83
BRANCH  71  94
ATOM     94  C   UNL     1      19.529  -4.039  -9.977  1.00  0.00     0.064 A 
ATOM     95  C   UNL     1      20.184  -4.611  -8.877  1.00  0.00     0.173 A 
ATOM     96  C   UNL     1      20.318  -3.440 -10.972  1.00  0.00     0.173 A 
ATOM     97  F   UNL     1      19.476  -5.182  -7.891  1.00  0.00    -0.203 F 
ATOM     98  C   UNL     1      21.572  -4.561  -8.764  1.00  0.00     0.198 A 
ATOM     99  C   UNL     1      21.706  -3.422 -10.873  1.00  0.00     0.198 A 
ATOM    100  F   UNL     1      19.742  -2.884 -12.048  1.00  0.00    -0.203 F 
ATOM    101  F   UNL     1      22.172  -5.068  -7.679  1.00  0.00    -0.200 F 
ATOM    102  C   UNL     1      22.331  -3.974  -9.765  1.00  0.00     0.200 A 
ATOM    103  F   UNL     1      22.439  -2.869 -11.849  1.00  0.00    -0.200 F 
ATOM    104  F   UNL     1      23.666  -3.935  -9.659  1.00  0.00    -0.200 F 
ENDBRANCH  71  94
ENDBRANCH  45  46
ENDBRANCH  37  40
ENDBRANCH  35  36
ENDBRANCH  34  35
ENDBRANCH   1  34
TORSDOF 15
