REMARK SMILES CN(CC(=O)NCCCNC(=O)c1ccc(-c2c3nc(c(-c4c(F)c(F)c(F)c(F)c4F)c4ccc([nH]4)c(-c4c(F)c(F)c(F)c(F)c4F)c4nc(c(-c5c(F)c(F)c(F)c(F)c5F)c5ccc2[nH]5)C=C4)C=C3)cc1)c1ncc(-c2nnnn2-c2ccccc2)c(-c2ccc(Cl)cc2)n1
REMARK SMILES IDX 7 1 6 2 4 3 5 4 3 6 2 7 1 8 76 9 77 10 99 11 78 12 91 13
REMARK SMILES IDX 79 14 92 15 93 16 98 17 94 18 97 19 95 20 96 21 80 22 81 23
REMARK SMILES IDX 84 24 82 25 83 26 85 27 86 28 90 29 87 30 89 31 88 32 8 33
REMARK SMILES IDX 9 34 10 35 11 36 12 38 13 39 14 40 75 41 15 42 74 43 16 44
REMARK SMILES IDX 17 45 18 46 68 47 19 48 73 49 67 50 69 51 20 52 72 53 66 54
REMARK SMILES IDX 65 55 21 57 53 58 33 59 52 60 34 61 37 62 51 63 70 64 35 65
REMARK SMILES IDX 36 66 50 68 71 69 38 70 22 71 23 72 31 73 24 74 25 75 29 76
REMARK SMILES IDX 32 77 26 78 27 79 30 80 28 81 54 82 55 83 63 84 56 85 57 86
REMARK SMILES IDX 61 87 64 88 58 89 59 90 62 91 60 92 39 93 40 94 48 95 41 96
REMARK SMILES IDX 42 97 46 98 49 99 43 100 44 101 47 102 45 103
REMARK H PARENT 6 5 10 37 69 56 37 67
REMARK Flexibility Score: inf
ROOT
ATOM      1  C   UNL     1      -2.337   0.004  -0.077  1.00  0.00     0.117 C 
ENDROOT
BRANCH   1   2
ATOM      2  N   UNL     1      -2.592  -0.505   1.254  1.00  0.00    -0.354 N 
ATOM      3  C   UNL     1      -1.730  -0.598   2.312  1.00  0.00     0.239 C 
ATOM      4  O   UNL     1      -2.179  -1.015   3.384  1.00  0.00    -0.273 OA
ATOM      5  H   UNL     1      -3.508  -0.826   1.419  1.00  0.00     0.163 HD
BRANCH   3   6
ATOM      6  C   UNL     1      -0.293  -0.075   2.185  1.00  0.00     0.219 C 
BRANCH   6   7
ATOM      7  N   UNL     1       0.511  -0.731   1.149  1.00  0.00    -0.335 N 
ATOM      8  C   UNL     1       1.350   0.060   0.277  1.00  0.00     0.147 C 
BRANCH   7   9
ATOM      9  C   UNL     1       0.900  -2.031   1.398  1.00  0.00     0.226 A 
ATOM     10  N   UNL     1      -0.009  -2.873   1.893  1.00  0.00    -0.221 NA
ATOM     11  N   UNL     1       2.154  -2.417   1.108  1.00  0.00    -0.212 NA
ATOM     12  C   UNL     1       0.352  -4.157   2.060  1.00  0.00     0.129 A 
ATOM     13  C   UNL     1       2.513  -3.709   1.328  1.00  0.00     0.087 A 
ATOM     14  C   UNL     1       1.603  -4.656   1.762  1.00  0.00     0.066 A 
BRANCH  13  15
ATOM     15  C   UNL     1       3.939  -3.990   1.085  1.00  0.00     0.001 A 
ATOM     16  C   UNL     1       4.922  -3.336   1.852  1.00  0.00     0.012 A 
ATOM     17  C   UNL     1       4.367  -4.910   0.113  1.00  0.00     0.012 A 
ATOM     18  C   UNL     1       6.282  -3.611   1.673  1.00  0.00     0.021 A 
ATOM     19  C   UNL     1       5.727  -5.187  -0.068  1.00  0.00     0.021 A 
ATOM     20  C   UNL     1       6.678  -4.539   0.716  1.00  0.00     0.041 A 
ATOM     21  Cl  UNL     1       8.348  -4.887   0.496  1.00  0.00    -0.084 Cl
ENDBRANCH  13  15
BRANCH  14  22
ATOM     22  C   UNL     1       1.876  -6.072   1.915  1.00  0.00     0.190 A 
ATOM     23  N   UNL     1       2.701  -6.623   2.785  1.00  0.00    -0.108 NA
ATOM     24  N   UNL     1       1.175  -7.095   1.285  1.00  0.00    -0.193 N 
ATOM     25  N   UNL     1       2.432  -7.965   2.776  1.00  0.00    -0.023 NA
ATOM     26  N   UNL     1       1.457  -8.251   1.926  1.00  0.00    -0.040 NA
BRANCH  24  27
ATOM     27  C   UNL     1       0.289  -7.048   0.182  1.00  0.00     0.069 A 
ATOM     28  C   UNL     1      -0.764  -7.968   0.110  1.00  0.00     0.028 A 
ATOM     29  C   UNL     1       0.461  -6.105  -0.843  1.00  0.00     0.028 A 
ATOM     30  C   UNL     1      -1.662  -7.912  -0.958  1.00  0.00     0.002 A 
ATOM     31  C   UNL     1      -0.419  -6.083  -1.926  1.00  0.00     0.002 A 
ATOM     32  C   UNL     1      -1.485  -6.977  -1.978  1.00  0.00     0.000 A 
ENDBRANCH  24  27
ENDBRANCH  14  22
ENDBRANCH   7   9
ENDBRANCH   6   7
ENDBRANCH   3   6
ENDBRANCH   1   2
BRANCH   1  33
ATOM     33  C   UNL     1      -2.161  -1.111  -1.103  1.00  0.00     0.042 C 
BRANCH  33  34
ATOM     34  C   UNL     1      -3.413  -1.958  -1.320  1.00  0.00     0.118 C 
BRANCH  34  35
ATOM     35  N   UNL     1      -4.533  -1.186  -1.847  1.00  0.00    -0.352 N 
ATOM     36  C   UNL     1      -5.219  -1.298  -3.029  1.00  0.00     0.251 C 
ATOM     37  H   UNL     1      -4.849  -0.464  -1.257  1.00  0.00     0.163 HD
ATOM     38  O   UNL     1      -6.012  -0.417  -3.360  1.00  0.00    -0.269 OA
BRANCH  36  39
ATOM     39  C   UNL     1      -5.000  -2.452  -3.926  1.00  0.00     0.039 A 
ATOM     40  C   UNL     1      -4.892  -2.224  -5.301  1.00  0.00     0.014 A 
ATOM     41  C   UNL     1      -4.917  -3.753  -3.424  1.00  0.00     0.014 A 
ATOM     42  C   UNL     1      -4.605  -3.287  -6.161  1.00  0.00     0.010 A 
ATOM     43  C   UNL     1      -4.566  -4.801  -4.272  1.00  0.00     0.010 A 
ATOM     44  C   UNL     1      -4.383  -4.573  -5.645  1.00  0.00    -0.014 A 
BRANCH  44  45
ATOM     45  C   UNL     1      -3.890  -5.676  -6.508  1.00  0.00     0.031 A 
ATOM     46  C   UNL     1      -4.722  -6.905  -6.733  1.00  0.00     0.074 A 
ATOM     47  C   UNL     1      -2.643  -5.603  -7.013  1.00  0.00     0.049 A 
ATOM     48  N   UNL     1      -4.407  -8.014  -7.353  1.00  0.00    -0.248 NA
ATOM     49  C   UNL     1      -6.079  -6.895  -6.168  1.00  0.00     0.031 C 
ATOM     50  C   UNL     1      -1.726  -4.475  -6.838  1.00  0.00     0.029 A 
ATOM     51  N   UNL     1      -1.922  -6.501  -7.761  1.00  0.00    -0.354 N 
ATOM     52  C   UNL     1      -5.521  -8.836  -7.247  1.00  0.00     0.074 A 
ATOM     53  C   UNL     1      -6.503  -8.116  -6.463  1.00  0.00     0.031 C 
ATOM     54  C   UNL     1      -0.573  -4.742  -7.470  1.00  0.00     0.029 A 
ATOM     55  C   UNL     1      -0.646  -6.079  -8.048  1.00  0.00     0.049 A 
ATOM     56  H   UNL     1      -2.284  -7.366  -8.062  1.00  0.00     0.167 HD
ATOM     57  C   UNL     1      -5.710 -10.071  -7.772  1.00  0.00     0.037 A 
ATOM     58  C   UNL     1       0.362  -6.709  -8.682  1.00  0.00     0.037 A 
ATOM     59  C   UNL     1      -4.732 -10.776  -8.560  1.00  0.00     0.049 A 
ATOM     60  C   UNL     1       0.142  -8.101  -9.206  1.00  0.00     0.074 A 
ATOM     61  C   UNL     1      -4.854 -12.004  -9.188  1.00  0.00     0.029 A 
ATOM     62  N   UNL     1      -3.446 -10.323  -8.819  1.00  0.00    -0.354 N 
ATOM     63  N   UNL     1      -0.939  -8.841  -9.161  1.00  0.00    -0.248 NA
ATOM     64  C   UNL     1       1.284  -8.750  -9.865  1.00  0.00     0.031 C 
ATOM     65  C   UNL     1      -3.623 -12.321  -9.772  1.00  0.00     0.029 A 
ATOM     66  C   UNL     1      -2.751 -11.267  -9.558  1.00  0.00     0.049 A 
ATOM     67  H   UNL     1      -3.082  -9.458  -8.521  1.00  0.00     0.167 HD
ATOM     68  C   UNL     1      -0.614 -10.032  -9.796  1.00  0.00     0.074 A 
ATOM     69  C   UNL     1       0.758  -9.906 -10.242  1.00  0.00     0.031 C 
ATOM     70  C   UNL     1      -1.381 -11.133  -9.987  1.00  0.00     0.037 A 
BRANCH  57  71
ATOM     71  C   UNL     1      -7.023 -10.750  -7.504  1.00  0.00     0.064 A 
ATOM     72  C   UNL     1      -8.220 -10.297  -8.080  1.00  0.00     0.173 A 
ATOM     73  C   UNL     1      -7.078 -11.900  -6.700  1.00  0.00     0.173 A 
ATOM     74  F   UNL     1      -8.225  -9.198  -8.850  1.00  0.00    -0.203 F 
ATOM     75  C   UNL     1      -9.425 -10.953  -7.840  1.00  0.00     0.198 A 
ATOM     76  C   UNL     1      -8.279 -12.571  -6.489  1.00  0.00     0.198 A 
ATOM     77  F   UNL     1      -5.963 -12.380  -6.130  1.00  0.00    -0.203 F 
ATOM     78  F   UNL     1     -10.562 -10.474  -8.363  1.00  0.00    -0.200 F 
ATOM     79  C   UNL     1      -9.452 -12.093  -7.052  1.00  0.00     0.200 A 
ATOM     80  F   UNL     1      -8.301 -13.682  -5.739  1.00  0.00    -0.200 F 
ATOM     81  F   UNL     1     -10.611 -12.729  -6.830  1.00  0.00    -0.200 F 
ENDBRANCH  57  71
BRANCH  58  82
ATOM     82  C   UNL     1       1.675  -6.031  -8.844  1.00  0.00     0.064 A 
ATOM     83  C   UNL     1       2.138  -5.651 -10.111  1.00  0.00     0.173 A 
ATOM     84  C   UNL     1       2.497  -5.755  -7.740  1.00  0.00     0.173 A 
ATOM     85  F   UNL     1       1.399  -5.911 -11.199  1.00  0.00    -0.203 F 
ATOM     86  C   UNL     1       3.381  -5.040 -10.271  1.00  0.00     0.198 A 
ATOM     87  C   UNL     1       3.724  -5.115  -7.897  1.00  0.00     0.198 A 
ATOM     88  F   UNL     1       2.099  -6.093  -6.504  1.00  0.00    -0.203 F 
ATOM     89  F   UNL     1       3.819  -4.730 -11.498  1.00  0.00    -0.200 F 
ATOM     90  C   UNL     1       4.169  -4.766  -9.163  1.00  0.00     0.200 A 
ATOM     91  F   UNL     1       4.473  -4.836  -6.822  1.00  0.00    -0.200 F 
ATOM     92  F   UNL     1       5.360  -4.172  -9.316  1.00  0.00    -0.200 F 
ENDBRANCH  58  82
BRANCH  70  93
ATOM     93  C   UNL     1      -0.757 -12.290 -10.713  1.00  0.00     0.064 A 
ATOM     94  C   UNL     1       0.235 -13.080 -10.114  1.00  0.00     0.173 A 
ATOM     95  C   UNL     1      -1.187 -12.641 -12.002  1.00  0.00     0.173 A 
ATOM     96  F   UNL     1       0.694 -12.775  -8.891  1.00  0.00    -0.203 F 
ATOM     97  C   UNL     1       0.789 -14.167 -10.787  1.00  0.00     0.198 A 
ATOM     98  C   UNL     1      -0.654 -13.748 -12.658  1.00  0.00     0.198 A 
ATOM     99  F   UNL     1      -2.136 -11.922 -12.619  1.00  0.00    -0.203 F 
ATOM    100  F   UNL     1       1.768 -14.879 -10.212  1.00  0.00    -0.200 F 
ATOM    101  C   UNL     1       0.337 -14.505 -12.053  1.00  0.00     0.200 A 
ATOM    102  F   UNL     1      -1.103 -14.082 -13.876  1.00  0.00    -0.200 F 
ATOM    103  F   UNL     1       0.862 -15.559 -12.694  1.00  0.00    -0.200 F 
ENDBRANCH  70  93
ENDBRANCH  44  45
ENDBRANCH  36  39
ENDBRANCH  34  35
ENDBRANCH  33  34
ENDBRANCH   1  33
TORSDOF 15
