REMARK SMILES Cc1ccccc1OCC(=O)N[C@@H](Cc1c[nH]c2ccccc12)C(=O)NCCCNC(=O)c1ccc(-c2c3nc(c(-c4c(F)c(F)c(F)c(F)c4F)c4ccc([nH]4)c(-c4c(F)c(F)c(F)c(F)c4F)c4nc(c(-c5c(F)c(F)c(F)c(F)c5F)c5ccc2[nH]5)C=C4)C=C3)cc1
REMARK SMILES IDX 27 1 26 2 24 3 25 4 13 6 12 7 10 8 11 9 9 11 8 12 7 13 1 14
REMARK SMILES IDX 2 15 3 16 4 17 6 18 5 19 14 20 15 21 16 22 23 23 17 24 18 25
REMARK SMILES IDX 22 26 19 28 21 29 20 30 28 31 29 32 30 33 31 34 32 36 33 37
REMARK SMILES IDX 34 38 95 39 35 40 94 41 36 42 37 43 38 44 88 45 39 46 93 47
REMARK SMILES IDX 87 48 89 49 40 50 92 51 86 52 85 53 41 55 73 56 53 57 72 58
REMARK SMILES IDX 54 59 57 60 71 61 90 62 55 63 56 64 70 66 91 67 58 68 42 69
REMARK SMILES IDX 43 70 51 71 44 72 45 73 49 74 52 75 46 76 47 77 50 78 48 79
REMARK SMILES IDX 74 80 75 81 83 82 76 83 77 84 81 85 84 86 78 87 79 88 82 89
REMARK SMILES IDX 80 90 59 91 60 92 68 93 61 94 62 95 66 96 69 97 63 98 64 99
REMARK SMILES IDX 67 100 65 101
REMARK H PARENT 26 5 12 10 17 27 30 35 89 54 57 65
REMARK Flexibility Score: inf
ROOT
ATOM      1  C   UNL     1       2.954   2.833   5.420  1.00  0.00     0.117 C 
ENDROOT
BRANCH   1   2
ATOM      2  N   UNL     1       3.029   3.988   4.546  1.00  0.00    -0.354 N 
ATOM      3  C   UNL     1       2.181   4.352   3.530  1.00  0.00     0.242 C 
ATOM      4  O   UNL     1       2.156   5.549   3.225  1.00  0.00    -0.273 OA
ATOM      5  H   UNL     1       3.791   4.592   4.702  1.00  0.00     0.163 HD
BRANCH   3   6
ATOM      6  C   UNL     1       1.247   3.342   2.804  1.00  0.00     0.175 C 
BRANCH   6   7
ATOM      7  N   UNL     1       1.988   2.109   2.534  1.00  0.00    -0.341 N 
ATOM      8  C   UNL     1       2.776   1.881   1.442  1.00  0.00     0.258 C 
ATOM      9  O   UNL     1       3.794   1.201   1.584  1.00  0.00    -0.271 OA
ATOM     10  H   UNL     1       1.912   1.383   3.195  1.00  0.00     0.164 HD
BRANCH   8  11
ATOM     11  C   UNL     1       2.382   2.479   0.084  1.00  0.00     0.329 C 
BRANCH  11  12
ATOM     12  O   UNL     1       1.068   2.281  -0.407  1.00  0.00    -0.484 OA
BRANCH  12  13
ATOM     13  C   UNL     1       0.439   1.076  -0.259  1.00  0.00     0.122 A 
ATOM     14  C   UNL     1       2.414  -0.564  -0.600  1.00  0.00     0.048 C 
ATOM     15  C   UNL     1       0.981  -0.217  -0.318  1.00  0.00    -0.009 A 
ATOM     16  C   UNL     1       0.121  -1.317  -0.103  1.00  0.00     0.007 A 
ATOM     17  C   UNL     1      -1.248  -1.151   0.094  1.00  0.00     0.001 A 
ATOM     18  C   UNL     1      -0.949   1.226  -0.089  1.00  0.00     0.047 A 
ATOM     19  C   UNL     1      -1.788   0.126   0.087  1.00  0.00     0.004 A 
ENDBRANCH  12  13
ENDBRANCH  11  12
ENDBRANCH   8  11
ENDBRANCH   6   7
BRANCH   6  20
ATOM     20  C   UNL     1      -0.154   3.154   3.426  1.00  0.00     0.072 C 
BRANCH  20  21
ATOM     21  C   UNL     1      -0.220   2.586   4.813  1.00  0.00    -0.020 A 
ATOM     22  C   UNL     1      -0.307   3.316   5.986  1.00  0.00     0.087 A 
ATOM     23  C   UNL     1      -0.105   1.205   5.195  1.00  0.00     0.003 A 
ATOM     24  N   UNL     1      -0.171   2.454   7.044  1.00  0.00    -0.361 N 
ATOM     25  C   UNL     1       0.012   1.169   6.587  1.00  0.00     0.046 A 
ATOM     26  C   UNL     1       0.029  -0.003   4.478  1.00  0.00     0.010 A 
ATOM     27  H   UNL     1      -0.200   2.717   7.992  1.00  0.00     0.166 HD
ATOM     28  C   UNL     1       0.299  -0.005   7.294  1.00  0.00     0.026 A 
ATOM     29  C   UNL     1       0.301  -1.188   5.173  1.00  0.00     0.001 A 
ATOM     30  C   UNL     1       0.447  -1.184   6.558  1.00  0.00     0.002 A 
ENDBRANCH  20  21
ENDBRANCH   6  20
ENDBRANCH   3   6
ENDBRANCH   1   2
BRANCH   1  31
ATOM     31  C   UNL     1       4.098   1.844   5.323  1.00  0.00     0.042 C 
BRANCH  31  32
ATOM     32  C   UNL     1       5.024   1.955   6.514  1.00  0.00     0.118 C 
BRANCH  32  33
ATOM     33  N   UNL     1       4.516   1.387   7.764  1.00  0.00    -0.352 N 
ATOM     34  C   UNL     1       4.995   1.560   9.062  1.00  0.00     0.251 C 
ATOM     35  H   UNL     1       3.729   0.802   7.677  1.00  0.00     0.163 HD
ATOM     36  O   UNL     1       4.465   1.008  10.002  1.00  0.00    -0.269 OA
BRANCH  34  37
ATOM     37  C   UNL     1       6.088   2.546   9.284  1.00  0.00     0.039 A 
ATOM     38  C   UNL     1       5.924   3.513  10.281  1.00  0.00     0.014 A 
ATOM     39  C   UNL     1       7.097   2.680   8.340  1.00  0.00     0.014 A 
ATOM     40  C   UNL     1       6.578   4.738  10.149  1.00  0.00     0.010 A 
ATOM     41  C   UNL     1       7.611   3.937   8.114  1.00  0.00     0.010 A 
ATOM     42  C   UNL     1       7.312   4.984   8.989  1.00  0.00    -0.014 A 
BRANCH  42  43
ATOM     43  C   UNL     1       7.716   6.316   8.551  1.00  0.00     0.031 A 
ATOM     44  C   UNL     1       9.147   6.688   8.512  1.00  0.00     0.074 A 
ATOM     45  C   UNL     1       6.790   7.179   8.073  1.00  0.00     0.049 A 
ATOM     46  N   UNL     1       9.578   7.898   8.646  1.00  0.00    -0.248 NA
ATOM     47  C   UNL     1      10.220   5.715   8.330  1.00  0.00     0.031 C 
ATOM     48  C   UNL     1       7.042   8.431   7.362  1.00  0.00     0.029 A 
ATOM     49  N   UNL     1       5.399   7.175   8.283  1.00  0.00    -0.354 N 
ATOM     50  C   UNL     1      10.910   7.904   8.308  1.00  0.00     0.074 A 
ATOM     51  C   UNL     1      11.277   6.515   8.167  1.00  0.00     0.031 C 
ATOM     52  C   UNL     1       5.953   9.210   7.456  1.00  0.00     0.029 A 
ATOM     53  C   UNL     1       5.014   8.537   8.333  1.00  0.00     0.049 A 
ATOM     54  H   UNL     1       4.814   6.388   8.376  1.00  0.00     0.167 HD
ATOM     55  C   UNL     1      11.540   9.084   8.046  1.00  0.00     0.037 A 
ATOM     56  C   UNL     1       4.460   9.080   9.454  1.00  0.00     0.037 A 
ATOM     57  C   UNL     1      10.629  10.213   8.168  1.00  0.00     0.049 A 
ATOM     58  C   UNL     1       5.274  10.199  10.061  1.00  0.00     0.074 A 
ATOM     59  C   UNL     1       9.889  10.915   7.230  1.00  0.00     0.029 A 
ATOM     60  N   UNL     1      10.104  10.545   9.412  1.00  0.00    -0.354 N 
ATOM     61  N   UNL     1       6.515  10.444   9.742  1.00  0.00    -0.248 NA
ATOM     62  C   UNL     1       4.781  11.101  11.099  1.00  0.00     0.031 C 
ATOM     63  C   UNL     1       8.881  11.636   7.912  1.00  0.00     0.029 A 
ATOM     64  C   UNL     1       9.020  11.390   9.266  1.00  0.00     0.049 A 
ATOM     65  H   UNL     1      10.455  10.224  10.274  1.00  0.00     0.167 HD
ATOM     66  C   UNL     1       6.997  11.466  10.517  1.00  0.00     0.074 A 
ATOM     67  C   UNL     1       5.867  11.860  11.335  1.00  0.00     0.031 C 
ATOM     68  C   UNL     1       8.294  11.882  10.426  1.00  0.00     0.037 A 
BRANCH  55  69
ATOM     69  C   UNL     1      12.896   9.150   7.391  1.00  0.00     0.064 A 
ATOM     70  C   UNL     1      13.200  10.138   6.431  1.00  0.00     0.173 A 
ATOM     71  C   UNL     1      13.926   8.225   7.643  1.00  0.00     0.173 A 
ATOM     72  F   UNL     1      12.352  11.137   6.161  1.00  0.00    -0.203 F 
ATOM     73  C   UNL     1      14.389  10.127   5.699  1.00  0.00     0.198 A 
ATOM     74  C   UNL     1      15.092   8.180   6.872  1.00  0.00     0.198 A 
ATOM     75  F   UNL     1      13.837   7.355   8.659  1.00  0.00    -0.203 F 
ATOM     76  F   UNL     1      14.619  11.085   4.790  1.00  0.00    -0.200 F 
ATOM     77  C   UNL     1      15.318   9.124   5.891  1.00  0.00     0.200 A 
ATOM     78  F   UNL     1      15.990   7.207   7.081  1.00  0.00    -0.200 F 
ATOM     79  F   UNL     1      16.432   9.081   5.149  1.00  0.00    -0.200 F 
ENDBRANCH  55  69
BRANCH  56  80
ATOM     80  C   UNL     1       3.608   8.117  10.198  1.00  0.00     0.064 A 
ATOM     81  C   UNL     1       2.428   7.670   9.572  1.00  0.00     0.173 A 
ATOM     82  C   UNL     1       4.118   7.345  11.248  1.00  0.00     0.173 A 
ATOM     83  F   UNL     1       1.897   8.378   8.562  1.00  0.00    -0.203 F 
ATOM     84  C   UNL     1       1.861   6.439   9.890  1.00  0.00     0.198 A 
ATOM     85  C   UNL     1       3.537   6.117  11.574  1.00  0.00     0.198 A 
ATOM     86  F   UNL     1       5.248   7.710  11.870  1.00  0.00    -0.203 F 
ATOM     87  F   UNL     1       0.812   5.981   9.191  1.00  0.00    -0.200 F 
ATOM     88  C   UNL     1       2.436   5.648  10.870  1.00  0.00     0.200 A 
ATOM     89  F   UNL     1       4.103   5.340  12.508  1.00  0.00    -0.200 F 
ATOM     90  F   UNL     1       1.955   4.418  11.104  1.00  0.00    -0.200 F 
ENDBRANCH  56  80
BRANCH  68  91
ATOM     91  C   UNL     1       8.995  12.843  11.352  1.00  0.00     0.064 A 
ATOM     92  C   UNL     1       8.694  12.976  12.716  1.00  0.00     0.173 A 
ATOM     93  C   UNL     1      10.132  13.560  10.902  1.00  0.00     0.173 A 
ATOM     94  F   UNL     1       7.706  12.271  13.282  1.00  0.00    -0.203 F 
ATOM     95  C   UNL     1       9.448  13.798  13.559  1.00  0.00     0.198 A 
ATOM     96  C   UNL     1      10.914  14.333  11.758  1.00  0.00     0.198 A 
ATOM     97  F   UNL     1      10.532  13.509   9.623  1.00  0.00    -0.203 F 
ATOM     98  F   UNL     1       9.103  13.918  14.849  1.00  0.00    -0.200 F 
ATOM     99  C   UNL     1      10.565  14.462  13.085  1.00  0.00     0.200 A 
ATOM    100  F   UNL     1      12.020  14.930  11.292  1.00  0.00    -0.200 F 
ATOM    101  F   UNL     1      11.313  15.208  13.909  1.00  0.00    -0.200 F 
ENDBRANCH  68  91
ENDBRANCH  42  43
ENDBRANCH  34  37
ENDBRANCH  32  33
ENDBRANCH  31  32
ENDBRANCH   1  31
TORSDOF 16
