REMARK SMILES O=C(Cn1cc(C(=O)C(F)(F)F)c2ccccc21)NCCCNC(=O)c1ccc(-c2c3nc(c(-c4c(F)c(F)c(F)c(F)c4F)c4ccc([nH]4)c(-c4c(F)c(F)c(F)c(F)c4F)c4nc(c(-c5c(F)c(F)c(F)c(F)c5F)c5ccc2[nH]5)C=C4)C=C3)cc1
REMARK SMILES IDX 20 1 19 2 1 3 2 4 3 6 4 7 5 8 18 9 6 10 13 11 17 12 14 13
REMARK SMILES IDX 16 14 15 15 7 16 8 17 9 18 10 19 11 20 12 21 21 22 22 23
REMARK SMILES IDX 23 24 24 25 25 27 26 28 27 29 88 30 28 31 87 32 29 33 30 34
REMARK SMILES IDX 31 35 81 36 32 37 86 38 80 39 82 40 33 41 85 42 79 43 78 44
REMARK SMILES IDX 34 46 66 47 46 48 65 49 47 50 50 51 64 52 83 53 48 54 49 55
REMARK SMILES IDX 63 57 84 58 51 59 35 60 36 61 44 62 37 63 38 64 42 65 45 66
REMARK SMILES IDX 39 67 40 68 43 69 41 70 67 71 68 72 76 73 69 74 70 75 74 76
REMARK SMILES IDX 77 77 71 78 72 79 75 80 73 81 52 82 53 83 61 84 54 85 55 86
REMARK SMILES IDX 59 87 62 88 56 89 57 90 60 91 58 92
REMARK H PARENT 19 5 23 26 82 45 50 56
REMARK Flexibility Score: inf
ROOT
ATOM      1  C   UNL     1       2.260   1.592   1.938  1.00  0.00     0.117 C 
ENDROOT
BRANCH   1   2
ATOM      2  N   UNL     1       2.896   0.760   0.933  1.00  0.00    -0.354 N 
ATOM      3  O   UNL     1       0.975  -0.175   0.092  1.00  0.00    -0.273 OA
ATOM      4  C   UNL     1       2.188  -0.011   0.032  1.00  0.00     0.239 C 
ATOM      5  H   UNL     1       3.879   0.743   0.893  1.00  0.00     0.163 HD
BRANCH   4   6
ATOM      6  C   UNL     1       3.041  -0.674  -1.034  1.00  0.00     0.222 C 
BRANCH   6   7
ATOM      7  N   UNL     1       3.766   0.253  -1.906  1.00  0.00    -0.337 N 
ATOM      8  C   UNL     1       3.558   1.605  -2.013  1.00  0.00     0.099 A 
ATOM      9  C   UNL     1       4.777  -0.128  -2.768  1.00  0.00     0.049 A 
ATOM     10  C   UNL     1       4.484   2.139  -2.889  1.00  0.00     0.053 A 
ATOM     11  C   UNL     1       5.244   1.034  -3.395  1.00  0.00     0.011 A 
ATOM     12  C   UNL     1       5.315  -1.395  -3.053  1.00  0.00     0.027 A 
ATOM     13  C   UNL     1       6.290   0.915  -4.336  1.00  0.00     0.011 A 
ATOM     14  C   UNL     1       6.342  -1.480  -3.997  1.00  0.00     0.002 A 
ATOM     15  C   UNL     1       6.825  -0.342  -4.632  1.00  0.00     0.001 A 
BRANCH  10  16
ATOM     16  C   UNL     1       4.631   3.564  -3.235  1.00  0.00     0.268 C 
ATOM     17  O   UNL     1       5.446   3.924  -4.079  1.00  0.00    -0.284 OA
BRANCH  16  18
ATOM     18  C   UNL     1       3.744   4.563  -2.484  1.00  0.00     0.454 C 
ATOM     19  F   UNL     1       2.414   4.344  -2.693  1.00  0.00    -0.163 F 
ATOM     20  F   UNL     1       3.924   4.503  -1.131  1.00  0.00    -0.163 F 
ATOM     21  F   UNL     1       3.973   5.859  -2.837  1.00  0.00    -0.163 F 
ENDBRANCH  16  18
ENDBRANCH  10  16
ENDBRANCH   6   7
ENDBRANCH   4   6
ENDBRANCH   1   2
BRANCH   1  22
ATOM     22  C   UNL     1       2.689   1.236   3.360  1.00  0.00     0.042 C 
BRANCH  22  23
ATOM     23  C   UNL     1       4.204   1.192   3.565  1.00  0.00     0.118 C 
BRANCH  23  24
ATOM     24  N   UNL     1       4.892   2.421   3.225  1.00  0.00    -0.352 N 
ATOM     25  C   UNL     1       5.306   3.516   3.927  1.00  0.00     0.251 C 
ATOM     26  H   UNL     1       5.111   2.479   2.268  1.00  0.00     0.163 HD
ATOM     27  O   UNL     1       6.080   4.273   3.335  1.00  0.00    -0.269 OA
BRANCH  25  28
ATOM     28  C   UNL     1       4.827   3.901   5.279  1.00  0.00     0.039 A 
ATOM     29  C   UNL     1       4.002   3.135   6.105  1.00  0.00     0.014 A 
ATOM     30  C   UNL     1       5.173   5.203   5.688  1.00  0.00     0.014 A 
ATOM     31  C   UNL     1       3.426   3.701   7.237  1.00  0.00     0.010 A 
ATOM     32  C   UNL     1       4.613   5.769   6.821  1.00  0.00     0.010 A 
ATOM     33  C   UNL     1       3.686   5.035   7.552  1.00  0.00    -0.014 A 
BRANCH  33  34
ATOM     34  C   UNL     1       3.017   5.621   8.707  1.00  0.00     0.031 A 
ATOM     35  C   UNL     1       3.431   5.054  10.023  1.00  0.00     0.074 A 
ATOM     36  C   UNL     1       2.199   6.687   8.582  1.00  0.00     0.049 A 
ATOM     37  N   UNL     1       2.691   4.529  10.946  1.00  0.00    -0.248 NA
ATOM     38  C   UNL     1       4.877   4.974  10.302  1.00  0.00     0.031 C 
ATOM     39  C   UNL     1       1.937   7.486   7.380  1.00  0.00     0.029 A 
ATOM     40  N   UNL     1       1.498   7.354   9.540  1.00  0.00    -0.354 N 
ATOM     41  C   UNL     1       3.554   4.198  11.989  1.00  0.00     0.074 A 
ATOM     42  C   UNL     1       4.894   4.371  11.491  1.00  0.00     0.031 C 
ATOM     43  C   UNL     1       1.340   8.646   7.733  1.00  0.00     0.029 A 
ATOM     44  C   UNL     1       1.060   8.617   9.157  1.00  0.00     0.049 A 
ATOM     45  H   UNL     1       1.315   6.973  10.429  1.00  0.00     0.167 HD
ATOM     46  C   UNL     1       3.111   3.999  13.260  1.00  0.00     0.037 A 
ATOM     47  C   UNL     1       0.582   9.586   9.978  1.00  0.00     0.037 A 
ATOM     48  C   UNL     1       1.704   3.720  13.298  1.00  0.00     0.049 A 
ATOM     49  C   UNL     1       0.184   8.930  11.249  1.00  0.00     0.074 A 
ATOM     50  C   UNL     1       0.910   2.696  12.821  1.00  0.00     0.029 A 
ATOM     51  N   UNL     1       0.847   4.748  13.595  1.00  0.00    -0.354 N 
ATOM     52  N   UNL     1      -0.818   8.104  11.360  1.00  0.00    -0.248 NA
ATOM     53  C   UNL     1       1.188   8.846  12.300  1.00  0.00     0.031 C 
ATOM     54  C   UNL     1      -0.293   3.331  12.396  1.00  0.00     0.029 A 
ATOM     55  C   UNL     1      -0.185   4.689  12.694  1.00  0.00     0.049 A 
ATOM     56  H   UNL     1       0.953   5.406  14.320  1.00  0.00     0.167 HD
ATOM     57  C   UNL     1      -0.369   7.125  12.234  1.00  0.00     0.074 A 
ATOM     58  C   UNL     1       0.844   7.673  12.835  1.00  0.00     0.031 C 
ATOM     59  C   UNL     1      -0.860   5.854  12.175  1.00  0.00     0.037 A 
BRANCH  46  60
ATOM     60  C   UNL     1       3.895   4.378  14.487  1.00  0.00     0.064 A 
ATOM     61  C   UNL     1       3.494   3.916  15.754  1.00  0.00     0.173 A 
ATOM     62  C   UNL     1       4.860   5.409  14.489  1.00  0.00     0.173 A 
ATOM     63  F   UNL     1       2.550   2.969  15.867  1.00  0.00    -0.203 F 
ATOM     64  C   UNL     1       3.995   4.474  16.934  1.00  0.00     0.198 A 
ATOM     65  C   UNL     1       5.397   5.926  15.665  1.00  0.00     0.198 A 
ATOM     66  F   UNL     1       5.233   6.028  13.361  1.00  0.00    -0.203 F 
ATOM     67  F   UNL     1       3.508   4.079  18.118  1.00  0.00    -0.200 F 
ATOM     68  C   UNL     1       4.947   5.477  16.888  1.00  0.00     0.200 A 
ATOM     69  F   UNL     1       6.299   6.916  15.598  1.00  0.00    -0.200 F 
ATOM     70  F   UNL     1       5.393   6.046  18.016  1.00  0.00    -0.200 F 
ENDBRANCH  46  60
BRANCH  47  71
ATOM     71  C   UNL     1       0.793  11.055   9.891  1.00  0.00     0.064 A 
ATOM     72  C   UNL     1       0.033  11.940  10.676  1.00  0.00     0.173 A 
ATOM     73  C   UNL     1       1.936  11.598   9.271  1.00  0.00     0.173 A 
ATOM     74  F   UNL     1      -1.046  11.498  11.338  1.00  0.00    -0.203 F 
ATOM     75  C   UNL     1       0.414  13.275  10.857  1.00  0.00     0.198 A 
ATOM     76  C   UNL     1       2.310  12.931   9.446  1.00  0.00     0.198 A 
ATOM     77  F   UNL     1       2.770  10.823   8.564  1.00  0.00    -0.203 F 
ATOM     78  F   UNL     1      -0.297  14.069  11.671  1.00  0.00    -0.200 F 
ATOM     79  C   UNL     1       1.559  13.766  10.252  1.00  0.00     0.200 A 
ATOM     80  F   UNL     1       3.440  13.383   8.884  1.00  0.00    -0.200 F 
ATOM     81  F   UNL     1       1.962  15.023  10.480  1.00  0.00    -0.200 F 
ENDBRANCH  47  71
BRANCH  59  82
ATOM     82  C   UNL     1      -2.059   5.604  11.302  1.00  0.00     0.064 A 
ATOM     83  C   UNL     1      -2.055   5.751   9.903  1.00  0.00     0.173 A 
ATOM     84  C   UNL     1      -3.199   5.037  11.886  1.00  0.00     0.173 A 
ATOM     85  F   UNL     1      -0.968   6.193   9.260  1.00  0.00    -0.203 F 
ATOM     86  C   UNL     1      -3.155   5.377   9.133  1.00  0.00     0.198 A 
ATOM     87  C   UNL     1      -4.281   4.630  11.111  1.00  0.00     0.198 A 
ATOM     88  F   UNL     1      -3.238   4.822  13.210  1.00  0.00    -0.203 F 
ATOM     89  F   UNL     1      -3.126   5.528   7.800  1.00  0.00    -0.200 F 
ATOM     90  C   UNL     1      -4.263   4.807   9.736  1.00  0.00     0.200 A 
ATOM     91  F   UNL     1      -5.329   4.030  11.694  1.00  0.00    -0.200 F 
ATOM     92  F   UNL     1      -5.299   4.397   8.992  1.00  0.00    -0.200 F 
ENDBRANCH  59  82
ENDBRANCH  33  34
ENDBRANCH  25  28
ENDBRANCH  23  24
ENDBRANCH  22  23
ENDBRANCH   1  22
TORSDOF 13
