REMARK SMILES NS(=O)(=O)c1ccc(-n2nc(C(F)(F)F)cc2-c2ccc(CC(=O)NCCCNC(=O)c3ccc(-c4c5nc(c(-c6c(F)c(F)c(F)c(F)c6F)c6ccc([nH]6)c(-c6c(F)c(F)c(F)c(F)c6F)c6nc(c(-c7c(F)c(F)c(F)c(F)c7F)c7ccc4[nH]7)C=C6)C=C5)cc3)cc2)cc1
REMARK SMILES IDX 23 1 24 2 25 3 22 5 21 6 18 7 19 8 96 9 20 10 95 11 17 12
REMARK SMILES IDX 9 13 10 14 11 15 16 16 8 17 5 18 6 19 98 20 7 21 97 22 2 23
REMARK SMILES IDX 3 24 4 25 1 26 12 29 13 30 14 31 15 32 26 33 27 34 28 35
REMARK SMILES IDX 29 36 30 37 31 39 32 40 33 41 94 42 34 43 93 44 35 45 36 46
REMARK SMILES IDX 37 47 87 48 38 49 92 50 86 51 88 52 39 53 91 54 85 55 84 56
REMARK SMILES IDX 40 58 72 59 52 60 71 61 53 62 56 63 70 64 89 65 54 66 55 67
REMARK SMILES IDX 69 69 90 70 57 71 41 72 42 73 50 74 43 75 44 76 48 77 51 78
REMARK SMILES IDX 45 79 46 80 49 81 47 82 73 83 74 84 82 85 75 86 76 87 80 88
REMARK SMILES IDX 83 89 77 90 78 91 81 92 79 93 58 94 59 95 67 96 60 97 61 98
REMARK SMILES IDX 65 99 68 100 62 101 63 102 66 103 64 104
REMARK H PARENT 25 4 1 27 1 28 29 38 88 57 56 68
REMARK Flexibility Score: inf
ROOT
ATOM      1  C   UNL     1       1.082   1.077  -9.498  1.00  0.00     0.224 C 
ATOM      2  O   UNL     1       0.019   0.456  -9.563  1.00  0.00    -0.275 OA
ATOM      3  N   UNL     1       2.203   0.406  -9.096  1.00  0.00    -0.356 N 
ATOM      4  H   UNL     1       2.072  -0.545  -8.880  1.00  0.00     0.163 HD
ENDROOT
BRANCH   1   5
ATOM      5  C   UNL     1       1.166   2.545  -9.883  1.00  0.00     0.135 C 
BRANCH   5   6
ATOM      6  C   UNL     1       1.411   3.465  -8.712  1.00  0.00    -0.039 A 
ATOM      7  C   UNL     1       1.923   5.111  -6.476  1.00  0.00     0.000 A 
ATOM      8  C   UNL     1       0.736   4.369  -6.565  1.00  0.00     0.010 A 
ATOM      9  C   UNL     1       2.832   5.049  -7.537  1.00  0.00     0.010 A 
ATOM     10  C   UNL     1       0.487   3.542  -7.664  1.00  0.00     0.005 A 
ATOM     11  C   UNL     1       2.571   4.248  -8.651  1.00  0.00     0.005 A 
BRANCH   7  12
ATOM     12  C   UNL     1       2.192   5.990  -5.332  1.00  0.00     0.075 A 
ATOM     13  N   UNL     1       1.951   5.707  -3.992  1.00  0.00    -0.233 N 
ATOM     14  N   UNL     1       2.035   6.812  -3.212  1.00  0.00    -0.163 NA
ATOM     15  C   UNL     1       2.508   7.777  -4.019  1.00  0.00     0.167 A 
ATOM     16  C   UNL     1       2.609   7.308  -5.351  1.00  0.00     0.064 A 
BRANCH  13  17
ATOM     17  C   UNL     1       1.608   4.465  -3.404  1.00  0.00     0.065 A 
ATOM     18  C   UNL     1       0.713   2.041  -2.420  1.00  0.00     0.082 A 
ATOM     19  C   UNL     1       1.751   2.058  -3.357  1.00  0.00     0.024 A 
ATOM     20  C   UNL     1       0.152   3.222  -1.933  1.00  0.00     0.024 A 
ATOM     21  C   UNL     1       2.197   3.277  -3.859  1.00  0.00     0.030 A 
ATOM     22  C   UNL     1       0.624   4.444  -2.405  1.00  0.00     0.030 A 
BRANCH  18  23
ATOM     23  S   UNL     1       0.088   0.488  -1.867  1.00  0.00     0.238 S 
ATOM     24  O   UNL     1       0.584  -0.547  -2.729  1.00  0.00    -0.207 OA
ATOM     25  O   UNL     1      -1.317   0.627  -1.536  1.00  0.00    -0.207 OA
BRANCH  23  26
ATOM     26  N   UNL     1       0.903   0.339  -0.410  1.00  0.00    -0.225 NA
ATOM     27  H   UNL     1       0.637  -0.537   0.040  1.00  0.00     0.137 HD
ATOM     28  H   UNL     1       0.660   1.121   0.198  1.00  0.00     0.137 HD
ENDBRANCH  23  26
ENDBRANCH  18  23
ENDBRANCH  13  17
BRANCH  15  29
ATOM     29  C   UNL     1       2.839   9.161  -3.533  1.00  0.00     0.435 C 
ATOM     30  F   UNL     1       1.901   9.668  -2.692  1.00  0.00    -0.164 F 
ATOM     31  F   UNL     1       4.029   9.197  -2.875  1.00  0.00    -0.164 F 
ATOM     32  F   UNL     1       2.948  10.042  -4.567  1.00  0.00    -0.164 F 
ENDBRANCH  15  29
ENDBRANCH   7  12
ENDBRANCH   5   6
ENDBRANCH   1   5
BRANCH   3  33
ATOM     33  C   UNL     1       3.562   0.900  -8.942  1.00  0.00     0.117 C 
BRANCH  33  34
ATOM     34  C   UNL     1       3.907   1.275  -7.496  1.00  0.00     0.042 C 
BRANCH  34  35
ATOM     35  C   UNL     1       4.135   0.067  -6.603  1.00  0.00     0.118 C 
BRANCH  35  36
ATOM     36  N   UNL     1       5.329  -0.698  -6.970  1.00  0.00    -0.352 N 
ATOM     37  C   UNL     1       5.762  -1.915  -6.479  1.00  0.00     0.251 C 
ATOM     38  H   UNL     1       5.900  -0.290  -7.661  1.00  0.00     0.163 HD
ATOM     39  O   UNL     1       6.921  -2.278  -6.639  1.00  0.00    -0.269 OA
BRANCH  37  40
ATOM     40  C   UNL     1       4.815  -2.761  -5.734  1.00  0.00     0.039 A 
ATOM     41  C   UNL     1       5.196  -3.434  -4.569  1.00  0.00     0.014 A 
ATOM     42  C   UNL     1       3.506  -2.827  -6.187  1.00  0.00     0.014 A 
ATOM     43  C   UNL     1       4.226  -4.105  -3.823  1.00  0.00     0.010 A 
ATOM     44  C   UNL     1       2.531  -3.304  -5.348  1.00  0.00     0.010 A 
ATOM     45  C   UNL     1       2.879  -4.020  -4.202  1.00  0.00    -0.014 A 
BRANCH  45  46
ATOM     46  C   UNL     1       1.807  -4.617  -3.393  1.00  0.00     0.031 A 
ATOM     47  C   UNL     1       1.777  -4.290  -1.925  1.00  0.00     0.074 A 
ATOM     48  C   UNL     1       0.759  -5.238  -3.985  1.00  0.00     0.049 A 
ATOM     49  N   UNL     1       1.493  -5.069  -0.927  1.00  0.00    -0.248 NA
ATOM     50  C   UNL     1       2.129  -2.921  -1.503  1.00  0.00     0.031 C 
ATOM     51  C   UNL     1       0.497  -5.435  -5.421  1.00  0.00     0.029 A 
ATOM     52  N   UNL     1      -0.383  -5.715  -3.417  1.00  0.00    -0.354 N 
ATOM     53  C   UNL     1       1.486  -4.269   0.217  1.00  0.00     0.074 A 
ATOM     54  C   UNL     1       1.930  -2.966  -0.185  1.00  0.00     0.031 C 
ATOM     55  C   UNL     1      -0.803  -5.739  -5.612  1.00  0.00     0.029 A 
ATOM     56  C   UNL     1      -1.414  -5.952  -4.318  1.00  0.00     0.049 A 
ATOM     57  H   UNL     1      -0.471  -5.879  -2.450  1.00  0.00     0.167 HD
ATOM     58  C   UNL     1       0.996  -4.697   1.413  1.00  0.00     0.037 A 
ATOM     59  C   UNL     1      -2.694  -6.288  -4.033  1.00  0.00     0.037 A 
ATOM     60  C   UNL     1       1.105  -6.121   1.534  1.00  0.00     0.049 A 
ATOM     61  C   UNL     1      -2.706  -6.821  -2.652  1.00  0.00     0.074 A 
ATOM     62  C   UNL     1       2.177  -6.991   1.495  1.00  0.00     0.029 A 
ATOM     63  N   UNL     1      -0.005  -6.904   1.351  1.00  0.00    -0.354 N 
ATOM     64  N   UNL     1      -2.144  -7.944  -2.300  1.00  0.00    -0.248 NA
ATOM     65  C   UNL     1      -2.973  -5.884  -1.574  1.00  0.00     0.031 C 
ATOM     66  C   UNL     1       1.706  -8.105   0.743  1.00  0.00     0.029 A 
ATOM     67  C   UNL     1       0.362  -7.869   0.447  1.00  0.00     0.049 A 
ATOM     68  H   UNL     1      -0.885  -6.797   1.779  1.00  0.00     0.167 HD
ATOM     69  C   UNL     1      -1.604  -7.686  -1.051  1.00  0.00     0.074 A 
ATOM     70  C   UNL     1      -2.227  -6.438  -0.615  1.00  0.00     0.031 C 
ATOM     71  C   UNL     1      -0.502  -8.354  -0.601  1.00  0.00     0.037 A 
BRANCH  58  72
ATOM     72  C   UNL     1       0.154  -3.856   2.338  1.00  0.00     0.064 A 
ATOM     73  C   UNL     1      -0.203  -4.357   3.607  1.00  0.00     0.173 A 
ATOM     74  C   UNL     1      -0.576  -2.731   1.900  1.00  0.00     0.173 A 
ATOM     75  F   UNL     1       0.436  -5.417   4.126  1.00  0.00    -0.203 F 
ATOM     76  C   UNL     1      -1.279  -3.838   4.332  1.00  0.00     0.198 A 
ATOM     77  C   UNL     1      -1.630  -2.195   2.641  1.00  0.00     0.198 A 
ATOM     78  F   UNL     1      -0.351  -2.165   0.707  1.00  0.00    -0.203 F 
ATOM     79  F   UNL     1      -1.653  -4.420   5.479  1.00  0.00    -0.200 F 
ATOM     80  C   UNL     1      -2.005  -2.769   3.838  1.00  0.00     0.200 A 
ATOM     81  F   UNL     1      -2.319  -1.156   2.149  1.00  0.00    -0.200 F 
ATOM     82  F   UNL     1      -3.081  -2.316   4.495  1.00  0.00    -0.200 F 
ENDBRANCH  58  72
BRANCH  59  83
ATOM     83  C   UNL     1      -3.926  -5.972  -4.787  1.00  0.00     0.064 A 
ATOM     84  C   UNL     1      -5.108  -6.697  -4.578  1.00  0.00     0.173 A 
ATOM     85  C   UNL     1      -4.040  -4.785  -5.536  1.00  0.00     0.173 A 
ATOM     86  F   UNL     1      -5.091  -7.820  -3.845  1.00  0.00    -0.203 F 
ATOM     87  C   UNL     1      -6.339  -6.247  -5.066  1.00  0.00     0.198 A 
ATOM     88  C   UNL     1      -5.268  -4.340  -6.029  1.00  0.00     0.198 A 
ATOM     89  F   UNL     1      -2.979  -3.988  -5.728  1.00  0.00    -0.203 F 
ATOM     90  F   UNL     1      -7.457  -6.934  -4.794  1.00  0.00    -0.200 F 
ATOM     91  C   UNL     1      -6.419  -5.063  -5.781  1.00  0.00     0.200 A 
ATOM     92  F   UNL     1      -5.337  -3.177  -6.694  1.00  0.00    -0.200 F 
ATOM     93  F   UNL     1      -7.607  -4.601  -6.196  1.00  0.00    -0.200 F 
ENDBRANCH  59  83
BRANCH  71  94
ATOM     94  C   UNL     1       0.006  -9.523  -1.402  1.00  0.00     0.064 A 
ATOM     95  C   UNL     1       0.468  -9.426  -2.727  1.00  0.00     0.173 A 
ATOM     96  C   UNL     1       0.202 -10.746  -0.747  1.00  0.00     0.173 A 
ATOM     97  F   UNL     1       0.426  -8.267  -3.391  1.00  0.00    -0.203 F 
ATOM     98  C   UNL     1       1.055 -10.510  -3.376  1.00  0.00     0.198 A 
ATOM     99  C   UNL     1       0.825 -11.818  -1.384  1.00  0.00     0.198 A 
ATOM    100  F   UNL     1      -0.156 -10.885   0.539  1.00  0.00    -0.203 F 
ATOM    101  F   UNL     1       1.481 -10.386  -4.642  1.00  0.00    -0.200 F 
ATOM    102  C   UNL     1       1.241 -11.703  -2.700  1.00  0.00     0.200 A 
ATOM    103  F   UNL     1       1.054 -12.951  -0.708  1.00  0.00    -0.200 F 
ATOM    104  F   UNL     1       1.850 -12.732  -3.307  1.00  0.00    -0.200 F 
ENDBRANCH  71  94
ENDBRANCH  45  46
ENDBRANCH  37  40
ENDBRANCH  35  36
ENDBRANCH  34  35
ENDBRANCH  33  34
ENDBRANCH   3  33
TORSDOF 16
