REMARK SMILES Cc1oc2c(C)c3oc(=O)c(CCC(=O)N[C@H](Cc4ccc(Cl)cc4)C(=O)NCCCNC(=O)c4ccc(-c5c6nc(c(-c7c(F)c(F)c(F)c(F)c7F)c7ccc([nH]7)c(-c7c(F)c(F)c(F)c(F)c7F)c7nc(c(-c8c(F)c(F)c(F)c(F)c8F)c8ccc5[nH]8)C=C7)C=C6)cc4)c(C)c3cc2c1C
REMARK SMILES IDX 29 1 28 2 26 3 27 4 17 6 16 7 14 8 15 9 13 11 12 12 11 13
REMARK SMILES IDX 1 14 2 15 3 16 103 17 4 18 102 19 104 20 5 21 101 22 6 23
REMARK SMILES IDX 7 24 100 25 8 26 98 27 9 28 99 29 10 30 18 31 19 32 20 33
REMARK SMILES IDX 25 34 21 35 24 36 22 37 23 38 30 39 31 40 32 41 33 42 34 44
REMARK SMILES IDX 35 45 36 46 97 47 37 48 96 49 38 50 39 51 40 52 90 53 41 54
REMARK SMILES IDX 95 55 89 56 91 57 42 58 94 59 88 60 87 61 43 63 75 64 55 65
REMARK SMILES IDX 74 66 56 67 59 68 73 69 92 70 57 71 58 72 72 74 93 75 60 76
REMARK SMILES IDX 44 77 45 78 53 79 46 80 47 81 51 82 54 83 48 84 49 85 52 86
REMARK SMILES IDX 50 87 76 88 77 89 85 90 78 91 79 92 83 93 86 94 80 95 81 96
REMARK SMILES IDX 84 97 82 98 61 99 62 100 70 101 63 102 64 103 68 104 71 105
REMARK SMILES IDX 65 106 66 107 69 108 67 109
REMARK H PARENT 28 5 16 10 32 43 91 62 59 73
REMARK Flexibility Score: inf
ROOT
ATOM      1  C   UNL     1       3.027   3.483   1.737  1.00  0.00     0.117 C 
ENDROOT
BRANCH   1   2
ATOM      2  N   UNL     1       2.397   4.695   2.367  1.00  0.00    -0.354 N 
ATOM      3  C   UNL     1       1.231   5.469   2.485  1.00  0.00     0.242 C 
ATOM      4  O   UNL     1       0.817   5.944   3.553  1.00  0.00    -0.273 OA
ATOM      5  H   UNL     1       3.085   5.121   2.928  1.00  0.00     0.163 HD
BRANCH   3   6
ATOM      6  C   UNL     1       0.245   5.620   1.425  1.00  0.00     0.175 C 
BRANCH   6   7
ATOM      7  N   UNL     1      -0.036   4.151   1.670  1.00  0.00    -0.344 N 
ATOM      8  C   UNL     1       0.034   3.372   2.873  1.00  0.00     0.220 C 
ATOM      9  O   UNL     1      -0.637   2.324   2.808  1.00  0.00    -0.275 OA
ATOM     10  H   UNL     1      -0.313   3.647   0.871  1.00  0.00     0.164 HD
BRANCH   8  11
ATOM     11  C   UNL     1       0.921   3.610   4.372  1.00  0.00     0.105 C 
BRANCH  11  12
ATOM     12  C   UNL     1       2.346   4.376   5.049  1.00  0.00     0.053 C 
BRANCH  12  13
ATOM     13  C   UNL     1       2.825   5.932   5.039  1.00  0.00     0.042 A 
ATOM     14  C   UNL     1       1.195  13.416   2.211  1.00  0.00     0.088 C 
ATOM     15  C   UNL     1       1.279  12.154   2.976  1.00  0.00     0.105 A 
ATOM     16  O   UNL     1       2.254  12.063   3.935  1.00  0.00    -0.461 OA
ATOM     17  C   UNL     1       0.598  10.961   2.844  1.00  0.00    -0.002 A 
ATOM     18  C   UNL     1       2.315  10.753   4.334  1.00  0.00     0.141 A 
ATOM     19  C   UNL     1       1.372  10.039   3.604  1.00  0.00     0.025 A 
ATOM     20  C   UNL     1      -0.562  10.686   1.947  1.00  0.00     0.049 C 
ATOM     21  C   UNL     1       3.207  10.173   5.279  1.00  0.00     0.036 A 
ATOM     22  C   UNL     1       1.451   8.653   3.643  1.00  0.00     0.024 A 
ATOM     23  C   UNL     1       4.159  10.981   6.083  1.00  0.00     0.052 C 
ATOM     24  C   UNL     1       3.207   8.776   5.306  1.00  0.00     0.145 A 
ATOM     25  C   UNL     1       2.522   8.095   4.344  1.00  0.00     0.022 A 
ATOM     26  O   UNL     1       3.904   7.922   6.207  1.00  0.00    -0.422 OA
ATOM     27  C   UNL     1       3.159   6.814   4.065  1.00  0.00    -0.030 A 
ATOM     28  C   UNL     1       3.640   6.489   6.208  1.00  0.00     0.339 A 
ATOM     29  C   UNL     1       4.014   6.891   2.814  1.00  0.00     0.046 C 
ATOM     30  O   UNL     1       4.164   5.744   7.012  1.00  0.00    -0.246 OA
ENDBRANCH  12  13
ENDBRANCH  11  12
ENDBRANCH   8  11
ENDBRANCH   6   7
BRANCH   6  31
ATOM     31  C   UNL     1       1.149   6.448   0.376  1.00  0.00     0.070 C 
BRANCH  31  32
ATOM     32  C   UNL     1       1.091   7.958  -0.103  1.00  0.00    -0.045 A 
ATOM     33  C   UNL     1       0.437   8.380  -1.264  1.00  0.00     0.005 A 
ATOM     34  C   UNL     1       2.017   8.914   0.411  1.00  0.00     0.005 A 
ATOM     35  C   UNL     1       0.767   9.618  -1.895  1.00  0.00     0.021 A 
ATOM     36  C   UNL     1       2.365  10.129  -0.204  1.00  0.00     0.021 A 
ATOM     37  C   UNL     1       1.749  10.469  -1.383  1.00  0.00     0.041 A 
ATOM     38  Cl  UNL     1       2.213  11.912  -2.199  1.00  0.00    -0.084 Cl
ENDBRANCH  31  32
ENDBRANCH   6  31
ENDBRANCH   3   6
ENDBRANCH   1   2
BRANCH   1  39
ATOM     39  C   UNL     1       4.599   3.503   1.990  1.00  0.00     0.042 C 
BRANCH  39  40
ATOM     40  C   UNL     1       5.396   2.511   2.888  1.00  0.00     0.118 C 
BRANCH  40  41
ATOM     41  N   UNL     1       5.370   1.147   2.437  1.00  0.00    -0.352 N 
ATOM     42  C   UNL     1       6.338   0.222   2.133  1.00  0.00     0.251 C 
ATOM     43  H   UNL     1       4.457   0.799   2.319  1.00  0.00     0.163 HD
ATOM     44  O   UNL     1       5.946  -0.753   1.484  1.00  0.00    -0.269 OA
BRANCH  42  45
ATOM     45  C   UNL     1       7.790   0.240   2.509  1.00  0.00     0.039 A 
ATOM     46  C   UNL     1       8.664  -0.376   1.590  1.00  0.00     0.014 A 
ATOM     47  C   UNL     1       8.297   0.548   3.774  1.00  0.00     0.014 A 
ATOM     48  C   UNL     1       9.991  -0.705   1.918  1.00  0.00     0.010 A 
ATOM     49  C   UNL     1       9.642   0.217   4.103  1.00  0.00     0.010 A 
ATOM     50  C   UNL     1      10.503  -0.424   3.185  1.00  0.00    -0.014 A 
BRANCH  50  51
ATOM     51  C   UNL     1      11.972  -0.612   3.405  1.00  0.00     0.031 A 
ATOM     52  C   UNL     1      12.639   0.595   3.974  1.00  0.00     0.074 A 
ATOM     53  C   UNL     1      12.642  -1.788   3.531  1.00  0.00     0.049 A 
ATOM     54  N   UNL     1      12.627   0.844   5.251  1.00  0.00    -0.248 NA
ATOM     55  C   UNL     1      13.103   1.715   3.157  1.00  0.00     0.031 C 
ATOM     56  C   UNL     1      12.052  -3.021   4.061  1.00  0.00     0.029 A 
ATOM     57  N   UNL     1      13.994  -2.092   3.430  1.00  0.00    -0.354 N 
ATOM     58  C   UNL     1      13.023   2.154   5.418  1.00  0.00     0.074 A 
ATOM     59  C   UNL     1      13.329   2.652   4.094  1.00  0.00     0.031 C 
ATOM     60  C   UNL     1      13.045  -3.876   4.393  1.00  0.00     0.029 A 
ATOM     61  C   UNL     1      14.344  -3.335   3.973  1.00  0.00     0.049 A 
ATOM     62  H   UNL     1      14.650  -1.487   3.013  1.00  0.00     0.167 HD
ATOM     63  C   UNL     1      13.061   2.747   6.639  1.00  0.00     0.037 A 
ATOM     64  C   UNL     1      15.507  -3.627   4.633  1.00  0.00     0.037 A 
ATOM     65  C   UNL     1      12.643   1.930   7.740  1.00  0.00     0.049 A 
ATOM     66  C   UNL     1      15.407  -2.730   5.838  1.00  0.00     0.074 A 
ATOM     67  C   UNL     1      11.477   1.687   8.434  1.00  0.00     0.029 A 
ATOM     68  N   UNL     1      13.551   1.041   8.264  1.00  0.00    -0.354 N 
ATOM     69  N   UNL     1      14.689  -2.942   6.907  1.00  0.00    -0.248 NA
ATOM     70  C   UNL     1      15.888  -1.358   5.673  1.00  0.00     0.031 C 
ATOM     71  C   UNL     1      11.623   0.367   8.971  1.00  0.00     0.029 A 
ATOM     72  C   UNL     1      12.859  -0.111   8.541  1.00  0.00     0.049 A 
ATOM     73  H   UNL     1      14.511   1.200   8.412  1.00  0.00     0.167 HD
ATOM     74  C   UNL     1      14.399  -1.671   7.403  1.00  0.00     0.074 A 
ATOM     75  C   UNL     1      15.173  -0.744   6.603  1.00  0.00     0.031 C 
ATOM     76  C   UNL     1      13.415  -1.422   8.312  1.00  0.00     0.037 A 
BRANCH  63  77
ATOM     77  C   UNL     1      13.683   4.052   6.909  1.00  0.00     0.064 A 
ATOM     78  C   UNL     1      15.019   4.053   7.333  1.00  0.00     0.173 A 
ATOM     79  C   UNL     1      12.957   5.242   6.986  1.00  0.00     0.173 A 
ATOM     80  F   UNL     1      15.734   2.916   7.296  1.00  0.00    -0.203 F 
ATOM     81  C   UNL     1      15.603   5.198   7.859  1.00  0.00     0.198 A 
ATOM     82  C   UNL     1      13.548   6.393   7.505  1.00  0.00     0.198 A 
ATOM     83  F   UNL     1      11.672   5.278   6.604  1.00  0.00    -0.203 F 
ATOM     84  F   UNL     1      16.865   5.155   8.306  1.00  0.00    -0.200 F 
ATOM     85  C   UNL     1      14.864   6.366   7.954  1.00  0.00     0.200 A 
ATOM     86  F   UNL     1      12.836   7.525   7.605  1.00  0.00    -0.200 F 
ATOM     87  F   UNL     1      15.415   7.461   8.495  1.00  0.00    -0.200 F 
ENDBRANCH  63  77
BRANCH  64  88
ATOM     88  C   UNL     1      16.795  -3.753   3.863  1.00  0.00     0.064 A 
ATOM     89  C   UNL     1      16.818  -4.496   2.667  1.00  0.00     0.173 A 
ATOM     90  C   UNL     1      18.035  -3.220   4.268  1.00  0.00     0.173 A 
ATOM     91  F   UNL     1      15.727  -5.169   2.272  1.00  0.00    -0.203 F 
ATOM     92  C   UNL     1      17.959  -4.573   1.862  1.00  0.00     0.198 A 
ATOM     93  C   UNL     1      19.166  -3.265   3.447  1.00  0.00     0.198 A 
ATOM     94  F   UNL     1      18.180  -2.636   5.465  1.00  0.00    -0.203 F 
ATOM     95  F   UNL     1      17.922  -5.267   0.716  1.00  0.00    -0.200 F 
ATOM     96  C   UNL     1      19.122  -3.922   2.233  1.00  0.00     0.200 A 
ATOM     97  F   UNL     1      20.294  -2.649   3.832  1.00  0.00    -0.200 F 
ATOM     98  F   UNL     1      20.195  -3.937   1.431  1.00  0.00    -0.200 F 
ENDBRANCH  64  88
BRANCH  76  99
ATOM     99  C   UNL     1      12.763  -2.618   8.908  1.00  0.00     0.064 A 
ATOM    100  C   UNL     1      13.439  -3.370   9.876  1.00  0.00     0.173 A 
ATOM    101  C   UNL     1      11.449  -2.986   8.580  1.00  0.00     0.173 A 
ATOM    102  F   UNL     1      14.695  -3.051  10.225  1.00  0.00    -0.203 F 
ATOM    103  C   UNL     1      12.810  -4.430  10.522  1.00  0.00     0.198 A 
ATOM    104  C   UNL     1      10.817  -4.035   9.243  1.00  0.00     0.198 A 
ATOM    105  F   UNL     1      10.761  -2.312   7.645  1.00  0.00    -0.203 F 
ATOM    106  F   UNL     1      13.467  -5.123  11.463  1.00  0.00    -0.200 F 
ATOM    107  C   UNL     1      11.496  -4.751  10.217  1.00  0.00     0.200 A 
ATOM    108  F   UNL     1       9.541  -4.334   8.960  1.00  0.00    -0.200 F 
ATOM    109  F   UNL     1      10.877  -5.741  10.876  1.00  0.00    -0.200 F 
ENDBRANCH  76  99
ENDBRANCH  50  51
ENDBRANCH  42  45
ENDBRANCH  40  41
ENDBRANCH  39  40
ENDBRANCH   1  39
TORSDOF 16
