REMARK SMILES N#C/C(=C/c1cc(Br)ccc1OCC(=O)NCCCNC(=O)c1ccc(-c2c3nc(c(-c4c(F)c(F)c(F)c(F)c4F)c4ccc([nH]4)c(-c4c(F)c(F)c(F)c(F)c4F)c4nc(c(-c5c(F)c(F)c(F)c(F)c5F)c5ccc2[nH]5)C=C4)C=C3)cc1)c1ccc(F)cc1
REMARK SMILES IDX 17 1 16 2 14 3 15 4 13 6 12 7 11 8 5 9 6 10 7 11 10 12 8 13
REMARK SMILES IDX 9 14 4 15 3 16 2 17 1 18 86 19 87 20 92 21 88 22 91 23 89 24
REMARK SMILES IDX 90 25 18 26 19 27 20 28 21 29 22 31 23 32 24 33 85 34 25 35
REMARK SMILES IDX 84 36 26 37 27 38 28 39 78 40 29 41 83 42 77 43 79 44 30 45
REMARK SMILES IDX 82 46 76 47 75 48 31 50 63 51 43 52 62 53 44 54 47 55 61 56
REMARK SMILES IDX 80 57 45 58 46 59 60 61 81 62 48 63 32 64 33 65 41 66 34 67
REMARK SMILES IDX 35 68 39 69 42 70 36 71 37 72 40 73 38 74 64 75 65 76 73 77
REMARK SMILES IDX 66 78 67 79 71 80 74 81 68 82 69 83 72 84 70 85 49 86 50 87
REMARK SMILES IDX 58 88 51 89 52 90 56 91 59 92 53 93 54 94 57 95 55 96
REMARK H PARENT 16 5 20 30 79 49 47 60
REMARK Flexibility Score: inf
ROOT
ATOM      1  C   UNL     1       5.397  -4.134   4.312  1.00  0.00     0.117 C 
ENDROOT
BRANCH   1   2
ATOM      2  N   UNL     1       4.284  -3.290   3.937  1.00  0.00    -0.353 N 
ATOM      3  C   UNL     1       3.811  -3.033   2.686  1.00  0.00     0.257 C 
ATOM      4  O   UNL     1       2.696  -2.518   2.586  1.00  0.00    -0.271 OA
ATOM      5  H   UNL     1       3.809  -2.848   4.677  1.00  0.00     0.163 HD
BRANCH   3   6
ATOM      6  C   UNL     1       4.644  -3.390   1.448  1.00  0.00     0.329 C 
BRANCH   6   7
ATOM      7  O   UNL     1       6.033  -3.127   1.476  1.00  0.00    -0.483 OA
BRANCH   7   8
ATOM      8  C   UNL     1       6.580  -1.886   1.304  1.00  0.00     0.127 A 
ATOM      9  C   UNL     1       5.968  -0.625   1.185  1.00  0.00     0.019 A 
ATOM     10  C   UNL     1       6.780   0.524   1.075  1.00  0.00     0.027 A 
ATOM     11  C   UNL     1       8.168   0.416   1.005  1.00  0.00     0.018 A 
ATOM     12  C   UNL     1       7.984  -1.964   1.247  1.00  0.00     0.048 A 
ATOM     13  Br  UNL     1       9.223   1.963   0.756  1.00  0.00    -0.051 Br
ATOM     14  C   UNL     1       8.776  -0.828   1.083  1.00  0.00     0.019 A 
BRANCH   9  15
ATOM     15  C   UNL     1       4.515  -0.442   1.081  1.00  0.00     0.032 C 
ATOM     16  C   UNL     1       3.841  -0.076  -0.026  1.00  0.00     0.060 C 
BRANCH  16  17
ATOM     17  C   UNL     1       2.321  -0.076  -0.026  1.00  0.00     0.100 C 
ATOM     18  N   UNL     1       1.060  -0.076  -0.026  1.00  0.00    -0.192 NA
ENDBRANCH  16  17
BRANCH  16  19
ATOM     19  C   UNL     1       4.489   0.589  -1.185  1.00  0.00    -0.008 A 
ATOM     20  C   UNL     1       5.491  -0.014  -1.959  1.00  0.00     0.012 A 
ATOM     21  C   UNL     1       4.144   1.931  -1.450  1.00  0.00     0.012 A 
ATOM     22  C   UNL     1       6.162   0.725  -2.939  1.00  0.00     0.040 A 
ATOM     23  C   UNL     1       4.806   2.661  -2.437  1.00  0.00     0.040 A 
ATOM     24  C   UNL     1       5.818   2.054  -3.165  1.00  0.00     0.123 A 
ATOM     25  F   UNL     1       6.479   2.762  -4.089  1.00  0.00    -0.207 F 
ENDBRANCH  16  19
ENDBRANCH   9  15
ENDBRANCH   7   8
ENDBRANCH   6   7
ENDBRANCH   3   6
ENDBRANCH   1   2
BRANCH   1  26
ATOM     26  C   UNL     1       6.587  -3.363   4.869  1.00  0.00     0.042 C 
BRANCH  26  27
ATOM     27  C   UNL     1       6.270  -2.462   6.058  1.00  0.00     0.118 C 
BRANCH  27  28
ATOM     28  N   UNL     1       5.649  -3.172   7.168  1.00  0.00    -0.352 N 
ATOM     29  C   UNL     1       6.099  -3.429   8.440  1.00  0.00     0.251 C 
ATOM     30  H   UNL     1       4.753  -3.530   6.973  1.00  0.00     0.163 HD
ATOM     31  O   UNL     1       5.473  -4.204   9.156  1.00  0.00    -0.269 OA
BRANCH  29  32
ATOM     32  C   UNL     1       7.338  -2.802   8.948  1.00  0.00     0.039 A 
ATOM     33  C   UNL     1       8.212  -3.572   9.721  1.00  0.00     0.014 A 
ATOM     34  C   UNL     1       7.628  -1.459   8.700  1.00  0.00     0.014 A 
ATOM     35  C   UNL     1       9.407  -3.016  10.183  1.00  0.00     0.010 A 
ATOM     36  C   UNL     1       8.858  -0.932   9.083  1.00  0.00     0.010 A 
ATOM     37  C   UNL     1       9.759  -1.703   9.833  1.00  0.00    -0.014 A 
BRANCH  37  38
ATOM     38  C   UNL     1      11.059  -1.115  10.245  1.00  0.00     0.031 A 
ATOM     39  C   UNL     1      11.097   0.084  11.151  1.00  0.00     0.074 A 
ATOM     40  C   UNL     1      12.206  -1.623   9.753  1.00  0.00     0.049 A 
ATOM     41  N   UNL     1      12.127   0.775  11.572  1.00  0.00    -0.248 NA
ATOM     42  C   UNL     1       9.800   0.591  11.624  1.00  0.00     0.031 C 
ATOM     43  C   UNL     1      12.302  -2.761   8.838  1.00  0.00     0.029 A 
ATOM     44  N   UNL     1      13.510  -1.244   9.951  1.00  0.00    -0.354 N 
ATOM     45  C   UNL     1      11.601   1.800  12.347  1.00  0.00     0.074 A 
ATOM     46  C   UNL     1      10.160   1.683  12.280  1.00  0.00     0.031 C 
ATOM     47  C   UNL     1      13.596  -3.012   8.584  1.00  0.00     0.029 A 
ATOM     48  C   UNL     1      14.418  -2.026   9.280  1.00  0.00     0.049 A 
ATOM     49  H   UNL     1      13.770  -0.484  10.520  1.00  0.00     0.167 HD
ATOM     50  C   UNL     1      12.258   2.737  13.073  1.00  0.00     0.037 A 
ATOM     51  C   UNL     1      15.761  -1.955   9.230  1.00  0.00     0.037 A 
ATOM     52  C   UNL     1      13.693   2.847  13.140  1.00  0.00     0.049 A 
ATOM     53  C   UNL     1      16.468  -0.877  10.007  1.00  0.00     0.074 A 
ATOM     54  C   UNL     1      14.459   3.734  13.875  1.00  0.00     0.029 A 
ATOM     55  N   UNL     1      14.579   2.045  12.434  1.00  0.00    -0.354 N 
ATOM     56  N   UNL     1      15.965   0.049  10.787  1.00  0.00    -0.248 NA
ATOM     57  C   UNL     1      17.932  -0.839   9.896  1.00  0.00     0.031 C 
ATOM     58  C   UNL     1      15.806   3.506  13.572  1.00  0.00     0.029 A 
ATOM     59  C   UNL     1      15.884   2.434  12.696  1.00  0.00     0.049 A 
ATOM     60  H   UNL     1      14.319   1.308  11.836  1.00  0.00     0.167 HD
ATOM     61  C   UNL     1      17.050   0.755  11.290  1.00  0.00     0.074 A 
ATOM     62  C   UNL     1      18.239   0.143  10.732  1.00  0.00     0.031 C 
ATOM     63  C   UNL     1      17.060   1.812  12.140  1.00  0.00     0.037 A 
BRANCH  50  64
ATOM     64  C   UNL     1      11.421   3.721  13.843  1.00  0.00     0.064 A 
ATOM     65  C   UNL     1      10.621   3.320  14.926  1.00  0.00     0.173 A 
ATOM     66  C   UNL     1      11.411   5.080  13.494  1.00  0.00     0.173 A 
ATOM     67  F   UNL     1      10.584   2.031  15.298  1.00  0.00    -0.203 F 
ATOM     68  C   UNL     1       9.805   4.230  15.593  1.00  0.00     0.198 A 
ATOM     69  C   UNL     1      10.623   5.995  14.189  1.00  0.00     0.198 A 
ATOM     70  F   UNL     1      12.162   5.523  12.475  1.00  0.00    -0.203 F 
ATOM     71  F   UNL     1       8.994   3.807  16.573  1.00  0.00    -0.200 F 
ATOM     72  C   UNL     1       9.810   5.567  15.228  1.00  0.00     0.200 A 
ATOM     73  F   UNL     1      10.641   7.290  13.845  1.00  0.00    -0.200 F 
ATOM     74  F   UNL     1       9.021   6.441  15.868  1.00  0.00    -0.200 F 
ENDBRANCH  50  64
BRANCH  51  75
ATOM     75  C   UNL     1      16.528  -2.963   8.453  1.00  0.00     0.064 A 
ATOM     76  C   UNL     1      17.320  -3.917   9.109  1.00  0.00     0.173 A 
ATOM     77  C   UNL     1      16.483  -3.005   7.053  1.00  0.00     0.173 A 
ATOM     78  F   UNL     1      17.410  -3.905  10.447  1.00  0.00    -0.203 F 
ATOM     79  C   UNL     1      18.049  -4.863   8.393  1.00  0.00     0.198 A 
ATOM     80  C   UNL     1      17.190  -3.970   6.339  1.00  0.00     0.198 A 
ATOM     81  F   UNL     1      15.736  -2.119   6.377  1.00  0.00    -0.203 F 
ATOM     82  F   UNL     1      18.829  -5.737   9.044  1.00  0.00    -0.200 F 
ATOM     83  C   UNL     1      17.978  -4.894   7.009  1.00  0.00     0.200 A 
ATOM     84  F   UNL     1      17.105  -4.008   5.002  1.00  0.00    -0.200 F 
ATOM     85  F   UNL     1      18.672  -5.810   6.321  1.00  0.00    -0.200 F 
ENDBRANCH  51  75
BRANCH  63  86
ATOM     86  C   UNL     1      18.400   2.347  12.559  1.00  0.00     0.064 A 
ATOM     87  C   UNL     1      19.233   3.041  11.668  1.00  0.00     0.173 A 
ATOM     88  C   UNL     1      18.841   2.191  13.882  1.00  0.00     0.173 A 
ATOM     89  F   UNL     1      18.867   3.204  10.388  1.00  0.00    -0.203 F 
ATOM     90  C   UNL     1      20.469   3.533  12.080  1.00  0.00     0.198 A 
ATOM     91  C   UNL     1      20.062   2.715  14.299  1.00  0.00     0.198 A 
ATOM     92  F   UNL     1      18.081   1.541  14.777  1.00  0.00    -0.203 F 
ATOM     93  F   UNL     1      21.272   4.144  11.198  1.00  0.00    -0.200 F 
ATOM     94  C   UNL     1      20.879   3.377  13.396  1.00  0.00     0.200 A 
ATOM     95  F   UNL     1      20.448   2.576  15.575  1.00  0.00    -0.200 F 
ATOM     96  F   UNL     1      22.065   3.858  13.792  1.00  0.00    -0.200 F 
ENDBRANCH  63  86
ENDBRANCH  37  38
ENDBRANCH  29  32
ENDBRANCH  27  28
ENDBRANCH  26  27
ENDBRANCH   1  26
TORSDOF 15
