REMARK SMILES C[NH2+][C@@]1(C(=O)NCCCNC(=O)c2ccc(-c3c4nc(c(-c5c(F)c(F)c(F)c(F)c5F)c5ccc([nH]5)c(-c5c(F)c(F)c(F)c(F)c5F)c5nc(c(-c6c(F)c(F)c(F)c(F)c6F)c6ccc3[nH]6)C=C5)C=C4)cc2)CC[C@H]([NH+]2CC[NH+](C)CC2)C1
REMARK SMILES IDX 8 1 7 2 6 3 4 4 5 5 3 7 76 8 86 9 77 10 78 11 2 12 1 13
REMARK SMILES IDX 79 16 80 17 85 18 81 20 84 21 82 22 83 23 9 25 10 26 11 27
REMARK SMILES IDX 12 29 13 30 14 31 75 32 15 33 74 34 16 35 17 36 18 37 68 38
REMARK SMILES IDX 19 39 73 40 67 41 69 42 20 43 72 44 66 45 65 46 21 48 53 49
REMARK SMILES IDX 33 50 52 51 34 52 37 53 51 54 70 55 35 56 36 57 50 59 71 60
REMARK SMILES IDX 38 61 22 62 23 63 31 64 24 65 25 66 29 67 32 68 26 69 27 70
REMARK SMILES IDX 30 71 28 72 54 73 55 74 63 75 56 76 57 77 61 78 64 79 58 80
REMARK SMILES IDX 59 81 62 82 60 83 39 84 40 85 48 86 41 87 42 88 46 89 49 90
REMARK SMILES IDX 43 91 44 92 47 93 45 94
REMARK H PARENT 6 6 2 14 2 15 79 19 82 24 10 28 69 47 37 58
REMARK Flexibility Score: inf
ROOT
ATOM      1  C   UNL     1      -5.186  -0.850  -0.326  1.00  0.00     0.042 C 
ENDROOT
BRANCH   1   2
ATOM      2  C   UNL     1      -3.728   0.576  -0.921  1.00  0.00     0.118 C 
BRANCH   2   3
ATOM      3  N   UNL     1      -2.292   0.953  -0.391  1.00  0.00    -0.351 N 
ATOM      4  C   UNL     1      -0.993   0.735  -0.709  1.00  0.00     0.281 C 
ATOM      5  O   UNL     1      -0.212   1.432  -0.044  1.00  0.00    -0.268 OA
ATOM      6  H   UNL     1      -2.359   1.518   0.413  1.00  0.00     0.163 HD
BRANCH   4   7
ATOM      7  C   UNL     1      -0.482  -0.234  -1.818  1.00  0.00     0.181 C 
ATOM      8  C   UNL     1      -1.058   0.233  -3.170  1.00  0.00     0.085 C 
ATOM      9  C   UNL     1      -0.920  -1.705  -1.707  1.00  0.00     0.144 C 
ATOM     10  C   UNL     1      -1.970  -0.897  -3.641  1.00  0.00     0.072 C 
ATOM     11  C   UNL     1      -2.276  -1.775  -2.407  1.00  0.00     0.191 C 
BRANCH   7  12
ATOM     12  N   UNL     1       1.009  -0.152  -1.921  1.00  0.00    -0.336 N 
ATOM     13  C   UNL     1       1.743  -0.575  -0.730  1.00  0.00     0.331 C 
ATOM     14  H   UNL     1       1.304  -0.742  -2.699  1.00  0.00     0.346 HD
ATOM     15  H   UNL     1       1.229   0.836  -2.050  1.00  0.00     0.346 HD
ENDBRANCH   7  12
BRANCH  11  16
ATOM     16  N   UNL     1      -3.426  -1.419  -1.573  1.00  0.00    -0.323 N 
ATOM     17  C   UNL     1      -4.836  -0.595  -2.435  1.00  0.00     0.324 C 
ATOM     18  C   UNL     1      -3.189  -1.141   0.254  1.00  0.00     0.324 C 
ATOM     19  H   UNL     1      -3.818  -2.349  -1.425  1.00  0.00     0.348 HD
ATOM     20  C   UNL     1      -5.770   0.893  -1.561  1.00  0.00     0.324 C 
ATOM     21  C   UNL     1      -4.140   0.353   1.132  1.00  0.00     0.324 C 
ATOM     22  N   UNL     1      -5.521   1.204   0.241  1.00  0.00    -0.328 N 
ATOM     23  C   UNL     1      -5.621   2.625   0.571  1.00  0.00     0.333 C 
ATOM     24  H   UNL     1      -6.315   0.701   0.636  1.00  0.00     0.348 HD
ENDBRANCH  11  16
ENDBRANCH   4   7
ENDBRANCH   2   3
ENDBRANCH   1   2
BRANCH   1  25
ATOM     25  C   UNL     1      -6.020  -1.318   1.051  1.00  0.00     0.118 C 
BRANCH  25  26
ATOM     26  N   UNL     1      -6.955  -0.337   1.589  1.00  0.00    -0.352 N 
ATOM     27  C   UNL     1      -8.220  -0.433   2.074  1.00  0.00     0.251 C 
ATOM     28  H   UNL     1      -6.597   0.580   1.603  1.00  0.00     0.163 HD
ATOM     29  O   UNL     1      -8.895   0.561   2.320  1.00  0.00    -0.269 OA
BRANCH  27  30
ATOM     30  C   UNL     1      -8.793  -1.769   2.238  1.00  0.00     0.039 A 
ATOM     31  C   UNL     1     -10.060  -2.014   1.705  1.00  0.00     0.014 A 
ATOM     32  C   UNL     1      -8.058  -2.772   2.872  1.00  0.00     0.014 A 
ATOM     33  C   UNL     1     -10.589  -3.294   1.786  1.00  0.00     0.010 A 
ATOM     34  C   UNL     1      -8.555  -4.062   2.890  1.00  0.00     0.010 A 
ATOM     35  C   UNL     1      -9.832  -4.321   2.369  1.00  0.00    -0.014 A 
BRANCH  35  36
ATOM     36  C   UNL     1     -10.400  -5.670   2.530  1.00  0.00     0.031 A 
ATOM     37  C   UNL     1     -10.718  -6.151   3.912  1.00  0.00     0.074 A 
ATOM     38  C   UNL     1     -10.564  -6.450   1.448  1.00  0.00     0.049 A 
ATOM     39  N   UNL     1     -11.140  -7.323   4.304  1.00  0.00    -0.248 NA
ATOM     40  C   UNL     1     -10.491  -5.195   5.010  1.00  0.00     0.031 C 
ATOM     41  C   UNL     1     -10.232  -6.071   0.073  1.00  0.00     0.029 A 
ATOM     42  N   UNL     1     -11.046  -7.725   1.338  1.00  0.00    -0.354 N 
ATOM     43  C   UNL     1     -11.193  -7.254   5.689  1.00  0.00     0.074 A 
ATOM     44  C   UNL     1     -10.712  -5.948   6.075  1.00  0.00     0.031 C 
ATOM     45  C   UNL     1     -10.543  -7.087  -0.748  1.00  0.00     0.029 A 
ATOM     46  C   UNL     1     -11.070  -8.191   0.047  1.00  0.00     0.049 A 
ATOM     47  H   UNL     1     -11.346  -8.258   2.110  1.00  0.00     0.167 HD
ATOM     48  C   UNL     1     -11.633  -8.195   6.555  1.00  0.00     0.037 A 
ATOM     49  C   UNL     1     -11.482  -9.380  -0.426  1.00  0.00     0.037 A 
ATOM     50  C   UNL     1     -12.157  -9.466   6.138  1.00  0.00     0.049 A 
ATOM     51  C   UNL     1     -12.024 -10.386   0.553  1.00  0.00     0.074 A 
ATOM     52  C   UNL     1     -12.692 -10.479   6.909  1.00  0.00     0.029 A 
ATOM     53  N   UNL     1     -12.221  -9.887   4.815  1.00  0.00    -0.354 N 
ATOM     54  N   UNL     1     -12.125 -10.297   1.858  1.00  0.00    -0.248 NA
ATOM     55  C   UNL     1     -12.521 -11.649  -0.005  1.00  0.00     0.031 C 
ATOM     56  C   UNL     1     -13.057 -11.526   6.054  1.00  0.00     0.029 A 
ATOM     57  C   UNL     1     -12.784 -11.148   4.748  1.00  0.00     0.049 A 
ATOM     58  H   UNL     1     -11.911  -9.364   4.040  1.00  0.00     0.167 HD
ATOM     59  C   UNL     1     -12.718 -11.479   2.278  1.00  0.00     0.074 A 
ATOM     60  C   UNL     1     -12.968 -12.262   1.083  1.00  0.00     0.031 C 
ATOM     61  C   UNL     1     -13.026 -11.886   3.534  1.00  0.00     0.037 A 
BRANCH  48  62
ATOM     62  C   UNL     1     -11.564  -7.873   8.019  1.00  0.00     0.064 A 
ATOM     63  C   UNL     1     -12.384  -6.892   8.598  1.00  0.00     0.173 A 
ATOM     64  C   UNL     1     -10.659  -8.545   8.854  1.00  0.00     0.173 A 
ATOM     65  F   UNL     1     -13.253  -6.205   7.841  1.00  0.00    -0.203 F 
ATOM     66  C   UNL     1     -12.275  -6.571   9.949  1.00  0.00     0.198 A 
ATOM     67  C   UNL     1     -10.575  -8.243  10.211  1.00  0.00     0.198 A 
ATOM     68  F   UNL     1      -9.850  -9.491   8.353  1.00  0.00    -0.203 F 
ATOM     69  F   UNL     1     -13.025  -5.587  10.464  1.00  0.00    -0.200 F 
ATOM     70  C   UNL     1     -11.375  -7.250  10.755  1.00  0.00     0.200 A 
ATOM     71  F   UNL     1      -9.710  -8.906  10.991  1.00  0.00    -0.200 F 
ATOM     72  F   UNL     1     -11.270  -6.939  12.054  1.00  0.00    -0.200 F 
ENDBRANCH  48  62
BRANCH  49  73
ATOM     73  C   UNL     1     -11.449  -9.650  -1.885  1.00  0.00     0.064 A 
ATOM     74  C   UNL     1     -12.636  -9.714  -2.629  1.00  0.00     0.173 A 
ATOM     75  C   UNL     1     -10.239  -9.823  -2.572  1.00  0.00     0.173 A 
ATOM     76  F   UNL     1     -13.819  -9.566  -2.015  1.00  0.00    -0.203 F 
ATOM     77  C   UNL     1     -12.615  -9.961  -4.000  1.00  0.00     0.198 A 
ATOM     78  C   UNL     1     -10.218 -10.045  -3.948  1.00  0.00     0.198 A 
ATOM     79  F   UNL     1      -9.075  -9.759  -1.909  1.00  0.00    -0.203 F 
ATOM     80  F   UNL     1     -13.766 -10.052  -4.680  1.00  0.00    -0.200 F 
ATOM     81  C   UNL     1     -11.406 -10.120  -4.660  1.00  0.00     0.200 A 
ATOM     82  F   UNL     1      -9.047 -10.183  -4.585  1.00  0.00    -0.200 F 
ATOM     83  F   UNL     1     -11.386 -10.350  -5.980  1.00  0.00    -0.200 F 
ENDBRANCH  49  73
BRANCH  61  84
ATOM     84  C   UNL     1     -13.695 -13.219   3.668  1.00  0.00     0.064 A 
ATOM     85  C   UNL     1     -12.981 -14.414   3.505  1.00  0.00     0.173 A 
ATOM     86  C   UNL     1     -15.052 -13.297   4.012  1.00  0.00     0.173 A 
ATOM     87  F   UNL     1     -11.685 -14.385   3.161  1.00  0.00    -0.203 F 
ATOM     88  C   UNL     1     -13.610 -15.645   3.663  1.00  0.00     0.198 A 
ATOM     89  C   UNL     1     -15.670 -14.530   4.196  1.00  0.00     0.198 A 
ATOM     90  F   UNL     1     -15.772 -12.179   4.185  1.00  0.00    -0.203 F 
ATOM     91  F   UNL     1     -12.921 -16.776   3.463  1.00  0.00    -0.200 F 
ATOM     92  C   UNL     1     -14.950 -15.702   4.015  1.00  0.00     0.200 A 
ATOM     93  F   UNL     1     -16.962 -14.584   4.548  1.00  0.00    -0.200 F 
ATOM     94  F   UNL     1     -15.552 -16.888   4.175  1.00  0.00    -0.200 F 
ENDBRANCH  61  84
ENDBRANCH  35  36
ENDBRANCH  27  30
ENDBRANCH  25  26
ENDBRANCH   1  25
TORSDOF 12
