REMARK SMILES CC(C)CCn1nc(C(=O)NCCCNC(=O)c2ccc(-c3c4nc(c(-c5c(F)c(F)c(F)c(F)c5F)c5ccc([nH]5)c(-c5c(F)c(F)c(F)c(F)c5F)c5nc(c(-c6c(F)c(F)c(F)c(F)c6F)c6ccc3[nH]6)C=C5)C=C4)cc2)c2c1CCN(C(=O)[C@@H]1CCc3nn(C)c(=O)n3C1)C2
REMARK SMILES IDX 12 1 11 2 9 3 10 4 8 6 6 7 7 8 82 9 81 10 83 11 99 12 84 13
REMARK SMILES IDX 85 14 5 15 4 16 2 17 1 18 3 19 86 20 87 21 88 22 89 23 98 24
REMARK SMILES IDX 90 25 97 26 91 27 95 28 92 29 93 30 96 31 94 32 13 33 14 34
REMARK SMILES IDX 15 35 16 36 17 38 18 39 19 40 80 41 20 42 79 43 21 44 22 45
REMARK SMILES IDX 23 46 73 47 24 48 78 49 72 50 74 51 25 52 77 53 71 54 70 55
REMARK SMILES IDX 26 57 58 58 38 59 57 60 39 61 42 62 56 63 75 64 40 65 41 66
REMARK SMILES IDX 55 68 76 69 43 70 27 71 28 72 36 73 29 74 30 75 34 76 37 77
REMARK SMILES IDX 31 78 32 79 35 80 33 81 59 82 60 83 68 84 61 85 62 86 66 87
REMARK SMILES IDX 69 88 63 89 64 90 67 91 65 92 44 93 45 94 53 95 46 96 47 97
REMARK SMILES IDX 51 98 54 99 48 100 49 101 52 102 50 103
REMARK H PARENT 11 5 15 37 74 56 42 67
REMARK Flexibility Score: inf
ROOT
ATOM      1  C   UNL     1       0.685  -6.727  -4.069  1.00  0.00     0.118 C 
ENDROOT
BRANCH   1   2
ATOM      2  N   UNL     1       0.518  -5.465  -4.799  1.00  0.00    -0.351 N 
ATOM      3  C   UNL     1       0.164  -4.163  -4.459  1.00  0.00     0.272 C 
ATOM      4  O   UNL     1       0.389  -3.330  -5.343  1.00  0.00    -0.267 OA
ATOM      5  H   UNL     1       0.700  -5.562  -5.761  1.00  0.00     0.163 HD
BRANCH   3   6
ATOM      6  C   UNL     1      -0.431  -3.764  -3.153  1.00  0.00     0.155 A 
ATOM      7  N   UNL     1      -0.973  -2.478  -1.503  1.00  0.00    -0.268 N 
ATOM      8  N   UNL     1      -0.311  -2.494  -2.684  1.00  0.00    -0.167 NA
ATOM      9  C   UNL     1      -1.335  -3.723  -1.112  1.00  0.00     0.046 A 
ATOM     10  C   UNL     1      -1.249  -4.483  -2.248  1.00  0.00     0.026 A 
ATOM     11  C   UNL     1      -1.827  -4.242   0.187  1.00  0.00     0.078 C 
ATOM     12  C   UNL     1      -1.833  -5.816  -2.326  1.00  0.00     0.159 C 
ATOM     13  C   UNL     1      -1.804  -5.787   0.083  1.00  0.00     0.126 C 
ATOM     14  N   UNL     1      -2.494  -6.274  -1.120  1.00  0.00    -0.338 N 
BRANCH   7  15
ATOM     15  C   UNL     1      -1.403  -1.224  -0.915  1.00  0.00     0.145 C 
BRANCH  15  16
ATOM     16  C   UNL     1      -0.940  -1.004   0.524  1.00  0.00     0.027 C 
BRANCH  16  17
ATOM     17  C   UNL     1       0.587  -1.046   0.692  1.00  0.00    -0.016 C 
ATOM     18  C   UNL     1       1.242   0.171   0.040  1.00  0.00     0.007 C 
ATOM     19  C   UNL     1       0.950  -1.122   2.174  1.00  0.00     0.007 C 
ENDBRANCH  16  17
ENDBRANCH  15  16
ENDBRANCH   7  15
BRANCH  14  20
ATOM     20  C   UNL     1      -3.313  -7.374  -1.317  1.00  0.00     0.227 C 
ATOM     21  O   UNL     1      -3.405  -7.862  -2.457  1.00  0.00    -0.274 OA
BRANCH  20  22
ATOM     22  C   UNL     1      -4.196  -8.028  -0.252  1.00  0.00     0.099 C 
ATOM     23  C   UNL     1      -5.369  -7.166   0.210  1.00  0.00     0.023 C 
ATOM     24  C   UNL     1      -3.486  -8.718   0.897  1.00  0.00     0.142 C 
ATOM     25  C   UNL     1      -5.002  -6.168   1.294  1.00  0.00     0.078 C 
ATOM     26  N   UNL     1      -3.354  -7.865   2.051  1.00  0.00    -0.278 N 
ATOM     27  C   UNL     1      -3.961  -6.677   2.251  1.00  0.00     0.133 A 
ATOM     28  C   UNL     1      -2.287  -7.909   2.915  1.00  0.00     0.345 A 
ATOM     29  N   UNL     1      -3.417  -5.939   3.177  1.00  0.00    -0.155 NA
ATOM     30  N   UNL     1      -2.342  -6.694   3.609  1.00  0.00    -0.216 N 
ATOM     31  O   UNL     1      -1.393  -8.739   2.935  1.00  0.00    -0.246 OA
ATOM     32  C   UNL     1      -1.215  -6.107   4.284  1.00  0.00     0.179 C 
ENDBRANCH  20  22
ENDBRANCH  14  20
ENDBRANCH   3   6
ENDBRANCH   1   2
BRANCH   1  33
ATOM     33  C   UNL     1      -0.562  -7.636  -4.122  1.00  0.00     0.042 C 
BRANCH  33  34
ATOM     34  C   UNL     1      -0.556  -8.791  -5.067  1.00  0.00     0.118 C 
BRANCH  34  35
ATOM     35  N   UNL     1       0.060 -10.004  -4.511  1.00  0.00    -0.352 N 
ATOM     36  C   UNL     1       0.134 -11.254  -5.128  1.00  0.00     0.251 C 
ATOM     37  H   UNL     1       0.461  -9.928  -3.615  1.00  0.00     0.163 HD
ATOM     38  O   UNL     1       0.271 -12.279  -4.495  1.00  0.00    -0.269 OA
BRANCH  36  39
ATOM     39  C   UNL     1       0.014 -11.265  -6.599  1.00  0.00     0.039 A 
ATOM     40  C   UNL     1      -0.743 -12.192  -7.312  1.00  0.00     0.014 A 
ATOM     41  C   UNL     1       0.541 -10.155  -7.229  1.00  0.00     0.014 A 
ATOM     42  C   UNL     1      -1.031 -11.896  -8.644  1.00  0.00     0.010 A 
ATOM     43  C   UNL     1      -0.131  -9.686  -8.310  1.00  0.00     0.010 A 
ATOM     44  C   UNL     1      -0.747 -10.605  -9.123  1.00  0.00    -0.014 A 
BRANCH  44  45
ATOM     45  C   UNL     1      -1.073 -10.138 -10.457  1.00  0.00     0.031 A 
ATOM     46  C   UNL     1      -2.441 -10.462 -10.898  1.00  0.00     0.074 A 
ATOM     47  C   UNL     1      -0.258  -9.354 -11.201  1.00  0.00     0.049 A 
ATOM     48  N   UNL     1      -2.775 -11.427 -11.683  1.00  0.00    -0.248 NA
ATOM     49  C   UNL     1      -3.573  -9.762 -10.281  1.00  0.00     0.031 C 
ATOM     50  C   UNL     1       0.995  -8.670 -10.841  1.00  0.00     0.029 A 
ATOM     51  N   UNL     1      -0.437  -8.962 -12.489  1.00  0.00    -0.354 N 
ATOM     52  C   UNL     1      -4.150 -11.341 -11.828  1.00  0.00     0.074 A 
ATOM     53  C   UNL     1      -4.604 -10.430 -10.808  1.00  0.00     0.031 C 
ATOM     54  C   UNL     1       1.336  -7.790 -11.808  1.00  0.00     0.029 A 
ATOM     55  C   UNL     1       0.449  -7.991 -12.934  1.00  0.00     0.049 A 
ATOM     56  H   UNL     1      -1.142  -9.339 -13.064  1.00  0.00     0.167 HD
ATOM     57  C   UNL     1      -4.749 -11.854 -12.938  1.00  0.00     0.037 A 
ATOM     58  C   UNL     1       0.453  -7.405 -14.156  1.00  0.00     0.037 A 
ATOM     59  C   UNL     1      -3.841 -12.717 -13.660  1.00  0.00     0.049 A 
ATOM     60  C   UNL     1      -0.270  -8.323 -15.074  1.00  0.00     0.074 A 
ATOM     61  C   UNL     1      -3.154 -13.874 -13.343  1.00  0.00     0.029 A 
ATOM     62  N   UNL     1      -3.194 -12.194 -14.756  1.00  0.00    -0.354 N 
ATOM     63  N   UNL     1       0.187  -9.495 -15.424  1.00  0.00    -0.248 NA
ATOM     64  C   UNL     1      -1.710  -8.151 -15.200  1.00  0.00     0.031 C 
ATOM     65  C   UNL     1      -1.864 -13.712 -13.933  1.00  0.00     0.029 A 
ATOM     66  C   UNL     1      -1.863 -12.510 -14.642  1.00  0.00     0.049 A 
ATOM     67  H   UNL     1      -3.611 -11.687 -15.490  1.00  0.00     0.167 HD
ATOM     68  C   UNL     1      -0.921 -10.330 -15.390  1.00  0.00     0.074 A 
ATOM     69  C   UNL     1      -2.072  -9.431 -15.326  1.00  0.00     0.031 C 
ATOM     70  C   UNL     1      -0.793 -11.663 -15.121  1.00  0.00     0.037 A 
BRANCH  57  71
ATOM     71  C   UNL     1      -5.994 -11.296 -13.573  1.00  0.00     0.064 A 
ATOM     72  C   UNL     1      -6.584 -12.002 -14.640  1.00  0.00     0.173 A 
ATOM     73  C   UNL     1      -6.450  -9.973 -13.391  1.00  0.00     0.173 A 
ATOM     74  F   UNL     1      -6.219 -13.265 -14.908  1.00  0.00    -0.203 F 
ATOM     75  C   UNL     1      -7.489 -11.397 -15.513  1.00  0.00     0.198 A 
ATOM     76  C   UNL     1      -7.394  -9.390 -14.232  1.00  0.00     0.198 A 
ATOM     77  F   UNL     1      -5.924  -9.154 -12.474  1.00  0.00    -0.203 F 
ATOM     78  F   UNL     1      -7.919 -12.065 -16.592  1.00  0.00    -0.200 F 
ATOM     79  C   UNL     1      -7.886 -10.088 -15.314  1.00  0.00     0.200 A 
ATOM     80  F   UNL     1      -7.754  -8.114 -14.032  1.00  0.00    -0.200 F 
ATOM     81  F   UNL     1      -8.701  -9.483 -16.188  1.00  0.00    -0.200 F 
ENDBRANCH  57  71
BRANCH  58  82
ATOM     82  C   UNL     1       0.753  -5.995 -14.492  1.00  0.00     0.064 A 
ATOM     83  C   UNL     1       0.971  -5.598 -15.820  1.00  0.00     0.173 A 
ATOM     84  C   UNL     1       0.542  -4.962 -13.556  1.00  0.00     0.173 A 
ATOM     85  F   UNL     1       1.142  -6.519 -16.779  1.00  0.00    -0.203 F 
ATOM     86  C   UNL     1       0.942  -4.250 -16.197  1.00  0.00     0.198 A 
ATOM     87  C   UNL     1       0.516  -3.619 -13.933  1.00  0.00     0.198 A 
ATOM     88  F   UNL     1       0.258  -5.243 -12.276  1.00  0.00    -0.203 F 
ATOM     89  F   UNL     1       1.087  -3.914 -17.487  1.00  0.00    -0.200 F 
ATOM     90  C   UNL     1       0.701  -3.264 -15.256  1.00  0.00     0.200 A 
ATOM     91  F   UNL     1       0.244  -2.677 -13.018  1.00  0.00    -0.200 F 
ATOM     92  F   UNL     1       0.603  -1.980 -15.628  1.00  0.00    -0.200 F 
ENDBRANCH  58  82
BRANCH  70  93
ATOM     93  C   UNL     1       0.594 -12.249 -15.111  1.00  0.00     0.064 A 
ATOM     94  C   UNL     1       1.608 -11.870 -14.212  1.00  0.00     0.173 A 
ATOM     95  C   UNL     1       0.861 -13.336 -15.953  1.00  0.00     0.173 A 
ATOM     96  F   UNL     1       1.404 -10.908 -13.306  1.00  0.00    -0.203 F 
ATOM     97  C   UNL     1       2.841 -12.522 -14.192  1.00  0.00     0.198 A 
ATOM     98  C   UNL     1       2.080 -14.009 -15.906  1.00  0.00     0.198 A 
ATOM     99  F   UNL     1      -0.085 -13.780 -16.796  1.00  0.00    -0.203 F 
ATOM    100  F   UNL     1       3.795 -12.131 -13.332  1.00  0.00    -0.200 F 
ATOM    101  C   UNL     1       3.073 -13.595 -15.034  1.00  0.00     0.200 A 
ATOM    102  F   UNL     1       2.281 -15.077 -16.690  1.00  0.00    -0.200 F 
ATOM    103  F   UNL     1       4.244 -14.247 -14.989  1.00  0.00    -0.200 F 
ENDBRANCH  70  93
ENDBRANCH  44  45
ENDBRANCH  36  39
ENDBRANCH  34  35
ENDBRANCH  33  34
ENDBRANCH   1  33
TORSDOF 15
