REMARK SMILES [NH3+][C@H](C(=O)NCCCNC(=O)c1ccc(-c2c3nc(c(-c4c(F)c(F)c(F)c(F)c4F)c4ccc([nH]4)c(-c4c(F)c(F)c(F)c(F)c4F)c4nc(c(-c5c(F)c(F)c(F)c(F)c5F)c5ccc2[nH]5)C=C4)C=C3)cc1)c1cc2c(cc1Br)OCO2
REMARK SMILES IDX 7 1 6 2 5 3 3 4 4 5 2 7 1 8 75 12 76 13 80 14 77 15 79 16
REMARK SMILES IDX 81 17 78 18 84 19 82 20 83 21 8 22 9 23 10 24 11 26 12 27
REMARK SMILES IDX 13 28 74 29 14 30 73 31 15 32 16 33 17 34 67 35 18 36 72 37
REMARK SMILES IDX 66 38 68 39 19 40 71 41 65 42 64 43 20 45 52 46 32 47 51 48
REMARK SMILES IDX 33 49 36 50 50 51 69 52 34 53 35 54 49 56 70 57 37 58 21 59
REMARK SMILES IDX 22 60 30 61 23 62 24 63 28 64 31 65 25 66 26 67 29 68 27 69
REMARK SMILES IDX 53 70 54 71 62 72 55 73 56 74 60 75 63 76 57 77 58 78 61 79
REMARK SMILES IDX 59 80 38 81 39 82 47 83 40 84 41 85 45 86 48 87 42 88 43 89
REMARK SMILES IDX 46 90 44 91
REMARK H PARENT 5 6 1 9 1 10 1 11 9 25 68 44 36 55
REMARK Flexibility Score: inf
ROOT
ATOM      1  C   UNL     1      -1.493  -2.316   0.466  1.00  0.00     0.042 C 
ENDROOT
BRANCH   1   2
ATOM      2  C   UNL     1      -0.888  -1.089   1.145  1.00  0.00     0.118 C 
BRANCH   2   3
ATOM      3  N   UNL     1       0.495  -0.890   0.746  1.00  0.00    -0.351 N 
ATOM      4  C   UNL     1       1.089  -0.113  -0.200  1.00  0.00     0.283 C 
ATOM      5  O   UNL     1       2.309  -0.296  -0.341  1.00  0.00    -0.268 OA
ATOM      6  H   UNL     1       1.134  -1.428   1.267  1.00  0.00     0.163 HD
BRANCH   4   7
ATOM      7  C   UNL     1       0.391   1.036  -0.993  1.00  0.00     0.303 C 
BRANCH   7   8
ATOM      8  N   UNL     1       1.202   1.372  -2.187  1.00  0.00    -0.343 N 
ATOM      9  H   UNL     1       0.747   2.123  -2.707  1.00  0.00     0.345 HD
ATOM     10  H   UNL     1       1.286   0.549  -2.784  1.00  0.00     0.345 HD
ATOM     11  H   UNL     1       2.130   1.676  -1.894  1.00  0.00     0.345 HD
ENDBRANCH   7   8
BRANCH   7  12
ATOM     12  C   UNL     1      -1.074   0.867  -1.343  1.00  0.00     0.037 A 
ATOM     13  C   UNL     1      -1.989   1.695  -0.649  1.00  0.00     0.062 A 
ATOM     14  C   UNL     1      -1.589  -0.109  -2.234  1.00  0.00     0.031 A 
ATOM     15  C   UNL     1      -3.335   1.421  -0.744  1.00  0.00     0.166 A 
ATOM     16  C   UNL     1      -2.971  -0.332  -2.341  1.00  0.00     0.066 A 
ATOM     17  Br  UNL     1      -0.469  -1.233  -3.285  1.00  0.00    -0.050 Br
ATOM     18  C   UNL     1      -3.811   0.422  -1.552  1.00  0.00     0.166 A 
ATOM     19  O   UNL     1      -4.316   2.020  -0.018  1.00  0.00    -0.454 OA
ATOM     20  O   UNL     1      -5.157   0.265  -1.436  1.00  0.00    -0.454 OA
ATOM     21  C   UNL     1      -5.444   1.193  -0.367  1.00  0.00     0.468 C 
ENDBRANCH   7  12
ENDBRANCH   4   7
ENDBRANCH   2   3
ENDBRANCH   1   2
BRANCH   1  22
ATOM     22  C   UNL     1      -1.066  -3.634   1.104  1.00  0.00     0.118 C 
BRANCH  22  23
ATOM     23  N   UNL     1      -1.749  -3.870   2.367  1.00  0.00    -0.352 N 
ATOM     24  C   UNL     1      -2.588  -4.886   2.742  1.00  0.00     0.251 C 
ATOM     25  H   UNL     1      -1.583  -3.192   3.061  1.00  0.00     0.163 HD
ATOM     26  O   UNL     1      -3.243  -4.769   3.781  1.00  0.00    -0.269 OA
BRANCH  24  27
ATOM     27  C   UNL     1      -2.733  -6.114   1.927  1.00  0.00     0.039 A 
ATOM     28  C   UNL     1      -3.996  -6.711   1.837  1.00  0.00     0.014 A 
ATOM     29  C   UNL     1      -1.637  -6.722   1.309  1.00  0.00     0.014 A 
ATOM     30  C   UNL     1      -4.167  -7.883   1.096  1.00  0.00     0.010 A 
ATOM     31  C   UNL     1      -1.821  -7.853   0.511  1.00  0.00     0.010 A 
ATOM     32  C   UNL     1      -3.085  -8.451   0.404  1.00  0.00    -0.014 A 
BRANCH  32  33
ATOM     33  C   UNL     1      -3.263  -9.672  -0.425  1.00  0.00     0.031 A 
ATOM     34  C   UNL     1      -2.572 -10.955  -0.051  1.00  0.00     0.074 A 
ATOM     35  C   UNL     1      -4.012  -9.614  -1.544  1.00  0.00     0.049 A 
ATOM     36  N   UNL     1      -2.561 -12.104  -0.679  1.00  0.00    -0.248 NA
ATOM     37  C   UNL     1      -1.768 -10.939   1.181  1.00  0.00     0.031 C 
ATOM     38  C   UNL     1      -4.697  -8.420  -2.041  1.00  0.00     0.029 A 
ATOM     39  N   UNL     1      -4.313 -10.580  -2.472  1.00  0.00    -0.354 N 
ATOM     40  C   UNL     1      -1.742 -12.939   0.071  1.00  0.00     0.074 A 
ATOM     41  C   UNL     1      -1.236 -12.153   1.175  1.00  0.00     0.031 C 
ATOM     42  C   UNL     1      -5.354  -8.728  -3.171  1.00  0.00     0.029 A 
ATOM     43  C   UNL     1      -5.109 -10.130  -3.497  1.00  0.00     0.049 A 
ATOM     44  H   UNL     1      -3.990 -11.508  -2.408  1.00  0.00     0.167 HD
ATOM     45  C   UNL     1      -1.457 -14.248  -0.130  1.00  0.00     0.037 A 
ATOM     46  C   UNL     1      -5.582 -10.772  -4.582  1.00  0.00     0.037 A 
ATOM     47  C   UNL     1      -1.984 -15.039  -1.212  1.00  0.00     0.049 A 
ATOM     48  C   UNL     1      -5.254 -12.228  -4.777  1.00  0.00     0.074 A 
ATOM     49  C   UNL     1      -1.795 -16.386  -1.469  1.00  0.00     0.029 A 
ATOM     50  N   UNL     1      -2.806 -14.552  -2.217  1.00  0.00    -0.354 N 
ATOM     51  N   UNL     1      -4.528 -13.020  -4.027  1.00  0.00    -0.248 NA
ATOM     52  C   UNL     1      -5.819 -12.880  -5.966  1.00  0.00     0.031 C 
ATOM     53  C   UNL     1      -2.473 -16.706  -2.650  1.00  0.00     0.029 A 
ATOM     54  C   UNL     1      -3.120 -15.569  -3.105  1.00  0.00     0.049 A 
ATOM     55  H   UNL     1      -3.120 -13.621  -2.290  1.00  0.00     0.167 HD
ATOM     56  C   UNL     1      -4.568 -14.266  -4.638  1.00  0.00     0.074 A 
ATOM     57  C   UNL     1      -5.406 -14.130  -5.810  1.00  0.00     0.031 C 
ATOM     58  C   UNL     1      -3.962 -15.419  -4.263  1.00  0.00     0.037 A 
BRANCH  45  59
ATOM     59  C   UNL     1      -0.539 -14.919   0.850  1.00  0.00     0.064 A 
ATOM     60  C   UNL     1      -0.952 -15.213   2.158  1.00  0.00     0.173 A 
ATOM     61  C   UNL     1       0.748 -15.322   0.462  1.00  0.00     0.173 A 
ATOM     62  F   UNL     1      -2.169 -14.841   2.581  1.00  0.00    -0.203 F 
ATOM     63  C   UNL     1      -0.103 -15.865   3.048  1.00  0.00     0.198 A 
ATOM     64  C   UNL     1       1.585 -15.998   1.347  1.00  0.00     0.198 A 
ATOM     65  F   UNL     1       1.190 -15.072  -0.779  1.00  0.00    -0.203 F 
ATOM     66  F   UNL     1      -0.505 -16.099   4.305  1.00  0.00    -0.200 F 
ATOM     67  C   UNL     1       1.161 -16.264   2.640  1.00  0.00     0.200 A 
ATOM     68  F   UNL     1       2.801 -16.395   0.947  1.00  0.00    -0.200 F 
ATOM     69  F   UNL     1       1.973 -16.901   3.495  1.00  0.00    -0.200 F 
ENDBRANCH  45  59
BRANCH  46  70
ATOM     70  C   UNL     1      -6.434 -10.050  -5.562  1.00  0.00     0.064 A 
ATOM     71  C   UNL     1      -7.798 -10.349  -5.688  1.00  0.00     0.173 A 
ATOM     72  C   UNL     1      -5.903  -9.059  -6.399  1.00  0.00     0.173 A 
ATOM     73  F   UNL     1      -8.346 -11.305  -4.923  1.00  0.00    -0.203 F 
ATOM     74  C   UNL     1      -8.592  -9.702  -6.631  1.00  0.00     0.198 A 
ATOM     75  C   UNL     1      -6.705  -8.392  -7.323  1.00  0.00     0.198 A 
ATOM     76  F   UNL     1      -4.605  -8.732  -6.314  1.00  0.00    -0.203 F 
ATOM     77  F   UNL     1      -9.881 -10.043  -6.765  1.00  0.00    -0.200 F 
ATOM     78  C   UNL     1      -8.046  -8.720  -7.445  1.00  0.00     0.200 A 
ATOM     79  F   UNL     1      -6.177  -7.435  -8.098  1.00  0.00    -0.200 F 
ATOM     80  F   UNL     1      -8.811  -8.098  -8.352  1.00  0.00    -0.200 F 
ENDBRANCH  46  70
BRANCH  58  81
ATOM     81  C   UNL     1      -4.208 -16.630  -5.114  1.00  0.00     0.064 A 
ATOM     82  C   UNL     1      -3.634 -16.762  -6.387  1.00  0.00     0.173 A 
ATOM     83  C   UNL     1      -5.003 -17.683  -4.638  1.00  0.00     0.173 A 
ATOM     84  F   UNL     1      -2.879 -15.774  -6.892  1.00  0.00    -0.203 F 
ATOM     85  C   UNL     1      -3.869 -17.893  -7.163  1.00  0.00     0.198 A 
ATOM     86  C   UNL     1      -5.212 -18.825  -5.405  1.00  0.00     0.198 A 
ATOM     87  F   UNL     1      -5.569 -17.608  -3.424  1.00  0.00    -0.203 F 
ATOM     88  F   UNL     1      -3.350 -17.977  -8.396  1.00  0.00    -0.200 F 
ATOM     89  C   UNL     1      -4.652 -18.926  -6.670  1.00  0.00     0.200 A 
ATOM     90  F   UNL     1      -5.960 -19.828  -4.922  1.00  0.00    -0.200 F 
ATOM     91  F   UNL     1      -4.874 -20.016  -7.417  1.00  0.00    -0.200 F 
ENDBRANCH  58  81
ENDBRANCH  32  33
ENDBRANCH  24  27
ENDBRANCH  22  23
ENDBRANCH   1  22
TORSDOF 12
