REMARK SMILES COC[C@@H](NS(=O)(=O)c1ccc(C(=O)NCCCNC(=O)c2ccc(-c3c4nc(c(-c5c(F)c(F)c(F)c(F)c5F)c5ccc([nH]5)c(-c5c(F)c(F)c(F)c(F)c5F)c5nc(c(-c6c(F)c(F)c(F)c(F)c6F)c6ccc3[nH]6)C=C5)C=C4)cc2)cc1F)C(C)C
REMARK SMILES IDX 13 1 14 2 15 3 12 5 9 6 10 7 86 8 11 9 85 10 87 11 6 12 7 13
REMARK SMILES IDX 8 14 5 15 4 17 3 18 2 19 1 20 88 21 89 22 90 23 16 24 17 25
REMARK SMILES IDX 18 26 19 27 20 28 21 30 22 31 23 32 84 33 24 34 83 35 25 36
REMARK SMILES IDX 26 37 27 38 77 39 28 40 82 41 76 42 78 43 29 44 81 45 75 46
REMARK SMILES IDX 74 47 30 49 62 50 42 51 61 52 43 53 46 54 60 55 79 56 44 57
REMARK SMILES IDX 45 58 59 60 80 61 47 62 31 63 32 64 40 65 33 66 34 67 38 68
REMARK SMILES IDX 41 69 35 70 36 71 39 72 37 73 63 74 64 75 72 76 65 77 66 78
REMARK SMILES IDX 70 79 73 80 67 81 68 82 71 83 69 84 48 85 49 86 57 87 50 88
REMARK SMILES IDX 51 89 55 90 58 91 52 92 53 93 56 94 54 95
REMARK H PARENT 15 4 5 16 19 29 78 48 46 59
REMARK Flexibility Score: inf
ROOT
ATOM      1  C   UNL     1       2.167  -3.953   8.127  1.00  0.00     0.251 C 
ATOM      2  O   UNL     1       2.594  -2.947   8.692  1.00  0.00    -0.269 OA
ATOM      3  N   UNL     1       1.858  -5.047   8.890  1.00  0.00    -0.352 N 
ATOM      4  H   UNL     1       1.816  -4.863   9.857  1.00  0.00     0.163 HD
ENDROOT
BRANCH   1   5
ATOM      5  C   UNL     1       2.009  -3.923   6.654  1.00  0.00     0.042 A 
ATOM      6  C   UNL     1       1.595  -3.453   3.926  1.00  0.00     0.118 A 
ATOM      7  C   UNL     1       2.723  -2.919   4.557  1.00  0.00     0.026 A 
ATOM      8  C   UNL     1       0.722  -4.266   4.635  1.00  0.00     0.144 A 
ATOM      9  C   UNL     1       2.924  -3.151   5.919  1.00  0.00     0.015 A 
ATOM     10  C   UNL     1       0.905  -4.475   6.002  1.00  0.00     0.054 A 
ATOM     11  F   UNL     1      -0.348  -4.823   4.056  1.00  0.00    -0.205 F 
BRANCH   6  12
ATOM     12  S   UNL     1       1.205  -2.954   2.281  1.00  0.00     0.243 S 
ATOM     13  O   UNL     1      -0.197  -3.156   2.005  1.00  0.00    -0.207 OA
ATOM     14  O   UNL     1       2.243  -3.497   1.431  1.00  0.00    -0.207 OA
BRANCH  12  15
ATOM     15  N   UNL     1       1.484  -1.291   2.318  1.00  0.00    -0.205 NA
ATOM     16  H   UNL     1       2.225  -1.141   3.003  1.00  0.00     0.141 HD
BRANCH  15  17
ATOM     17  C   UNL     1       0.397  -0.314   2.652  1.00  0.00     0.098 C 
BRANCH  17  18
ATOM     18  C   UNL     1       0.643   0.978   1.822  1.00  0.00     0.180 C 
BRANCH  18  19
ATOM     19  O   UNL     1       0.146   0.906   0.480  1.00  0.00    -0.383 OA
ATOM     20  C   UNL     1       0.916   0.122  -0.414  1.00  0.00     0.194 C 
ENDBRANCH  18  19
ENDBRANCH  17  18
BRANCH  17  21
ATOM     21  C   UNL     1       0.401  -0.100   4.201  1.00  0.00     0.003 C 
ATOM     22  C   UNL     1       0.252   1.346   4.688  1.00  0.00     0.009 C 
ATOM     23  C   UNL     1      -0.714  -0.925   4.859  1.00  0.00     0.009 C 
ENDBRANCH  17  21
ENDBRANCH  15  17
ENDBRANCH  12  15
ENDBRANCH   6  12
ENDBRANCH   1   5
BRANCH   3  24
ATOM     24  C   UNL     1       1.580  -6.429   8.539  1.00  0.00     0.118 C 
BRANCH  24  25
ATOM     25  C   UNL     1       2.852  -7.245   8.340  1.00  0.00     0.042 C 
BRANCH  25  26
ATOM     26  C   UNL     1       3.656  -7.451   9.623  1.00  0.00     0.118 C 
BRANCH  26  27
ATOM     27  N   UNL     1       2.943  -8.273  10.592  1.00  0.00    -0.352 N 
ATOM     28  C   UNL     1       3.160  -9.562  11.005  1.00  0.00     0.251 C 
ATOM     29  H   UNL     1       2.177  -7.828  11.022  1.00  0.00     0.163 HD
ATOM     30  O   UNL     1       2.290 -10.142  11.650  1.00  0.00    -0.269 OA
BRANCH  28  31
ATOM     31  C   UNL     1       4.423 -10.268  10.694  1.00  0.00     0.039 A 
ATOM     32  C   UNL     1       4.371 -11.628  10.370  1.00  0.00     0.014 A 
ATOM     33  C   UNL     1       5.661  -9.629  10.809  1.00  0.00     0.014 A 
ATOM     34  C   UNL     1       5.550 -12.334  10.117  1.00  0.00     0.010 A 
ATOM     35  C   UNL     1       6.833 -10.317  10.500  1.00  0.00     0.010 A 
ATOM     36  C   UNL     1       6.789 -11.678  10.162  1.00  0.00    -0.014 A 
BRANCH  36  37
ATOM     37  C   UNL     1       8.056 -12.399   9.887  1.00  0.00     0.031 A 
ATOM     38  C   UNL     1       9.052 -12.615  10.991  1.00  0.00     0.074 A 
ATOM     39  C   UNL     1       8.338 -12.804   8.635  1.00  0.00     0.049 A 
ATOM     40  N   UNL     1      10.263 -13.108  10.929  1.00  0.00    -0.248 NA
ATOM     41  C   UNL     1       8.640 -12.200  12.341  1.00  0.00     0.031 C 
ATOM     42  C   UNL     1       7.464 -12.633   7.475  1.00  0.00     0.029 A 
ATOM     43  N   UNL     1       9.447 -13.433   8.129  1.00  0.00    -0.354 N 
ATOM     44  C   UNL     1      10.767 -13.032  12.220  1.00  0.00     0.074 A 
ATOM     45  C   UNL     1       9.741 -12.428  13.042  1.00  0.00     0.031 C 
ATOM     46  C   UNL     1       8.062 -13.160   6.394  1.00  0.00     0.029 A 
ATOM     47  C   UNL     1       9.374 -13.674   6.780  1.00  0.00     0.049 A 
ATOM     48  H   UNL     1      10.222 -13.687   8.681  1.00  0.00     0.167 HD
ATOM     49  C   UNL     1      11.975 -13.440  12.678  1.00  0.00     0.037 A 
ATOM     50  C   UNL     1      10.267 -14.240   5.947  1.00  0.00     0.037 A 
ATOM     51  C   UNL     1      12.977 -14.083  11.871  1.00  0.00     0.049 A 
ATOM     52  C   UNL     1      11.587 -14.711   6.485  1.00  0.00     0.074 A 
ATOM     53  C   UNL     1      14.211 -14.576  12.258  1.00  0.00     0.029 A 
ATOM     54  N   UNL     1      12.852 -14.333  10.513  1.00  0.00    -0.354 N 
ATOM     55  N   UNL     1      12.049 -14.644   7.709  1.00  0.00    -0.248 NA
ATOM     56  C   UNL     1      12.511 -15.334   5.526  1.00  0.00     0.031 C 
ATOM     57  C   UNL     1      14.842 -15.108  11.128  1.00  0.00     0.029 A 
ATOM     58  C   UNL     1      13.989 -14.969  10.045  1.00  0.00     0.049 A 
ATOM     59  H   UNL     1      12.071 -14.094   9.963  1.00  0.00     0.167 HD
ATOM     60  C   UNL     1      13.309 -15.223   7.673  1.00  0.00     0.074 A 
ATOM     61  C   UNL     1      13.537 -15.648   6.307  1.00  0.00     0.031 C 
ATOM     62  C   UNL     1      14.197 -15.386   8.683  1.00  0.00     0.037 A 
BRANCH  49  63
ATOM     63  C   UNL     1      12.280 -13.203  14.125  1.00  0.00     0.064 A 
ATOM     64  C   UNL     1      13.189 -12.205  14.506  1.00  0.00     0.173 A 
ATOM     65  C   UNL     1      11.706 -13.992  15.132  1.00  0.00     0.173 A 
ATOM     66  F   UNL     1      13.767 -11.427  13.578  1.00  0.00    -0.203 F 
ATOM     67  C   UNL     1      13.514 -12.007  15.845  1.00  0.00     0.198 A 
ATOM     68  C   UNL     1      12.017 -13.777  16.472  1.00  0.00     0.198 A 
ATOM     69  F   UNL     1      10.821 -14.949  14.817  1.00  0.00    -0.203 F 
ATOM     70  F   UNL     1      14.396 -11.058  16.186  1.00  0.00    -0.200 F 
ATOM     71  C   UNL     1      12.925 -12.790  16.827  1.00  0.00     0.200 A 
ATOM     72  F   UNL     1      11.431 -14.519  17.422  1.00  0.00    -0.200 F 
ATOM     73  F   UNL     1      13.227 -12.588  18.117  1.00  0.00    -0.200 F 
ENDBRANCH  49  63
BRANCH  50  74
ATOM     74  C   UNL     1       9.918 -14.414   4.516  1.00  0.00     0.064 A 
ATOM     75  C   UNL     1       9.906 -13.329   3.630  1.00  0.00     0.173 A 
ATOM     76  C   UNL     1       9.551 -15.672   4.021  1.00  0.00     0.173 A 
ATOM     77  F   UNL     1      10.248 -12.106   4.061  1.00  0.00    -0.203 F 
ATOM     78  C   UNL     1       9.523 -13.494   2.301  1.00  0.00     0.198 A 
ATOM     79  C   UNL     1       9.184 -15.839   2.689  1.00  0.00     0.198 A 
ATOM     80  F   UNL     1       9.566 -16.740   4.832  1.00  0.00    -0.203 F 
ATOM     81  F   UNL     1       9.496 -12.438   1.477  1.00  0.00    -0.200 F 
ATOM     82  C   UNL     1       9.164 -14.749   1.831  1.00  0.00     0.200 A 
ATOM     83  F   UNL     1       8.853 -17.055   2.235  1.00  0.00    -0.200 F 
ATOM     84  F   UNL     1       8.799 -14.908   0.551  1.00  0.00    -0.200 F 
ENDBRANCH  50  74
BRANCH  62  85
ATOM     85  C   UNL     1      15.492 -16.062   8.358  1.00  0.00     0.064 A 
ATOM     86  C   UNL     1      15.716 -17.392   8.742  1.00  0.00     0.173 A 
ATOM     87  C   UNL     1      16.535 -15.369   7.728  1.00  0.00     0.173 A 
ATOM     88  F   UNL     1      14.748 -18.092   9.351  1.00  0.00    -0.203 F 
ATOM     89  C   UNL     1      16.946 -18.002   8.514  1.00  0.00     0.198 A 
ATOM     90  C   UNL     1      17.758 -15.987   7.487  1.00  0.00     0.198 A 
ATOM     91  F   UNL     1      16.359 -14.099   7.333  1.00  0.00    -0.203 F 
ATOM     92  F   UNL     1      17.148 -19.268   8.906  1.00  0.00    -0.200 F 
ATOM     93  C   UNL     1      17.965 -17.300   7.887  1.00  0.00     0.200 A 
ATOM     94  F   UNL     1      18.736 -15.315   6.866  1.00  0.00    -0.200 F 
ATOM     95  F   UNL     1      19.147 -17.890   7.663  1.00  0.00    -0.200 F 
ENDBRANCH  62  85
ENDBRANCH  36  37
ENDBRANCH  28  31
ENDBRANCH  26  27
ENDBRANCH  25  26
ENDBRANCH  24  25
ENDBRANCH   3  24
TORSDOF 16
