REMARK SMILES COC(=O)c1sc(SCC(=O)NCCCNC(=O)c2ccc(-c3c4nc(c(-c5c(F)c(F)c(F)c(F)c5F)c5ccc([nH]5)c(-c5c(F)c(F)c(F)c(F)c5F)c5nc(c(-c6c(F)c(F)c(F)c(F)c6F)c6ccc3[nH]6)C=C5)C=C4)cc2)c(NC(=O)c2ccccc2)c1O
REMARK SMILES IDX 13 1 12 2 10 3 11 4 9 6 8 7 7 8 5 9 6 10 92 11 82 12 3 13
REMARK SMILES IDX 4 14 2 15 1 16 93 17 83 19 84 20 85 22 86 23 87 24 91 25
REMARK SMILES IDX 88 26 90 27 89 28 14 29 15 30 16 31 17 32 18 34 19 35 20 36
REMARK SMILES IDX 81 37 21 38 80 39 22 40 23 41 24 42 74 43 25 44 79 45 73 46
REMARK SMILES IDX 75 47 26 48 78 49 72 50 71 51 27 53 59 54 39 55 58 56 40 57
REMARK SMILES IDX 43 58 57 59 76 60 41 61 42 62 56 64 77 65 44 66 28 67 29 68
REMARK SMILES IDX 37 69 30 70 31 71 35 72 38 73 32 74 33 75 36 76 34 77 60 78
REMARK SMILES IDX 61 79 69 80 62 81 63 82 67 83 70 84 64 85 65 86 68 87 66 88
REMARK SMILES IDX 45 89 46 90 54 91 47 92 48 93 52 94 55 95 49 96 50 97 53 98
REMARK SMILES IDX 51 99
REMARK H PARENT 12 5 93 18 83 21 16 33 75 52 43 63
REMARK Flexibility Score: inf
ROOT
ATOM      1  C   UNL     1       0.349  -6.236   8.530  1.00  0.00     0.117 C 
ENDROOT
BRANCH   1   2
ATOM      2  N   UNL     1      -0.922  -5.891   7.920  1.00  0.00    -0.355 N 
ATOM      3  C   UNL     1      -1.578  -6.414   6.833  1.00  0.00     0.230 C 
ATOM      4  O   UNL     1      -2.748  -6.037   6.709  1.00  0.00    -0.274 OA
ATOM      5  H   UNL     1      -1.398  -5.151   8.363  1.00  0.00     0.163 HD
BRANCH   3   6
ATOM      6  C   UNL     1      -0.803  -7.611   5.801  1.00  0.00     0.175 C 
BRANCH   6   7
ATOM      7  S   UNL     1      -0.065  -7.431   3.355  1.00  0.00    -0.103 SA
BRANCH   7   8
ATOM      8  C   UNL     1      -0.236  -5.788   2.474  1.00  0.00     0.089 A 
ATOM      9  C   UNL     1       0.331  -3.683   1.234  1.00  0.00     0.157 A 
ATOM     10  S   UNL     1       1.152  -5.129   1.671  1.00  0.00    -0.116 S 
ATOM     11  C   UNL     1      -0.990  -3.748   1.616  1.00  0.00     0.166 A 
ATOM     12  C   UNL     1      -1.335  -4.942   2.311  1.00  0.00     0.109 A 
BRANCH   9  13
ATOM     13  C   UNL     1       1.044  -2.614   0.562  1.00  0.00     0.352 C 
ATOM     14  O   UNL     1       2.138  -2.684   0.018  1.00  0.00    -0.245 OA
BRANCH  13  15
ATOM     15  O   UNL     1       0.296  -1.466   0.637  1.00  0.00    -0.465 OA
ATOM     16  C   UNL     1       0.877  -0.302   0.038  1.00  0.00     0.282 C 
ENDBRANCH  13  15
ENDBRANCH   9  13
BRANCH  11  17
ATOM     17  O   UNL     1      -1.891  -2.759   1.414  1.00  0.00    -0.504 OA
ATOM     18  H   UNL     1      -1.639  -1.982   0.953  1.00  0.00     0.293 HD
ENDBRANCH  11  17
BRANCH  12  19
ATOM     19  N   UNL     1      -2.635  -5.100   2.781  1.00  0.00    -0.317 N 
ATOM     20  C   UNL     1      -3.058  -6.044   3.666  1.00  0.00     0.255 C 
ATOM     21  H   UNL     1      -3.312  -4.471   2.443  1.00  0.00     0.170 HD
ATOM     22  O   UNL     1      -4.228  -6.348   3.836  1.00  0.00    -0.269 OA
BRANCH  20  23
ATOM     23  C   UNL     1      -1.979  -6.723   4.382  1.00  0.00     0.040 A 
ATOM     24  C   UNL     1      -1.943  -8.508   4.247  1.00  0.00     0.014 A 
ATOM     25  C   UNL     1      -0.482  -5.804   4.931  1.00  0.00     0.014 A 
ATOM     26  C   UNL     1      -0.436  -9.383   4.660  1.00  0.00     0.001 A 
ATOM     27  C   UNL     1       1.022  -6.725   5.295  1.00  0.00     0.001 A 
ATOM     28  C   UNL     1       1.038  -8.509   5.149  1.00  0.00     0.000 A 
ENDBRANCH  20  23
ENDBRANCH  12  19
ENDBRANCH   7   8
ENDBRANCH   6   7
ENDBRANCH   3   6
ENDBRANCH   1   2
BRANCH   1  29
ATOM     29  C   UNL     1       1.487  -5.301   8.126  1.00  0.00     0.042 C 
BRANCH  29  30
ATOM     30  C   UNL     1       1.385  -3.943   8.763  1.00  0.00     0.118 C 
BRANCH  30  31
ATOM     31  N   UNL     1       1.567  -3.955  10.211  1.00  0.00    -0.352 N 
ATOM     32  C   UNL     1       1.730  -2.860  11.040  1.00  0.00     0.251 C 
ATOM     33  H   UNL     1       1.574  -4.839  10.645  1.00  0.00     0.163 HD
ATOM     34  O   UNL     1       2.207  -2.976  12.160  1.00  0.00    -0.269 OA
BRANCH  32  35
ATOM     35  C   UNL     1       1.306  -1.545  10.526  1.00  0.00     0.039 A 
ATOM     36  C   UNL     1       1.998  -0.367  10.796  1.00  0.00     0.014 A 
ATOM     37  C   UNL     1       0.210  -1.538   9.671  1.00  0.00     0.014 A 
ATOM     38  C   UNL     1       1.550   0.797  10.181  1.00  0.00     0.010 A 
ATOM     39  C   UNL     1       0.049  -0.510   8.800  1.00  0.00     0.010 A 
ATOM     40  C   UNL     1       0.564   0.704   9.177  1.00  0.00    -0.014 A 
BRANCH  40  41
ATOM     41  C   UNL     1       0.104   1.844   8.413  1.00  0.00     0.031 A 
ATOM     42  C   UNL     1       1.224   2.571   7.799  1.00  0.00     0.074 A 
ATOM     43  C   UNL     1      -1.193   2.139   8.169  1.00  0.00     0.049 A 
ATOM     44  N   UNL     1       1.793   3.613   8.294  1.00  0.00    -0.248 NA
ATOM     45  C   UNL     1       1.955   1.953   6.685  1.00  0.00     0.031 C 
ATOM     46  C   UNL     1      -2.410   1.369   8.452  1.00  0.00     0.029 A 
ATOM     47  N   UNL     1      -1.690   3.255   7.566  1.00  0.00    -0.354 N 
ATOM     48  C   UNL     1       2.809   3.937   7.415  1.00  0.00     0.074 A 
ATOM     49  C   UNL     1       3.006   2.773   6.590  1.00  0.00     0.031 C 
ATOM     50  C   UNL     1      -3.477   1.950   7.849  1.00  0.00     0.029 A 
ATOM     51  C   UNL     1      -3.055   3.221   7.288  1.00  0.00     0.049 A 
ATOM     52  H   UNL     1      -1.125   4.029   7.341  1.00  0.00     0.167 HD
ATOM     53  C   UNL     1       3.167   5.241   7.275  1.00  0.00     0.037 A 
ATOM     54  C   UNL     1      -3.770   4.194   6.662  1.00  0.00     0.037 A 
ATOM     55  C   UNL     1       2.655   6.026   8.381  1.00  0.00     0.049 A 
ATOM     56  C   UNL     1      -3.001   5.457   6.818  1.00  0.00     0.074 A 
ATOM     57  C   UNL     1       2.821   5.984   9.754  1.00  0.00     0.029 A 
ATOM     58  N   UNL     1       1.488   6.726   8.173  1.00  0.00    -0.354 N 
ATOM     59  N   UNL     1      -2.826   6.049   7.968  1.00  0.00    -0.248 NA
ATOM     60  C   UNL     1      -2.009   5.763   5.798  1.00  0.00     0.031 C 
ATOM     61  C   UNL     1       1.520   6.226  10.295  1.00  0.00     0.029 A 
ATOM     62  C   UNL     1       0.652   6.502   9.238  1.00  0.00     0.049 A 
ATOM     63  H   UNL     1       1.288   7.291   7.392  1.00  0.00     0.167 HD
ATOM     64  C   UNL     1      -1.490   6.423   7.969  1.00  0.00     0.074 A 
ATOM     65  C   UNL     1      -1.053   6.274   6.580  1.00  0.00     0.031 C 
ATOM     66  C   UNL     1      -0.790   6.521   9.138  1.00  0.00     0.037 A 
BRANCH  53  67
ATOM     67  C   UNL     1       3.568   5.864   5.961  1.00  0.00     0.064 A 
ATOM     68  C   UNL     1       3.962   7.216   5.955  1.00  0.00     0.173 A 
ATOM     69  C   UNL     1       3.294   5.305   4.693  1.00  0.00     0.173 A 
ATOM     70  F   UNL     1       4.238   7.852   7.104  1.00  0.00    -0.203 F 
ATOM     71  C   UNL     1       3.980   7.973   4.782  1.00  0.00     0.198 A 
ATOM     72  C   UNL     1       3.362   6.051   3.520  1.00  0.00     0.198 A 
ATOM     73  F   UNL     1       2.840   4.058   4.534  1.00  0.00    -0.203 F 
ATOM     74  F   UNL     1       4.226   9.288   4.846  1.00  0.00    -0.200 F 
ATOM     75  C   UNL     1       3.670   7.392   3.567  1.00  0.00     0.200 A 
ATOM     76  F   UNL     1       3.037   5.471   2.355  1.00  0.00    -0.200 F 
ATOM     77  F   UNL     1       3.619   8.130   2.451  1.00  0.00    -0.200 F 
ENDBRANCH  53  67
BRANCH  54  78
ATOM     78  C   UNL     1      -4.841   4.056   5.640  1.00  0.00     0.064 A 
ATOM     79  C   UNL     1      -5.613   5.164   5.243  1.00  0.00     0.173 A 
ATOM     80  C   UNL     1      -4.905   2.924   4.807  1.00  0.00     0.173 A 
ATOM     81  F   UNL     1      -5.574   6.302   5.952  1.00  0.00    -0.203 F 
ATOM     82  C   UNL     1      -6.369   5.153   4.064  1.00  0.00     0.198 A 
ATOM     83  C   UNL     1      -5.660   2.914   3.630  1.00  0.00     0.198 A 
ATOM     84  F   UNL     1      -4.151   1.845   5.060  1.00  0.00    -0.203 F 
ATOM     85  F   UNL     1      -7.032   6.254   3.681  1.00  0.00    -0.200 F 
ATOM     86  C   UNL     1      -6.379   4.032   3.251  1.00  0.00     0.200 A 
ATOM     87  F   UNL     1      -5.622   1.841   2.827  1.00  0.00    -0.200 F 
ATOM     88  F   UNL     1      -7.038   4.046   2.083  1.00  0.00    -0.200 F 
ENDBRANCH  54  78
BRANCH  66  89
ATOM     89  C   UNL     1      -1.573   6.468  10.425  1.00  0.00     0.064 A 
ATOM     90  C   UNL     1      -2.333   5.365  10.857  1.00  0.00     0.173 A 
ATOM     91  C   UNL     1      -1.451   7.545  11.313  1.00  0.00     0.173 A 
ATOM     92  F   UNL     1      -2.425   4.256  10.114  1.00  0.00    -0.203 F 
ATOM     93  C   UNL     1      -2.977   5.367  12.096  1.00  0.00     0.198 A 
ATOM     94  C   UNL     1      -2.064   7.530  12.563  1.00  0.00     0.198 A 
ATOM     95  F   UNL     1      -0.698   8.605  10.981  1.00  0.00    -0.203 F 
ATOM     96  F   UNL     1      -3.711   4.309  12.476  1.00  0.00    -0.200 F 
ATOM     97  C   UNL     1      -2.838   6.448  12.949  1.00  0.00     0.200 A 
ATOM     98  F   UNL     1      -1.886   8.559  13.402  1.00  0.00    -0.200 F 
ATOM     99  F   UNL     1      -3.429   6.439  14.152  1.00  0.00    -0.200 F 
ENDBRANCH  66  89
ENDBRANCH  40  41
ENDBRANCH  32  35
ENDBRANCH  30  31
ENDBRANCH  29  30
ENDBRANCH   1  29
TORSDOF 17
