REMARK SMILES CC[NH2+][C@]1(C(=O)NCCCNC(=O)c2ccc(-c3c4nc(c(-c5c(F)c(F)c(F)c(F)c5F)c5ccc([nH]5)c(-c5c(F)c(F)c(F)c(F)c5F)c5nc(c(-c6c(F)c(F)c(F)c(F)c6F)c6ccc3[nH]6)C=C5)C=C4)cc2)CC[C@@H]([N@@H+](CC)[C@@H](C)CC)C1
REMARK SMILES IDX 8 1 7 2 5 3 6 4 4 6 77 7 87 8 78 9 79 10 3 11 2 14 1 15
REMARK SMILES IDX 80 16 81 18 82 19 83 20 84 21 85 22 86 23 9 24 10 25 11 26
REMARK SMILES IDX 12 27 13 29 14 30 15 31 76 32 16 33 75 34 17 35 18 36 19 37
REMARK SMILES IDX 69 38 20 39 74 40 68 41 70 42 21 43 73 44 67 45 66 46 22 48
REMARK SMILES IDX 54 49 34 50 53 51 35 52 38 53 52 54 71 55 36 56 37 57 51 59
REMARK SMILES IDX 72 60 39 61 23 62 24 63 32 64 25 65 26 66 30 67 33 68 27 69
REMARK SMILES IDX 28 70 31 71 29 72 55 73 56 74 64 75 57 76 58 77 62 78 65 79
REMARK SMILES IDX 59 80 60 81 63 82 61 83 40 84 41 85 49 86 42 87 43 88 47 89
REMARK SMILES IDX 50 90 44 91 45 92 48 93 46 94
REMARK H PARENT 7 5 3 12 3 13 80 17 11 28 70 47 38 58
REMARK Flexibility Score: inf
ROOT
ATOM      1  C   UNL     1       2.252  -2.215  -3.072  1.00  0.00     0.118 C 
ENDROOT
BRANCH   1   2
ATOM      2  N   UNL     1       1.456  -1.429  -2.146  1.00  0.00    -0.351 N 
ATOM      3  C   UNL     1       1.011  -0.144  -2.196  1.00  0.00     0.281 C 
ATOM      4  O   UNL     1       0.919   0.401  -1.085  1.00  0.00    -0.268 OA
ATOM      5  H   UNL     1       1.188  -1.915  -1.333  1.00  0.00     0.163 HD
BRANCH   3   6
ATOM      6  C   UNL     1       0.455   0.577  -3.474  1.00  0.00     0.181 C 
ATOM      7  C   UNL     1       0.729   2.089  -3.310  1.00  0.00     0.085 C 
ATOM      8  C   UNL     1       1.145   0.301  -4.826  1.00  0.00     0.144 C 
ATOM      9  C   UNL     1       0.625   2.692  -4.699  1.00  0.00     0.072 C 
ATOM     10  C   UNL     1       1.172   1.620  -5.644  1.00  0.00     0.191 C 
BRANCH   6  11
ATOM     11  N   UNL     1      -1.002   0.276  -3.629  1.00  0.00    -0.334 N 
ATOM     12  H   UNL     1      -1.359   0.825  -4.411  1.00  0.00     0.347 HD
ATOM     13  H   UNL     1      -1.074  -0.731  -3.781  1.00  0.00     0.347 HD
BRANCH  11  14
ATOM     14  C   UNL     1      -1.819   0.578  -2.446  1.00  0.00     0.257 C 
ATOM     15  C   UNL     1      -3.293   0.360  -2.756  1.00  0.00     0.071 C 
ENDBRANCH  11  14
ENDBRANCH   6  11
BRANCH  10  16
ATOM     16  N   UNL     1       2.409   1.905  -6.399  1.00  0.00    -0.330 N 
ATOM     17  H   UNL     1       2.588   0.910  -6.533  1.00  0.00     0.348 HD
BRANCH  16  18
ATOM     18  C   UNL     1       2.195   2.640  -7.656  1.00  0.00     0.259 C 
ATOM     19  C   UNL     1       1.727   4.085  -7.537  1.00  0.00     0.071 C 
ENDBRANCH  16  18
BRANCH  16  20
ATOM     20  C   UNL     1       3.736   2.149  -5.798  1.00  0.00     0.180 C 
ATOM     21  C   UNL     1       3.865   3.308  -4.805  1.00  0.00     0.075 C 
BRANCH  20  22
ATOM     22  C   UNL     1       4.399   0.892  -5.200  1.00  0.00     0.061 C 
ATOM     23  C   UNL     1       4.484  -0.274  -6.180  1.00  0.00     0.010 C 
ENDBRANCH  20  22
ENDBRANCH  16  20
ENDBRANCH  10  16
ENDBRANCH   3   6
ENDBRANCH   1   2
BRANCH   1  24
ATOM     24  C   UNL     1       3.743  -1.909  -2.886  1.00  0.00     0.042 C 
BRANCH  24  25
ATOM     25  C   UNL     1       4.376  -2.559  -1.656  1.00  0.00     0.118 C 
BRANCH  25  26
ATOM     26  N   UNL     1       4.633  -3.976  -1.861  1.00  0.00    -0.352 N 
ATOM     27  C   UNL     1       5.790  -4.663  -2.138  1.00  0.00     0.251 C 
ATOM     28  H   UNL     1       3.834  -4.545  -1.788  1.00  0.00     0.163 HD
ATOM     29  O   UNL     1       5.698  -5.827  -2.524  1.00  0.00    -0.269 OA
BRANCH  27  30
ATOM     30  C   UNL     1       7.140  -4.060  -1.989  1.00  0.00     0.039 A 
ATOM     31  C   UNL     1       8.161  -4.499  -2.844  1.00  0.00     0.014 A 
ATOM     32  C   UNL     1       7.455  -3.165  -0.965  1.00  0.00     0.014 A 
ATOM     33  C   UNL     1       9.469  -4.022  -2.696  1.00  0.00     0.010 A 
ATOM     34  C   UNL     1       8.741  -2.624  -0.870  1.00  0.00     0.010 A 
ATOM     35  C   UNL     1       9.769  -3.061  -1.720  1.00  0.00    -0.014 A 
BRANCH  35  36
ATOM     36  C   UNL     1      11.151  -2.532  -1.542  1.00  0.00     0.031 A 
ATOM     37  C   UNL     1      11.883  -2.747  -0.242  1.00  0.00     0.074 A 
ATOM     38  C   UNL     1      11.729  -1.805  -2.518  1.00  0.00     0.049 A 
ATOM     39  N   UNL     1      13.034  -2.263   0.156  1.00  0.00    -0.248 NA
ATOM     40  C   UNL     1      11.216  -3.596   0.758  1.00  0.00     0.031 C 
ATOM     41  C   UNL     1      11.123  -1.493  -3.812  1.00  0.00     0.029 A 
ATOM     42  N   UNL     1      12.952  -1.181  -2.566  1.00  0.00    -0.354 N 
ATOM     43  C   UNL     1      13.209  -2.718   1.457  1.00  0.00     0.074 A 
ATOM     44  C   UNL     1      12.029  -3.483   1.798  1.00  0.00     0.031 C 
ATOM     45  C   UNL     1      11.980  -0.753  -4.533  1.00  0.00     0.029 A 
ATOM     46  C   UNL     1      13.179  -0.501  -3.738  1.00  0.00     0.049 A 
ATOM     47  H   UNL     1      13.605  -1.218  -1.830  1.00  0.00     0.167 HD
ATOM     48  C   UNL     1      14.264  -2.532   2.287  1.00  0.00     0.037 A 
ATOM     49  C   UNL     1      14.228   0.250  -4.125  1.00  0.00     0.037 A 
ATOM     50  C   UNL     1      15.461  -1.815   1.932  1.00  0.00     0.049 A 
ATOM     51  C   UNL     1      15.396   0.425  -3.193  1.00  0.00     0.074 A 
ATOM     52  C   UNL     1      16.611  -1.629   2.680  1.00  0.00     0.029 A 
ATOM     53  N   UNL     1      15.664  -1.171   0.720  1.00  0.00    -0.354 N 
ATOM     54  N   UNL     1      15.567  -0.047  -1.982  1.00  0.00    -0.248 NA
ATOM     55  C   UNL     1      16.521   1.234  -3.684  1.00  0.00     0.031 C 
ATOM     56  C   UNL     1      17.496  -0.843   1.934  1.00  0.00     0.029 A 
ATOM     57  C   UNL     1      16.915  -0.577   0.705  1.00  0.00     0.049 A 
ATOM     58  H   UNL     1      15.015  -1.142  -0.019  1.00  0.00     0.167 HD
ATOM     59  C   UNL     1      16.824   0.383  -1.579  1.00  0.00     0.074 A 
ATOM     60  C   UNL     1      17.379   1.144  -2.678  1.00  0.00     0.031 C 
ATOM     61  C   UNL     1      17.460   0.166  -0.402  1.00  0.00     0.037 A 
BRANCH  48  62
ATOM     62  C   UNL     1      14.176  -3.119   3.667  1.00  0.00     0.064 A 
ATOM     63  C   UNL     1      14.237  -4.504   3.885  1.00  0.00     0.173 A 
ATOM     64  C   UNL     1      14.067  -2.284   4.790  1.00  0.00     0.173 A 
ATOM     65  F   UNL     1      14.332  -5.347   2.845  1.00  0.00    -0.203 F 
ATOM     66  C   UNL     1      14.159  -5.032   5.171  1.00  0.00     0.198 A 
ATOM     67  C   UNL     1      14.020  -2.814   6.077  1.00  0.00     0.198 A 
ATOM     68  F   UNL     1      14.014  -0.952   4.640  1.00  0.00    -0.203 F 
ATOM     69  F   UNL     1      14.168  -6.360   5.349  1.00  0.00    -0.200 F 
ATOM     70  C   UNL     1      14.058  -4.187   6.266  1.00  0.00     0.200 A 
ATOM     71  F   UNL     1      13.936  -1.996   7.135  1.00  0.00    -0.200 F 
ATOM     72  F   UNL     1      13.989  -4.697   7.503  1.00  0.00    -0.200 F 
ENDBRANCH  48  62
BRANCH  49  73
ATOM     73  C   UNL     1      14.231   0.877  -5.472  1.00  0.00     0.064 A 
ATOM     74  C   UNL     1      15.090   0.413  -6.477  1.00  0.00     0.173 A 
ATOM     75  C   UNL     1      13.380   1.948  -5.783  1.00  0.00     0.173 A 
ATOM     76  F   UNL     1      15.938  -0.594  -6.220  1.00  0.00    -0.203 F 
ATOM     77  C   UNL     1      15.110   1.005  -7.738  1.00  0.00     0.198 A 
ATOM     78  C   UNL     1      13.382   2.522  -7.053  1.00  0.00     0.198 A 
ATOM     79  F   UNL     1      12.537   2.427  -4.857  1.00  0.00    -0.203 F 
ATOM     80  F   UNL     1      15.970   0.568  -8.668  1.00  0.00    -0.200 F 
ATOM     81  C   UNL     1      14.251   2.055  -8.027  1.00  0.00     0.200 A 
ATOM     82  F   UNL     1      12.542   3.528  -7.332  1.00  0.00    -0.200 F 
ATOM     83  F   UNL     1      14.267   2.620  -9.241  1.00  0.00    -0.200 F 
ENDBRANCH  49  73
BRANCH  61  84
ATOM     84  C   UNL     1      18.844   0.725  -0.254  1.00  0.00     0.064 A 
ATOM     85  C   UNL     1      19.069   2.098  -0.078  1.00  0.00     0.173 A 
ATOM     86  C   UNL     1      19.956  -0.131  -0.246  1.00  0.00     0.173 A 
ATOM     87  F   UNL     1      18.039   2.957  -0.094  1.00  0.00    -0.203 F 
ATOM     88  C   UNL     1      20.359   2.596   0.080  1.00  0.00     0.198 A 
ATOM     89  C   UNL     1      21.242   0.368  -0.062  1.00  0.00     0.198 A 
ATOM     90  F   UNL     1      19.793  -1.453  -0.405  1.00  0.00    -0.203 F 
ATOM     91  F   UNL     1      20.555   3.916   0.205  1.00  0.00    -0.200 F 
ATOM     92  C   UNL     1      21.444   1.731   0.095  1.00  0.00     0.200 A 
ATOM     93  F   UNL     1      22.288  -0.470  -0.036  1.00  0.00    -0.200 F 
ATOM     94  F   UNL     1      22.684   2.212   0.254  1.00  0.00    -0.200 F 
ENDBRANCH  61  84
ENDBRANCH  35  36
ENDBRANCH  27  30
ENDBRANCH  25  26
ENDBRANCH  24  25
ENDBRANCH   1  24
TORSDOF 16
