REMARK SMILES O=C(COCC[NH+]1CCCC1)NCCCNC(=O)c1ccc(-c2c3nc(c(-c4c(F)c(F)c(F)c(F)c4F)c4ccc([nH]4)c(-c4c(F)c(F)c(F)c(F)c4F)c4nc(c(-c5c(F)c(F)c(F)c(F)c5F)c5ccc2[nH]5)C=C4)C=C3)cc1
REMARK SMILES IDX 13 1 12 2 1 3 2 4 3 6 4 7 5 8 6 9 7 10 8 11 11 12 9 14 10 15
REMARK SMILES IDX 14 16 15 17 16 18 17 19 18 21 19 22 20 23 81 24 21 25 80 26
REMARK SMILES IDX 22 27 23 28 24 29 74 30 25 31 79 32 73 33 75 34 26 35 78 36
REMARK SMILES IDX 72 37 71 38 27 40 59 41 39 42 58 43 40 44 43 45 57 46 76 47
REMARK SMILES IDX 41 48 42 49 56 51 77 52 44 53 28 54 29 55 37 56 30 57 31 58
REMARK SMILES IDX 35 59 38 60 32 61 33 62 36 63 34 64 60 65 61 66 69 67 62 68
REMARK SMILES IDX 63 69 67 70 70 71 64 72 65 73 68 74 66 75 45 76 46 77 54 78
REMARK SMILES IDX 47 79 48 80 52 81 55 82 49 83 50 84 53 85 51 86
REMARK H PARENT 12 5 7 13 16 20 75 39 43 50
REMARK Flexibility Score: inf
ROOT
ATOM      1  C   UNL     1       2.447   2.189  -1.309  1.00  0.00     0.117 C 
ENDROOT
BRANCH   1   2
ATOM      2  N   UNL     1       3.387   1.108  -1.079  1.00  0.00    -0.354 N 
ATOM      3  O   UNL     1       3.232   1.020   1.209  1.00  0.00    -0.272 OA
ATOM      4  C   UNL     1       3.573   0.508   0.147  1.00  0.00     0.246 C 
ATOM      5  H   UNL     1       3.921   0.785  -1.841  1.00  0.00     0.163 HD
BRANCH   4   6
ATOM      6  C   UNL     1       4.243  -0.876   0.087  1.00  0.00     0.260 C 
BRANCH   6   7
ATOM      7  O   UNL     1       4.312  -1.547  -1.159  1.00  0.00    -0.366 OA
BRANCH   7   8
ATOM      8  C   UNL     1       3.079  -1.988  -1.732  1.00  0.00     0.222 C 
BRANCH   8   9
ATOM      9  C   UNL     1       2.386  -3.200  -1.065  1.00  0.00     0.291 C 
BRANCH   9  10
ATOM     10  N   UNL     1       1.149  -3.042  -0.288  1.00  0.00    -0.333 N 
ATOM     11  C   UNL     1       0.163  -2.081  -0.774  1.00  0.00     0.262 C 
ATOM     12  C   UNL     1       1.314  -2.815   1.145  1.00  0.00     0.262 C 
ATOM     13  H   UNL     1       0.778  -3.979  -0.448  1.00  0.00     0.348 HD
ATOM     14  C   UNL     1       0.367  -0.856   0.093  1.00  0.00     0.067 C 
ATOM     15  C   UNL     1       0.791  -1.415   1.437  1.00  0.00     0.067 C 
ENDBRANCH   9  10
ENDBRANCH   8   9
ENDBRANCH   7   8
ENDBRANCH   6   7
ENDBRANCH   4   6
ENDBRANCH   1   2
BRANCH   1  16
ATOM     16  C   UNL     1       2.622   3.432  -0.448  1.00  0.00     0.042 C 
BRANCH  16  17
ATOM     17  C   UNL     1       4.047   3.946  -0.377  1.00  0.00     0.118 C 
BRANCH  17  18
ATOM     18  N   UNL     1       4.613   4.218  -1.690  1.00  0.00    -0.352 N 
ATOM     19  C   UNL     1       5.294   5.313  -2.143  1.00  0.00     0.251 C 
ATOM     20  H   UNL     1       4.485   3.503  -2.355  1.00  0.00     0.163 HD
ATOM     21  O   UNL     1       5.565   5.412  -3.339  1.00  0.00    -0.269 OA
BRANCH  19  22
ATOM     22  C   UNL     1       5.693   6.385  -1.207  1.00  0.00     0.039 A 
ATOM     23  C   UNL     1       5.616   7.711  -1.640  1.00  0.00     0.014 A 
ATOM     24  C   UNL     1       6.172   6.094   0.073  1.00  0.00     0.014 A 
ATOM     25  C   UNL     1       5.995   8.741  -0.780  1.00  0.00     0.010 A 
ATOM     26  C   UNL     1       6.454   7.126   0.963  1.00  0.00     0.010 A 
ATOM     27  C   UNL     1       6.401   8.458   0.535  1.00  0.00    -0.014 A 
BRANCH  27  28
ATOM     28  C   UNL     1       6.827   9.550   1.445  1.00  0.00     0.031 A 
ATOM     29  C   UNL     1       8.246   9.607   1.942  1.00  0.00     0.074 A 
ATOM     30  C   UNL     1       5.934  10.480   1.833  1.00  0.00     0.049 A 
ATOM     31  N   UNL     1       8.818  10.494   2.717  1.00  0.00    -0.248 NA
ATOM     32  C   UNL     1       9.138   8.508   1.536  1.00  0.00     0.031 C 
ATOM     33  C   UNL     1       4.518  10.497   1.464  1.00  0.00     0.029 A 
ATOM     34  N   UNL     1       6.087  11.595   2.618  1.00  0.00    -0.354 N 
ATOM     35  C   UNL     1      10.124  10.055   2.894  1.00  0.00     0.074 A 
ATOM     36  C   UNL     1      10.243   8.789   2.208  1.00  0.00     0.031 C 
ATOM     37  C   UNL     1       3.941  11.591   1.988  1.00  0.00     0.029 A 
ATOM     38  C   UNL     1       4.937  12.332   2.755  1.00  0.00     0.049 A 
ATOM     39  H   UNL     1       6.940  11.842   3.042  1.00  0.00     0.167 HD
ATOM     40  C   UNL     1      11.143  10.669   3.543  1.00  0.00     0.037 A 
ATOM     41  C   UNL     1       4.716  13.482   3.420  1.00  0.00     0.037 A 
ATOM     42  C   UNL     1      11.023  11.939   4.210  1.00  0.00     0.049 A 
ATOM     43  C   UNL     1       5.867  14.147   4.128  1.00  0.00     0.074 A 
ATOM     44  C   UNL     1      12.001  12.670   4.859  1.00  0.00     0.029 A 
ATOM     45  N   UNL     1       9.844  12.665   4.315  1.00  0.00    -0.354 N 
ATOM     46  N   UNL     1       7.117  13.762   4.224  1.00  0.00    -0.248 NA
ATOM     47  C   UNL     1       5.577  15.418   4.803  1.00  0.00     0.031 C 
ATOM     48  C   UNL     1      11.403  13.812   5.404  1.00  0.00     0.029 A 
ATOM     49  C   UNL     1      10.068  13.828   5.034  1.00  0.00     0.049 A 
ATOM     50  H   UNL     1       8.978  12.393   3.934  1.00  0.00     0.167 HD
ATOM     51  C   UNL     1       7.770  14.761   4.934  1.00  0.00     0.074 A 
ATOM     52  C   UNL     1       6.780  15.776   5.229  1.00  0.00     0.031 C 
ATOM     53  C   UNL     1       9.073  14.834   5.307  1.00  0.00     0.037 A 
BRANCH  40  54
ATOM     54  C   UNL     1      12.475   9.973   3.558  1.00  0.00     0.064 A 
ATOM     55  C   UNL     1      13.236   9.808   2.390  1.00  0.00     0.173 A 
ATOM     56  C   UNL     1      13.010   9.485   4.760  1.00  0.00     0.173 A 
ATOM     57  F   UNL     1      12.768  10.244   1.211  1.00  0.00    -0.203 F 
ATOM     58  C   UNL     1      14.464   9.150   2.418  1.00  0.00     0.198 A 
ATOM     59  C   UNL     1      14.255   8.860   4.791  1.00  0.00     0.198 A 
ATOM     60  F   UNL     1      12.329   9.618   5.908  1.00  0.00    -0.203 F 
ATOM     61  F   UNL     1      15.143   8.953   1.280  1.00  0.00    -0.200 F 
ATOM     62  C   UNL     1      14.976   8.684   3.619  1.00  0.00     0.200 A 
ATOM     63  F   UNL     1      14.755   8.423   5.955  1.00  0.00    -0.200 F 
ATOM     64  F   UNL     1      16.160   8.058   3.647  1.00  0.00    -0.200 F 
ENDBRANCH  40  54
BRANCH  41  65
ATOM     65  C   UNL     1       3.364  14.100   3.412  1.00  0.00     0.064 A 
ATOM     66  C   UNL     1       3.128  15.315   2.753  1.00  0.00     0.173 A 
ATOM     67  C   UNL     1       2.284  13.498   4.073  1.00  0.00     0.173 A 
ATOM     68  F   UNL     1       4.132  15.940   2.119  1.00  0.00    -0.203 F 
ATOM     69  C   UNL     1       1.873  15.920   2.782  1.00  0.00     0.198 A 
ATOM     70  C   UNL     1       1.021  14.086   4.074  1.00  0.00     0.198 A 
ATOM     71  F   UNL     1       2.453  12.331   4.712  1.00  0.00    -0.203 F 
ATOM     72  F   UNL     1       1.690  17.109   2.193  1.00  0.00    -0.200 F 
ATOM     73  C   UNL     1       0.819  15.302   3.438  1.00  0.00     0.200 A 
ATOM     74  F   UNL     1       0.001  13.478   4.694  1.00  0.00    -0.200 F 
ATOM     75  F   UNL     1      -0.388  15.883   3.466  1.00  0.00    -0.200 F 
ENDBRANCH  41  65
BRANCH  53  76
ATOM     76  C   UNL     1       9.514  16.082   6.020  1.00  0.00     0.064 A 
ATOM     77  C   UNL     1       9.082  16.390   7.319  1.00  0.00     0.173 A 
ATOM     78  C   UNL     1      10.395  16.977   5.393  1.00  0.00     0.173 A 
ATOM     79  F   UNL     1       8.231  15.575   7.959  1.00  0.00    -0.203 F 
ATOM     80  C   UNL     1       9.478  17.570   7.943  1.00  0.00     0.198 A 
ATOM     81  C   UNL     1      10.820  18.135   6.036  1.00  0.00     0.198 A 
ATOM     82  F   UNL     1      10.849  16.725   4.156  1.00  0.00    -0.203 F 
ATOM     83  F   UNL     1       8.996  17.878   9.155  1.00  0.00    -0.200 F 
ATOM     84  C   UNL     1      10.351  18.438   7.304  1.00  0.00     0.200 A 
ATOM     85  F   UNL     1      11.679  18.962   5.424  1.00  0.00    -0.200 F 
ATOM     86  F   UNL     1      10.731  19.573   7.907  1.00  0.00    -0.200 F 
ENDBRANCH  53  76
ENDBRANCH  27  28
ENDBRANCH  19  22
ENDBRANCH  17  18
ENDBRANCH  16  17
ENDBRANCH   1  16
TORSDOF 14
