REMARK SMILES COC[C@H](C)CNC(=O)N[C@@H]1CCCCC[C@@H]1C(=O)NCCCNC(=O)c1ccc(-c2c3nc(c(-c4c(F)c(F)c(F)c(F)c4F)c4ccc([nH]4)c(-c4c(F)c(F)c(F)c(F)c4F)c4nc(c(-c5c(F)c(F)c(F)c(F)c5F)c5ccc2[nH]5)C=C4)C=C3)cc1
REMARK SMILES IDX 18 1 19 2 20 3 17 5 11 6 10 7 7 8 8 9 9 11 6 13 4 14 5 15
REMARK SMILES IDX 3 16 2 17 1 18 12 19 13 20 14 21 16 23 15 24 21 26 22 27
REMARK SMILES IDX 23 28 24 29 25 30 26 32 27 33 28 34 89 35 29 36 88 37 30 38
REMARK SMILES IDX 31 39 32 40 82 41 33 42 87 43 81 44 83 45 34 46 86 47 80 48
REMARK SMILES IDX 79 49 35 51 67 52 47 53 66 54 48 55 51 56 65 57 84 58 49 59
REMARK SMILES IDX 50 60 64 62 85 63 52 64 36 65 37 66 45 67 38 68 39 69 43 70
REMARK SMILES IDX 46 71 40 72 41 73 44 74 42 75 68 76 69 77 77 78 70 79 71 80
REMARK SMILES IDX 75 81 78 82 72 83 73 84 76 85 74 86 53 87 54 88 62 89 55 90
REMARK SMILES IDX 56 91 60 92 63 93 57 94 58 95 61 96 59 97
REMARK H PARENT 20 4 7 10 10 12 24 31 83 50 51 61
REMARK Flexibility Score: 100.00
ROOT
ATOM      1  C   UNL     1      -1.330   7.433   3.291  1.00  0.00     0.225 C 
ATOM      2  O   UNL     1      -1.255   8.091   2.257  1.00  0.00    -0.275 OA
ATOM      3  N   UNL     1      -1.488   8.100   4.481  1.00  0.00    -0.356 N 
ATOM      4  H   UNL     1      -1.422   9.081   4.442  1.00  0.00     0.163 HD
ENDROOT
BRANCH   1   5
ATOM      5  C   UNL     1      -1.319   5.907   3.322  1.00  0.00     0.101 C 
BRANCH   5   6
ATOM      6  C   UNL     1      -0.614   5.189   2.130  1.00  0.00     0.096 C 
BRANCH   6   7
ATOM      7  N   UNL     1      -0.829   5.811   0.827  1.00  0.00    -0.335 N 
ATOM      8  N   UNL     1       0.657   4.810  -0.735  1.00  0.00    -0.338 N 
ATOM      9  C   UNL     1      -0.303   5.676  -0.396  1.00  0.00     0.315 C 
ATOM     10  H   UNL     1       0.812   4.802  -1.707  1.00  0.00     0.165 HD
ATOM     11  O   UNL     1      -0.732   6.408  -1.292  1.00  0.00    -0.249 OA
ATOM     12  H   UNL     1      -1.534   6.498   0.855  1.00  0.00     0.165 HD
BRANCH   8  13
ATOM     13  C   UNL     1       1.533   3.876  -0.046  1.00  0.00     0.123 C 
BRANCH  13  14
ATOM     14  C   UNL     1       1.235   2.406  -0.421  1.00  0.00     0.031 C 
ATOM     15  C   UNL     1       1.756   2.074  -1.822  1.00  0.00     0.012 C 
BRANCH  14  16
ATOM     16  C   UNL     1       1.832   1.470   0.649  1.00  0.00     0.164 C 
BRANCH  16  17
ATOM     17  O   UNL     1       1.881   0.101   0.253  1.00  0.00    -0.384 OA
ATOM     18  C   UNL     1       0.629  -0.565   0.321  1.00  0.00     0.194 C 
ENDBRANCH  16  17
ENDBRANCH  14  16
ENDBRANCH  13  14
ENDBRANCH   8  13
ENDBRANCH   6   7
BRANCH   6  19
ATOM     19  C   UNL     1      -1.026   3.704   2.089  1.00  0.00     0.026 C 
BRANCH  19  20
ATOM     20  C   UNL     1      -0.871   2.980   3.425  1.00  0.00     0.002 C 
BRANCH  20  21
ATOM     21  C   UNL     1      -2.176   2.931   4.213  1.00  0.00     0.000 CG0
ATOM     22  G   UNL     1      -2.728   4.278   4.675  1.00  0.00     0.000 G0
ENDBRANCH  20  21
ENDBRANCH  19  20
ENDBRANCH   6  19
ENDBRANCH   5   6
BRANCH   5  23
ATOM     23  C   UNL     1      -2.745   5.384   3.612  1.00  0.00     0.015 C 
BRANCH  23  24
ATOM     24  C   UNL     1      -2.728   4.278   4.675  1.00  0.00     0.001 CG0
ATOM     25  G   UNL     1      -2.176   2.931   4.213  1.00  0.00     0.000 G0
ENDBRANCH  23  24
ENDBRANCH   5  23
ENDBRANCH   1   5
BRANCH   3  26
ATOM     26  C   UNL     1      -1.742   7.523   5.791  1.00  0.00     0.117 C 
BRANCH  26  27
ATOM     27  C   UNL     1      -1.558   8.493   6.939  1.00  0.00     0.042 C 
BRANCH  27  28
ATOM     28  C   UNL     1      -2.508   9.680   6.907  1.00  0.00     0.118 C 
BRANCH  28  29
ATOM     29  N   UNL     1      -3.915   9.314   7.030  1.00  0.00    -0.352 N 
ATOM     30  C   UNL     1      -4.822   9.576   8.033  1.00  0.00     0.251 C 
ATOM     31  H   UNL     1      -4.275   8.796   6.273  1.00  0.00     0.163 HD
ATOM     32  O   UNL     1      -5.938   9.074   8.005  1.00  0.00    -0.269 OA
BRANCH  30  33
ATOM     33  C   UNL     1      -4.424  10.429   9.173  1.00  0.00     0.039 A 
ATOM     34  C   UNL     1      -4.718  10.010  10.473  1.00  0.00     0.014 A 
ATOM     35  C   UNL     1      -3.712  11.609   8.960  1.00  0.00     0.014 A 
ATOM     36  C   UNL     1      -4.189  10.712  11.558  1.00  0.00     0.010 A 
ATOM     37  C   UNL     1      -3.090  12.235  10.032  1.00  0.00     0.010 A 
ATOM     38  C   UNL     1      -3.316  11.790  11.343  1.00  0.00    -0.014 A 
BRANCH  38  39
ATOM     39  C   UNL     1      -2.612  12.466  12.463  1.00  0.00     0.031 A 
ATOM     40  C   UNL     1      -2.804  13.941  12.685  1.00  0.00     0.074 A 
ATOM     41  C   UNL     1      -1.723  11.779  13.207  1.00  0.00     0.049 A 
ATOM     42  N   UNL     1      -2.184  14.742  13.514  1.00  0.00    -0.248 NA
ATOM     43  C   UNL     1      -3.796  14.614  11.831  1.00  0.00     0.031 C 
ATOM     44  C   UNL     1      -1.397  10.361  13.046  1.00  0.00     0.029 A 
ATOM     45  N   UNL     1      -0.915  12.187  14.239  1.00  0.00    -0.354 N 
ATOM     46  C   UNL     1      -2.688  16.010  13.259  1.00  0.00     0.074 A 
ATOM     47  C   UNL     1      -3.620  15.884  12.159  1.00  0.00     0.031 C 
ATOM     48  C   UNL     1      -0.482  10.011  13.964  1.00  0.00     0.029 A 
ATOM     49  C   UNL     1      -0.122  11.187  14.749  1.00  0.00     0.049 A 
ATOM     50  H   UNL     1      -0.904  13.110  14.583  1.00  0.00     0.167 HD
ATOM     51  C   UNL     1      -2.422  17.171  13.902  1.00  0.00     0.037 A 
ATOM     52  C   UNL     1       0.797  11.219  15.732  1.00  0.00     0.037 A 
ATOM     53  C   UNL     1      -1.532  17.282  15.027  1.00  0.00     0.049 A 
ATOM     54  C   UNL     1       1.062  12.517  16.445  1.00  0.00     0.074 A 
ATOM     55  C   UNL     1      -1.258  18.393  15.803  1.00  0.00     0.029 A 
ATOM     56  N   UNL     1      -0.774  16.238  15.537  1.00  0.00    -0.354 N 
ATOM     57  N   UNL     1       0.524  13.695  16.243  1.00  0.00    -0.248 NA
ATOM     58  C   UNL     1       2.060  12.489  17.523  1.00  0.00     0.031 C 
ATOM     59  C   UNL     1      -0.303  18.032  16.759  1.00  0.00     0.029 A 
ATOM     60  C   UNL     1      -0.016  16.685  16.606  1.00  0.00     0.049 A 
ATOM     61  H   UNL     1      -0.775  15.316  15.190  1.00  0.00     0.167 HD
ATOM     62  C   UNL     1       1.098  14.542  17.181  1.00  0.00     0.074 A 
ATOM     63  C   UNL     1       2.015  13.739  17.963  1.00  0.00     0.031 C 
ATOM     64  C   UNL     1       0.887  15.867  17.375  1.00  0.00     0.037 A 
BRANCH  51  65
ATOM     65  C   UNL     1      -3.114  18.410  13.413  1.00  0.00     0.064 A 
ATOM     66  C   UNL     1      -4.495  18.595  13.580  1.00  0.00     0.173 A 
ATOM     67  C   UNL     1      -2.385  19.435  12.793  1.00  0.00     0.173 A 
ATOM     68  F   UNL     1      -5.240  17.638  14.155  1.00  0.00    -0.203 F 
ATOM     69  C   UNL     1      -5.126  19.745  13.114  1.00  0.00     0.198 A 
ATOM     70  C   UNL     1      -3.015  20.598  12.356  1.00  0.00     0.198 A 
ATOM     71  F   UNL     1      -1.062  19.311  12.612  1.00  0.00    -0.203 F 
ATOM     72  F   UNL     1      -6.455  19.874  13.235  1.00  0.00    -0.200 F 
ATOM     73  C   UNL     1      -4.385  20.748  12.509  1.00  0.00     0.200 A 
ATOM     74  F   UNL     1      -2.295  21.573  11.782  1.00  0.00    -0.200 F 
ATOM     75  F   UNL     1      -4.993  21.857  12.065  1.00  0.00    -0.200 F 
ENDBRANCH  51  65
BRANCH  52  76
ATOM     76  C   UNL     1       1.515   9.976  16.119  1.00  0.00     0.064 A 
ATOM     77  C   UNL     1       1.256   9.353  17.348  1.00  0.00     0.173 A 
ATOM     78  C   UNL     1       2.469   9.387  15.277  1.00  0.00     0.173 A 
ATOM     79  F   UNL     1       0.367   9.890  18.196  1.00  0.00    -0.203 F 
ATOM     80  C   UNL     1       1.937   8.198  17.728  1.00  0.00     0.198 A 
ATOM     81  C   UNL     1       3.130   8.216  15.647  1.00  0.00     0.198 A 
ATOM     82  F   UNL     1       2.749   9.940  14.088  1.00  0.00    -0.203 F 
ATOM     83  F   UNL     1       1.699   7.646  18.926  1.00  0.00    -0.200 F 
ATOM     84  C   UNL     1       2.869   7.627  16.875  1.00  0.00     0.200 A 
ATOM     85  F   UNL     1       4.019   7.660  14.813  1.00  0.00    -0.200 F 
ATOM     86  F   UNL     1       3.519   6.513  17.238  1.00  0.00    -0.200 F 
ENDBRANCH  52  76
BRANCH  64  87
ATOM     87  C   UNL     1       1.640  16.526  18.492  1.00  0.00     0.064 A 
ATOM     88  C   UNL     1       3.013  16.792  18.392  1.00  0.00     0.173 A 
ATOM     89  C   UNL     1       0.970  16.940  19.653  1.00  0.00     0.173 A 
ATOM     90  F   UNL     1       3.700  16.401  17.308  1.00  0.00    -0.203 F 
ATOM     91  C   UNL     1       3.692  17.433  19.424  1.00  0.00     0.198 A 
ATOM     92  C   UNL     1       1.647  17.605  20.670  1.00  0.00     0.198 A 
ATOM     93  F   UNL     1      -0.344  16.712  19.793  1.00  0.00    -0.203 F 
ATOM     94  F   UNL     1       5.013  17.642  19.326  1.00  0.00    -0.200 F 
ATOM     95  C   UNL     1       3.008  17.847  20.557  1.00  0.00     0.200 A 
ATOM     96  F   UNL     1       0.982  18.015  21.759  1.00  0.00    -0.200 F 
ATOM     97  F   UNL     1       3.662  18.473  21.545  1.00  0.00    -0.200 F 
ENDBRANCH  64  87
ENDBRANCH  38  39
ENDBRANCH  30  33
ENDBRANCH  28  29
ENDBRANCH  27  28
ENDBRANCH  26  27
ENDBRANCH   3  26
TORSDOF 15
