REMARK SMILES Cn1ccnc1[C@@H]1[C@@H](C(=O)NCCCNC(=O)c2ccc(-c3c4nc(c(-c5c(F)c(F)c(F)c(F)c5F)c5ccc([nH]5)c(-c5c(F)c(F)c(F)c(F)c5F)c5nc(c(-c6c(F)c(F)c(F)c(F)c6F)c6ccc3[nH]6)C=C5)C=C4)cc2)CC(=O)N1CCCOC1CCCCC1
REMARK SMILES IDX 9 1 10 2 11 3 8 5 7 6 84 7 81 8 82 9 83 10 6 11 1 12 2 13
REMARK SMILES IDX 3 14 4 15 5 16 85 17 86 18 87 19 88 20 89 21 90 22 94 23
REMARK SMILES IDX 91 24 93 25 92 26 12 27 13 28 14 29 15 30 16 31 17 33 18 34
REMARK SMILES IDX 19 35 80 36 20 37 79 38 21 39 22 40 23 41 73 42 24 43 78 44
REMARK SMILES IDX 72 45 74 46 25 47 77 48 71 49 70 50 26 52 58 53 38 54 57 55
REMARK SMILES IDX 39 56 42 57 56 58 75 59 40 60 41 61 55 63 76 64 43 65 27 66
REMARK SMILES IDX 28 67 36 68 29 69 30 70 34 71 37 72 31 73 32 74 35 75 33 76
REMARK SMILES IDX 59 77 60 78 68 79 61 80 62 81 66 82 69 83 63 84 64 85 67 86
REMARK SMILES IDX 65 87 44 88 45 89 53 90 46 91 47 92 51 93 54 94 48 95 49 96
REMARK SMILES IDX 52 97 50 98
REMARK H PARENT 11 4 15 32 74 51 42 62
REMARK Flexibility Score: inf
ROOT
ATOM      1  C   UNL     1       0.300   4.161  -2.222  1.00  0.00     0.226 C 
ATOM      2  O   UNL     1       0.623   4.019  -3.402  1.00  0.00    -0.275 OA
ATOM      3  N   UNL     1      -0.779   4.929  -1.940  1.00  0.00    -0.356 N 
ATOM      4  H   UNL     1      -1.237   5.298  -2.729  1.00  0.00     0.163 HD
ENDROOT
BRANCH   1   5
ATOM      5  C   UNL     1       1.107   3.511  -1.134  1.00  0.00     0.118 C 
ATOM      6  C   UNL     1       0.220   2.717  -0.182  1.00  0.00     0.164 C 
ATOM      7  N   UNL     1       0.707   3.018   1.159  1.00  0.00    -0.332 N 
ATOM      8  C   UNL     1       1.897   4.492  -0.293  1.00  0.00     0.116 C 
ATOM      9  C   UNL     1       1.700   4.019   1.118  1.00  0.00     0.224 C 
ATOM     10  O   UNL     1       2.238   4.536   2.076  1.00  0.00    -0.275 OA
BRANCH   6  11
ATOM     11  C   UNL     1      -0.014   1.299  -0.635  1.00  0.00     0.132 A 
ATOM     12  C   UNL     1       2.299   0.328  -1.241  1.00  0.00     0.151 C 
ATOM     13  N   UNL     1       0.864   0.335  -1.097  1.00  0.00    -0.336 N 
ATOM     14  C   UNL     1       0.118  -0.751  -1.502  1.00  0.00     0.107 A 
ATOM     15  C   UNL     1      -1.188  -0.387  -1.340  1.00  0.00     0.131 A 
ATOM     16  N   UNL     1      -1.258   0.877  -0.838  1.00  0.00    -0.239 NA
ENDBRANCH   6  11
BRANCH   7  17
ATOM     17  C   UNL     1      -0.036   2.984   2.439  1.00  0.00     0.122 C 
BRANCH  17  18
ATOM     18  C   UNL     1      -1.250   2.108   2.776  1.00  0.00     0.050 C 
BRANCH  18  19
ATOM     19  C   UNL     1      -1.399   0.622   2.447  1.00  0.00     0.162 C 
BRANCH  19  20
ATOM     20  O   UNL     1      -0.558  -0.310   3.133  1.00  0.00    -0.378 OA
BRANCH  20  21
ATOM     21  C   UNL     1       0.643  -0.655   2.431  1.00  0.00     0.118 C 
ATOM     22  C   UNL     1       1.678   0.400   2.756  1.00  0.00     0.032 C 
ATOM     23  C   UNL     1       1.149  -2.037   2.839  1.00  0.00     0.032 C 
ATOM     24  C   UNL     1       3.109   0.146   2.365  1.00  0.00     0.003 C 
ATOM     25  C   UNL     1       2.547  -2.294   2.267  1.00  0.00     0.003 C 
ATOM     26  C   UNL     1       3.553  -1.247   2.738  1.00  0.00     0.000 C 
ENDBRANCH  20  21
ENDBRANCH  19  20
ENDBRANCH  18  19
ENDBRANCH  17  18
ENDBRANCH   7  17
ENDBRANCH   1   5
BRANCH   3  27
ATOM     27  C   UNL     1      -1.375   5.302  -0.665  1.00  0.00     0.117 C 
BRANCH  27  28
ATOM     28  C   UNL     1      -1.567   6.787  -0.533  1.00  0.00     0.042 C 
BRANCH  28  29
ATOM     29  C   UNL     1      -2.441   7.346  -1.630  1.00  0.00     0.118 C 
BRANCH  29  30
ATOM     30  N   UNL     1      -3.797   6.810  -1.590  1.00  0.00    -0.352 N 
ATOM     31  C   UNL     1      -4.974   7.455  -1.299  1.00  0.00     0.251 C 
ATOM     32  H   UNL     1      -3.880   5.852  -1.802  1.00  0.00     0.163 HD
ATOM     33  O   UNL     1      -6.004   6.819  -1.107  1.00  0.00    -0.269 OA
BRANCH  31  34
ATOM     34  C   UNL     1      -4.969   8.925  -1.186  1.00  0.00     0.039 A 
ATOM     35  C   UNL     1      -5.654   9.534  -0.136  1.00  0.00     0.014 A 
ATOM     36  C   UNL     1      -4.230   9.692  -2.089  1.00  0.00     0.014 A 
ATOM     37  C   UNL     1      -5.532  10.911   0.049  1.00  0.00     0.010 A 
ATOM     38  C   UNL     1      -3.989  11.027  -1.815  1.00  0.00     0.010 A 
ATOM     39  C   UNL     1      -4.662  11.659  -0.761  1.00  0.00    -0.014 A 
BRANCH  39  40
ATOM     40  C   UNL     1      -4.473  13.116  -0.565  1.00  0.00     0.031 A 
ATOM     41  C   UNL     1      -4.806  14.062  -1.687  1.00  0.00     0.074 A 
ATOM     42  C   UNL     1      -3.945  13.577   0.585  1.00  0.00     0.049 A 
ATOM     43  N   UNL     1      -4.643  15.358  -1.754  1.00  0.00    -0.248 NA
ATOM     44  C   UNL     1      -5.362  13.468  -2.916  1.00  0.00     0.031 C 
ATOM     45  C   UNL     1      -3.527  12.751   1.719  1.00  0.00     0.029 A 
ATOM     46  N   UNL     1      -3.663  14.857   0.987  1.00  0.00    -0.354 N 
ATOM     47  C   UNL     1      -5.056  15.723  -3.028  1.00  0.00     0.074 A 
ATOM     48  C   UNL     1      -5.404  14.510  -3.730  1.00  0.00     0.031 C 
ATOM     49  C   UNL     1      -3.076  13.547   2.701  1.00  0.00     0.029 A 
ATOM     50  C   UNL     1      -3.130  14.934   2.250  1.00  0.00     0.049 A 
ATOM     51  H   UNL     1      -3.827  15.648   0.422  1.00  0.00     0.167 HD
ATOM     52  C   UNL     1      -5.171  16.964  -3.555  1.00  0.00     0.037 A 
ATOM     53  C   UNL     1      -2.727  16.005   2.959  1.00  0.00     0.037 A 
ATOM     54  C   UNL     1      -4.858  18.170  -2.838  1.00  0.00     0.049 A 
ATOM     55  C   UNL     1      -2.861  17.375   2.347  1.00  0.00     0.074 A 
ATOM     56  C   UNL     1      -4.997  19.481  -3.255  1.00  0.00     0.029 A 
ATOM     57  N   UNL     1      -4.341  18.209  -1.551  1.00  0.00    -0.354 N 
ATOM     58  N   UNL     1      -3.325  17.715   1.169  1.00  0.00    -0.248 NA
ATOM     59  C   UNL     1      -2.419  18.511   3.167  1.00  0.00     0.031 C 
ATOM     60  C   UNL     1      -4.514  20.313  -2.240  1.00  0.00     0.029 A 
ATOM     61  C   UNL     1      -4.132  19.523  -1.167  1.00  0.00     0.049 A 
ATOM     62  H   UNL     1      -4.151  17.420  -0.994  1.00  0.00     0.167 HD
ATOM     63  C   UNL     1      -3.264  19.101   1.120  1.00  0.00     0.074 A 
ATOM     64  C   UNL     1      -2.732  19.540   2.393  1.00  0.00     0.031 C 
ATOM     65  C   UNL     1      -3.615  19.937   0.112  1.00  0.00     0.037 A 
BRANCH  52  66
ATOM     66  C   UNL     1      -5.668  17.078  -4.967  1.00  0.00     0.064 A 
ATOM     67  C   UNL     1      -6.989  16.754  -5.313  1.00  0.00     0.173 A 
ATOM     68  C   UNL     1      -4.822  17.548  -5.983  1.00  0.00     0.173 A 
ATOM     69  F   UNL     1      -7.835  16.284  -4.384  1.00  0.00    -0.203 F 
ATOM     70  C   UNL     1      -7.436  16.868  -6.627  1.00  0.00     0.198 A 
ATOM     71  C   UNL     1      -5.282  17.695  -7.288  1.00  0.00     0.198 A 
ATOM     72  F   UNL     1      -3.550  17.874  -5.708  1.00  0.00    -0.203 F 
ATOM     73  F   UNL     1      -8.685  16.500  -6.942  1.00  0.00    -0.200 F 
ATOM     74  C   UNL     1      -6.585  17.347  -7.611  1.00  0.00     0.200 A 
ATOM     75  F   UNL     1      -4.463  18.171  -8.236  1.00  0.00    -0.200 F 
ATOM     76  F   UNL     1      -7.019  17.468  -8.873  1.00  0.00    -0.200 F 
ENDBRANCH  52  66
BRANCH  53  77
ATOM     77  C   UNL     1      -2.183  15.833   4.332  1.00  0.00     0.064 A 
ATOM     78  C   UNL     1      -2.881  16.311   5.450  1.00  0.00     0.173 A 
ATOM     79  C   UNL     1      -0.948  15.206   4.556  1.00  0.00     0.173 A 
ATOM     80  F   UNL     1      -4.058  16.934   5.287  1.00  0.00    -0.203 F 
ATOM     81  C   UNL     1      -2.353  16.197   6.734  1.00  0.00     0.198 A 
ATOM     82  C   UNL     1      -0.436  15.062   5.844  1.00  0.00     0.198 A 
ATOM     83  F   UNL     1      -0.242  14.723   3.523  1.00  0.00    -0.203 F 
ATOM     84  F   UNL     1      -3.015  16.714   7.777  1.00  0.00    -0.200 F 
ATOM     85  C   UNL     1      -1.132  15.568   6.931  1.00  0.00     0.200 A 
ATOM     86  F   UNL     1       0.736  14.440   6.031  1.00  0.00    -0.200 F 
ATOM     87  F   UNL     1      -0.624  15.460   8.165  1.00  0.00    -0.200 F 
ENDBRANCH  53  77
BRANCH  65  88
ATOM     88  C   UNL     1      -3.478  21.412   0.359  1.00  0.00     0.064 A 
ATOM     89  C   UNL     1      -2.224  22.033   0.445  1.00  0.00     0.173 A 
ATOM     90  C   UNL     1      -4.621  22.220   0.464  1.00  0.00     0.173 A 
ATOM     91  F   UNL     1      -1.101  21.303   0.364  1.00  0.00    -0.203 F 
ATOM     92  C   UNL     1      -2.119  23.405   0.654  1.00  0.00     0.198 A 
ATOM     93  C   UNL     1      -4.512  23.596   0.637  1.00  0.00     0.198 A 
ATOM     94  F   UNL     1      -5.844  21.676   0.379  1.00  0.00    -0.203 F 
ATOM     95  F   UNL     1      -0.911  23.970   0.785  1.00  0.00    -0.200 F 
ATOM     96  C   UNL     1      -3.262  24.186   0.741  1.00  0.00     0.200 A 
ATOM     97  F   UNL     1      -5.618  24.351   0.702  1.00  0.00    -0.200 F 
ATOM     98  F   UNL     1      -3.159  25.509   0.931  1.00  0.00    -0.200 F 
ENDBRANCH  65  88
ENDBRANCH  39  40
ENDBRANCH  31  34
ENDBRANCH  29  30
ENDBRANCH  28  29
ENDBRANCH  27  28
ENDBRANCH   3  27
TORSDOF 16
