REMARK SMILES O=Cc1ccc(-c2ccc(C(=O)NCCCNC(=O)c3ccc(-c4c5nc(c(-c6c(F)c(F)c(F)c(F)c6F)c6ccc([nH]6)c(-c6c(F)c(F)c(F)c(F)c6F)c6nc(c(-c7c(F)c(F)c(F)c(F)c7F)c7ccc4[nH]7)C=C6)C=C5)cc3)cn2)cc1
REMARK SMILES IDX 15 1 14 2 13 3 11 4 12 5 10 7 7 8 8 9 84 10 9 11 83 12 6 13
REMARK SMILES IDX 3 14 4 15 86 16 5 17 85 18 2 19 1 20 16 21 17 22 18 23 19 25
REMARK SMILES IDX 20 26 21 27 82 28 22 29 81 30 23 31 24 32 25 33 75 34 26 35
REMARK SMILES IDX 80 36 74 37 76 38 27 39 79 40 73 41 72 42 28 44 60 45 40 46
REMARK SMILES IDX 59 47 41 48 44 49 58 50 77 51 42 52 43 53 57 55 78 56 45 57
REMARK SMILES IDX 29 58 30 59 38 60 31 61 32 62 36 63 39 64 33 65 34 66 37 67
REMARK SMILES IDX 35 68 61 69 62 70 70 71 63 72 64 73 68 74 71 75 65 76 66 77
REMARK SMILES IDX 69 78 67 79 46 80 47 81 55 82 48 83 49 84 53 85 56 86 50 87
REMARK SMILES IDX 51 88 54 89 52 90
REMARK H PARENT 13 6 17 24 76 43 44 54
REMARK Flexibility Score: inf
ROOT
ATOM      1  C   UNL     1       8.610   6.918   5.957  1.00  0.00     0.042 C 
ENDROOT
BRANCH   1   2
ATOM      2  C   UNL     1       7.421   7.695   5.390  1.00  0.00     0.118 C 
BRANCH   2   3
ATOM      3  N   UNL     1       7.747   8.294   4.108  1.00  0.00    -0.352 N 
ATOM      4  C   UNL     1       7.461   7.926   2.818  1.00  0.00     0.252 C 
ATOM      5  O   UNL     1       7.811   8.688   1.917  1.00  0.00    -0.269 OA
ATOM      6  H   UNL     1       8.273   9.124   4.178  1.00  0.00     0.163 HD
BRANCH   4   7
ATOM      7  C   UNL     1       6.726   6.690   2.463  1.00  0.00     0.058 A 
ATOM      8  C   UNL     1       5.256   4.522   1.571  1.00  0.00     0.070 A 
ATOM      9  C   UNL     1       5.973   4.418   2.759  1.00  0.00     0.030 A 
ATOM     10  N   UNL     1       5.281   5.637   0.808  1.00  0.00    -0.255 NA
ATOM     11  C   UNL     1       6.732   5.505   3.193  1.00  0.00     0.018 A 
ATOM     12  C   UNL     1       6.008   6.689   1.270  1.00  0.00     0.125 A 
BRANCH   8  13
ATOM     13  C   UNL     1       4.448   3.408   1.075  1.00  0.00     0.000 A 
ATOM     14  C   UNL     1       2.973   1.183   0.207  1.00  0.00     0.014 A 
ATOM     15  C   UNL     1       4.131   1.556  -0.478  1.00  0.00     0.012 A 
ATOM     16  C   UNL     1       2.531   1.922   1.306  1.00  0.00     0.012 A 
ATOM     17  C   UNL     1       4.859   2.670  -0.047  1.00  0.00     0.011 A 
ATOM     18  C   UNL     1       3.268   3.028   1.737  1.00  0.00     0.011 A 
BRANCH  14  19
ATOM     19  C   UNL     1       2.222  -0.010  -0.233  1.00  0.00     0.260 C 
ATOM     20  O   UNL     1       1.200  -0.381   0.332  1.00  0.00    -0.298 OA
ENDBRANCH  14  19
ENDBRANCH   8  13
ENDBRANCH   4   7
ENDBRANCH   2   3
ENDBRANCH   1   2
BRANCH   1  21
ATOM     21  C   UNL     1       9.719   7.814   6.503  1.00  0.00     0.118 C 
BRANCH  21  22
ATOM     22  N   UNL     1       9.322   8.485   7.732  1.00  0.00    -0.352 N 
ATOM     23  C   UNL     1       9.892   8.456   8.980  1.00  0.00     0.251 C 
ATOM     24  H   UNL     1       8.518   9.048   7.656  1.00  0.00     0.163 HD
ATOM     25  O   UNL     1       9.273   8.915   9.935  1.00  0.00    -0.269 OA
BRANCH  23  26
ATOM     26  C   UNL     1      11.235   7.873   9.193  1.00  0.00     0.039 A 
ATOM     27  C   UNL     1      11.465   7.128  10.355  1.00  0.00     0.014 A 
ATOM     28  C   UNL     1      12.283   8.106   8.298  1.00  0.00     0.014 A 
ATOM     29  C   UNL     1      12.727   6.580  10.595  1.00  0.00     0.010 A 
ATOM     30  C   UNL     1      13.524   7.505   8.505  1.00  0.00     0.010 A 
ATOM     31  C   UNL     1      13.760   6.743   9.659  1.00  0.00    -0.014 A 
BRANCH  31  32
ATOM     32  C   UNL     1      15.095   6.130   9.874  1.00  0.00     0.031 A 
ATOM     33  C   UNL     1      16.305   6.999  10.077  1.00  0.00     0.074 A 
ATOM     34  C   UNL     1      15.227   4.790   9.822  1.00  0.00     0.049 A 
ATOM     35  N   UNL     1      17.562   6.655  10.199  1.00  0.00    -0.248 NA
ATOM     36  C   UNL     1      16.073   8.451  10.125  1.00  0.00     0.031 C 
ATOM     37  C   UNL     1      14.136   3.843   9.592  1.00  0.00     0.029 A 
ATOM     38  N   UNL     1      16.339   3.994   9.947  1.00  0.00    -0.354 N 
ATOM     39  C   UNL     1      18.270   7.844  10.319  1.00  0.00     0.074 A 
ATOM     40  C   UNL     1      17.309   8.920  10.211  1.00  0.00     0.031 C 
ATOM     41  C   UNL     1      14.629   2.594   9.607  1.00  0.00     0.029 A 
ATOM     42  C   UNL     1      16.073   2.654   9.813  1.00  0.00     0.049 A 
ATOM     43  H   UNL     1      17.241   4.351  10.117  1.00  0.00     0.167 HD
ATOM     44  C   UNL     1      19.598   8.020  10.520  1.00  0.00     0.037 A 
ATOM     45  C   UNL     1      16.902   1.594   9.844  1.00  0.00     0.037 A 
ATOM     46  C   UNL     1      20.547   6.945  10.657  1.00  0.00     0.049 A 
ATOM     47  C   UNL     1      18.371   1.817  10.073  1.00  0.00     0.074 A 
ATOM     48  C   UNL     1      21.903   7.019  10.923  1.00  0.00     0.029 A 
ATOM     49  N   UNL     1      20.235   5.599  10.538  1.00  0.00    -0.354 N 
ATOM     50  N   UNL     1      19.020   2.942  10.244  1.00  0.00    -0.248 NA
ATOM     51  C   UNL     1      19.223   0.620  10.119  1.00  0.00     0.031 C 
ATOM     52  C   UNL     1      22.420   5.719  10.927  1.00  0.00     0.029 A 
ATOM     53  C   UNL     1      21.377   4.832  10.708  1.00  0.00     0.049 A 
ATOM     54  H   UNL     1      19.336   5.241  10.360  1.00  0.00     0.167 HD
ATOM     55  C   UNL     1      20.348   2.591  10.444  1.00  0.00     0.074 A 
ATOM     56  C   UNL     1      20.410   1.145  10.386  1.00  0.00     0.031 C 
ATOM     57  C   UNL     1      21.419   3.394  10.655  1.00  0.00     0.037 A 
BRANCH  44  58
ATOM     58  C   UNL     1      20.107   9.430  10.607  1.00  0.00     0.064 A 
ATOM     59  C   UNL     1      19.822  10.247  11.712  1.00  0.00     0.173 A 
ATOM     60  C   UNL     1      20.919   9.959   9.593  1.00  0.00     0.173 A 
ATOM     61  F   UNL     1      19.041   9.793  12.704  1.00  0.00    -0.203 F 
ATOM     62  C   UNL     1      20.307  11.550  11.784  1.00  0.00     0.198 A 
ATOM     63  C   UNL     1      21.427  11.253   9.682  1.00  0.00     0.198 A 
ATOM     64  F   UNL     1      21.228   9.218   8.518  1.00  0.00    -0.203 F 
ATOM     65  F   UNL     1      19.982  12.327  12.827  1.00  0.00    -0.200 F 
ATOM     66  C   UNL     1      21.114  12.050  10.773  1.00  0.00     0.200 A 
ATOM     67  F   UNL     1      22.216  11.730   8.711  1.00  0.00    -0.200 F 
ATOM     68  F   UNL     1      21.585  13.302  10.847  1.00  0.00    -0.200 F 
ENDBRANCH  44  58
BRANCH  45  69
ATOM     69  C   UNL     1      16.355   0.222   9.680  1.00  0.00     0.064 A 
ATOM     70  C   UNL     1      16.315  -0.668  10.762  1.00  0.00     0.173 A 
ATOM     71  C   UNL     1      15.861  -0.225   8.446  1.00  0.00     0.173 A 
ATOM     72  F   UNL     1      16.795  -0.292  11.956  1.00  0.00    -0.203 F 
ATOM     73  C   UNL     1      15.817  -1.961  10.612  1.00  0.00     0.198 A 
ATOM     74  C   UNL     1      15.339  -1.509   8.304  1.00  0.00     0.198 A 
ATOM     75  F   UNL     1      15.872   0.591   7.382  1.00  0.00    -0.203 F 
ATOM     76  F   UNL     1      15.828  -2.805  11.652  1.00  0.00    -0.200 F 
ATOM     77  C   UNL     1      15.324  -2.378   9.385  1.00  0.00     0.200 A 
ATOM     78  F   UNL     1      14.850  -1.904   7.121  1.00  0.00    -0.200 F 
ATOM     79  F   UNL     1      14.840  -3.619   9.242  1.00  0.00    -0.200 F 
ENDBRANCH  45  69
BRANCH  57  80
ATOM     80  C   UNL     1      22.745   2.725  10.873  1.00  0.00     0.064 A 
ATOM     81  C   UNL     1      23.444   2.118   9.820  1.00  0.00     0.173 A 
ATOM     82  C   UNL     1      23.339   2.726  12.144  1.00  0.00     0.173 A 
ATOM     83  F   UNL     1      22.909   2.077   8.590  1.00  0.00    -0.203 F 
ATOM     84  C   UNL     1      24.680   1.516  10.037  1.00  0.00     0.198 A 
ATOM     85  C   UNL     1      24.587   2.147  12.351  1.00  0.00     0.198 A 
ATOM     86  F   UNL     1      22.712   3.299  13.183  1.00  0.00    -0.203 F 
ATOM     87  F   UNL     1      25.310   0.902   9.025  1.00  0.00    -0.200 F 
ATOM     88  C   UNL     1      25.254   1.537  11.300  1.00  0.00     0.200 A 
ATOM     89  F   UNL     1      25.145   2.178  13.569  1.00  0.00    -0.200 F 
ATOM     90  F   UNL     1      26.446   0.961  11.504  1.00  0.00    -0.200 F 
ENDBRANCH  57  80
ENDBRANCH  31  32
ENDBRANCH  23  26
ENDBRANCH  21  22
ENDBRANCH   1  21
TORSDOF 12
