REMARK SMILES C[N@@H+]1CC2(CCN(C(=O)c3cc(-c4ccncc4)n[nH]3)CC2)C[C@H]1C(=O)NCCCNC(=O)c1ccc(-c2c3nc(c(-c4c(F)c(F)c(F)c(F)c4F)c4ccc([nH]4)c(-c4c(F)c(F)c(F)c(F)c4F)c4nc(c(-c5c(F)c(F)c(F)c(F)c5F)c5ccc2[nH]5)C=C4)C=C3)cc1
REMARK SMILES IDX 29 1 28 2 27 3 25 4 26 5 24 7 1 8 2 9 3 10 4 12 23 13 5 14
REMARK SMILES IDX 22 15 6 16 21 17 7 18 8 19 9 20 10 21 11 22 20 23 12 24
REMARK SMILES IDX 19 25 13 27 14 28 18 29 15 30 17 31 16 32 30 33 31 34 32 35
REMARK SMILES IDX 33 37 34 38 35 39 96 40 36 41 95 42 37 43 38 44 39 45 89 46
REMARK SMILES IDX 40 47 94 48 88 49 90 50 41 51 93 52 87 53 86 54 42 56 74 57
REMARK SMILES IDX 54 58 73 59 55 60 58 61 72 62 91 63 56 64 57 65 71 67 92 68
REMARK SMILES IDX 59 69 43 70 44 71 52 72 45 73 46 74 50 75 53 76 47 77 48 78
REMARK SMILES IDX 51 79 49 80 75 81 76 82 84 83 77 84 78 85 82 86 85 87 79 88
REMARK SMILES IDX 80 89 83 90 81 91 60 92 61 93 69 94 62 95 63 96 67 97 70 98
REMARK SMILES IDX 64 99 65 100 68 101 66 102
REMARK H PARENT 27 6 2 11 20 26 31 36 90 55 58 66
REMARK Flexibility Score: inf
ROOT
ATOM      1  C   UNL     1      -1.496   3.918   1.880  1.00  0.00     0.042 C 
ENDROOT
BRANCH   1   2
ATOM      2  C   UNL     1      -0.004   4.141   2.074  1.00  0.00     0.118 C 
BRANCH   2   3
ATOM      3  N   UNL     1       0.660   3.186   2.917  1.00  0.00    -0.351 N 
ATOM      4  C   UNL     1       1.544   2.199   2.585  1.00  0.00     0.278 C 
ATOM      5  O   UNL     1       2.117   1.652   3.537  1.00  0.00    -0.268 OA
ATOM      6  H   UNL     1       0.447   3.253   3.876  1.00  0.00     0.163 HD
BRANCH   4   7
ATOM      7  C   UNL     1       1.853   1.729   1.128  1.00  0.00     0.274 C 
ATOM      8  C   UNL     1       0.818  -0.171   0.058  1.00  0.00     0.333 C 
ATOM      9  N   UNL     1       0.632   1.224   0.465  1.00  0.00    -0.327 N 
ATOM     10  C   UNL     1       0.330   2.098  -0.672  1.00  0.00     0.269 C 
ATOM     11  H   UNL     1      -0.160   1.240   1.108  1.00  0.00     0.348 HD
ATOM     12  C   UNL     1       1.585   2.922  -1.035  1.00  0.00     0.029 C 
ATOM     13  C   UNL     1       2.542   2.689   0.156  1.00  0.00     0.088 C 
ATOM     14  C   UNL     1       1.356   4.444  -1.215  1.00  0.00     0.034 C 
ATOM     15  C   UNL     1       2.137   2.442  -2.411  1.00  0.00     0.034 C 
ATOM     16  C   UNL     1       0.304   4.707  -2.266  1.00  0.00     0.120 C 
ATOM     17  C   UNL     1       1.226   2.849  -3.604  1.00  0.00     0.120 C 
ATOM     18  N   UNL     1       0.817   4.256  -3.549  1.00  0.00    -0.337 N 
ATOM     19  C   UNL     1       0.679   5.010  -4.714  1.00  0.00     0.271 C 
ATOM     20  O   UNL     1       0.661   4.487  -5.829  1.00  0.00    -0.267 OA
BRANCH  19  21
ATOM     21  C   UNL     1       0.530   6.436  -4.553  1.00  0.00     0.123 A 
ATOM     22  C   UNL     1       1.210   7.348  -3.766  1.00  0.00     0.064 A 
ATOM     23  N   UNL     1      -0.386   7.186  -5.234  1.00  0.00    -0.272 N 
ATOM     24  C   UNL     1       0.525   8.579  -3.917  1.00  0.00     0.093 A 
ATOM     25  N   UNL     1      -0.478   8.457  -4.800  1.00  0.00    -0.175 NA
ATOM     26  H   UNL     1      -0.929   6.830  -5.974  1.00  0.00     0.190 HD
BRANCH  24  27
ATOM     27  C   UNL     1       0.793   9.823  -3.208  1.00  0.00     0.005 A 
ATOM     28  C   UNL     1       2.076  10.370  -3.202  1.00  0.00     0.030 A 
ATOM     29  C   UNL     1      -0.223  10.463  -2.496  1.00  0.00     0.030 A 
ATOM     30  C   UNL     1       2.288  11.535  -2.485  1.00  0.00     0.111 A 
ATOM     31  C   UNL     1       0.094  11.617  -1.799  1.00  0.00     0.111 A 
ATOM     32  N   UNL     1       1.328  12.166  -1.776  1.00  0.00    -0.265 NA
ENDBRANCH  24  27
ENDBRANCH  19  21
ENDBRANCH   4   7
ENDBRANCH   2   3
ENDBRANCH   1   2
BRANCH   1  33
ATOM     33  C   UNL     1      -2.361   4.866   2.695  1.00  0.00     0.118 C 
BRANCH  33  34
ATOM     34  N   UNL     1      -2.256   6.254   2.246  1.00  0.00    -0.352 N 
ATOM     35  C   UNL     1      -3.216   7.149   1.836  1.00  0.00     0.251 C 
ATOM     36  H   UNL     1      -1.338   6.610   2.236  1.00  0.00     0.163 HD
ATOM     37  O   UNL     1      -2.866   8.223   1.353  1.00  0.00    -0.269 OA
BRANCH  35  38
ATOM     38  C   UNL     1      -4.660   6.831   1.939  1.00  0.00     0.039 A 
ATOM     39  C   UNL     1      -5.529   7.299   0.947  1.00  0.00     0.014 A 
ATOM     40  C   UNL     1      -5.171   6.102   3.013  1.00  0.00     0.014 A 
ATOM     41  C   UNL     1      -6.887   6.970   0.992  1.00  0.00     0.010 A 
ATOM     42  C   UNL     1      -6.500   5.691   3.006  1.00  0.00     0.010 A 
ATOM     43  C   UNL     1      -7.375   6.126   2.001  1.00  0.00    -0.014 A 
BRANCH  43  44
ATOM     44  C   UNL     1      -8.795   5.696   2.050  1.00  0.00     0.031 A 
ATOM     45  C   UNL     1      -9.646   6.055   3.238  1.00  0.00     0.074 A 
ATOM     46  C   UNL     1      -9.289   4.901   1.082  1.00  0.00     0.049 A 
ATOM     47  N   UNL     1     -10.855   5.659   3.544  1.00  0.00    -0.248 NA
ATOM     48  C   UNL     1      -9.037   6.946   4.238  1.00  0.00     0.031 C 
ATOM     49  C   UNL     1      -8.551   4.437  -0.093  1.00  0.00     0.029 A 
ATOM     50  N   UNL     1     -10.529   4.328   0.943  1.00  0.00    -0.354 N 
ATOM     51  C   UNL     1     -11.130   6.213   4.787  1.00  0.00     0.074 A 
ATOM     52  C   UNL     1      -9.948   6.940   5.198  1.00  0.00     0.031 C 
ATOM     53  C   UNL     1      -9.359   3.675  -0.848  1.00  0.00     0.029 A 
ATOM     54  C   UNL     1     -10.658   3.564  -0.191  1.00  0.00     0.049 A 
ATOM     55  H   UNL     1     -11.257   4.454   1.594  1.00  0.00     0.167 HD
ATOM     56  C   UNL     1     -12.271   6.138   5.512  1.00  0.00     0.037 A 
ATOM     57  C   UNL     1     -11.706   2.852  -0.646  1.00  0.00     0.037 A 
ATOM     58  C   UNL     1     -13.467   5.473   5.069  1.00  0.00     0.049 A 
ATOM     59  C   UNL     1     -12.979   2.826   0.153  1.00  0.00     0.074 A 
ATOM     60  C   UNL     1     -14.706   5.424   5.682  1.00  0.00     0.029 A 
ATOM     61  N   UNL     1     -13.572   4.747   3.892  1.00  0.00    -0.354 N 
ATOM     62  N   UNL     1     -13.248   3.404   1.298  1.00  0.00    -0.248 NA
ATOM     63  C   UNL     1     -14.095   2.051  -0.407  1.00  0.00     0.031 C 
ATOM     64  C   UNL     1     -15.555   4.644   4.888  1.00  0.00     0.029 A 
ATOM     65  C   UNL     1     -14.853   4.235   3.766  1.00  0.00     0.049 A 
ATOM     66  H   UNL     1     -12.844   4.615   3.242  1.00  0.00     0.167 HD
ATOM     67  C   UNL     1     -14.567   3.085   1.585  1.00  0.00     0.074 A 
ATOM     68  C   UNL     1     -15.049   2.270   0.488  1.00  0.00     0.031 C 
ATOM     69  C   UNL     1     -15.314   3.435   2.661  1.00  0.00     0.037 A 
BRANCH  56  70
ATOM     70  C   UNL     1     -12.279   6.800   6.859  1.00  0.00     0.064 A 
ATOM     71  C   UNL     1     -12.273   8.197   6.995  1.00  0.00     0.173 A 
ATOM     72  C   UNL     1     -12.307   6.027   8.029  1.00  0.00     0.173 A 
ATOM     73  F   UNL     1     -12.232   8.980   5.907  1.00  0.00    -0.203 F 
ATOM     74  C   UNL     1     -12.257   8.794   8.253  1.00  0.00     0.198 A 
ATOM     75  C   UNL     1     -12.321   6.628   9.285  1.00  0.00     0.198 A 
ATOM     76  F   UNL     1     -12.319   4.687   7.955  1.00  0.00    -0.203 F 
ATOM     77  F   UNL     1     -12.193  10.128   8.358  1.00  0.00    -0.200 F 
ATOM     78  C   UNL     1     -12.286   8.010   9.396  1.00  0.00     0.200 A 
ATOM     79  F   UNL     1     -12.359   5.869  10.390  1.00  0.00    -0.200 F 
ATOM     80  F   UNL     1     -12.270   8.586  10.606  1.00  0.00    -0.200 F 
ENDBRANCH  56  70
BRANCH  57  81
ATOM     81  C   UNL     1     -11.607   2.144  -1.947  1.00  0.00     0.064 A 
ATOM     82  C   UNL     1     -12.281   2.634  -3.074  1.00  0.00     0.173 A 
ATOM     83  C   UNL     1     -10.834   0.985  -2.098  1.00  0.00     0.173 A 
ATOM     84  F   UNL     1     -13.048   3.730  -2.971  1.00  0.00    -0.203 F 
ATOM     85  C   UNL     1     -12.194   1.985  -4.303  1.00  0.00     0.198 A 
ATOM     86  C   UNL     1     -10.731   0.348  -3.333  1.00  0.00     0.198 A 
ATOM     87  F   UNL     1     -10.167   0.481  -1.050  1.00  0.00    -0.203 F 
ATOM     88  F   UNL     1     -12.873   2.457  -5.358  1.00  0.00    -0.200 F 
ATOM     89  C   UNL     1     -11.414   0.845  -4.433  1.00  0.00     0.200 A 
ATOM     90  F   UNL     1      -9.967  -0.746  -3.458  1.00  0.00    -0.200 F 
ATOM     91  F   UNL     1     -11.325   0.224  -5.617  1.00  0.00    -0.200 F 
ENDBRANCH  57  81
BRANCH  69  92
ATOM     92  C   UNL     1     -16.737   2.968   2.687  1.00  0.00     0.064 A 
ATOM     93  C   UNL     1     -17.064   1.635   2.976  1.00  0.00     0.173 A 
ATOM     94  C   UNL     1     -17.785   3.873   2.463  1.00  0.00     0.173 A 
ATOM     95  F   UNL     1     -16.094   0.732   3.181  1.00  0.00    -0.203 F 
ATOM     96  C   UNL     1     -18.392   1.222   3.022  1.00  0.00     0.198 A 
ATOM     97  C   UNL     1     -19.112   3.460   2.533  1.00  0.00     0.198 A 
ATOM     98  F   UNL     1     -17.520   5.159   2.188  1.00  0.00    -0.203 F 
ATOM     99  F   UNL     1     -18.683  -0.064   3.262  1.00  0.00    -0.200 F 
ATOM    100  C   UNL     1     -19.414   2.135   2.807  1.00  0.00     0.200 A 
ATOM    101  F   UNL     1     -20.099   4.345   2.334  1.00  0.00    -0.200 F 
ATOM    102  F   UNL     1     -20.693   1.735   2.857  1.00  0.00    -0.200 F 
ENDBRANCH  69  92
ENDBRANCH  43  44
ENDBRANCH  35  38
ENDBRANCH  33  34
ENDBRANCH   1  33
TORSDOF 12
