REMARK SMILES C=CC[N@@H+](CC(=O)NCCCNC(=O)c1ccc(-c2c3nc(c(-c4c(F)c(F)c(F)c(F)c4F)c4ccc([nH]4)c(-c4c(F)c(F)c(F)c(F)c4F)c4nc(c(-c5c(F)c(F)c(F)c(F)c5F)c5ccc2[nH]5)C=C4)C=C3)cc1)CC(=O)Nc1ccccc1
REMARK SMILES IDX 9 1 8 2 6 3 7 4 5 6 4 7 3 9 2 10 1 11 78 12 79 13 80 14
REMARK SMILES IDX 81 15 82 17 83 18 87 19 84 20 86 21 85 22 10 23 11 24 12 25
REMARK SMILES IDX 13 26 14 28 15 29 16 30 77 31 17 32 76 33 18 34 19 35 20 36
REMARK SMILES IDX 70 37 21 38 75 39 69 40 71 41 22 42 74 43 68 44 67 45 23 47
REMARK SMILES IDX 55 48 35 49 54 50 36 51 39 52 53 53 72 54 37 55 38 56 52 58
REMARK SMILES IDX 73 59 40 60 24 61 25 62 33 63 26 64 27 65 31 66 34 67 28 68
REMARK SMILES IDX 29 69 32 70 30 71 56 72 57 73 65 74 58 75 59 76 63 77 66 78
REMARK SMILES IDX 60 79 61 80 64 81 62 82 41 83 42 84 50 85 43 86 44 87 48 88
REMARK SMILES IDX 51 89 45 90 46 91 49 92 47 93
REMARK H PARENT 8 5 4 8 81 16 12 27 71 46 39 57
REMARK Flexibility Score: inf
ROOT
ATOM      1  C   UNL     1      -2.328  -0.105   2.528  1.00  0.00     0.118 C 
ENDROOT
BRANCH   1   2
ATOM      2  N   UNL     1      -3.316  -0.075   1.473  1.00  0.00    -0.351 N 
ATOM      3  C   UNL     1      -3.245  -0.561   0.207  1.00  0.00     0.275 C 
ATOM      4  O   UNL     1      -3.950   0.015  -0.620  1.00  0.00    -0.269 OA
ATOM      5  H   UNL     1      -4.166   0.363   1.706  1.00  0.00     0.163 HD
BRANCH   3   6
ATOM      6  C   UNL     1      -2.395  -1.796  -0.116  1.00  0.00     0.364 C 
BRANCH   6   7
ATOM      7  N   UNL     1      -1.325  -1.590  -1.103  1.00  0.00    -0.316 N 
ATOM      8  H   UNL     1      -0.858  -2.492  -1.192  1.00  0.00     0.349 HD
BRANCH   7   9
ATOM      9  C   UNL     1      -0.298  -0.690  -0.608  1.00  0.00     0.291 C 
BRANCH   9  10
ATOM     10  C   UNL     1       1.110  -1.029  -0.989  1.00  0.00     0.025 C 
ATOM     11  C   UNL     1       2.118  -0.157  -0.833  1.00  0.00     0.010 C 
ENDBRANCH   9  10
ENDBRANCH   7   9
BRANCH   7  12
ATOM     12  C   UNL     1      -1.737  -1.446  -2.516  1.00  0.00     0.364 C 
BRANCH  12  13
ATOM     13  C   UNL     1      -2.362  -0.115  -2.959  1.00  0.00     0.279 C 
ATOM     14  O   UNL     1      -1.715   0.939  -2.889  1.00  0.00    -0.268 OA
ATOM     15  N   UNL     1      -3.569  -0.069  -3.619  1.00  0.00    -0.321 N 
ATOM     16  H   UNL     1      -3.658   0.718  -4.204  1.00  0.00     0.170 HD
BRANCH  15  17
ATOM     17  C   UNL     1      -4.706  -0.905  -3.639  1.00  0.00     0.041 A 
ATOM     18  C   UNL     1      -5.682  -0.660  -4.612  1.00  0.00     0.026 A 
ATOM     19  C   UNL     1      -4.987  -1.868  -2.676  1.00  0.00     0.026 A 
ATOM     20  C   UNL     1      -6.889  -1.375  -4.617  1.00  0.00     0.002 A 
ATOM     21  C   UNL     1      -6.205  -2.553  -2.644  1.00  0.00     0.002 A 
ATOM     22  C   UNL     1      -7.156  -2.313  -3.624  1.00  0.00     0.000 A 
ENDBRANCH  15  17
ENDBRANCH  12  13
ENDBRANCH   7  12
ENDBRANCH   6   7
ENDBRANCH   3   6
ENDBRANCH   1   2
BRANCH   1  23
ATOM     23  C   UNL     1      -1.297   1.012   2.362  1.00  0.00     0.042 C 
BRANCH  23  24
ATOM     24  C   UNL     1      -1.897   2.367   2.003  1.00  0.00     0.118 C 
BRANCH  24  25
ATOM     25  N   UNL     1      -2.567   2.961   3.143  1.00  0.00    -0.352 N 
ATOM     26  C   UNL     1      -2.019   3.720   4.146  1.00  0.00     0.251 C 
ATOM     27  H   UNL     1      -3.537   2.801   3.205  1.00  0.00     0.163 HD
ATOM     28  O   UNL     1      -2.615   3.860   5.208  1.00  0.00    -0.269 OA
BRANCH  26  29
ATOM     29  C   UNL     1      -0.695   4.351   3.949  1.00  0.00     0.039 A 
ATOM     30  C   UNL     1       0.234   4.321   4.991  1.00  0.00     0.014 A 
ATOM     31  C   UNL     1      -0.390   5.017   2.759  1.00  0.00     0.014 A 
ATOM     32  C   UNL     1       1.477   4.936   4.827  1.00  0.00     0.010 A 
ATOM     33  C   UNL     1       0.881   5.549   2.563  1.00  0.00     0.010 A 
ATOM     34  C   UNL     1       1.817   5.543   3.607  1.00  0.00    -0.014 A 
BRANCH  34  35
ATOM     35  C   UNL     1       3.123   6.226   3.424  1.00  0.00     0.031 A 
ATOM     36  C   UNL     1       3.165   7.710   3.172  1.00  0.00     0.074 A 
ATOM     37  C   UNL     1       4.264   5.511   3.444  1.00  0.00     0.049 A 
ATOM     38  N   UNL     1       4.197   8.483   2.941  1.00  0.00    -0.248 NA
ATOM     39  C   UNL     1       1.874   8.415   3.147  1.00  0.00     0.031 C 
ATOM     40  C   UNL     1       4.351   4.063   3.634  1.00  0.00     0.029 A 
ATOM     41  N   UNL     1       5.570   5.907   3.296  1.00  0.00    -0.354 N 
ATOM     42  C   UNL     1       3.676   9.753   2.727  1.00  0.00     0.074 A 
ATOM     43  C   UNL     1       2.237   9.639   2.797  1.00  0.00     0.031 C 
ATOM     44  C   UNL     1       5.643   3.695   3.618  1.00  0.00     0.029 A 
ATOM     45  C   UNL     1       6.471   4.874   3.380  1.00  0.00     0.049 A 
ATOM     46  H   UNL     1       5.835   6.843   3.145  1.00  0.00     0.167 HD
ATOM     47  C   UNL     1       4.339  10.916   2.519  1.00  0.00     0.037 A 
ATOM     48  C   UNL     1       7.813   4.878   3.272  1.00  0.00     0.037 A 
ATOM     49  C   UNL     1       5.773  11.032   2.483  1.00  0.00     0.049 A 
ATOM     50  C   UNL     1       8.527   6.184   3.041  1.00  0.00     0.074 A 
ATOM     51  C   UNL     1       6.544  12.172   2.342  1.00  0.00     0.029 A 
ATOM     52  N   UNL     1       6.653   9.964   2.588  1.00  0.00    -0.354 N 
ATOM     53  N   UNL     1       8.028   7.389   2.912  1.00  0.00    -0.248 NA
ATOM     54  C   UNL     1       9.992   6.129   2.948  1.00  0.00     0.031 C 
ATOM     55  C   UNL     1       7.889  11.790   2.314  1.00  0.00     0.029 A 
ATOM     56  C   UNL     1       7.959  10.417   2.492  1.00  0.00     0.049 A 
ATOM     57  H   UNL     1       6.388   9.024   2.712  1.00  0.00     0.167 HD
ATOM     58  C   UNL     1       9.115   8.238   2.753  1.00  0.00     0.074 A 
ATOM     59  C   UNL     1      10.302   7.411   2.817  1.00  0.00     0.031 C 
ATOM     60  C   UNL     1       9.129   9.581   2.568  1.00  0.00     0.037 A 
BRANCH  47  61
ATOM     61  C   UNL     1       3.519  12.159   2.320  1.00  0.00     0.064 A 
ATOM     62  C   UNL     1       2.779  12.729   3.368  1.00  0.00     0.173 A 
ATOM     63  C   UNL     1       3.498  12.807   1.076  1.00  0.00     0.173 A 
ATOM     64  F   UNL     1       2.756  12.144   4.575  1.00  0.00    -0.203 F 
ATOM     65  C   UNL     1       2.024  13.882   3.169  1.00  0.00     0.198 A 
ATOM     66  C   UNL     1       2.768  13.978   0.889  1.00  0.00     0.198 A 
ATOM     67  F   UNL     1       4.193  12.310   0.042  1.00  0.00    -0.203 F 
ATOM     68  F   UNL     1       1.284  14.377   4.170  1.00  0.00    -0.200 F 
ATOM     69  C   UNL     1       2.025  14.510   1.933  1.00  0.00     0.200 A 
ATOM     70  F   UNL     1       2.781  14.592  -0.302  1.00  0.00    -0.200 F 
ATOM     71  F   UNL     1       1.304  15.624   1.744  1.00  0.00    -0.200 F 
ENDBRANCH  47  61
BRANCH  48  72
ATOM     72  C   UNL     1       8.573   3.608   3.409  1.00  0.00     0.064 A 
ATOM     73  C   UNL     1       9.395   3.378   4.522  1.00  0.00     0.173 A 
ATOM     74  C   UNL     1       8.500   2.603   2.434  1.00  0.00     0.173 A 
ATOM     75  F   UNL     1       9.514   4.317   5.472  1.00  0.00    -0.203 F 
ATOM     76  C   UNL     1      10.130   2.201   4.643  1.00  0.00     0.198 A 
ATOM     77  C   UNL     1       9.213   1.414   2.571  1.00  0.00     0.198 A 
ATOM     78  F   UNL     1       7.724   2.771   1.353  1.00  0.00    -0.203 F 
ATOM     79  F   UNL     1      10.944   2.027   5.694  1.00  0.00    -0.200 F 
ATOM     80  C   UNL     1      10.034   1.217   3.671  1.00  0.00     0.200 A 
ATOM     81  F   UNL     1       9.105   0.459   1.637  1.00  0.00    -0.200 F 
ATOM     82  F   UNL     1      10.738   0.083   3.790  1.00  0.00    -0.200 F 
ENDBRANCH  48  72
BRANCH  60  83
ATOM     83  C   UNL     1      10.470  10.247   2.460  1.00  0.00     0.064 A 
ATOM     84  C   UNL     1      11.281  10.091   1.327  1.00  0.00     0.173 A 
ATOM     85  C   UNL     1      10.929  11.086   3.487  1.00  0.00     0.173 A 
ATOM     86  F   UNL     1      10.893   9.288   0.324  1.00  0.00    -0.203 F 
ATOM     87  C   UNL     1      12.514  10.730   1.237  1.00  0.00     0.198 A 
ATOM     88  C   UNL     1      12.148  11.749   3.380  1.00  0.00     0.198 A 
ATOM     89  F   UNL     1      10.188  11.275   4.589  1.00  0.00    -0.203 F 
ATOM     90  F   UNL     1      13.295  10.529   0.166  1.00  0.00    -0.200 F 
ATOM     91  C   UNL     1      12.943  11.564   2.259  1.00  0.00     0.200 A 
ATOM     92  F   UNL     1      12.554  12.566   4.362  1.00  0.00    -0.200 F 
ATOM     93  F   UNL     1      14.127  12.185   2.167  1.00  0.00    -0.200 F 
ENDBRANCH  60  83
ENDBRANCH  34  35
ENDBRANCH  26  29
ENDBRANCH  24  25
ENDBRANCH  23  24
ENDBRANCH   1  23
TORSDOF 16
