REMARK SMILES COc1ccc(C(=O)N[C@H](C(=O)NCCCNC(=O)c2ccc(-c3c4nc(c(-c5c(F)c(F)c(F)c(F)c5F)c5ccc([nH]5)c(-c5c(F)c(F)c(F)c(F)c5F)c5nc(c(-c6c(F)c(F)c(F)c(F)c6F)c6ccc3[nH]6)C=C5)C=C4)cc2)C2=C(C)N=N[C@H]2C)c(F)c1F
REMARK SMILES IDX 14 1 13 2 11 3 12 4 10 6 9 7 7 8 8 9 6 11 3 12 4 13 92 14
REMARK SMILES IDX 5 15 90 16 93 17 91 18 2 19 1 20 83 21 84 22 88 23 85 24
REMARK SMILES IDX 86 25 87 26 89 27 15 28 16 29 17 30 18 31 19 33 20 34 21 35
REMARK SMILES IDX 82 36 22 37 81 38 23 39 24 40 25 41 75 42 26 43 80 44 74 45
REMARK SMILES IDX 76 46 27 47 79 48 73 49 72 50 28 52 60 53 40 54 59 55 41 56
REMARK SMILES IDX 44 57 58 58 77 59 42 60 43 61 57 63 78 64 45 65 29 66 30 67
REMARK SMILES IDX 38 68 31 69 32 70 36 71 39 72 33 73 34 74 37 75 35 76 61 77
REMARK SMILES IDX 62 78 70 79 63 80 64 81 68 82 71 83 65 84 66 85 69 86 67 87
REMARK SMILES IDX 46 88 47 89 55 90 48 91 49 92 53 93 56 94 50 95 51 96 54 97
REMARK SMILES IDX 52 98
REMARK H PARENT 13 5 9 10 17 32 76 51 44 62
REMARK Flexibility Score: inf
ROOT
ATOM      1  C   UNL     1       1.814   5.494   5.205  1.00  0.00     0.117 C 
ENDROOT
BRANCH   1   2
ATOM      2  N   UNL     1       1.586   4.593   6.324  1.00  0.00    -0.354 N 
ATOM      3  C   UNL     1       0.469   3.959   6.779  1.00  0.00     0.247 C 
ATOM      4  O   UNL     1       0.611   3.243   7.779  1.00  0.00    -0.272 OA
ATOM      5  H   UNL     1       2.394   4.406   6.855  1.00  0.00     0.163 HD
BRANCH   3   6
ATOM      6  C   UNL     1      -0.931   4.132   6.113  1.00  0.00     0.202 C 
BRANCH   6   7
ATOM      7  N   UNL     1      -1.474   2.770   6.179  1.00  0.00    -0.336 N 
ATOM      8  C   UNL     1      -2.248   1.981   5.380  1.00  0.00     0.255 C 
ATOM      9  O   UNL     1      -2.476   0.827   5.745  1.00  0.00    -0.269 OA
ATOM     10  H   UNL     1      -1.213   2.310   7.009  1.00  0.00     0.165 HD
BRANCH   8  11
ATOM     11  C   UNL     1      -2.930   2.456   4.164  1.00  0.00     0.078 A 
ATOM     12  C   UNL     1      -4.372   3.203   1.876  1.00  0.00     0.157 A 
ATOM     13  C   UNL     1      -4.989   2.422   2.851  1.00  0.00     0.050 A 
ATOM     14  C   UNL     1      -3.028   3.553   2.024  1.00  0.00     0.201 A 
ATOM     15  C   UNL     1      -4.270   2.053   3.991  1.00  0.00     0.021 A 
ATOM     16  C   UNL     1      -2.306   3.174   3.154  1.00  0.00     0.175 A 
ATOM     17  F   UNL     1      -2.416   4.270   1.068  1.00  0.00    -0.200 F 
ATOM     18  F   UNL     1      -0.999   3.465   3.212  1.00  0.00    -0.203 F 
BRANCH  12  19
ATOM     19  O   UNL     1      -5.006   3.561   0.718  1.00  0.00    -0.494 OA
ATOM     20  C   UNL     1      -6.221   4.271   0.950  1.00  0.00     0.278 C 
ENDBRANCH  12  19
ENDBRANCH   8  11
ENDBRANCH   6   7
BRANCH   6  21
ATOM     21  C   UNL     1      -1.794   5.114   6.856  1.00  0.00     0.011 C 
ATOM     22  C   UNL     1      -3.106   5.181   7.137  1.00  0.00     0.064 C 
ATOM     23  C   UNL     1      -1.254   6.426   7.354  1.00  0.00     0.156 C 
ATOM     24  C   UNL     1      -4.214   4.219   6.895  1.00  0.00     0.069 C 
ATOM     25  N   UNL     1      -3.469   6.384   7.692  1.00  0.00    -0.160 NA
ATOM     26  N   UNL     1      -2.477   7.143   7.792  1.00  0.00    -0.181 NA
ATOM     27  C   UNL     1      -0.331   6.351   8.569  1.00  0.00     0.040 C 
ENDBRANCH   6  21
ENDBRANCH   3   6
ENDBRANCH   1   2
BRANCH   1  28
ATOM     28  C   UNL     1       2.078   6.942   5.634  1.00  0.00     0.042 C 
BRANCH  28  29
ATOM     29  C   UNL     1       3.228   7.138   6.627  1.00  0.00     0.118 C 
BRANCH  29  30
ATOM     30  N   UNL     1       4.433   7.615   5.973  1.00  0.00    -0.352 N 
ATOM     31  C   UNL     1       5.102   8.806   6.111  1.00  0.00     0.251 C 
ATOM     32  H   UNL     1       4.832   6.986   5.329  1.00  0.00     0.163 HD
ATOM     33  O   UNL     1       5.961   9.104   5.284  1.00  0.00    -0.269 OA
BRANCH  31  34
ATOM     34  C   UNL     1       4.824   9.743   7.230  1.00  0.00     0.039 A 
ATOM     35  C   UNL     1       4.875  11.118   6.969  1.00  0.00     0.014 A 
ATOM     36  C   UNL     1       4.636   9.303   8.544  1.00  0.00     0.014 A 
ATOM     37  C   UNL     1       4.730  12.042   8.010  1.00  0.00     0.010 A 
ATOM     38  C   UNL     1       4.440  10.227   9.578  1.00  0.00     0.010 A 
ATOM     39  C   UNL     1       4.510  11.606   9.325  1.00  0.00    -0.014 A 
BRANCH  39  40
ATOM     40  C   UNL     1       4.411  12.588  10.440  1.00  0.00     0.031 A 
ATOM     41  C   UNL     1       5.505  12.682  11.470  1.00  0.00     0.074 A 
ATOM     42  C   UNL     1       3.345  13.407  10.527  1.00  0.00     0.049 A 
ATOM     43  N   UNL     1       5.602  13.479  12.507  1.00  0.00    -0.248 NA
ATOM     44  C   UNL     1       6.636  11.752  11.325  1.00  0.00     0.031 C 
ATOM     45  C   UNL     1       2.210  13.412   9.605  1.00  0.00     0.029 A 
ATOM     46  N   UNL     1       3.046  14.399  11.430  1.00  0.00    -0.354 N 
ATOM     47  C   UNL     1       6.795  13.143  13.134  1.00  0.00     0.074 A 
ATOM     48  C   UNL     1       7.368  12.041  12.392  1.00  0.00     0.031 C 
ATOM     49  C   UNL     1       1.353  14.380   9.970  1.00  0.00     0.029 A 
ATOM     50  C   UNL     1       1.863  15.047  11.166  1.00  0.00     0.049 A 
ATOM     51  H   UNL     1       3.625  14.625  12.194  1.00  0.00     0.167 HD
ATOM     52  C   UNL     1       7.374  13.718  14.215  1.00  0.00     0.037 A 
ATOM     53  C   UNL     1       1.260  16.065  11.810  1.00  0.00     0.037 A 
ATOM     54  C   UNL     1       6.825  14.833  14.940  1.00  0.00     0.049 A 
ATOM     55  C   UNL     1       1.914  16.673  13.022  1.00  0.00     0.074 A 
ATOM     56  C   UNL     1       7.363  15.504  16.025  1.00  0.00     0.029 A 
ATOM     57  N   UNL     1       5.617  15.446  14.650  1.00  0.00    -0.354 N 
ATOM     58  N   UNL     1       3.060  16.370  13.579  1.00  0.00    -0.248 NA
ATOM     59  C   UNL     1       1.192  17.765  13.692  1.00  0.00     0.031 C 
ATOM     60  C   UNL     1       6.465  16.501  16.413  1.00  0.00     0.029 A 
ATOM     61  C   UNL     1       5.386  16.478  15.546  1.00  0.00     0.049 A 
ATOM     62  H   UNL     1       5.013  15.188  13.917  1.00  0.00     0.167 HD
ATOM     63  C   UNL     1       3.209  17.245  14.647  1.00  0.00     0.074 A 
ATOM     64  C   UNL     1       2.040  18.099  14.656  1.00  0.00     0.031 C 
ATOM     65  C   UNL     1       4.226  17.330  15.537  1.00  0.00     0.037 A 
BRANCH  52  66
ATOM     66  C   UNL     1       8.689  13.167  14.682  1.00  0.00     0.064 A 
ATOM     67  C   UNL     1       8.780  12.460  15.890  1.00  0.00     0.173 A 
ATOM     68  C   UNL     1       9.874  13.411  13.972  1.00  0.00     0.173 A 
ATOM     69  F   UNL     1       7.677  12.209  16.611  1.00  0.00    -0.203 F 
ATOM     70  C   UNL     1      10.011  12.029  16.376  1.00  0.00     0.198 A 
ATOM     71  C   UNL     1      11.101  12.958  14.449  1.00  0.00     0.198 A 
ATOM     72  F   UNL     1       9.837  14.076  12.807  1.00  0.00    -0.203 F 
ATOM     73  F   UNL     1      10.079  11.383  17.549  1.00  0.00    -0.200 F 
ATOM     74  C   UNL     1      11.170  12.276  15.654  1.00  0.00     0.200 A 
ATOM     75  F   UNL     1      12.216  13.180  13.741  1.00  0.00    -0.200 F 
ATOM     76  F   UNL     1      12.354  11.855  16.121  1.00  0.00    -0.200 F 
ENDBRANCH  52  66
BRANCH  53  77
ATOM     77  C   UNL     1      -0.023  16.604  11.291  1.00  0.00     0.064 A 
ATOM     78  C   UNL     1      -1.216  15.874  11.386  1.00  0.00     0.173 A 
ATOM     79  C   UNL     1      -0.072  17.859  10.668  1.00  0.00     0.173 A 
ATOM     80  F   UNL     1      -1.220  14.668  11.973  1.00  0.00    -0.203 F 
ATOM     81  C   UNL     1      -2.407  16.371  10.861  1.00  0.00     0.198 A 
ATOM     82  C   UNL     1      -1.268  18.365  10.164  1.00  0.00     0.198 A 
ATOM     83  F   UNL     1       1.040  18.603  10.575  1.00  0.00    -0.203 F 
ATOM     84  F   UNL     1      -3.528  15.642  10.940  1.00  0.00    -0.200 F 
ATOM     85  C   UNL     1      -2.433  17.618  10.254  1.00  0.00     0.200 A 
ATOM     86  F   UNL     1      -1.293  19.580   9.598  1.00  0.00    -0.200 F 
ATOM     87  F   UNL     1      -3.580  18.101   9.758  1.00  0.00    -0.200 F 
ENDBRANCH  53  77
BRANCH  65  88
ATOM     88  C   UNL     1       4.146  18.392  16.592  1.00  0.00     0.064 A 
ATOM     89  C   UNL     1       4.992  19.511  16.538  1.00  0.00     0.173 A 
ATOM     90  C   UNL     1       3.304  18.255  17.704  1.00  0.00     0.173 A 
ATOM     91  F   UNL     1       5.821  19.682  15.498  1.00  0.00    -0.203 F 
ATOM     92  C   UNL     1       5.009  20.445  17.570  1.00  0.00     0.198 A 
ATOM     93  C   UNL     1       3.308  19.203  18.724  1.00  0.00     0.198 A 
ATOM     94  F   UNL     1       2.471  17.207  17.794  1.00  0.00    -0.203 F 
ATOM     95  F   UNL     1       5.848  21.488  17.515  1.00  0.00    -0.200 F 
ATOM     96  C   UNL     1       4.167  20.290  18.662  1.00  0.00     0.200 A 
ATOM     97  F   UNL     1       2.482  19.062  19.770  1.00  0.00    -0.200 F 
ATOM     98  F   UNL     1       4.184  21.190  19.655  1.00  0.00    -0.200 F 
ENDBRANCH  65  88
ENDBRANCH  39  40
ENDBRANCH  31  34
ENDBRANCH  29  30
ENDBRANCH  28  29
ENDBRANCH   1  28
TORSDOF 14
