REMARK SMILES Cc1ccc(S(=O)(=O)N2CCCC2)cc1C(=O)N[C@H](CC1=c2ccccc2=NC1)C(=O)NCCCNC(=O)c1ccc(-c2c3nc(c(-c4c(F)c(F)c(F)c(F)c4F)c4ccc([nH]4)c(-c4c(F)c(F)c(F)c(F)c4F)c4nc(c(-c5c(F)c(F)c(F)c(F)c5F)c5ccc2[nH]5)C=C4)C=C3)cc1
REMARK SMILES IDX 33 1 32 2 30 3 31 4 19 6 18 7 16 8 17 9 15 11 1 12 2 13 3 14
REMARK SMILES IDX 4 15 14 16 5 17 6 18 7 19 8 20 9 21 10 22 13 23 11 24 12 25
REMARK SMILES IDX 20 26 21 27 22 28 29 29 23 30 27 31 28 32 24 33 26 34 25 35
REMARK SMILES IDX 34 36 35 37 36 38 37 39 38 41 39 42 40 43 101 44 41 45
REMARK SMILES IDX 100 46 42 47 43 48 44 49 94 50 45 51 99 52 93 53 95 54 46 55
REMARK SMILES IDX 98 56 92 57 91 58 47 60 79 61 59 62 78 63 60 64 63 65 77 66
REMARK SMILES IDX 96 67 61 68 62 69 76 71 97 72 64 73 48 74 49 75 57 76 50 77
REMARK SMILES IDX 51 78 55 79 58 80 52 81 53 82 56 83 54 84 80 85 81 86 89 87
REMARK SMILES IDX 82 88 83 89 87 90 90 91 84 92 85 93 88 94 86 95 65 96 66 97
REMARK SMILES IDX 74 98 67 99 68 100 72 101 75 102 69 103 70 104 73 105 71 106
REMARK H PARENT 32 5 18 10 36 40 95 59 63 70
REMARK Flexibility Score: inf
ROOT
ATOM      1  C   UNL     1       6.268   2.358   0.404  1.00  0.00     0.117 C 
ENDROOT
BRANCH   1   2
ATOM      2  N   UNL     1       5.442   1.522   1.248  1.00  0.00    -0.354 N 
ATOM      3  C   UNL     1       4.173   1.056   1.144  1.00  0.00     0.242 C 
ATOM      4  O   UNL     1       3.845   0.323   2.083  1.00  0.00    -0.273 OA
ATOM      5  H   UNL     1       5.898   1.230   2.070  1.00  0.00     0.163 HD
BRANCH   3   6
ATOM      6  C   UNL     1       3.211   1.285  -0.070  1.00  0.00     0.175 C 
BRANCH   6   7
ATOM      7  N   UNL     1       3.663   2.003  -1.309  1.00  0.00    -0.340 N 
ATOM      8  C   UNL     1       3.919   3.196  -1.929  1.00  0.00     0.252 C 
ATOM      9  O   UNL     1       4.383   3.026  -3.069  1.00  0.00    -0.269 OA
ATOM     10  H   UNL     1       3.865   1.303  -1.971  1.00  0.00     0.164 HD
BRANCH   8  11
ATOM     11  C   UNL     1       3.801   4.634  -1.486  1.00  0.00     0.044 A 
ATOM     12  C   UNL     1       2.412   4.366   0.632  1.00  0.00     0.045 C 
ATOM     13  C   UNL     1       3.117   5.160  -0.386  1.00  0.00    -0.038 A 
ATOM     14  C   UNL     1       3.026   6.552  -0.177  1.00  0.00     0.005 A 
ATOM     15  C   UNL     1       3.655   7.447  -1.015  1.00  0.00     0.022 A 
ATOM     16  C   UNL     1       4.477   5.580  -2.313  1.00  0.00     0.035 A 
ATOM     17  C   UNL     1       4.395   6.962  -2.085  1.00  0.00     0.083 A 
BRANCH  17  18
ATOM     18  S   UNL     1       5.108   8.220  -3.121  1.00  0.00     0.243 S 
ATOM     19  O   UNL     1       4.012   8.738  -3.907  1.00  0.00    -0.207 OA
ATOM     20  O   UNL     1       5.872   9.076  -2.232  1.00  0.00    -0.207 OA
BRANCH  18  21
ATOM     21  N   UNL     1       6.177   7.497  -4.154  1.00  0.00    -0.198 NA
ATOM     22  C   UNL     1       5.765   6.690  -5.304  1.00  0.00     0.102 C 
ATOM     23  C   UNL     1       7.589   7.291  -3.819  1.00  0.00     0.102 C 
ATOM     24  C   UNL     1       6.933   5.727  -5.488  1.00  0.00     0.018 C 
ATOM     25  C   UNL     1       8.126   6.558  -5.045  1.00  0.00     0.018 C 
ENDBRANCH  18  21
ENDBRANCH  17  18
ENDBRANCH   8  11
ENDBRANCH   6   7
BRANCH   6  26
ATOM     26  C   UNL     1       1.651   1.328   0.214  1.00  0.00     0.068 C 
BRANCH  26  27
ATOM     27  C   UNL     1       1.080   1.377   1.622  1.00  0.00    -0.037 C 
ATOM     28  C   UNL     1       0.947   0.384   2.505  1.00  0.00     0.001 A 
ATOM     29  C   UNL     1       0.433   2.610   2.201  1.00  0.00     0.174 C 
ATOM     30  C   UNL     1       1.259  -1.008   2.526  1.00  0.00     0.010 A 
ATOM     31  C   UNL     1       0.353   1.040   3.684  1.00  0.00     0.065 A 
ATOM     32  N   UNL     1      -0.021   2.274   3.565  1.00  0.00    -0.280 NA
ATOM     33  C   UNL     1       1.104  -1.688   3.674  1.00  0.00     0.001 A 
ATOM     34  C   UNL     1       0.255   0.246   4.922  1.00  0.00     0.028 A 
ATOM     35  C   UNL     1       0.638  -1.040   4.889  1.00  0.00     0.002 A 
ENDBRANCH  26  27
ENDBRANCH   6  26
ENDBRANCH   3   6
ENDBRANCH   1   2
BRANCH   1  36
ATOM     36  C   UNL     1       6.051   3.829   0.711  1.00  0.00     0.042 C 
BRANCH  36  37
ATOM     37  C   UNL     1       7.021   4.435   1.712  1.00  0.00     0.118 C 
BRANCH  37  38
ATOM     38  N   UNL     1       7.904   5.395   1.040  1.00  0.00    -0.352 N 
ATOM     39  C   UNL     1       8.470   6.581   1.465  1.00  0.00     0.251 C 
ATOM     40  H   UNL     1       8.136   5.149   0.116  1.00  0.00     0.163 HD
ATOM     41  O   UNL     1       9.161   7.247   0.704  1.00  0.00    -0.269 OA
BRANCH  39  42
ATOM     42  C   UNL     1       8.407   6.916   2.900  1.00  0.00     0.039 A 
ATOM     43  C   UNL     1       9.629   6.815   3.575  1.00  0.00     0.014 A 
ATOM     44  C   UNL     1       7.195   6.800   3.568  1.00  0.00     0.014 A 
ATOM     45  C   UNL     1       9.644   6.234   4.830  1.00  0.00     0.010 A 
ATOM     46  C   UNL     1       7.214   6.125   4.769  1.00  0.00     0.010 A 
ATOM     47  C   UNL     1       8.442   5.756   5.338  1.00  0.00    -0.014 A 
BRANCH  47  48
ATOM     48  C   UNL     1       8.366   4.817   6.442  1.00  0.00     0.031 A 
ATOM     49  C   UNL     1       7.976   5.340   7.762  1.00  0.00     0.074 A 
ATOM     50  C   UNL     1       8.566   3.495   6.230  1.00  0.00     0.049 A 
ATOM     51  N   UNL     1       8.129   4.694   8.863  1.00  0.00    -0.248 NA
ATOM     52  C   UNL     1       7.459   6.692   7.958  1.00  0.00     0.031 C 
ATOM     53  C   UNL     1       8.234   2.393   7.131  1.00  0.00     0.029 A 
ATOM     54  N   UNL     1       9.304   2.883   5.198  1.00  0.00    -0.354 N 
ATOM     55  C   UNL     1       7.489   5.399   9.852  1.00  0.00     0.074 A 
ATOM     56  C   UNL     1       7.208   6.684   9.271  1.00  0.00     0.031 C 
ATOM     57  C   UNL     1       8.980   1.324   6.812  1.00  0.00     0.029 A 
ATOM     58  C   UNL     1       9.921   1.755   5.795  1.00  0.00     0.049 A 
ATOM     59  H   UNL     1       9.376   3.176   4.261  1.00  0.00     0.167 HD
ATOM     60  C   UNL     1       7.169   4.739  10.997  1.00  0.00     0.037 A 
ATOM     61  C   UNL     1      11.278   1.654   5.909  1.00  0.00     0.037 A 
ATOM     62  C   UNL     1       7.901   3.473  11.062  1.00  0.00     0.049 A 
ATOM     63  C   UNL     1      11.754   1.547   7.338  1.00  0.00     0.074 A 
ATOM     64  C   UNL     1       7.546   2.155  10.835  1.00  0.00     0.029 A 
ATOM     65  N   UNL     1       9.294   3.510  11.089  1.00  0.00    -0.354 N 
ATOM     66  N   UNL     1      11.058   1.956   8.364  1.00  0.00    -0.248 NA
ATOM     67  C   UNL     1      13.038   0.972   7.726  1.00  0.00     0.031 C 
ATOM     68  C   UNL     1       8.744   1.415  10.633  1.00  0.00     0.029 A 
ATOM     69  C   UNL     1       9.822   2.272  10.788  1.00  0.00     0.049 A 
ATOM     70  H   UNL     1       9.828   4.311  11.295  1.00  0.00     0.167 HD
ATOM     71  C   UNL     1      11.759   1.718   9.518  1.00  0.00     0.074 A 
ATOM     72  C   UNL     1      12.987   1.091   9.065  1.00  0.00     0.031 C 
ATOM     73  C   UNL     1      11.265   2.062  10.746  1.00  0.00     0.037 A 
BRANCH  60  74
ATOM     74  C   UNL     1       6.062   5.114  11.962  1.00  0.00     0.064 A 
ATOM     75  C   UNL     1       5.780   4.274  13.064  1.00  0.00     0.173 A 
ATOM     76  C   UNL     1       5.156   6.185  11.802  1.00  0.00     0.173 A 
ATOM     77  F   UNL     1       6.554   3.217  13.347  1.00  0.00    -0.203 F 
ATOM     78  C   UNL     1       4.677   4.472  13.902  1.00  0.00     0.198 A 
ATOM     79  C   UNL     1       4.078   6.405  12.665  1.00  0.00     0.198 A 
ATOM     80  F   UNL     1       5.227   7.043  10.783  1.00  0.00    -0.203 F 
ATOM     81  F   UNL     1       4.431   3.605  14.894  1.00  0.00    -0.200 F 
ATOM     82  C   UNL     1       3.827   5.540  13.705  1.00  0.00     0.200 A 
ATOM     83  F   UNL     1       3.266   7.452  12.452  1.00  0.00    -0.200 F 
ATOM     84  F   UNL     1       2.766   5.728  14.500  1.00  0.00    -0.200 F 
ENDBRANCH  60  74
BRANCH  61  85
ATOM     85  C   UNL     1      11.995   2.324   4.792  1.00  0.00     0.064 A 
ATOM     86  C   UNL     1      11.818   1.792   3.499  1.00  0.00     0.173 A 
ATOM     87  C   UNL     1      12.421   3.654   4.892  1.00  0.00     0.173 A 
ATOM     88  F   UNL     1      11.421   0.518   3.349  1.00  0.00    -0.203 F 
ATOM     89  C   UNL     1      11.900   2.599   2.367  1.00  0.00     0.198 A 
ATOM     90  C   UNL     1      12.526   4.453   3.751  1.00  0.00     0.198 A 
ATOM     91  F   UNL     1      12.602   4.219   6.094  1.00  0.00    -0.203 F 
ATOM     92  F   UNL     1      11.578   2.099   1.165  1.00  0.00    -0.200 F 
ATOM     93  C   UNL     1      12.219   3.939   2.498  1.00  0.00     0.200 A 
ATOM     94  F   UNL     1      12.823   5.755   3.875  1.00  0.00    -0.200 F 
ATOM     95  F   UNL     1      12.184   4.744   1.427  1.00  0.00    -0.200 F 
ENDBRANCH  61  85
BRANCH  73  96
ATOM     96  C   UNL     1      12.055   2.146  12.037  1.00  0.00     0.064 A 
ATOM     97  C   UNL     1      13.449   2.311  12.104  1.00  0.00     0.173 A 
ATOM     98  C   UNL     1      11.385   2.217  13.286  1.00  0.00     0.173 A 
ATOM     99  F   UNL     1      14.199   2.401  10.998  1.00  0.00    -0.203 F 
ATOM    100  C   UNL     1      14.125   2.457  13.320  1.00  0.00     0.198 A 
ATOM    101  C   UNL     1      12.055   2.433  14.490  1.00  0.00     0.198 A 
ATOM    102  F   UNL     1      10.051   2.114  13.377  1.00  0.00    -0.203 F 
ATOM    103  F   UNL     1      15.462   2.559  13.325  1.00  0.00    -0.200 F 
ATOM    104  C   UNL     1      13.428   2.531  14.510  1.00  0.00     0.200 A 
ATOM    105  F   UNL     1      11.355   2.567  15.626  1.00  0.00    -0.200 F 
ATOM    106  F   UNL     1      14.076   2.723  15.666  1.00  0.00    -0.200 F 
ENDBRANCH  73  96
ENDBRANCH  47  48
ENDBRANCH  39  42
ENDBRANCH  37  38
ENDBRANCH  36  37
ENDBRANCH   1  36
TORSDOF 16
