REMARK SMILES CC[C@H]1CC[C@](O)([C@H](F)C(=O)NCCCNC(=O)c2ccc(-c3c4nc(c(-c5c(F)c(F)c(F)c(F)c5F)c5ccc([nH]5)c(-c5c(F)c(F)c(F)c(F)c5F)c5nc(c(-c6c(F)c(F)c(F)c(F)c6F)c6ccc3[nH]6)C=C5)C=C4)cc2)CC1
REMARK SMILES IDX 14 1 13 2 12 3 10 4 11 5 8 7 9 8 6 9 3 10 4 11 83 12 5 13
REMARK SMILES IDX 82 14 2 15 1 16 7 17 15 19 16 20 17 21 18 23 19 24 20 25
REMARK SMILES IDX 81 26 21 27 80 28 22 29 23 30 24 31 74 32 25 33 79 34 73 35
REMARK SMILES IDX 75 36 26 37 78 38 72 39 71 40 27 42 59 43 39 44 58 45 40 46
REMARK SMILES IDX 43 47 57 48 76 49 41 50 42 51 56 53 77 54 44 55 28 56 29 57
REMARK SMILES IDX 37 58 30 59 31 60 35 61 38 62 32 63 33 64 36 65 34 66 60 67
REMARK SMILES IDX 61 68 69 69 62 70 63 71 67 72 70 73 64 74 65 75 68 76 66 77
REMARK SMILES IDX 45 78 46 79 54 80 47 81 48 82 52 83 55 84 49 85 50 86 53 87
REMARK SMILES IDX 51 88
REMARK H PARENT 12 6 7 18 16 22 75 41 43 52
REMARK Flexibility Score: inf
ROOT
ATOM      1  C   UNL     1       1.507   1.845  -2.932  1.00  0.00     0.042 C 
ENDROOT
BRANCH   1   2
ATOM      2  C   UNL     1       2.590   2.143  -1.919  1.00  0.00     0.117 C 
BRANCH   2   3
ATOM      3  N   UNL     1       3.339   3.347  -2.240  1.00  0.00    -0.353 N 
ATOM      4  C   UNL     1       3.450   4.471  -1.468  1.00  0.00     0.257 C 
ATOM      5  O   UNL     1       4.233   5.359  -1.813  1.00  0.00    -0.272 OA
ATOM      6  H   UNL     1       3.815   3.354  -3.102  1.00  0.00     0.163 HD
BRANCH   4   7
ATOM      7  C   UNL     1       2.608   4.585  -0.205  1.00  0.00     0.286 C 
ATOM      8  F   UNL     1       1.327   4.143  -0.433  1.00  0.00    -0.234 F 
BRANCH   7   9
ATOM      9  C   UNL     1       3.221   3.826   1.016  1.00  0.00     0.105 C 
ATOM     10  C   UNL     1       2.614   5.675   3.302  1.00  0.00    -0.011 C 
ATOM     11  C   UNL     1       1.543   4.752   2.688  1.00  0.00     0.006 C 
ATOM     12  C   UNL     1       3.799   5.916   2.345  1.00  0.00     0.006 C 
ATOM     13  C   UNL     1       2.129   3.498   2.047  1.00  0.00     0.039 C 
ATOM     14  C   UNL     1       4.330   4.643   1.696  1.00  0.00     0.039 C 
BRANCH  10  15
ATOM     15  C   UNL     1       3.021   5.154   4.695  1.00  0.00    -0.000 C 
ATOM     16  C   UNL     1       4.177   5.911   5.331  1.00  0.00     0.004 C 
ENDBRANCH  10  15
BRANCH   9  17
ATOM     17  O   UNL     1       3.814   2.573   0.632  1.00  0.00    -0.386 OA
ATOM     18  H   UNL     1       4.182   2.135   1.415  1.00  0.00     0.211 HD
ENDBRANCH   9  17
ENDBRANCH   7   9
ENDBRANCH   4   7
ENDBRANCH   2   3
ENDBRANCH   1   2
BRANCH   1  19
ATOM     19  C   UNL     1       2.059   1.568  -4.317  1.00  0.00     0.118 C 
BRANCH  19  20
ATOM     20  N   UNL     1       2.991   0.445  -4.335  1.00  0.00    -0.352 N 
ATOM     21  C   UNL     1       2.894  -0.777  -4.953  1.00  0.00     0.251 C 
ATOM     22  H   UNL     1       3.821   0.586  -3.825  1.00  0.00     0.163 HD
ATOM     23  O   UNL     1       3.684  -1.671  -4.688  1.00  0.00    -0.269 OA
BRANCH  21  24
ATOM     24  C   UNL     1       1.808  -1.010  -5.926  1.00  0.00     0.039 A 
ATOM     25  C   UNL     1       1.118  -2.223  -5.899  1.00  0.00     0.014 A 
ATOM     26  C   UNL     1       1.457  -0.017  -6.842  1.00  0.00     0.014 A 
ATOM     27  C   UNL     1       0.022  -2.405  -6.741  1.00  0.00     0.010 A 
ATOM     28  C   UNL     1       0.297  -0.152  -7.589  1.00  0.00     0.010 A 
ATOM     29  C   UNL     1      -0.425  -1.353  -7.558  1.00  0.00    -0.014 A 
BRANCH  29  30
ATOM     30  C   UNL     1      -1.636  -1.487  -8.404  1.00  0.00     0.031 A 
ATOM     31  C   UNL     1      -1.523  -1.342  -9.896  1.00  0.00     0.074 A 
ATOM     32  C   UNL     1      -2.839  -1.662  -7.824  1.00  0.00     0.049 A 
ATOM     33  N   UNL     1      -2.468  -1.340 -10.802  1.00  0.00    -0.248 NA
ATOM     34  C   UNL     1      -0.171  -1.134 -10.442  1.00  0.00     0.031 C 
ATOM     35  C   UNL     1      -3.079  -1.759  -6.383  1.00  0.00     0.029 A 
ATOM     36  N   UNL     1      -4.089  -1.780  -8.377  1.00  0.00    -0.354 N 
ATOM     37  C   UNL     1      -1.827  -1.116 -12.013  1.00  0.00     0.074 A 
ATOM     38  C   UNL     1      -0.425  -0.917 -11.723  1.00  0.00     0.031 C 
ATOM     39  C   UNL     1      -4.390  -1.952  -6.167  1.00  0.00     0.029 A 
ATOM     40  C   UNL     1      -5.088  -1.946  -7.449  1.00  0.00     0.049 A 
ATOM     41  H   UNL     1      -4.254  -1.749  -9.347  1.00  0.00     0.167 HD
ATOM     42  C   UNL     1      -2.357  -1.107 -13.258  1.00  0.00     0.037 A 
ATOM     43  C   UNL     1      -6.418  -2.069  -7.616  1.00  0.00     0.037 A 
ATOM     44  C   UNL     1      -3.749  -1.334 -13.540  1.00  0.00     0.049 A 
ATOM     45  C   UNL     1      -6.982  -2.047  -9.011  1.00  0.00     0.074 A 
ATOM     46  C   UNL     1      -4.378  -1.409 -14.770  1.00  0.00     0.029 A 
ATOM     47  N   UNL     1      -4.729  -1.518 -12.575  1.00  0.00    -0.354 N 
ATOM     48  N   UNL     1      -6.357  -1.912 -10.156  1.00  0.00    -0.248 NA
ATOM     49  C   UNL     1      -8.438  -2.202  -9.139  1.00  0.00     0.031 C 
ATOM     50  C   UNL     1      -5.748  -1.583 -14.548  1.00  0.00     0.029 A 
ATOM     51  C   UNL     1      -5.963  -1.681 -13.182  1.00  0.00     0.049 A 
ATOM     52  H   UNL     1      -4.570  -1.532 -11.604  1.00  0.00     0.167 HD
ATOM     53  C   UNL     1      -7.335  -1.998 -11.138  1.00  0.00     0.074 A 
ATOM     54  C   UNL     1      -8.593  -2.213 -10.454  1.00  0.00     0.031 C 
ATOM     55  C   UNL     1      -7.204  -1.905 -12.484  1.00  0.00     0.037 A 
BRANCH  42  56
ATOM     56  C   UNL     1      -1.426  -0.850 -14.409  1.00  0.00     0.064 A 
ATOM     57  C   UNL     1      -0.439  -1.776 -14.781  1.00  0.00     0.173 A 
ATOM     58  C   UNL     1      -1.545   0.321 -15.172  1.00  0.00     0.173 A 
ATOM     59  F   UNL     1      -0.273  -2.907 -14.077  1.00  0.00    -0.203 F 
ATOM     60  C   UNL     1       0.413  -1.526 -15.853  1.00  0.00     0.198 A 
ATOM     61  C   UNL     1      -0.714   0.552 -16.265  1.00  0.00     0.198 A 
ATOM     62  F   UNL     1      -2.473   1.239 -14.864  1.00  0.00    -0.203 F 
ATOM     63  F   UNL     1       1.383  -2.400 -16.155  1.00  0.00    -0.200 F 
ATOM     64  C   UNL     1       0.269  -0.366 -16.600  1.00  0.00     0.200 A 
ATOM     65  F   UNL     1      -0.865   1.666 -16.995  1.00  0.00    -0.200 F 
ATOM     66  F   UNL     1       1.083  -0.131 -17.639  1.00  0.00    -0.200 F 
ENDBRANCH  42  56
BRANCH  43  67
ATOM     67  C   UNL     1      -7.306  -2.245  -6.436  1.00  0.00     0.064 A 
ATOM     68  C   UNL     1      -7.986  -3.452  -6.219  1.00  0.00     0.173 A 
ATOM     69  C   UNL     1      -7.505  -1.211  -5.509  1.00  0.00     0.173 A 
ATOM     70  F   UNL     1      -7.844  -4.465  -7.087  1.00  0.00    -0.203 F 
ATOM     71  C   UNL     1      -8.852  -3.609  -5.139  1.00  0.00     0.198 A 
ATOM     72  C   UNL     1      -8.345  -1.380  -4.410  1.00  0.00     0.198 A 
ATOM     73  F   UNL     1      -6.873  -0.038  -5.665  1.00  0.00    -0.203 F 
ATOM     74  F   UNL     1      -9.531  -4.754  -4.988  1.00  0.00    -0.200 F 
ATOM     75  C   UNL     1      -9.027  -2.574  -4.232  1.00  0.00     0.200 A 
ATOM     76  F   UNL     1      -8.498  -0.384  -3.527  1.00  0.00    -0.200 F 
ATOM     77  F   UNL     1      -9.858  -2.725  -3.192  1.00  0.00    -0.200 F 
ENDBRANCH  43  67
BRANCH  55  78
ATOM     78  C   UNL     1      -8.445  -2.081 -13.311  1.00  0.00     0.064 A 
ATOM     79  C   UNL     1      -9.461  -1.114 -13.334  1.00  0.00     0.173 A 
ATOM     80  C   UNL     1      -8.598  -3.214 -14.125  1.00  0.00     0.173 A 
ATOM     81  F   UNL     1      -9.370  -0.020 -12.564  1.00  0.00    -0.203 F 
ATOM     82  C   UNL     1     -10.597  -1.290 -14.120  1.00  0.00     0.198 A 
ATOM     83  C   UNL     1      -9.718  -3.369 -14.936  1.00  0.00     0.198 A 
ATOM     84  F   UNL     1      -7.651  -4.165 -14.147  1.00  0.00    -0.203 F 
ATOM     85  F   UNL     1     -11.579  -0.379 -14.085  1.00  0.00    -0.200 F 
ATOM     86  C   UNL     1     -10.720  -2.412 -14.926  1.00  0.00     0.200 A 
ATOM     87  F   UNL     1      -9.826  -4.445 -15.728  1.00  0.00    -0.200 F 
ATOM     88  F   UNL     1     -11.810  -2.573 -15.689  1.00  0.00    -0.200 F 
ENDBRANCH  55  78
ENDBRANCH  29  30
ENDBRANCH  21  24
ENDBRANCH  19  20
ENDBRANCH   1  19
TORSDOF 13
