REMARK SMILES O=C(NCCCNC(=O)[C@@H](CO)N1C(=O)c2c(Cl)c(Cl)c(Cl)c(Cl)c2C1=O)c1ccc(-c2c3nc(c(-c4c(F)c(F)c(F)c(F)c4F)c4ccc([nH]4)c(-c4c(F)c(F)c(F)c(F)c4F)c4nc(c(-c5c(F)c(F)c(F)c(F)c5F)c5ccc2[nH]5)C=C4)C=C3)cc1
REMARK SMILES IDX 5 1 4 2 3 3 1 4 2 5 28 7 29 8 90 9 30 10 89 11 31 12 32 13
REMARK SMILES IDX 33 14 83 15 34 16 88 17 82 18 84 19 35 20 87 21 81 22 80 23
REMARK SMILES IDX 36 25 68 26 48 27 67 28 49 29 52 30 66 31 85 32 50 33 51 34
REMARK SMILES IDX 65 36 86 37 53 38 37 39 38 40 46 41 39 42 40 43 44 44 47 45
REMARK SMILES IDX 41 46 42 47 45 48 43 49 69 50 70 51 78 52 71 53 72 54 76 55
REMARK SMILES IDX 79 56 73 57 74 58 77 59 75 60 54 61 55 62 63 63 56 64 57 65
REMARK SMILES IDX 61 66 64 67 58 68 59 69 62 70 60 71 6 72 7 73 8 74 9 76
REMARK SMILES IDX 10 77 11 78 12 79 13 81 14 82 26 83 15 84 16 85 25 86 27 87
REMARK SMILES IDX 17 88 23 89 18 90 19 91 21 92 24 93 20 94 22 95
REMARK H PARENT 3 6 84 24 52 35 7 75 12 80
REMARK Flexibility Score: inf
ROOT
ATOM      1  C   UNL     1       4.483  -0.306  -2.563  1.00  0.00     0.042 C 
ENDROOT
BRANCH   1   2
ATOM      2  C   UNL     1       4.215   0.582  -1.362  1.00  0.00     0.118 C 
BRANCH   2   3
ATOM      3  N   UNL     1       2.806   0.619  -0.995  1.00  0.00    -0.352 N 
ATOM      4  O   UNL     1       0.939   0.053   0.131  1.00  0.00    -0.269 OA
ATOM      5  C   UNL     1       2.165   0.087   0.099  1.00  0.00     0.251 C 
ATOM      6  H   UNL     1       2.223   1.098  -1.627  1.00  0.00     0.163 HD
BRANCH   5   7
ATOM      7  C   UNL     1       2.946  -0.462   1.231  1.00  0.00     0.039 A 
ATOM      8  C   UNL     1       4.098   0.182   1.681  1.00  0.00     0.014 A 
ATOM      9  C   UNL     1       2.507  -1.625   1.873  1.00  0.00     0.014 A 
ATOM     10  C   UNL     1       4.902  -0.423   2.638  1.00  0.00     0.010 A 
ATOM     11  C   UNL     1       3.255  -2.169   2.924  1.00  0.00     0.010 A 
ATOM     12  C   UNL     1       4.476  -1.588   3.296  1.00  0.00    -0.014 A 
BRANCH  12  13
ATOM     13  C   UNL     1       5.298  -2.110   4.419  1.00  0.00     0.031 A 
ATOM     14  C   UNL     1       5.938  -3.468   4.365  1.00  0.00     0.074 A 
ATOM     15  C   UNL     1       5.510  -1.304   5.479  1.00  0.00     0.049 A 
ATOM     16  N   UNL     1       6.725  -4.041   5.242  1.00  0.00    -0.248 NA
ATOM     17  C   UNL     1       5.655  -4.297   3.185  1.00  0.00     0.031 C 
ATOM     18  C   UNL     1       4.919   0.027   5.653  1.00  0.00     0.029 A 
ATOM     19  N   UNL     1       6.296  -1.463   6.591  1.00  0.00    -0.354 N 
ATOM     20  C   UNL     1       7.023  -5.296   4.727  1.00  0.00     0.074 A 
ATOM     21  C   UNL     1       6.306  -5.416   3.475  1.00  0.00     0.031 C 
ATOM     22  C   UNL     1       5.412   0.587   6.766  1.00  0.00     0.029 A 
ATOM     23  C   UNL     1       6.295  -0.369   7.423  1.00  0.00     0.049 A 
ATOM     24  H   UNL     1       6.811  -2.281   6.776  1.00  0.00     0.167 HD
ATOM     25  C   UNL     1       7.831  -6.252   5.247  1.00  0.00     0.037 A 
ATOM     26  C   UNL     1       6.921  -0.160   8.594  1.00  0.00     0.037 A 
ATOM     27  C   UNL     1       8.548  -6.123   6.492  1.00  0.00     0.049 A 
ATOM     28  C   UNL     1       7.804  -1.241   9.146  1.00  0.00     0.074 A 
ATOM     29  C   UNL     1       9.392  -7.035   7.102  1.00  0.00     0.029 A 
ATOM     30  N   UNL     1       8.506  -5.007   7.316  1.00  0.00    -0.354 N 
ATOM     31  N   UNL     1       8.089  -2.414   8.637  1.00  0.00    -0.248 NA
ATOM     32  C   UNL     1       8.452  -0.969  10.435  1.00  0.00     0.031 C 
ATOM     33  C   UNL     1       9.832  -6.487   8.312  1.00  0.00     0.029 A 
ATOM     34  C   UNL     1       9.300  -5.213   8.434  1.00  0.00     0.049 A 
ATOM     35  H   UNL     1       7.988  -4.190   7.135  1.00  0.00     0.167 HD
ATOM     36  C   UNL     1       8.952  -3.019   9.538  1.00  0.00     0.074 A 
ATOM     37  C   UNL     1       9.173  -2.067  10.608  1.00  0.00     0.031 C 
ATOM     38  C   UNL     1       9.505  -4.256   9.490  1.00  0.00     0.037 A 
BRANCH  25  39
ATOM     39  C   UNL     1       7.985  -7.532   4.476  1.00  0.00     0.064 A 
ATOM     40  C   UNL     1       8.722  -7.585   3.284  1.00  0.00     0.173 A 
ATOM     41  C   UNL     1       7.442  -8.730   4.965  1.00  0.00     0.173 A 
ATOM     42  F   UNL     1       9.253  -6.466   2.768  1.00  0.00    -0.203 F 
ATOM     43  C   UNL     1       8.895  -8.786   2.600  1.00  0.00     0.198 A 
ATOM     44  C   UNL     1       7.639  -9.934   4.293  1.00  0.00     0.198 A 
ATOM     45  F   UNL     1       6.735  -8.737   6.104  1.00  0.00    -0.203 F 
ATOM     46  F   UNL     1       9.574  -8.806   1.444  1.00  0.00    -0.200 F 
ATOM     47  C   UNL     1       8.361  -9.961   3.109  1.00  0.00     0.200 A 
ATOM     48  F   UNL     1       7.134 -11.070   4.793  1.00  0.00    -0.200 F 
ATOM     49  F   UNL     1       8.539 -11.118   2.457  1.00  0.00    -0.200 F 
ENDBRANCH  25  39
BRANCH  26  50
ATOM     50  C   UNL     1       6.720   1.119   9.323  1.00  0.00     0.064 A 
ATOM     51  C   UNL     1       7.764   2.040   9.477  1.00  0.00     0.173 A 
ATOM     52  C   UNL     1       5.472   1.448   9.874  1.00  0.00     0.173 A 
ATOM     53  F   UNL     1       8.980   1.763   8.983  1.00  0.00    -0.203 F 
ATOM     54  C   UNL     1       7.574   3.232  10.174  1.00  0.00     0.198 A 
ATOM     55  C   UNL     1       5.274   2.655  10.539  1.00  0.00     0.198 A 
ATOM     56  F   UNL     1       4.437   0.604   9.746  1.00  0.00    -0.203 F 
ATOM     57  F   UNL     1       8.601   4.073  10.349  1.00  0.00    -0.200 F 
ATOM     58  C   UNL     1       6.327   3.541  10.698  1.00  0.00     0.200 A 
ATOM     59  F   UNL     1       4.062   2.958  11.025  1.00  0.00    -0.200 F 
ATOM     60  F   UNL     1       6.143   4.691  11.361  1.00  0.00    -0.200 F 
ENDBRANCH  26  50
BRANCH  38  61
ATOM     61  C   UNL     1      10.413  -4.633  10.622  1.00  0.00     0.064 A 
ATOM     62  C   UNL     1       9.914  -4.898  11.906  1.00  0.00     0.173 A 
ATOM     63  C   UNL     1      11.797  -4.735  10.420  1.00  0.00     0.173 A 
ATOM     64  F   UNL     1       8.599  -4.796  12.153  1.00  0.00    -0.203 F 
ATOM     65  C   UNL     1      10.771  -5.218  12.955  1.00  0.00     0.198 A 
ATOM     66  C   UNL     1      12.649  -5.083  11.464  1.00  0.00     0.198 A 
ATOM     67  F   UNL     1      12.324  -4.495   9.210  1.00  0.00    -0.203 F 
ATOM     68  F   UNL     1      10.278  -5.409  14.186  1.00  0.00    -0.200 F 
ATOM     69  C   UNL     1      12.137  -5.314  12.732  1.00  0.00     0.200 A 
ATOM     70  F   UNL     1      13.967  -5.186  11.246  1.00  0.00    -0.200 F 
ATOM     71  F   UNL     1      12.962  -5.619  13.744  1.00  0.00    -0.200 F 
ENDBRANCH  38  61
ENDBRANCH  12  13
ENDBRANCH   5   7
ENDBRANCH   2   3
ENDBRANCH   1   2
BRANCH   1  72
ATOM     72  C   UNL     1       4.060   0.315  -3.886  1.00  0.00     0.117 C 
BRANCH  72  73
ATOM     73  N   UNL     1       4.823   1.511  -4.205  1.00  0.00    -0.354 N 
ATOM     74  C   UNL     1       5.763   1.757  -5.164  1.00  0.00     0.245 C 
ATOM     75  H   UNL     1       4.628   2.281  -3.624  1.00  0.00     0.163 HD
ATOM     76  O   UNL     1       6.466   2.761  -4.997  1.00  0.00    -0.273 OA
BRANCH  74  77
ATOM     77  C   UNL     1       6.080   0.777  -6.312  1.00  0.00     0.208 C 
BRANCH  77  78
ATOM     78  C   UNL     1       7.223  -0.130  -5.830  1.00  0.00     0.191 C 
BRANCH  78  79
ATOM     79  O   UNL     1       6.859  -0.885  -4.676  1.00  0.00    -0.394 OA
ATOM     80  H   UNL     1       6.647  -0.280  -3.948  1.00  0.00     0.210 HD
ENDBRANCH  78  79
ENDBRANCH  77  78
BRANCH  77  81
ATOM     81  N   UNL     1       4.874   0.137  -6.843  1.00  0.00    -0.259 N 
ATOM     82  C   UNL     1       4.686  -1.183  -7.134  1.00  0.00     0.264 C 
ATOM     83  C   UNL     1       3.838   0.891  -7.322  1.00  0.00     0.264 C 
ATOM     84  O   UNL     1       5.479  -2.099  -7.088  1.00  0.00    -0.268 OA
ATOM     85  C   UNL     1       3.308  -1.316  -7.626  1.00  0.00     0.075 A 
ATOM     86  C   UNL     1       2.791  -0.035  -7.751  1.00  0.00     0.075 A 
ATOM     87  O   UNL     1       3.774   2.102  -7.397  1.00  0.00    -0.268 OA
ATOM     88  C   UNL     1       2.551  -2.436  -7.928  1.00  0.00     0.074 A 
ATOM     89  C   UNL     1       1.496   0.198  -8.182  1.00  0.00     0.074 A 
ATOM     90  Cl  UNL     1       3.207  -4.020  -7.725  1.00  0.00    -0.082 Cl
ATOM     91  C   UNL     1       1.229  -2.234  -8.373  1.00  0.00     0.080 A 
ATOM     92  C   UNL     1       0.703  -0.920  -8.501  1.00  0.00     0.080 A 
ATOM     93  Cl  UNL     1       0.881   1.808  -8.290  1.00  0.00    -0.082 Cl
ATOM     94  Cl  UNL     1       0.231  -3.609  -8.758  1.00  0.00    -0.081 Cl
ATOM     95  Cl  UNL     1      -0.935  -0.686  -9.044  1.00  0.00    -0.081 Cl
ENDBRANCH  77  81
ENDBRANCH  74  77
ENDBRANCH  72  73
ENDBRANCH   1  72
TORSDOF 13
