REMARK SMILES C[NH+]1CC[NH+](CC[C@H]2CCC[C@@]2([NH3+])C(=O)NCCCNC(=O)c2ccc(-c3c4nc(c(-c5c(F)c(F)c(F)c(F)c5F)c5ccc([nH]5)c(-c5c(F)c(F)c(F)c(F)c5F)c5nc(c(-c6c(F)c(F)c(F)c(F)c6F)c6ccc3[nH]6)C=C5)C=C4)cc2)CC1
REMARK SMILES IDX 17 1 16 2 14 3 15 4 12 6 8 7 9 8 10 9 11 10 7 11 6 12 5 13
REMARK SMILES IDX 1 14 2 15 3 16 87 17 4 19 86 20 13 22 18 26 19 27 20 28
REMARK SMILES IDX 21 29 22 31 23 32 24 33 85 34 25 35 84 36 26 37 27 38 28 39
REMARK SMILES IDX 78 40 29 41 83 42 77 43 79 44 30 45 82 46 76 47 75 48 31 50
REMARK SMILES IDX 63 51 43 52 62 53 44 54 47 55 61 56 80 57 45 58 46 59 60 61
REMARK SMILES IDX 81 62 48 63 32 64 33 65 41 66 34 67 35 68 39 69 42 70 36 71
REMARK SMILES IDX 37 72 40 73 38 74 64 75 65 76 73 77 66 78 67 79 71 80 74 81
REMARK SMILES IDX 68 82 69 83 72 84 70 85 49 86 50 87 58 88 51 89 52 90 56 91
REMARK SMILES IDX 59 92 53 93 54 94 57 95 55 96
REMARK H PARENT 16 5 2 18 5 21 13 23 13 24 13 25 20 30 79 49 47 60
REMARK Flexibility Score: inf
ROOT
ATOM      1  C   UNL     1       1.211   3.408  -1.057  1.00  0.00     0.118 C 
ENDROOT
BRANCH   1   2
ATOM      2  N   UNL     1       0.162   4.033  -0.267  1.00  0.00    -0.351 N 
ATOM      3  C   UNL     1      -0.196   4.025   1.042  1.00  0.00     0.281 C 
ATOM      4  O   UNL     1      -1.192   4.724   1.295  1.00  0.00    -0.268 OA
ATOM      5  H   UNL     1      -0.431   4.597  -0.813  1.00  0.00     0.163 HD
BRANCH   3   6
ATOM      6  C   UNL     1       0.490   3.195   2.187  1.00  0.00     0.177 C 
ATOM      7  C   UNL     1       0.389   1.631   2.157  1.00  0.00     0.066 C 
ATOM      8  C   UNL     1       1.801   1.138   2.574  1.00  0.00     0.011 C 
ATOM      9  C   UNL     1       2.517   2.340   3.173  1.00  0.00     0.008 C 
ATOM     10  C   UNL     1       1.982   3.509   2.360  1.00  0.00     0.079 C 
BRANCH   7  11
ATOM     11  C   UNL     1      -0.053   0.985   0.840  1.00  0.00     0.072 C 
BRANCH  11  12
ATOM     12  C   UNL     1      -0.855  -0.321   0.932  1.00  0.00     0.263 C 
BRANCH  12  13
ATOM     13  N   UNL     1      -2.314  -0.263   0.958  1.00  0.00    -0.326 N 
ATOM     14  C   UNL     1      -4.295   3.320   2.374  1.00  0.00     0.333 C 
ATOM     15  N   UNL     1      -4.083   1.969   1.850  1.00  0.00    -0.328 N 
ATOM     16  C   UNL     1      -3.309   1.165   2.810  1.00  0.00     0.324 C 
ATOM     17  C   UNL     1      -3.389   2.021   0.553  1.00  0.00     0.324 C 
ATOM     18  H   UNL     1      -4.994   1.530   1.712  1.00  0.00     0.348 HD
ATOM     19  C   UNL     1      -2.954  -0.236   2.273  1.00  0.00     0.324 C 
ATOM     20  C   UNL     1      -2.991   0.626   0.005  1.00  0.00     0.324 C 
ATOM     21  H   UNL     1      -2.475  -1.198   0.586  1.00  0.00     0.348 HD
ENDBRANCH  12  13
ENDBRANCH  11  12
ENDBRANCH   7  11
BRANCH   6  22
ATOM     22  N   UNL     1      -0.128   3.654   3.475  1.00  0.00    -0.345 N 
ATOM     23  H   UNL     1       0.287   3.142   4.253  1.00  0.00     0.345 HD
ATOM     24  H   UNL     1      -1.133   3.481   3.451  1.00  0.00     0.345 HD
ATOM     25  H   UNL     1       0.042   4.653   3.596  1.00  0.00     0.345 HD
ENDBRANCH   6  22
ENDBRANCH   3   6
ENDBRANCH   1   2
BRANCH   1  26
ATOM     26  C   UNL     1       0.718   2.419  -2.127  1.00  0.00     0.042 C 
BRANCH  26  27
ATOM     27  C   UNL     1      -0.531   2.814  -2.907  1.00  0.00     0.118 C 
BRANCH  27  28
ATOM     28  N   UNL     1      -0.241   3.744  -3.979  1.00  0.00    -0.352 N 
ATOM     29  C   UNL     1       0.071   3.518  -5.295  1.00  0.00     0.251 C 
ATOM     30  H   UNL     1      -0.273   4.694  -3.721  1.00  0.00     0.163 HD
ATOM     31  O   UNL     1       0.517   4.455  -5.963  1.00  0.00    -0.269 OA
BRANCH  29  32
ATOM     32  C   UNL     1      -0.090   2.192  -5.942  1.00  0.00     0.039 A 
ATOM     33  C   UNL     1       0.874   1.799  -6.879  1.00  0.00     0.014 A 
ATOM     34  C   UNL     1      -1.215   1.385  -5.748  1.00  0.00     0.014 A 
ATOM     35  C   UNL     1       0.723   0.607  -7.596  1.00  0.00     0.010 A 
ATOM     36  C   UNL     1      -1.333   0.159  -6.417  1.00  0.00     0.010 A 
ATOM     37  C   UNL     1      -0.377  -0.234  -7.365  1.00  0.00    -0.014 A 
BRANCH  37  38
ATOM     38  C   UNL     1      -0.537  -1.496  -8.141  1.00  0.00     0.031 A 
ATOM     39  C   UNL     1      -1.666  -1.660  -9.125  1.00  0.00     0.074 A 
ATOM     40  C   UNL     1       0.334  -2.508  -7.962  1.00  0.00     0.049 A 
ATOM     41  N   UNL     1      -1.941  -2.674  -9.911  1.00  0.00    -0.248 NA
ATOM     42  C   UNL     1      -2.623  -0.549  -9.229  1.00  0.00     0.031 C 
ATOM     43  C   UNL     1       1.447  -2.504  -7.013  1.00  0.00     0.029 A 
ATOM     44  N   UNL     1       0.423  -3.735  -8.574  1.00  0.00    -0.354 N 
ATOM     45  C   UNL     1      -3.103  -2.327 -10.589  1.00  0.00     0.074 A 
ATOM     46  C   UNL     1      -3.508  -1.030 -10.090  1.00  0.00     0.031 C 
ATOM     47  C   UNL     1       2.124  -3.657  -7.126  1.00  0.00     0.029 A 
ATOM     48  C   UNL     1       1.482  -4.493  -8.138  1.00  0.00     0.049 A 
ATOM     49  H   UNL     1      -0.213  -4.042  -9.260  1.00  0.00     0.167 HD
ATOM     50  C   UNL     1      -3.761  -3.013 -11.556  1.00  0.00     0.037 A 
ATOM     51  C   UNL     1       1.897  -5.717  -8.515  1.00  0.00     0.037 A 
ATOM     52  C   UNL     1      -3.347  -4.290 -12.079  1.00  0.00     0.049 A 
ATOM     53  C   UNL     1       1.161  -6.452  -9.603  1.00  0.00     0.074 A 
ATOM     54  C   UNL     1      -3.917  -5.030 -13.102  1.00  0.00     0.029 A 
ATOM     55  N   UNL     1      -2.261  -5.017 -11.620  1.00  0.00    -0.354 N 
ATOM     56  N   UNL     1       0.108  -6.078 -10.286  1.00  0.00    -0.248 NA
ATOM     57  C   UNL     1       1.682  -7.774  -9.978  1.00  0.00     0.031 C 
ATOM     58  C   UNL     1      -3.197  -6.222 -13.236  1.00  0.00     0.029 A 
ATOM     59  C   UNL     1      -2.154  -6.206 -12.325  1.00  0.00     0.049 A 
ATOM     60  H   UNL     1      -1.655  -4.732 -10.898  1.00  0.00     0.167 HD
ATOM     61  C   UNL     1      -0.144  -7.103 -11.188  1.00  0.00     0.074 A 
ATOM     62  C   UNL     1       0.874  -8.110 -10.975  1.00  0.00     0.031 C 
ATOM     63  C   UNL     1      -1.132  -7.198 -12.111  1.00  0.00     0.037 A 
BRANCH  50  64
ATOM     64  C   UNL     1      -5.005  -2.391 -12.123  1.00  0.00     0.064 A 
ATOM     65  C   UNL     1      -4.946  -1.269 -12.963  1.00  0.00     0.173 A 
ATOM     66  C   UNL     1      -6.265  -2.947 -11.858  1.00  0.00     0.173 A 
ATOM     67  F   UNL     1      -3.766  -0.695 -13.242  1.00  0.00    -0.203 F 
ATOM     68  C   UNL     1      -6.106  -0.709 -13.493  1.00  0.00     0.198 A 
ATOM     69  C   UNL     1      -7.420  -2.401 -12.411  1.00  0.00     0.198 A 
ATOM     70  F   UNL     1      -6.376  -4.027 -11.069  1.00  0.00    -0.203 F 
ATOM     71  F   UNL     1      -6.030   0.390 -14.256  1.00  0.00    -0.200 F 
ATOM     72  C   UNL     1      -7.341  -1.279 -13.222  1.00  0.00     0.200 A 
ATOM     73  F   UNL     1      -8.612  -2.961 -12.159  1.00  0.00    -0.200 F 
ATOM     74  F   UNL     1      -8.456  -0.742 -13.736  1.00  0.00    -0.200 F 
ENDBRANCH  50  64
BRANCH  51  75
ATOM     75  C   UNL     1       3.104  -6.310  -7.886  1.00  0.00     0.064 A 
ATOM     76  C   UNL     1       4.304  -6.426  -8.601  1.00  0.00     0.173 A 
ATOM     77  C   UNL     1       3.087  -6.764  -6.559  1.00  0.00     0.173 A 
ATOM     78  F   UNL     1       4.361  -6.026  -9.880  1.00  0.00    -0.203 F 
ATOM     79  C   UNL     1       5.438  -6.986  -8.018  1.00  0.00     0.198 A 
ATOM     80  C   UNL     1       4.228  -7.301  -5.969  1.00  0.00     0.198 A 
ATOM     81  F   UNL     1       1.964  -6.670  -5.832  1.00  0.00    -0.203 F 
ATOM     82  F   UNL     1       6.562  -7.119  -8.735  1.00  0.00    -0.200 F 
ATOM     83  C   UNL     1       5.401  -7.417  -6.700  1.00  0.00     0.200 A 
ATOM     84  F   UNL     1       4.193  -7.704  -4.692  1.00  0.00    -0.200 F 
ATOM     85  F   UNL     1       6.495  -7.949  -6.137  1.00  0.00    -0.200 F 
ENDBRANCH  51  75
BRANCH  63  86
ATOM     86  C   UNL     1      -1.145  -8.419 -12.984  1.00  0.00     0.064 A 
ATOM     87  C   UNL     1      -1.532  -9.673 -12.488  1.00  0.00     0.173 A 
ATOM     88  C   UNL     1      -0.797  -8.326 -14.340  1.00  0.00     0.173 A 
ATOM     89  F   UNL     1      -1.859  -9.816 -11.195  1.00  0.00    -0.203 F 
ATOM     90  C   UNL     1      -1.548 -10.794 -13.314  1.00  0.00     0.198 A 
ATOM     91  C   UNL     1      -0.839  -9.445 -15.168  1.00  0.00     0.198 A 
ATOM     92  F   UNL     1      -0.424  -7.149 -14.863  1.00  0.00    -0.203 F 
ATOM     93  F   UNL     1      -1.880 -11.991 -12.809  1.00  0.00    -0.200 F 
ATOM     94  C   UNL     1      -1.208 -10.678 -14.653  1.00  0.00     0.200 A 
ATOM     95  F   UNL     1      -0.518  -9.329 -16.465  1.00  0.00    -0.200 F 
ATOM     96  F   UNL     1      -1.227 -11.758 -15.447  1.00  0.00    -0.200 F 
ENDBRANCH  63  86
ENDBRANCH  37  38
ENDBRANCH  29  32
ENDBRANCH  27  28
ENDBRANCH  26  27
ENDBRANCH   1  26
TORSDOF 14
