REMARK SMILES O=C(NCCCNC(=O)[C@@H]1C[N@@H+](CCOc2ccc(F)cc2)C[C@H]1C1CC1)c1ccc(-c2c3nc(c(-c4c(F)c(F)c(F)c(F)c4F)c4ccc([nH]4)c(-c4c(F)c(F)c(F)c(F)c4F)c4nc(c(-c5c(F)c(F)c(F)c(F)c5F)c5ccc2[nH]5)C=C4)C=C3)cc1
REMARK SMILES IDX 6 1 5 2 4 3 3 4 1 5 2 6 28 8 29 9 90 10 30 11 89 12 31 13
REMARK SMILES IDX 32 14 33 15 83 16 34 17 88 18 82 19 84 20 35 21 87 22 81 23
REMARK SMILES IDX 80 24 36 26 68 27 48 28 67 29 49 30 52 31 66 32 85 33 50 34
REMARK SMILES IDX 51 35 65 37 86 38 53 39 37 40 38 41 46 42 39 43 40 44 44 45
REMARK SMILES IDX 47 46 41 47 42 48 45 49 43 50 69 51 70 52 78 53 71 54 72 55
REMARK SMILES IDX 76 56 79 57 73 58 74 59 77 60 75 61 54 62 55 63 63 64 56 65
REMARK SMILES IDX 57 66 61 67 64 68 58 69 59 70 62 71 60 72 7 73 8 74 9 76
REMARK SMILES IDX 10 77 11 78 24 79 12 80 23 81 25 83 26 84 27 85 13 86 14 87
REMARK SMILES IDX 15 88 16 89 17 90 22 91 18 92 21 93 19 94 20 95
REMARK H PARENT 3 7 84 25 52 36 7 75 12 82
REMARK Flexibility Score: inf
ROOT
ATOM      1  C   UNL     1       3.975   3.223   2.486  1.00  0.00     0.117 C 
ENDROOT
BRANCH   1   2
ATOM      2  C   UNL     1       4.496   2.219   1.464  1.00  0.00     0.042 C 
BRANCH   2   3
ATOM      3  C   UNL     1       3.964   0.807   1.684  1.00  0.00     0.118 C 
BRANCH   3   4
ATOM      4  N   UNL     1       2.629   0.597   1.138  1.00  0.00    -0.352 N 
ATOM      5  O   UNL     1       0.978  -0.111  -0.197  1.00  0.00    -0.269 OA
ATOM      6  C   UNL     1       2.155  -0.221   0.136  1.00  0.00     0.251 C 
ATOM      7  H   UNL     1       1.933   1.145   1.567  1.00  0.00     0.163 HD
BRANCH   6   8
ATOM      8  C   UNL     1       3.006  -1.225  -0.559  1.00  0.00     0.039 A 
ATOM      9  C   UNL     1       4.062  -1.877   0.073  1.00  0.00     0.014 A 
ATOM     10  C   UNL     1       2.669  -1.608  -1.868  1.00  0.00     0.014 A 
ATOM     11  C   UNL     1       4.856  -2.783  -0.623  1.00  0.00     0.010 A 
ATOM     12  C   UNL     1       3.382  -2.623  -2.525  1.00  0.00     0.010 A 
ATOM     13  C   UNL     1       4.485  -3.221  -1.903  1.00  0.00    -0.014 A 
BRANCH  13  14
ATOM     14  C   UNL     1       5.160  -4.423  -2.462  1.00  0.00     0.031 A 
ATOM     15  C   UNL     1       5.949  -4.376  -3.737  1.00  0.00     0.074 A 
ATOM     16  C   UNL     1       5.072  -5.575  -1.763  1.00  0.00     0.049 A 
ATOM     17  N   UNL     1       6.606  -5.343  -4.329  1.00  0.00    -0.248 NA
ATOM     18  C   UNL     1       6.010  -3.090  -4.449  1.00  0.00     0.031 C 
ATOM     19  C   UNL     1       4.306  -5.744  -0.523  1.00  0.00     0.029 A 
ATOM     20  N   UNL     1       5.642  -6.806  -1.962  1.00  0.00    -0.354 N 
ATOM     21  C   UNL     1       7.139  -4.793  -5.486  1.00  0.00     0.074 A 
ATOM     22  C   UNL     1       6.722  -3.408  -5.525  1.00  0.00     0.031 C 
ATOM     23  C   UNL     1       4.512  -6.974  -0.037  1.00  0.00     0.029 A 
ATOM     24  C   UNL     1       5.347  -7.715  -0.973  1.00  0.00     0.049 A 
ATOM     25  H   UNL     1       6.208  -7.020  -2.739  1.00  0.00     0.167 HD
ATOM     26  C   UNL     1       7.909  -5.398  -6.421  1.00  0.00     0.037 A 
ATOM     27  C   UNL     1       5.683  -9.011  -0.840  1.00  0.00     0.037 A 
ATOM     28  C   UNL     1       8.342  -6.771  -6.356  1.00  0.00     0.049 A 
ATOM     29  C   UNL     1       6.522  -9.652  -1.905  1.00  0.00     0.074 A 
ATOM     30  C   UNL     1       9.170  -7.452  -7.232  1.00  0.00     0.029 A 
ATOM     31  N   UNL     1       7.982  -7.671  -5.364  1.00  0.00    -0.354 N 
ATOM     32  N   UNL     1       7.044  -9.108  -2.976  1.00  0.00    -0.248 NA
ATOM     33  C   UNL     1       6.804 -11.085  -1.757  1.00  0.00     0.031 C 
ATOM     34  C   UNL     1       9.273  -8.776  -6.797  1.00  0.00     0.029 A 
ATOM     35  C   UNL     1       8.547  -8.910  -5.625  1.00  0.00     0.049 A 
ATOM     36  H   UNL     1       7.411  -7.462  -4.590  1.00  0.00     0.167 HD
ATOM     37  C   UNL     1       7.709 -10.130  -3.635  1.00  0.00     0.074 A 
ATOM     38  C   UNL     1       7.555 -11.320  -2.824  1.00  0.00     0.031 C 
ATOM     39  C   UNL     1       8.374 -10.086  -4.813  1.00  0.00     0.037 A 
BRANCH  26  40
ATOM     40  C   UNL     1       8.348  -4.600  -7.613  1.00  0.00     0.064 A 
ATOM     41  C   UNL     1       7.816  -4.876  -8.883  1.00  0.00     0.173 A 
ATOM     42  C   UNL     1       9.388  -3.665  -7.525  1.00  0.00     0.173 A 
ATOM     43  F   UNL     1       6.827  -5.771  -9.020  1.00  0.00    -0.203 F 
ATOM     44  C   UNL     1       8.329  -4.264 -10.023  1.00  0.00     0.198 A 
ATOM     45  C   UNL     1       9.885  -3.039  -8.666  1.00  0.00     0.198 A 
ATOM     46  F   UNL     1       9.925  -3.363  -6.333  1.00  0.00    -0.203 F 
ATOM     47  F   UNL     1       7.836  -4.576 -11.230  1.00  0.00    -0.200 F 
ATOM     48  C   UNL     1       9.365  -3.349  -9.914  1.00  0.00     0.200 A 
ATOM     49  F   UNL     1      10.878  -2.145  -8.559  1.00  0.00    -0.200 F 
ATOM     50  F   UNL     1       9.866  -2.768 -11.014  1.00  0.00    -0.200 F 
ENDBRANCH  26  40
BRANCH  27  51
ATOM     51  C   UNL     1       5.189  -9.784   0.330  1.00  0.00     0.064 A 
ATOM     52  C   UNL     1       3.821 -10.051   0.497  1.00  0.00     0.173 A 
ATOM     53  C   UNL     1       6.068 -10.241   1.320  1.00  0.00     0.173 A 
ATOM     54  F   UNL     1       2.938  -9.630  -0.420  1.00  0.00    -0.203 F 
ATOM     55  C   UNL     1       3.349 -10.720   1.623  1.00  0.00     0.198 A 
ATOM     56  C   UNL     1       5.598 -10.940   2.430  1.00  0.00     0.198 A 
ATOM     57  F   UNL     1       7.386 -10.027   1.197  1.00  0.00    -0.203 F 
ATOM     58  F   UNL     1       2.034 -10.919   1.778  1.00  0.00    -0.200 F 
ATOM     59  C   UNL     1       4.239 -11.170   2.586  1.00  0.00     0.200 A 
ATOM     60  F   UNL     1       6.462 -11.396   3.348  1.00  0.00    -0.200 F 
ATOM     61  F   UNL     1       3.786 -11.826   3.663  1.00  0.00    -0.200 F 
ENDBRANCH  27  51
BRANCH  39  62
ATOM     62  C   UNL     1       8.980 -11.364  -5.306  1.00  0.00     0.064 A 
ATOM     63  C   UNL     1      10.370 -11.546  -5.297  1.00  0.00     0.173 A 
ATOM     64  C   UNL     1       8.183 -12.379  -5.853  1.00  0.00     0.173 A 
ATOM     65  F   UNL     1      11.174 -10.600  -4.789  1.00  0.00    -0.203 F 
ATOM     66  C   UNL     1      10.943 -12.694  -5.837  1.00  0.00     0.198 A 
ATOM     67  C   UNL     1       8.757 -13.537  -6.368  1.00  0.00     0.198 A 
ATOM     68  F   UNL     1       6.847 -12.255  -5.867  1.00  0.00    -0.203 F 
ATOM     69  F   UNL     1      12.275 -12.834  -5.849  1.00  0.00    -0.200 F 
ATOM     70  C   UNL     1      10.136 -13.689  -6.369  1.00  0.00     0.200 A 
ATOM     71  F   UNL     1       7.976 -14.508  -6.861  1.00  0.00    -0.200 F 
ATOM     72  F   UNL     1      10.688 -14.797  -6.881  1.00  0.00    -0.200 F 
ENDBRANCH  39  62
ENDBRANCH  13  14
ENDBRANCH   6   8
ENDBRANCH   3   4
ENDBRANCH   2   3
ENDBRANCH   1   2
BRANCH   1  73
ATOM     73  N   UNL     1       4.989   3.708   3.439  1.00  0.00    -0.356 N 
ATOM     74  C   UNL     1       5.976   4.655   3.475  1.00  0.00     0.229 C 
ATOM     75  H   UNL     1       4.944   3.211   4.288  1.00  0.00     0.163 HD
ATOM     76  O   UNL     1       6.457   4.861   4.597  1.00  0.00    -0.275 OA
BRANCH  74  77
ATOM     77  C   UNL     1       6.624   5.314   2.250  1.00  0.00     0.142 C 
ATOM     78  C   UNL     1       7.218   6.739   2.506  1.00  0.00     0.276 C 
ATOM     79  C   UNL     1       5.690   5.523   1.087  1.00  0.00     0.065 C 
ATOM     80  N   UNL     1       6.588   7.678   1.542  1.00  0.00    -0.331 N 
ATOM     81  C   UNL     1       5.367   7.002   1.189  1.00  0.00     0.267 C 
ATOM     82  H   UNL     1       6.431   8.590   1.971  1.00  0.00     0.348 HD
BRANCH  79  83
ATOM     83  C   UNL     1       6.158   4.970  -0.233  1.00  0.00    -0.001 C 
ATOM     84  C   UNL     1       7.585   4.885  -0.728  1.00  0.00     0.004 C 
ATOM     85  C   UNL     1       6.873   3.636  -0.317  1.00  0.00     0.004 C 
ENDBRANCH  79  83
BRANCH  80  86
ATOM     86  C   UNL     1       7.407   8.202   0.428  1.00  0.00     0.304 C 
BRANCH  86  87
ATOM     87  C   UNL     1       6.960   8.163  -1.083  1.00  0.00     0.290 C 
BRANCH  87  88
ATOM     88  O   UNL     1       5.778   8.913  -1.433  1.00  0.00    -0.488 OA
BRANCH  88  89
ATOM     89  C   UNL     1       4.680   8.174  -1.819  1.00  0.00     0.119 A 
ATOM     90  C   UNL     1       3.470   8.559  -1.225  1.00  0.00     0.049 A 
ATOM     91  C   UNL     1       4.722   7.015  -2.601  1.00  0.00     0.049 A 
ATOM     92  C   UNL     1       2.375   7.690  -1.235  1.00  0.00     0.043 A 
ATOM     93  C   UNL     1       3.614   6.157  -2.631  1.00  0.00     0.043 A 
ATOM     94  C   UNL     1       2.471   6.480  -1.909  1.00  0.00     0.123 A 
ATOM     95  F   UNL     1       1.466   5.596  -1.831  1.00  0.00    -0.207 F 
ENDBRANCH  88  89
ENDBRANCH  87  88
ENDBRANCH  86  87
ENDBRANCH  80  86
ENDBRANCH  74  77
ENDBRANCH   1  73
TORSDOF 15
