REMARK SMILES C[C@@H]1[C@@H](C(=O)NCCCNC(=O)c2ccc(-c3c4nc(c(-c5c(F)c(F)c(F)c(F)c5F)c5ccc([nH]5)c(-c5c(F)c(F)c(F)c(F)c5F)c5nc(c(-c6c(F)c(F)c(F)c(F)c6F)c6ccc3[nH]6)C=C5)C=C4)cc2)CCN1C(=O)N(C)Cc1ccsc1
REMARK SMILES IDX 7 1 6 2 4 3 5 4 3 6 1 7 2 8 78 9 76 10 77 11 79 12 80 13
REMARK SMILES IDX 81 14 82 15 83 16 84 17 85 18 88 19 86 20 87 21 8 22 9 23
REMARK SMILES IDX 10 24 11 25 12 27 13 28 14 29 75 30 15 31 74 32 16 33 17 34
REMARK SMILES IDX 18 35 68 36 19 37 73 38 67 39 69 40 20 41 72 42 66 43 65 44
REMARK SMILES IDX 21 46 53 47 33 48 52 49 34 50 37 51 51 52 70 53 35 54 36 55
REMARK SMILES IDX 50 57 71 58 38 59 22 60 23 61 31 62 24 63 25 64 29 65 32 66
REMARK SMILES IDX 26 67 27 68 30 69 28 70 54 71 55 72 63 73 56 74 57 75 61 76
REMARK SMILES IDX 64 77 58 78 59 79 62 80 60 81 39 82 40 83 48 84 41 85 42 86
REMARK SMILES IDX 46 87 49 88 43 89 44 90 47 91 45 92
REMARK H PARENT 6 5 10 26 69 45 37 56
REMARK Flexibility Score: inf
ROOT
ATOM      1  C   UNL     1      -2.683   2.759  -0.759  1.00  0.00     0.117 C 
ENDROOT
BRANCH   1   2
ATOM      2  N   UNL     1      -1.886   2.094  -1.770  1.00  0.00    -0.356 N 
ATOM      3  C   UNL     1      -0.782   1.312  -1.644  1.00  0.00     0.225 C 
ATOM      4  O   UNL     1      -0.251   0.935  -2.689  1.00  0.00    -0.275 OA
ATOM      5  H   UNL     1      -2.193   2.231  -2.696  1.00  0.00     0.163 HD
BRANCH   3   6
ATOM      6  C   UNL     1      -0.208   1.013  -0.261  1.00  0.00     0.102 C 
ATOM      7  C   UNL     1       1.893   0.059   0.778  1.00  0.00     0.032 C 
ATOM      8  C   UNL     1       0.876  -0.090  -0.361  1.00  0.00     0.096 C 
ATOM      9  N   UNL     1       0.112  -1.343  -0.257  1.00  0.00    -0.321 N 
ATOM     10  C   UNL     1      -1.206   0.375   0.705  1.00  0.00     0.037 C 
ATOM     11  C   UNL     1      -1.218  -1.070   0.268  1.00  0.00     0.122 C 
BRANCH   9  12
ATOM     12  C   UNL     1       0.320  -2.627  -0.679  1.00  0.00     0.320 C 
ATOM     13  O   UNL     1      -0.644  -3.407  -0.642  1.00  0.00    -0.248 OA
BRANCH  12  14
ATOM     14  N   UNL     1       1.548  -3.104  -1.065  1.00  0.00    -0.323 N 
ATOM     15  C   UNL     1       2.793  -2.420  -1.369  1.00  0.00     0.149 C 
BRANCH  14  16
ATOM     16  C   UNL     1       1.624  -4.559  -1.217  1.00  0.00     0.157 C 
BRANCH  16  17
ATOM     17  C   UNL     1       1.692  -5.270   0.117  1.00  0.00    -0.018 A 
ATOM     18  C   UNL     1       1.701  -6.703   0.235  1.00  0.00     0.017 A 
ATOM     19  C   UNL     1       1.707  -4.692   1.376  1.00  0.00     0.070 A 
ATOM     20  C   UNL     1       1.704  -7.136   1.542  1.00  0.00     0.065 A 
ATOM     21  S   UNL     1       1.714  -5.835   2.647  1.00  0.00    -0.152 S 
ENDBRANCH  16  17
ENDBRANCH  14  16
ENDBRANCH  12  14
ENDBRANCH   9  12
ENDBRANCH   3   6
ENDBRANCH   1   2
BRANCH   1  22
ATOM     22  C   UNL     1      -3.023   4.189  -1.132  1.00  0.00     0.042 C 
BRANCH  22  23
ATOM     23  C   UNL     1      -3.743   4.337  -2.462  1.00  0.00     0.118 C 
BRANCH  23  24
ATOM     24  N   UNL     1      -5.062   3.720  -2.479  1.00  0.00    -0.352 N 
ATOM     25  C   UNL     1      -6.313   4.293  -2.525  1.00  0.00     0.251 C 
ATOM     26  H   UNL     1      -5.059   2.736  -2.453  1.00  0.00     0.163 HD
ATOM     27  O   UNL     1      -7.310   3.601  -2.379  1.00  0.00    -0.269 OA
BRANCH  25  28
ATOM     28  C   UNL     1      -6.450   5.755  -2.709  1.00  0.00     0.039 A 
ATOM     29  C   UNL     1      -7.378   6.451  -1.931  1.00  0.00     0.014 A 
ATOM     30  C   UNL     1      -5.656   6.442  -3.627  1.00  0.00     0.014 A 
ATOM     31  C   UNL     1      -7.439   7.845  -2.009  1.00  0.00     0.010 A 
ATOM     32  C   UNL     1      -5.631   7.831  -3.615  1.00  0.00     0.010 A 
ATOM     33  C   UNL     1      -6.527   8.550  -2.812  1.00  0.00    -0.014 A 
BRANCH  33  34
ATOM     34  C   UNL     1      -6.499  10.035  -2.841  1.00  0.00     0.031 A 
ATOM     35  C   UNL     1      -6.732  10.766  -4.135  1.00  0.00     0.074 A 
ATOM     36  C   UNL     1      -6.189  10.722  -1.724  1.00  0.00     0.049 A 
ATOM     37  N   UNL     1      -6.655  12.048  -4.390  1.00  0.00    -0.248 NA
ATOM     38  C   UNL     1      -7.060   9.943  -5.311  1.00  0.00     0.031 C 
ATOM     39  C   UNL     1      -5.887  10.130  -0.419  1.00  0.00     0.029 A 
ATOM     40  N   UNL     1      -6.065  12.073  -1.509  1.00  0.00    -0.354 N 
ATOM     41  C   UNL     1      -6.903  12.178  -5.750  1.00  0.00     0.074 A 
ATOM     42  C   UNL     1      -7.067  10.843  -6.281  1.00  0.00     0.031 C 
ATOM     43  C   UNL     1      -5.646  11.110   0.466  1.00  0.00     0.029 A 
ATOM     44  C   UNL     1      -5.731  12.398  -0.216  1.00  0.00     0.049 A 
ATOM     45  H   UNL     1      -6.203  12.745  -2.214  1.00  0.00     0.167 HD
ATOM     46  C   UNL     1      -7.016  13.309  -6.486  1.00  0.00     0.037 A 
ATOM     47  C   UNL     1      -5.511  13.599   0.352  1.00  0.00     0.037 A 
ATOM     48  C   UNL     1      -6.887  14.637  -5.947  1.00  0.00     0.049 A 
ATOM     49  C   UNL     1      -5.640  14.841  -0.488  1.00  0.00     0.074 A 
ATOM     50  C   UNL     1      -7.044  15.849  -6.595  1.00  0.00     0.029 A 
ATOM     51  N   UNL     1      -6.570  14.925  -4.628  1.00  0.00    -0.354 N 
ATOM     52  N   UNL     1      -5.942  14.954  -1.758  1.00  0.00    -0.248 NA
ATOM     53  C   UNL     1      -5.403  16.124   0.188  1.00  0.00     0.031 C 
ATOM     54  C   UNL     1      -6.776  16.872  -5.679  1.00  0.00     0.029 A 
ATOM     55  C   UNL     1      -6.506  16.297  -4.447  1.00  0.00     0.049 A 
ATOM     56  H   UNL     1      -6.413  14.254  -3.924  1.00  0.00     0.167 HD
ATOM     57  C   UNL     1      -5.963  16.316  -2.026  1.00  0.00     0.074 A 
ATOM     58  C   UNL     1      -5.657  16.990  -0.782  1.00  0.00     0.031 C 
ATOM     59  C   UNL     1      -6.212  16.952  -3.197  1.00  0.00     0.037 A 
BRANCH  46  60
ATOM     60  C   UNL     1      -7.303  13.158  -7.952  1.00  0.00     0.064 A 
ATOM     61  C   UNL     1      -8.539  12.681  -8.415  1.00  0.00     0.173 A 
ATOM     62  C   UNL     1      -6.343  13.523  -8.908  1.00  0.00     0.173 A 
ATOM     63  F   UNL     1      -9.487  12.305  -7.543  1.00  0.00    -0.203 F 
ATOM     64  C   UNL     1      -8.791  12.543  -9.778  1.00  0.00     0.198 A 
ATOM     65  C   UNL     1      -6.611  13.417 -10.271  1.00  0.00     0.198 A 
ATOM     66  F   UNL     1      -5.146  13.990  -8.522  1.00  0.00    -0.203 F 
ATOM     67  F   UNL     1      -9.958  12.033 -10.193  1.00  0.00    -0.200 F 
ATOM     68  C   UNL     1      -7.830  12.919 -10.704  1.00  0.00     0.200 A 
ATOM     69  F   UNL     1      -5.686  13.793 -11.165  1.00  0.00    -0.200 F 
ATOM     70  F   UNL     1      -8.077  12.794 -12.015  1.00  0.00    -0.200 F 
ENDBRANCH  46  60
BRANCH  47  71
ATOM     71  C   UNL     1      -5.175  13.689   1.798  1.00  0.00     0.064 A 
ATOM     72  C   UNL     1      -6.082  14.245   2.712  1.00  0.00     0.173 A 
ATOM     73  C   UNL     1      -3.946  13.234   2.295  1.00  0.00     0.173 A 
ATOM     74  F   UNL     1      -7.263  14.712   2.282  1.00  0.00    -0.203 F 
ATOM     75  C   UNL     1      -5.763  14.363   4.063  1.00  0.00     0.198 A 
ATOM     76  C   UNL     1      -3.639  13.325   3.651  1.00  0.00     0.198 A 
ATOM     77  F   UNL     1      -3.045  12.688   1.464  1.00  0.00    -0.203 F 
ATOM     78  F   UNL     1      -6.628  14.943   4.905  1.00  0.00    -0.200 F 
ATOM     79  C   UNL     1      -4.544  13.898   4.533  1.00  0.00     0.200 A 
ATOM     80  F   UNL     1      -2.467  12.860   4.104  1.00  0.00    -0.200 F 
ATOM     81  F   UNL     1      -4.238  14.009   5.832  1.00  0.00    -0.200 F 
ENDBRANCH  47  71
BRANCH  59  82
ATOM     82  C   UNL     1      -6.208  18.453  -3.182  1.00  0.00     0.064 A 
ATOM     83  C   UNL     1      -5.020  19.186  -3.043  1.00  0.00     0.173 A 
ATOM     84  C   UNL     1      -7.405  19.166  -3.351  1.00  0.00     0.173 A 
ATOM     85  F   UNL     1      -3.852  18.551  -2.864  1.00  0.00    -0.203 F 
ATOM     86  C   UNL     1      -5.035  20.578  -3.048  1.00  0.00     0.198 A 
ATOM     87  C   UNL     1      -7.412  20.557  -3.388  1.00  0.00     0.198 A 
ATOM     88  F   UNL     1      -8.567  18.512  -3.495  1.00  0.00    -0.203 F 
ATOM     89  F   UNL     1      -3.895  21.259  -2.864  1.00  0.00    -0.200 F 
ATOM     90  C   UNL     1      -6.228  21.262  -3.228  1.00  0.00     0.200 A 
ATOM     91  F   UNL     1      -8.563  21.215  -3.578  1.00  0.00    -0.200 F 
ATOM     92  F   UNL     1      -6.239  22.602  -3.242  1.00  0.00    -0.200 F 
ENDBRANCH  59  82
ENDBRANCH  33  34
ENDBRANCH  25  28
ENDBRANCH  23  24
ENDBRANCH  22  23
ENDBRANCH   1  22
TORSDOF 14
