REMARK SMILES Cn1cccc1C[NH2+]Cc1ccc(C(=O)NCCCNC(=O)c2ccc(-c3c4nc(c(-c5c(F)c(F)c(F)c(F)c5F)c5ccc([nH]5)c(-c5c(F)c(F)c(F)c(F)c5F)c5nc(c(-c6c(F)c(F)c(F)c(F)c6F)c6ccc3[nH]6)C=C5)C=C4)cc2)cc1
REMARK SMILES IDX 17 1 16 2 14 3 15 4 13 6 10 7 11 8 87 9 12 10 86 11 9 12
REMARK SMILES IDX 8 13 7 16 6 17 1 18 2 19 3 20 4 21 5 22 18 23 19 24 20 25
REMARK SMILES IDX 21 26 22 28 23 29 24 30 85 31 25 32 84 33 26 34 27 35 28 36
REMARK SMILES IDX 78 37 29 38 83 39 77 40 79 41 30 42 82 43 76 44 75 45 31 47
REMARK SMILES IDX 63 48 43 49 62 50 44 51 47 52 61 53 80 54 45 55 46 56 60 58
REMARK SMILES IDX 81 59 48 60 32 61 33 62 41 63 34 64 35 65 39 66 42 67 36 68
REMARK SMILES IDX 37 69 40 70 38 71 64 72 65 73 73 74 66 75 67 76 71 77 74 78
REMARK SMILES IDX 68 79 69 80 72 81 70 82 49 83 50 84 58 85 51 86 52 87 56 88
REMARK SMILES IDX 59 89 53 90 54 91 57 92 55 93
REMARK H PARENT 16 5 8 14 8 15 20 27 79 46 47 57
REMARK Flexibility Score: inf
ROOT
ATOM      1  C   UNL     1       6.439  -2.163   1.059  1.00  0.00     0.118 C 
ENDROOT
BRANCH   1   2
ATOM      2  N   UNL     1       6.857  -3.460   1.562  1.00  0.00    -0.352 N 
ATOM      3  C   UNL     1       6.121  -4.583   1.855  1.00  0.00     0.251 C 
ATOM      4  O   UNL     1       6.707  -5.622   2.145  1.00  0.00    -0.269 OA
ATOM      5  H   UNL     1       7.825  -3.550   1.719  1.00  0.00     0.163 HD
BRANCH   3   6
ATOM      6  C   UNL     1       4.642  -4.577   1.769  1.00  0.00     0.039 A 
ATOM      7  C   UNL     1       1.845  -4.596   1.443  1.00  0.00     0.006 A 
ATOM      8  C   UNL     1       2.627  -5.668   0.984  1.00  0.00     0.010 A 
ATOM      9  C   UNL     1       2.477  -3.568   2.157  1.00  0.00     0.010 A 
ATOM     10  C   UNL     1       4.016  -5.660   1.146  1.00  0.00     0.014 A 
ATOM     11  C   UNL     1       3.864  -3.560   2.321  1.00  0.00     0.014 A 
BRANCH   7  12
ATOM     12  C   UNL     1       0.348  -4.616   1.204  1.00  0.00     0.297 C 
BRANCH  12  13
ATOM     13  N   UNL     1      -0.273  -3.308   1.014  1.00  0.00    -0.338 N 
ATOM     14  H   UNL     1      -1.285  -3.431   0.999  1.00  0.00     0.346 HD
ATOM     15  H   UNL     1       0.037  -2.717   1.786  1.00  0.00     0.346 HD
BRANCH  13  16
ATOM     16  C   UNL     1       0.127  -2.639  -0.218  1.00  0.00     0.316 C 
BRANCH  16  17
ATOM     17  C   UNL     1      -0.287  -1.201  -0.136  1.00  0.00     0.072 A 
ATOM     18  C   UNL     1       2.018  -0.124  -0.083  1.00  0.00     0.149 C 
ATOM     19  N   UNL     1       0.572  -0.123  -0.074  1.00  0.00    -0.350 N 
ATOM     20  C   UNL     1      -0.158   1.041   0.003  1.00  0.00     0.085 A 
ATOM     21  C   UNL     1      -1.493   0.716  -0.007  1.00  0.00     0.020 A 
ATOM     22  C   UNL     1      -1.576  -0.689  -0.097  1.00  0.00     0.029 A 
ENDBRANCH  16  17
ENDBRANCH  13  16
ENDBRANCH  12  13
ENDBRANCH   7  12
ENDBRANCH   3   6
ENDBRANCH   1   2
BRANCH   1  23
ATOM     23  C   UNL     1       6.503  -1.087   2.142  1.00  0.00     0.042 C 
BRANCH  23  24
ATOM     24  C   UNL     1       7.922  -0.704   2.551  1.00  0.00     0.118 C 
BRANCH  24  25
ATOM     25  N   UNL     1       8.604   0.061   1.521  1.00  0.00    -0.352 N 
ATOM     26  C   UNL     1       9.223   1.283   1.586  1.00  0.00     0.251 C 
ATOM     27  H   UNL     1       8.625  -0.367   0.635  1.00  0.00     0.163 HD
ATOM     28  O   UNL     1       9.563   1.833   0.541  1.00  0.00    -0.269 OA
BRANCH  26  29
ATOM     29  C   UNL     1       9.481   1.957   2.881  1.00  0.00     0.039 A 
ATOM     30  C   UNL     1       9.399   3.354   2.926  1.00  0.00     0.014 A 
ATOM     31  C   UNL     1       9.882   1.254   4.021  1.00  0.00     0.014 A 
ATOM     32  C   UNL     1       9.692   4.037   4.109  1.00  0.00     0.010 A 
ATOM     33  C   UNL     1      10.107   1.930   5.221  1.00  0.00     0.010 A 
ATOM     34  C   UNL     1      10.037   3.330   5.271  1.00  0.00    -0.014 A 
BRANCH  34  35
ATOM     35  C   UNL     1      10.369   4.054   6.526  1.00  0.00     0.031 A 
ATOM     36  C   UNL     1      11.769   4.018   7.076  1.00  0.00     0.074 A 
ATOM     37  C   UNL     1       9.406   4.727   7.183  1.00  0.00     0.049 A 
ATOM     38  N   UNL     1      12.252   4.586   8.154  1.00  0.00    -0.248 NA
ATOM     39  C   UNL     1      12.753   3.218   6.331  1.00  0.00     0.031 C 
ATOM     40  C   UNL     1       8.001   4.798   6.781  1.00  0.00     0.029 A 
ATOM     41  N   UNL     1       9.463   5.481   8.328  1.00  0.00    -0.354 N 
ATOM     42  C   UNL     1      13.585   4.202   8.221  1.00  0.00     0.074 A 
ATOM     43  C   UNL     1      13.824   3.312   7.106  1.00  0.00     0.031 C 
ATOM     44  C   UNL     1       7.334   5.575   7.650  1.00  0.00     0.029 A 
ATOM     45  C   UNL     1       8.259   6.039   8.681  1.00  0.00     0.049 A 
ATOM     46  H   UNL     1      10.289   5.610   8.848  1.00  0.00     0.167 HD
ATOM     47  C   UNL     1      14.530   4.574   9.117  1.00  0.00     0.037 A 
ATOM     48  C   UNL     1       7.940   6.843   9.713  1.00  0.00     0.037 A 
ATOM     49  C   UNL     1      14.301   5.483  10.209  1.00  0.00     0.049 A 
ATOM     50  C   UNL     1       9.017   7.273  10.671  1.00  0.00     0.074 A 
ATOM     51  C   UNL     1      15.204   5.960  11.144  1.00  0.00     0.029 A 
ATOM     52  N   UNL     1      13.075   6.059  10.510  1.00  0.00    -0.354 N 
ATOM     53  N   UNL     1      10.288   6.953  10.686  1.00  0.00    -0.248 NA
ATOM     54  C   UNL     1       8.616   8.192  11.745  1.00  0.00     0.031 C 
ATOM     55  C   UNL     1      14.518   6.800  12.028  1.00  0.00     0.029 A 
ATOM     56  C   UNL     1      13.197   6.880  11.619  1.00  0.00     0.049 A 
ATOM     57  H   UNL     1      12.242   5.907  10.009  1.00  0.00     0.167 HD
ATOM     58  C   UNL     1      10.844   7.652  11.749  1.00  0.00     0.074 A 
ATOM     59  C   UNL     1       9.775   8.426  12.345  1.00  0.00     0.031 C 
ATOM     60  C   UNL     1      12.125   7.652  12.192  1.00  0.00     0.037 A 
BRANCH  47  61
ATOM     61  C   UNL     1      15.908   4.001   8.947  1.00  0.00     0.064 A 
ATOM     62  C   UNL     1      16.741   4.393   7.887  1.00  0.00     0.173 A 
ATOM     63  C   UNL     1      16.412   3.070   9.867  1.00  0.00     0.173 A 
ATOM     64  F   UNL     1      16.301   5.271   6.973  1.00  0.00    -0.203 F 
ATOM     65  C   UNL     1      18.015   3.853   7.739  1.00  0.00     0.198 A 
ATOM     66  C   UNL     1      17.698   2.553   9.732  1.00  0.00     0.198 A 
ATOM     67  F   UNL     1      15.660   2.664  10.901  1.00  0.00    -0.203 F 
ATOM     68  F   UNL     1      18.773   4.205   6.691  1.00  0.00    -0.200 F 
ATOM     69  C   UNL     1      18.495   2.938   8.664  1.00  0.00     0.200 A 
ATOM     70  F   UNL     1      18.165   1.677  10.633  1.00  0.00    -0.200 F 
ATOM     71  F   UNL     1      19.724   2.422   8.522  1.00  0.00    -0.200 F 
ENDBRANCH  47  61
BRANCH  48  72
ATOM     72  C   UNL     1       6.547   7.335   9.864  1.00  0.00     0.064 A 
ATOM     73  C   UNL     1       6.229   8.677   9.616  1.00  0.00     0.173 A 
ATOM     74  C   UNL     1       5.510   6.479  10.260  1.00  0.00     0.173 A 
ATOM     75  F   UNL     1       7.192   9.537   9.254  1.00  0.00    -0.203 F 
ATOM     76  C   UNL     1       4.929   9.150   9.778  1.00  0.00     0.198 A 
ATOM     77  C   UNL     1       4.205   6.947  10.397  1.00  0.00     0.198 A 
ATOM     78  F   UNL     1       5.763   5.184  10.503  1.00  0.00    -0.203 F 
ATOM     79  F   UNL     1       4.660  10.447   9.575  1.00  0.00    -0.200 F 
ATOM     80  C   UNL     1       3.917   8.284  10.163  1.00  0.00     0.200 A 
ATOM     81  F   UNL     1       3.227   6.104  10.756  1.00  0.00    -0.200 F 
ATOM     82  F   UNL     1       2.666   8.738  10.316  1.00  0.00    -0.200 F 
ENDBRANCH  48  72
BRANCH  60  83
ATOM     83  C   UNL     1      12.446   8.549  13.352  1.00  0.00     0.064 A 
ATOM     84  C   UNL     1      12.009   8.256  14.652  1.00  0.00     0.173 A 
ATOM     85  C   UNL     1      13.214   9.707  13.161  1.00  0.00     0.173 A 
ATOM     86  F   UNL     1      11.259   7.168  14.883  1.00  0.00    -0.203 F 
ATOM     87  C   UNL     1      12.301   9.109  15.713  1.00  0.00     0.198 A 
ATOM     88  C   UNL     1      13.528  10.543  14.229  1.00  0.00     0.198 A 
ATOM     89  F   UNL     1      13.662  10.027  11.938  1.00  0.00    -0.203 F 
ATOM     90  F   UNL     1      11.826   8.839  16.937  1.00  0.00    -0.200 F 
ATOM     91  C   UNL     1      13.063  10.248  15.502  1.00  0.00     0.200 A 
ATOM     92  F   UNL     1      14.273  11.637  14.025  1.00  0.00    -0.200 F 
ATOM     93  F   UNL     1      13.341  11.069  16.524  1.00  0.00    -0.200 F 
ENDBRANCH  60  83
ENDBRANCH  34  35
ENDBRANCH  26  29
ENDBRANCH  24  25
ENDBRANCH  23  24
ENDBRANCH   1  23
TORSDOF 14
