REMARK SMILES O=C(NCCCNC(=O)[C@@H]1CCCC[C@@H]1c1nc(C2CCCCC2)no1)c1ccc(-c2c3nc(c(-c4c(F)c(F)c(F)c(F)c4F)c4ccc([nH]4)c(-c4c(F)c(F)c(F)c(F)c4F)c4nc(c(-c5c(F)c(F)c(F)c(F)c5F)c5ccc2[nH]5)C=C4)C=C3)cc1
REMARK SMILES IDX 5 1 4 2 3 3 1 4 2 5 27 7 28 8 89 9 29 10 88 11 30 12 31 13
REMARK SMILES IDX 32 14 82 15 33 16 87 17 81 18 83 19 34 20 86 21 80 22 79 23
REMARK SMILES IDX 35 25 67 26 47 27 66 28 48 29 51 30 65 31 84 32 49 33 50 34
REMARK SMILES IDX 64 36 85 37 52 38 36 39 37 40 45 41 38 42 39 43 43 44 46 45
REMARK SMILES IDX 40 46 41 47 44 48 42 49 68 50 69 51 77 52 70 53 71 54 75 55
REMARK SMILES IDX 78 56 72 57 73 58 76 59 74 60 53 61 54 62 62 63 55 64 56 65
REMARK SMILES IDX 60 66 63 67 57 68 58 69 61 70 59 71 6 72 7 73 8 74 9 76
REMARK SMILES IDX 10 77 11 78 15 79 12 80 14 81 13 82 16 83 17 84 26 85 18 86
REMARK SMILES IDX 25 87 19 88 20 89 24 90 21 91 23 92 22 93
REMARK H PARENT 3 6 83 24 51 35 7 75
REMARK Flexibility Score: inf
ROOT
ATOM      1  C   UNL     1       4.837  -2.106  -0.292  1.00  0.00     0.042 C 
ENDROOT
BRANCH   1   2
ATOM      2  C   UNL     1       4.443  -0.915  -1.149  1.00  0.00     0.118 C 
BRANCH   2   3
ATOM      3  N   UNL     1       3.013  -0.632  -1.093  1.00  0.00    -0.352 N 
ATOM      4  O   UNL     1       1.070   0.163  -0.281  1.00  0.00    -0.269 OA
ATOM      5  C   UNL     1       2.292   0.240  -0.309  1.00  0.00     0.251 C 
ATOM      6  H   UNL     1       2.470  -1.155  -1.726  1.00  0.00     0.163 HD
BRANCH   5   7
ATOM      7  C   UNL     1       2.982   1.249   0.528  1.00  0.00     0.039 A 
ATOM      8  C   UNL     1       4.112   1.913   0.060  1.00  0.00     0.014 A 
ATOM      9  C   UNL     1       2.478   1.557   1.796  1.00  0.00     0.014 A 
ATOM     10  C   UNL     1       4.862   2.696   0.925  1.00  0.00     0.010 A 
ATOM     11  C   UNL     1       3.159   2.463   2.618  1.00  0.00     0.010 A 
ATOM     12  C   UNL     1       4.388   3.001   2.210  1.00  0.00    -0.014 A 
BRANCH  12  13
ATOM     13  C   UNL     1       5.190   3.911   3.070  1.00  0.00     0.031 A 
ATOM     14  C   UNL     1       5.736   3.454   4.396  1.00  0.00     0.074 A 
ATOM     15  C   UNL     1       5.481   5.145   2.610  1.00  0.00     0.049 A 
ATOM     16  N   UNL     1       6.499   4.103   5.241  1.00  0.00    -0.248 NA
ATOM     17  C   UNL     1       5.372   2.101   4.840  1.00  0.00     0.031 C 
ATOM     18  C   UNL     1       5.000   5.706   1.345  1.00  0.00     0.029 A 
ATOM     19  N   UNL     1       6.280   6.134   3.125  1.00  0.00    -0.354 N 
ATOM     20  C   UNL     1       6.675   3.254   6.327  1.00  0.00     0.074 A 
ATOM     21  C   UNL     1       5.923   2.050   6.045  1.00  0.00     0.031 C 
ATOM     22  C   UNL     1       5.576   6.899   1.142  1.00  0.00     0.029 A 
ATOM     23  C   UNL     1       6.402   7.225   2.298  1.00  0.00     0.049 A 
ATOM     24  H   UNL     1       6.723   6.069   4.002  1.00  0.00     0.167 HD
ATOM     25  C   UNL     1       7.402   3.461   7.452  1.00  0.00     0.037 A 
ATOM     26  C   UNL     1       7.094   8.367   2.454  1.00  0.00     0.037 A 
ATOM     27  C   UNL     1       8.177   4.647   7.710  1.00  0.00     0.049 A 
ATOM     28  C   UNL     1       7.894   8.564   3.708  1.00  0.00     0.074 A 
ATOM     29  C   UNL     1       8.979   4.936   8.801  1.00  0.00     0.029 A 
ATOM     30  N   UNL     1       8.250   5.744   6.862  1.00  0.00    -0.354 N 
ATOM     31  N   UNL     1       8.070   7.744   4.714  1.00  0.00    -0.248 NA
ATOM     32  C   UNL     1       8.588   9.851   3.850  1.00  0.00     0.031 C 
ATOM     33  C   UNL     1       9.499   6.224   8.636  1.00  0.00     0.029 A 
ATOM     34  C   UNL     1       9.067   6.718   7.416  1.00  0.00     0.049 A 
ATOM     35  H   UNL     1       7.789   5.819   5.995  1.00  0.00     0.167 HD
ATOM     36  C   UNL     1       8.911   8.401   5.599  1.00  0.00     0.074 A 
ATOM     37  C   UNL     1       9.226   9.683   5.000  1.00  0.00     0.031 C 
ATOM     38  C   UNL     1       9.378   7.983   6.800  1.00  0.00     0.037 A 
BRANCH  25  39
ATOM     39  C   UNL     1       7.374   2.391   8.508  1.00  0.00     0.064 A 
ATOM     40  C   UNL     1       8.014   1.155   8.332  1.00  0.00     0.173 A 
ATOM     41  C   UNL     1       6.726   2.624   9.732  1.00  0.00     0.173 A 
ATOM     42  F   UNL     1       8.637   0.875   7.177  1.00  0.00    -0.203 F 
ATOM     43  C   UNL     1       7.983   0.183   9.330  1.00  0.00     0.198 A 
ATOM     44  C   UNL     1       6.723   1.661  10.738  1.00  0.00     0.198 A 
ATOM     45  F   UNL     1       6.104   3.791   9.956  1.00  0.00    -0.203 F 
ATOM     46  F   UNL     1       8.560  -1.008   9.120  1.00  0.00    -0.200 F 
ATOM     47  C   UNL     1       7.344   0.439  10.534  1.00  0.00     0.200 A 
ATOM     48  F   UNL     1       6.115   1.916  11.905  1.00  0.00    -0.200 F 
ATOM     49  F   UNL     1       7.320  -0.495  11.494  1.00  0.00    -0.200 F 
ENDBRANCH  25  39
BRANCH  26  50
ATOM     50  C   UNL     1       7.063   9.403   1.389  1.00  0.00     0.064 A 
ATOM     51  C   UNL     1       8.207   9.695   0.633  1.00  0.00     0.173 A 
ATOM     52  C   UNL     1       5.888  10.110   1.094  1.00  0.00     0.173 A 
ATOM     53  F   UNL     1       9.359   9.057   0.889  1.00  0.00    -0.203 F 
ATOM     54  C   UNL     1       8.181  10.665  -0.366  1.00  0.00     0.198 A 
ATOM     55  C   UNL     1       5.855  11.057   0.073  1.00  0.00     0.198 A 
ATOM     56  F   UNL     1       4.765   9.864   1.783  1.00  0.00    -0.203 F 
ATOM     57  F   UNL     1       9.299  10.954  -1.046  1.00  0.00    -0.200 F 
ATOM     58  C   UNL     1       7.003  11.340  -0.650  1.00  0.00     0.200 A 
ATOM     59  F   UNL     1       4.709  11.692  -0.211  1.00  0.00    -0.200 F 
ATOM     60  F   UNL     1       6.975  12.266  -1.618  1.00  0.00    -0.200 F 
ENDBRANCH  26  50
BRANCH  38  61
ATOM     61  C   UNL     1      10.318   8.904   7.521  1.00  0.00     0.064 A 
ATOM     62  C   UNL     1       9.877  10.097   8.110  1.00  0.00     0.173 A 
ATOM     63  C   UNL     1      11.678   8.578   7.634  1.00  0.00     0.173 A 
ATOM     64  F   UNL     1       8.589  10.461   8.014  1.00  0.00    -0.203 F 
ATOM     65  C   UNL     1      10.769  10.948   8.756  1.00  0.00     0.198 A 
ATOM     66  C   UNL     1      12.562   9.415   8.307  1.00  0.00     0.198 A 
ATOM     67  F   UNL     1      12.149   7.444   7.092  1.00  0.00    -0.203 F 
ATOM     68  F   UNL     1      10.336  12.111   9.261  1.00  0.00    -0.200 F 
ATOM     69  C   UNL     1      12.109  10.604   8.859  1.00  0.00     0.200 A 
ATOM     70  F   UNL     1      13.854   9.075   8.416  1.00  0.00    -0.200 F 
ATOM     71  F   UNL     1      12.967  11.424   9.482  1.00  0.00    -0.200 F 
ENDBRANCH  38  61
ENDBRANCH  12  13
ENDBRANCH   5   7
ENDBRANCH   2   3
ENDBRANCH   1   2
BRANCH   1  72
ATOM     72  C   UNL     1       4.400  -3.436  -0.879  1.00  0.00     0.117 C 
BRANCH  72  73
ATOM     73  N   UNL     1       5.109  -3.750  -2.106  1.00  0.00    -0.356 N 
ATOM     74  C   UNL     1       5.778  -4.838  -2.552  1.00  0.00     0.223 C 
ATOM     75  H   UNL     1       5.101  -3.010  -2.755  1.00  0.00     0.163 HD
ATOM     76  O   UNL     1       6.276  -4.713  -3.677  1.00  0.00    -0.275 OA
BRANCH  74  77
ATOM     77  C   UNL     1       6.008  -6.115  -1.724  1.00  0.00     0.091 C 
ATOM     78  C   UNL     1       6.549  -7.207  -2.686  1.00  0.00     0.014 C 
ATOM     79  C   UNL     1       4.822  -6.638  -0.887  1.00  0.00     0.091 C 
ATOM     80  C   UNL     1       6.772  -8.564  -2.032  1.00  0.00     0.001 C 
ATOM     81  C   UNL     1       5.087  -8.021  -0.276  1.00  0.00     0.014 C 
ATOM     82  C   UNL     1       5.532  -9.050  -1.300  1.00  0.00     0.001 C 
BRANCH  79  83
ATOM     83  C   UNL     1       3.503  -6.589  -1.585  1.00  0.00     0.230 A 
ATOM     84  N   UNL     1       2.306  -6.428  -1.064  1.00  0.00    -0.196 NA
ATOM     85  O   UNL     1       3.492  -6.668  -2.946  1.00  0.00    -0.339 OA
ATOM     86  C   UNL     1       1.508  -6.424  -2.181  1.00  0.00     0.175 A 
ATOM     87  N   UNL     1       2.166  -6.545  -3.341  1.00  0.00    -0.062 NA
BRANCH  86  88
ATOM     88  C   UNL     1       0.019  -6.403  -2.132  1.00  0.00     0.061 C 
ATOM     89  C   UNL     1      -0.523  -7.752  -1.636  1.00  0.00     0.012 C 
ATOM     90  C   UNL     1      -0.545  -5.257  -1.282  1.00  0.00     0.012 C 
ATOM     91  C   UNL     1      -2.047  -7.776  -1.666  1.00  0.00     0.001 C 
ATOM     92  C   UNL     1      -2.075  -5.268  -1.304  1.00  0.00     0.001 C 
ATOM     93  C   UNL     1      -2.644  -6.618  -0.870  1.00  0.00     0.000 C 
ENDBRANCH  86  88
ENDBRANCH  79  83
ENDBRANCH  74  77
ENDBRANCH  72  73
ENDBRANCH   1  72
TORSDOF 12
