REMARK SMILES CC1(CNS(=O)(=O)Cc2ccc(C(=O)NCCCNC(=O)c3ccc(-c4c5nc(c(-c6c(F)c(F)c(F)c(F)c6F)c6ccc([nH]6)c(-c6c(F)c(F)c(F)c(F)c6F)c6nc(c(-c7c(F)c(F)c(F)c(F)c7F)c7ccc4[nH]7)C=C6)C=C5)cc3)cc2)COC1
REMARK SMILES IDX 13 1 14 2 15 3 12 5 9 6 10 7 86 8 11 9 85 10 8 11 5 12 6 13
REMARK SMILES IDX 7 14 4 15 3 17 2 18 1 19 87 20 89 21 88 22 16 23 17 24 18 25
REMARK SMILES IDX 19 26 20 27 21 29 22 30 23 31 84 32 24 33 83 34 25 35 26 36
REMARK SMILES IDX 27 37 77 38 28 39 82 40 76 41 78 42 29 43 81 44 75 45 74 46
REMARK SMILES IDX 30 48 62 49 42 50 61 51 43 52 46 53 60 54 79 55 44 56 45 57
REMARK SMILES IDX 59 59 80 60 47 61 31 62 32 63 40 64 33 65 34 66 38 67 41 68
REMARK SMILES IDX 35 69 36 70 39 71 37 72 63 73 64 74 72 75 65 76 66 77 70 78
REMARK SMILES IDX 73 79 67 80 68 81 71 82 69 83 48 84 49 85 57 86 50 87 51 88
REMARK SMILES IDX 55 89 58 90 52 91 53 92 56 93 54 94
REMARK H PARENT 15 4 4 16 19 28 78 47 46 58
REMARK Flexibility Score: inf
ROOT
ATOM      1  C   UNL     1       3.111   5.217   0.796  1.00  0.00     0.251 C 
ATOM      2  O   UNL     1       3.015   4.664   1.891  1.00  0.00    -0.269 OA
ATOM      3  N   UNL     1       3.420   6.551   0.776  1.00  0.00    -0.352 N 
ATOM      4  H   UNL     1       3.497   6.961   1.667  1.00  0.00     0.163 HD
ENDROOT
BRANCH   1   5
ATOM      5  C   UNL     1       2.940   4.410  -0.442  1.00  0.00     0.039 A 
ATOM      6  C   UNL     1       2.647   2.736  -2.692  1.00  0.00    -0.032 A 
ATOM      7  C   UNL     1       3.148   2.226  -1.489  1.00  0.00     0.005 A 
ATOM      8  C   UNL     1       2.301   4.090  -2.759  1.00  0.00     0.005 A 
ATOM      9  C   UNL     1       3.288   3.055  -0.373  1.00  0.00     0.014 A 
ATOM     10  C   UNL     1       2.414   4.907  -1.635  1.00  0.00     0.014 A 
BRANCH   6  11
ATOM     11  C   UNL     1       2.428   1.844  -3.883  1.00  0.00     0.189 C 
BRANCH  11  12
ATOM     12  S   UNL     1       0.678   1.427  -4.038  1.00  0.00     0.215 S 
ATOM     13  O   UNL     1       0.542   0.380  -5.030  1.00  0.00    -0.212 OA
ATOM     14  O   UNL     1      -0.108   2.636  -4.140  1.00  0.00    -0.212 OA
BRANCH  12  15
ATOM     15  N   UNL     1       0.285   0.746  -2.546  1.00  0.00    -0.214 NA
ATOM     16  H   UNL     1       0.665   1.355  -1.822  1.00  0.00     0.141 HD
BRANCH  15  17
ATOM     17  C   UNL     1       0.770  -0.619  -2.273  1.00  0.00     0.110 C 
BRANCH  17  18
ATOM     18  C   UNL     1       0.432  -1.087  -0.856  1.00  0.00     0.028 C 
ATOM     19  C   UNL     1       0.908  -0.162   0.254  1.00  0.00     0.018 C 
ATOM     20  C   UNL     1       0.835  -2.560  -0.641  1.00  0.00     0.170 C 
ATOM     21  C   UNL     1      -1.001  -1.634  -0.707  1.00  0.00     0.170 C 
ATOM     22  O   UNL     1      -0.526  -2.994  -0.892  1.00  0.00    -0.380 OA
ENDBRANCH  17  18
ENDBRANCH  15  17
ENDBRANCH  12  15
ENDBRANCH  11  12
ENDBRANCH   6  11
ENDBRANCH   1   5
BRANCH   3  23
ATOM     23  C   UNL     1       3.653   7.469  -0.323  1.00  0.00     0.118 C 
BRANCH  23  24
ATOM     24  C   UNL     1       2.425   8.344  -0.568  1.00  0.00     0.042 C 
BRANCH  24  25
ATOM     25  C   UNL     1       2.254   9.433   0.485  1.00  0.00     0.118 C 
BRANCH  25  26
ATOM     26  N   UNL     1       3.322  10.421   0.413  1.00  0.00    -0.352 N 
ATOM     27  C   UNL     1       3.260  11.769   0.173  1.00  0.00     0.251 C 
ATOM     28  H   UNL     1       4.228  10.066   0.559  1.00  0.00     0.163 HD
ATOM     29  O   UNL     1       4.284  12.383  -0.110  1.00  0.00    -0.269 OA
BRANCH  27  30
ATOM     30  C   UNL     1       1.970  12.483   0.254  1.00  0.00     0.039 A 
ATOM     31  C   UNL     1       1.704  13.498  -0.670  1.00  0.00     0.014 A 
ATOM     32  C   UNL     1       1.046  12.189   1.260  1.00  0.00     0.014 A 
ATOM     33  C   UNL     1       0.492  14.185  -0.611  1.00  0.00     0.010 A 
ATOM     34  C   UNL     1      -0.196  12.816   1.264  1.00  0.00     0.010 A 
ATOM     35  C   UNL     1      -0.480  13.828   0.337  1.00  0.00    -0.014 A 
BRANCH  35  36
ATOM     36  C   UNL     1      -1.799  14.505   0.374  1.00  0.00     0.031 A 
ATOM     37  C   UNL     1      -2.211  15.299   1.581  1.00  0.00     0.074 A 
ATOM     38  C   UNL     1      -2.651  14.345  -0.655  1.00  0.00     0.049 A 
ATOM     39  N   UNL     1      -3.342  15.912   1.823  1.00  0.00    -0.248 NA
ATOM     40  C   UNL     1      -1.232  15.390   2.675  1.00  0.00     0.031 C 
ATOM     41  C   UNL     1      -2.383  13.552  -1.855  1.00  0.00     0.029 A 
ATOM     42  N   UNL     1      -3.920  14.828  -0.851  1.00  0.00    -0.354 N 
ATOM     43  C   UNL     1      -3.215  16.447   3.098  1.00  0.00     0.074 A 
ATOM     44  C   UNL     1      -1.924  16.033   3.603  1.00  0.00     0.031 C 
ATOM     45  C   UNL     1      -3.444  13.620  -2.673  1.00  0.00     0.029 A 
ATOM     46  C   UNL     1      -4.483  14.425  -2.036  1.00  0.00     0.049 A 
ATOM     47  H   UNL     1      -4.382  15.409  -0.205  1.00  0.00     0.167 HD
ATOM     48  C   UNL     1      -4.088  17.232   3.776  1.00  0.00     0.037 A 
ATOM     49  C   UNL     1      -5.705  14.665  -2.547  1.00  0.00     0.037 A 
ATOM     50  C   UNL     1      -5.368  17.642   3.260  1.00  0.00     0.049 A 
ATOM     51  C   UNL     1      -6.663  15.528  -1.774  1.00  0.00     0.074 A 
ATOM     52  C   UNL     1      -6.301  18.486   3.835  1.00  0.00     0.029 A 
ATOM     53  N   UNL     1      -5.902  17.225   2.047  1.00  0.00    -0.354 N 
ATOM     54  N   UNL     1      -6.504  16.097  -0.603  1.00  0.00    -0.248 NA
ATOM     55  C   UNL     1      -7.967  15.789  -2.396  1.00  0.00     0.031 C 
ATOM     56  C   UNL     1      -7.426  18.526   3.004  1.00  0.00     0.029 A 
ATOM     57  C   UNL     1      -7.167  17.765   1.874  1.00  0.00     0.049 A 
ATOM     58  H   UNL     1      -5.449  16.632   1.405  1.00  0.00     0.167 HD
ATOM     59  C   UNL     1      -7.674  16.802  -0.358  1.00  0.00     0.074 A 
ATOM     60  C   UNL     1      -8.528  16.601  -1.512  1.00  0.00     0.031 C 
ATOM     61  C   UNL     1      -8.009  17.551   0.723  1.00  0.00     0.037 A 
BRANCH  48  62
ATOM     62  C   UNL     1      -3.687  17.678   5.155  1.00  0.00     0.064 A 
ATOM     63  C   UNL     1      -2.606  18.548   5.369  1.00  0.00     0.173 A 
ATOM     64  C   UNL     1      -4.394  17.229   6.282  1.00  0.00     0.173 A 
ATOM     65  F   UNL     1      -1.888  19.003   4.330  1.00  0.00    -0.203 F 
ATOM     66  C   UNL     1      -2.216  18.909   6.657  1.00  0.00     0.198 A 
ATOM     67  C   UNL     1      -4.026  17.624   7.566  1.00  0.00     0.198 A 
ATOM     68  F   UNL     1      -5.441  16.403   6.139  1.00  0.00    -0.203 F 
ATOM     69  F   UNL     1      -1.135  19.680   6.837  1.00  0.00    -0.200 F 
ATOM     70  C   UNL     1      -2.930  18.451   7.754  1.00  0.00     0.200 A 
ATOM     71  F   UNL     1      -4.728  17.193   8.624  1.00  0.00    -0.200 F 
ATOM     72  F   UNL     1      -2.553  18.797   8.992  1.00  0.00    -0.200 F 
ENDBRANCH  48  62
BRANCH  49  73
ATOM     73  C   UNL     1      -6.069  14.095  -3.870  1.00  0.00     0.064 A 
ATOM     74  C   UNL     1      -6.209  14.917  -4.996  1.00  0.00     0.173 A 
ATOM     75  C   UNL     1      -6.246  12.714  -4.043  1.00  0.00     0.173 A 
ATOM     76  F   UNL     1      -6.066  16.245  -4.877  1.00  0.00    -0.203 F 
ATOM     77  C   UNL     1      -6.522  14.381  -6.243  1.00  0.00     0.198 A 
ATOM     78  C   UNL     1      -6.530  12.176  -5.296  1.00  0.00     0.198 A 
ATOM     79  F   UNL     1      -6.113  11.884  -2.998  1.00  0.00    -0.203 F 
ATOM     80  F   UNL     1      -6.684  15.192  -7.297  1.00  0.00    -0.200 F 
ATOM     81  C   UNL     1      -6.673  13.010  -6.394  1.00  0.00     0.200 A 
ATOM     82  F   UNL     1      -6.655  10.850  -5.441  1.00  0.00    -0.200 F 
ATOM     83  F   UNL     1      -6.958  12.494  -7.597  1.00  0.00    -0.200 F 
ENDBRANCH  49  73
BRANCH  61  84
ATOM     84  C   UNL     1      -9.347  18.234   0.699  1.00  0.00     0.064 A 
ATOM     85  C   UNL     1     -10.548  17.515   0.801  1.00  0.00     0.173 A 
ATOM     86  C   UNL     1      -9.427  19.633   0.612  1.00  0.00     0.173 A 
ATOM     87  F   UNL     1     -10.529  16.175   0.871  1.00  0.00    -0.203 F 
ATOM     88  C   UNL     1     -11.777  18.169   0.789  1.00  0.00     0.198 A 
ATOM     89  C   UNL     1     -10.656  20.285   0.637  1.00  0.00     0.198 A 
ATOM     90  F   UNL     1      -8.310  20.370   0.519  1.00  0.00    -0.203 F 
ATOM     91  F   UNL     1     -12.912  17.457   0.834  1.00  0.00    -0.200 F 
ATOM     92  C   UNL     1     -11.830  19.553   0.716  1.00  0.00     0.200 A 
ATOM     93  F   UNL     1     -10.704  21.623   0.584  1.00  0.00    -0.200 F 
ATOM     94  F   UNL     1     -13.014  20.180   0.715  1.00  0.00    -0.200 F 
ENDBRANCH  61  84
ENDBRANCH  35  36
ENDBRANCH  27  30
ENDBRANCH  25  26
ENDBRANCH  24  25
ENDBRANCH  23  24
ENDBRANCH   3  23
TORSDOF 15
