REMARK SMILES O=C(NCCCNC(=O)[C@@H](c1c[nH]c2cc(OCc3ccccc3)ccc12)[NH+]1CCSCC1)c1ccc(-c2c3nc(c(-c4c(F)c(F)c(F)c(F)c4F)c4ccc([nH]4)c(-c4c(F)c(F)c(F)c(F)c4F)c4nc(c(-c5c(F)c(F)c(F)c(F)c5F)c5ccc2[nH]5)C=C4)C=C3)cc1
REMARK SMILES IDX 6 1 5 2 4 3 3 4 1 5 2 6 34 8 35 9 96 10 36 11 95 12 37 13
REMARK SMILES IDX 38 14 39 15 89 16 40 17 94 18 88 19 90 20 41 21 93 22 87 23
REMARK SMILES IDX 86 24 42 26 74 27 54 28 73 29 55 30 58 31 72 32 91 33 56 34
REMARK SMILES IDX 57 35 71 37 92 38 59 39 43 40 44 41 52 42 45 43 46 44 50 45
REMARK SMILES IDX 53 46 47 47 48 48 51 49 49 50 75 51 76 52 84 53 77 54 78 55
REMARK SMILES IDX 82 56 85 57 79 58 80 59 83 60 81 61 60 62 61 63 69 64 62 65
REMARK SMILES IDX 63 66 67 67 70 68 64 69 65 70 68 71 66 72 7 73 8 74 9 76
REMARK SMILES IDX 10 77 11 78 12 79 27 80 13 81 14 82 26 83 15 85 25 86 16 87
REMARK SMILES IDX 17 88 18 89 19 90 20 91 24 92 21 93 23 94 22 95 28 96 29 97
REMARK SMILES IDX 33 98 30 100 32 101 31 102
REMARK H PARENT 3 7 90 25 58 36 7 75 13 84 28 99
REMARK Flexibility Score: inf
ROOT
ATOM      1  C   UNL     1       4.524   0.599  -3.648  1.00  0.00     0.118 C 
ENDROOT
BRANCH   1   2
ATOM      2  C   UNL     1       4.913  -0.055  -2.340  1.00  0.00     0.042 C 
BRANCH   2   3
ATOM      3  C   UNL     1       4.508   0.773  -1.138  1.00  0.00     0.118 C 
BRANCH   3   4
ATOM      4  N   UNL     1       3.071   0.738  -0.887  1.00  0.00    -0.352 N 
ATOM      5  O   UNL     1       1.136   0.063   0.060  1.00  0.00    -0.269 OA
ATOM      6  C   UNL     1       2.361   0.124   0.118  1.00  0.00     0.251 C 
ATOM      7  H   UNL     1       2.524   1.231  -1.541  1.00  0.00     0.163 HD
BRANCH   6   8
ATOM      8  C   UNL     1       3.075  -0.485   1.259  1.00  0.00     0.039 A 
ATOM      9  C   UNL     1       4.178   0.157   1.816  1.00  0.00     0.014 A 
ATOM     10  C   UNL     1       2.650  -1.713   1.775  1.00  0.00     0.014 A 
ATOM     11  C   UNL     1       4.982  -0.520   2.718  1.00  0.00     0.010 A 
ATOM     12  C   UNL     1       3.381  -2.328   2.798  1.00  0.00     0.010 A 
ATOM     13  C   UNL     1       4.578  -1.756   3.249  1.00  0.00    -0.014 A 
BRANCH  13  14
ATOM     14  C   UNL     1       5.410  -2.358   4.323  1.00  0.00     0.031 A 
ATOM     15  C   UNL     1       6.072  -3.696   4.153  1.00  0.00     0.074 A 
ATOM     16  C   UNL     1       5.629  -1.627   5.435  1.00  0.00     0.049 A 
ATOM     17  N   UNL     1       6.885  -4.318   4.971  1.00  0.00    -0.248 NA
ATOM     18  C   UNL     1       5.785  -4.440   2.918  1.00  0.00     0.031 C 
ATOM     19  C   UNL     1       5.018  -0.324   5.715  1.00  0.00     0.029 A 
ATOM     20  N   UNL     1       6.455  -1.840   6.508  1.00  0.00    -0.354 N 
ATOM     21  C   UNL     1       7.187  -5.530   4.364  1.00  0.00     0.074 A 
ATOM     22  C   UNL     1       6.453  -5.569   3.117  1.00  0.00     0.031 C 
ATOM     23  C   UNL     1       5.553   0.184   6.832  1.00  0.00     0.029 A 
ATOM     24  C   UNL     1       6.478  -0.790   7.394  1.00  0.00     0.049 A 
ATOM     25  H   UNL     1       6.979  -2.664   6.631  1.00  0.00     0.167 HD
ATOM     26  C   UNL     1       8.007  -6.513   4.808  1.00  0.00     0.037 A 
ATOM     27  C   UNL     1       7.158  -0.631   8.543  1.00  0.00     0.037 A 
ATOM     28  C   UNL     1       8.746  -6.458   6.045  1.00  0.00     0.049 A 
ATOM     29  C   UNL     1       8.070  -1.731   8.997  1.00  0.00     0.074 A 
ATOM     30  C   UNL     1       9.599  -7.404   6.586  1.00  0.00     0.029 A 
ATOM     31  N   UNL     1       8.725  -5.389   6.930  1.00  0.00    -0.354 N 
ATOM     32  N   UNL     1       8.341  -2.872   8.412  1.00  0.00    -0.248 NA
ATOM     33  C   UNL     1       8.764  -1.526  10.274  1.00  0.00     0.031 C 
ATOM     34  C   UNL     1      10.070  -6.922   7.812  1.00  0.00     0.029 A 
ATOM     35  C   UNL     1       9.544  -5.657   8.016  1.00  0.00     0.049 A 
ATOM     36  H   UNL     1       8.204  -4.563   6.806  1.00  0.00     0.167 HD
ATOM     37  C   UNL     1       9.232  -3.524   9.249  1.00  0.00     0.074 A 
ATOM     38  C   UNL     1       9.489  -2.632  10.362  1.00  0.00     0.031 C 
ATOM     39  C   UNL     1       9.777  -4.758   9.117  1.00  0.00     0.037 A 
BRANCH  26  40
ATOM     40  C   UNL     1       8.144  -7.744   3.960  1.00  0.00     0.064 A 
ATOM     41  C   UNL     1       8.870  -7.732   2.759  1.00  0.00     0.173 A 
ATOM     42  C   UNL     1       7.595  -8.965   4.381  1.00  0.00     0.173 A 
ATOM     43  F   UNL     1       9.405  -6.589   2.305  1.00  0.00    -0.203 F 
ATOM     44  C   UNL     1       9.027  -8.893   2.005  1.00  0.00     0.198 A 
ATOM     45  C   UNL     1       7.775 -10.129   3.637  1.00  0.00     0.198 A 
ATOM     46  F   UNL     1       6.897  -9.034   5.525  1.00  0.00    -0.203 F 
ATOM     47  F   UNL     1       9.697  -8.850   0.845  1.00  0.00    -0.200 F 
ATOM     48  C   UNL     1       8.487 -10.091   2.448  1.00  0.00     0.200 A 
ATOM     49  F   UNL     1       7.263 -11.288   4.073  1.00  0.00    -0.200 F 
ATOM     50  F   UNL     1       8.650 -11.209   1.727  1.00  0.00    -0.200 F 
ENDBRANCH  26  40
BRANCH  27  51
ATOM     51  C   UNL     1       6.978   0.609   9.340  1.00  0.00     0.064 A 
ATOM     52  C   UNL     1       8.017   1.537   9.485  1.00  0.00     0.173 A 
ATOM     53  C   UNL     1       5.751   0.901   9.956  1.00  0.00     0.173 A 
ATOM     54  F   UNL     1       9.214   1.296   8.928  1.00  0.00    -0.203 F 
ATOM     55  C   UNL     1       7.841   2.703  10.227  1.00  0.00     0.198 A 
ATOM     56  C   UNL     1       5.565   2.083  10.668  1.00  0.00     0.198 A 
ATOM     57  F   UNL     1       4.722   0.049   9.840  1.00  0.00    -0.203 F 
ATOM     58  F   UNL     1       8.863   3.555  10.384  1.00  0.00    -0.200 F 
ATOM     59  C   UNL     1       6.613   2.979  10.810  1.00  0.00     0.200 A 
ATOM     60  F   UNL     1       4.371   2.354  11.210  1.00  0.00    -0.200 F 
ATOM     61  F   UNL     1       6.440   4.106  11.513  1.00  0.00    -0.200 F 
ENDBRANCH  27  51
BRANCH  39  62
ATOM     62  C   UNL     1      10.706  -5.200  10.207  1.00  0.00     0.064 A 
ATOM     63  C   UNL     1      10.226  -5.551  11.477  1.00  0.00     0.173 A 
ATOM     64  C   UNL     1      12.088  -5.273   9.979  1.00  0.00     0.173 A 
ATOM     65  F   UNL     1       8.914  -5.478  11.747  1.00  0.00    -0.203 F 
ATOM     66  C   UNL     1      11.101  -5.927  12.492  1.00  0.00     0.198 A 
ATOM     67  C   UNL     1      12.957  -5.676  10.988  1.00  0.00     0.198 A 
ATOM     68  F   UNL     1      12.594  -4.950   8.779  1.00  0.00    -0.203 F 
ATOM     69  F   UNL     1      10.627  -6.203  13.714  1.00  0.00    -0.200 F 
ATOM     70  C   UNL     1      12.465  -5.993  12.245  1.00  0.00     0.200 A 
ATOM     71  F   UNL     1      14.273  -5.747  10.747  1.00  0.00    -0.200 F 
ATOM     72  F   UNL     1      13.306  -6.351  13.225  1.00  0.00    -0.200 F 
ENDBRANCH  39  62
ENDBRANCH  13  14
ENDBRANCH   6   8
ENDBRANCH   3   4
ENDBRANCH   2   3
ENDBRANCH   1   2
BRANCH   1  73
ATOM     73  N   UNL     1       5.302   1.791  -3.949  1.00  0.00    -0.351 N 
ATOM     74  C   UNL     1       5.994   2.085  -5.105  1.00  0.00     0.283 C 
ATOM     75  H   UNL     1       5.340   2.472  -3.239  1.00  0.00     0.163 HD
ATOM     76  O   UNL     1       6.495   3.211  -5.193  1.00  0.00    -0.268 OA
BRANCH  74  77
ATOM     77  C   UNL     1       6.118   1.020  -6.275  1.00  0.00     0.307 C 
BRANCH  77  78
ATOM     78  C   UNL     1       6.940  -0.168  -5.715  1.00  0.00     0.044 A 
ATOM     79  C   UNL     1       7.790  -0.048  -4.610  1.00  0.00     0.094 A 
ATOM     80  C   UNL     1       7.076  -1.552  -6.094  1.00  0.00     0.009 A 
ATOM     81  N   UNL     1       8.105  -1.291  -4.146  1.00  0.00    -0.361 N 
ATOM     82  C   UNL     1       7.542  -2.230  -4.964  1.00  0.00     0.050 A 
ATOM     83  C   UNL     1       6.767  -2.345  -7.215  1.00  0.00     0.015 A 
ATOM     84  H   UNL     1       8.651  -1.481  -3.349  1.00  0.00     0.166 HD
ATOM     85  C   UNL     1       7.406  -3.610  -4.790  1.00  0.00     0.073 A 
ATOM     86  C   UNL     1       6.596  -3.729  -7.058  1.00  0.00     0.047 A 
ATOM     87  C   UNL     1       6.793  -4.327  -5.817  1.00  0.00     0.121 A 
BRANCH  87  88
ATOM     88  O   UNL     1       6.405  -5.593  -5.477  1.00  0.00    -0.489 OA
BRANCH  88  89
ATOM     89  C   UNL     1       5.246  -6.133  -6.127  1.00  0.00     0.265 C 
BRANCH  89  90
ATOM     90  C   UNL     1       3.896  -5.707  -5.565  1.00  0.00    -0.011 A 
ATOM     91  C   UNL     1       3.550  -4.364  -5.347  1.00  0.00     0.007 A 
ATOM     92  C   UNL     1       2.904  -6.681  -5.357  1.00  0.00     0.007 A 
ATOM     93  C   UNL     1       2.261  -4.007  -4.935  1.00  0.00     0.000 A 
ATOM     94  C   UNL     1       1.616  -6.325  -4.943  1.00  0.00     0.000 A 
ATOM     95  C   UNL     1       1.294  -4.987  -4.736  1.00  0.00     0.000 A 
ENDBRANCH  89  90
ENDBRANCH  88  89
ENDBRANCH  87  88
ENDBRANCH  77  78
BRANCH  77  96
ATOM     96  N   UNL     1       4.768   0.814  -6.939  1.00  0.00    -0.319 N 
ATOM     97  C   UNL     1       3.820   1.933  -6.753  1.00  0.00     0.274 C 
ATOM     98  C   UNL     1       4.197  -0.525  -7.036  1.00  0.00     0.274 C 
ATOM     99  H   UNL     1       5.051   0.863  -7.918  1.00  0.00     0.349 HD
ATOM    100  C   UNL     1       2.450   1.877  -7.439  1.00  0.00     0.131 C 
ATOM    101  C   UNL     1       2.795  -0.747  -7.628  1.00  0.00     0.131 C 
ATOM    102  S   UNL     1       1.562   0.377  -6.952  1.00  0.00    -0.150 SA
ENDBRANCH  77  96
ENDBRANCH  74  77
ENDBRANCH   1  73
TORSDOF 15
