REMARK SMILES C[C@](NC(=O)c1ccc(Br)o1)(C(=O)NCCCNC(=O)c1ccc(-c2c3nc(c(-c4c(F)c(F)c(F)c(F)c4F)c4ccc([nH]4)c(-c4c(F)c(F)c(F)c(F)c4F)c4nc(c(-c5c(F)c(F)c(F)c(F)c5F)c5ccc2[nH]5)C=C4)C=C3)cc1)C(F)(F)F
REMARK SMILES IDX 16 1 15 2 14 3 12 4 13 5 2 7 1 8 84 9 85 10 86 11 87 12 3 13
REMARK SMILES IDX 4 14 5 16 6 17 7 18 11 19 8 20 9 21 10 22 17 23 18 24 19 25
REMARK SMILES IDX 20 27 21 28 22 29 83 30 23 31 82 32 24 33 25 34 26 35 76 36
REMARK SMILES IDX 27 37 81 38 75 39 77 40 28 41 80 42 74 43 73 44 29 46 61 47
REMARK SMILES IDX 41 48 60 49 42 50 45 51 59 52 78 53 43 54 44 55 58 57 79 58
REMARK SMILES IDX 46 59 30 60 31 61 39 62 32 63 33 64 37 65 40 66 34 67 35 68
REMARK SMILES IDX 38 69 36 70 62 71 63 72 71 73 64 74 65 75 69 76 72 77 66 78
REMARK SMILES IDX 67 79 70 80 68 81 47 82 48 83 56 84 49 85 50 86 54 87 57 88
REMARK SMILES IDX 51 89 52 90 55 91 53 92
REMARK H PARENT 14 6 3 15 18 26 77 45 45 56
REMARK Flexibility Score: inf
ROOT
ATOM      1  C   UNL     1      -1.295   1.077  -2.400  1.00  0.00     0.042 C 
ENDROOT
BRANCH   1   2
ATOM      2  C   UNL     1      -1.049   1.937  -1.171  1.00  0.00     0.117 C 
BRANCH   2   3
ATOM      3  N   UNL     1      -1.540   1.310   0.047  1.00  0.00    -0.354 N 
ATOM      4  C   UNL     1      -0.875   0.854   1.155  1.00  0.00     0.254 C 
ATOM      5  O   UNL     1      -1.572   0.388   2.056  1.00  0.00    -0.272 OA
ATOM      6  H   UNL     1      -2.517   1.193   0.081  1.00  0.00     0.163 HD
BRANCH   4   7
ATOM      7  C   UNL     1       0.654   1.005   1.270  1.00  0.00     0.212 C 
ATOM      8  C   UNL     1       0.963   2.507   1.389  1.00  0.00     0.056 C 
BRANCH   7   9
ATOM      9  C   UNL     1       1.096   0.335   2.588  1.00  0.00     0.420 C 
ATOM     10  F   UNL     1       0.807  -0.986   2.612  1.00  0.00    -0.168 F 
ATOM     11  F   UNL     1       2.449   0.432   2.714  1.00  0.00    -0.168 F 
ATOM     12  F   UNL     1       0.567   0.915   3.685  1.00  0.00    -0.168 F 
ENDBRANCH   7   9
BRANCH   7  13
ATOM     13  N   UNL     1       1.214   0.253   0.100  1.00  0.00    -0.328 N 
ATOM     14  C   UNL     1       2.197   0.454  -0.829  1.00  0.00     0.288 C 
ATOM     15  H   UNL     1       0.755  -0.607  -0.035  1.00  0.00     0.165 HD
ATOM     16  O   UNL     1       2.367  -0.439  -1.652  1.00  0.00    -0.266 OA
BRANCH  14  17
ATOM     17  C   UNL     1       2.907   1.702  -0.867  1.00  0.00     0.192 A 
ATOM     18  C   UNL     1       3.836   2.288  -0.031  1.00  0.00     0.057 A 
ATOM     19  O   UNL     1       2.666   2.525  -1.933  1.00  0.00    -0.444 OA
ATOM     20  C   UNL     1       4.143   3.553  -0.594  1.00  0.00     0.059 A 
ATOM     21  C   UNL     1       3.415   3.643  -1.758  1.00  0.00     0.170 A 
ATOM     22  Br  UNL     1       3.424   5.093  -2.930  1.00  0.00    -0.008 Br
ENDBRANCH  14  17
ENDBRANCH   7  13
ENDBRANCH   4   7
ENDBRANCH   2   3
ENDBRANCH   1   2
BRANCH   1  23
ATOM     23  C   UNL     1      -2.765   0.976  -2.774  1.00  0.00     0.118 C 
BRANCH  23  24
ATOM     24  N   UNL     1      -3.326   2.254  -3.200  1.00  0.00    -0.352 N 
ATOM     25  C   UNL     1      -3.949   2.580  -4.380  1.00  0.00     0.251 C 
ATOM     26  H   UNL     1      -3.247   2.987  -2.548  1.00  0.00     0.163 HD
ATOM     27  O   UNL     1      -4.207   3.749  -4.644  1.00  0.00    -0.269 OA
BRANCH  25  28
ATOM     28  C   UNL     1      -4.284   1.510  -5.340  1.00  0.00     0.039 A 
ATOM     29  C   UNL     1      -3.961   1.675  -6.688  1.00  0.00     0.014 A 
ATOM     30  C   UNL     1      -4.886   0.332  -4.893  1.00  0.00     0.014 A 
ATOM     31  C   UNL     1      -4.166   0.619  -7.579  1.00  0.00     0.010 A 
ATOM     32  C   UNL     1      -5.010  -0.745  -5.760  1.00  0.00     0.010 A 
ATOM     33  C   UNL     1      -4.649  -0.613  -7.111  1.00  0.00    -0.014 A 
BRANCH  33  34
ATOM     34  C   UNL     1      -4.797  -1.791  -8.001  1.00  0.00     0.031 A 
ATOM     35  C   UNL     1      -6.157  -2.393  -8.211  1.00  0.00     0.074 A 
ATOM     36  C   UNL     1      -3.704  -2.380  -8.522  1.00  0.00     0.049 A 
ATOM     37  N   UNL     1      -6.486  -3.516  -8.795  1.00  0.00    -0.248 NA
ATOM     38  C   UNL     1      -7.298  -1.648  -7.654  1.00  0.00     0.031 C 
ATOM     39  C   UNL     1      -2.327  -1.910  -8.357  1.00  0.00     0.029 A 
ATOM     40  N   UNL     1      -3.577  -3.521  -9.275  1.00  0.00    -0.354 N 
ATOM     41  C   UNL     1      -7.863  -3.625  -8.651  1.00  0.00     0.074 A 
ATOM     42  C   UNL     1      -8.302  -2.481  -7.883  1.00  0.00     0.031 C 
ATOM     43  C   UNL     1      -1.497  -2.748  -8.998  1.00  0.00     0.029 A 
ATOM     44  C   UNL     1      -2.275  -3.840  -9.576  1.00  0.00     0.049 A 
ATOM     45  H   UNL     1      -4.346  -4.059  -9.572  1.00  0.00     0.167 HD
ATOM     46  C   UNL     1      -8.687  -4.585  -9.132  1.00  0.00     0.037 A 
ATOM     47  C   UNL     1      -1.767  -4.904 -10.225  1.00  0.00     0.037 A 
ATOM     48  C   UNL     1      -8.246  -5.703  -9.923  1.00  0.00     0.049 A 
ATOM     49  C   UNL     1      -2.704  -5.961 -10.746  1.00  0.00     0.074 A 
ATOM     50  C   UNL     1      -9.006  -6.700 -10.507  1.00  0.00     0.029 A 
ATOM     51  N   UNL     1      -6.922  -5.968 -10.242  1.00  0.00    -0.354 N 
ATOM     52  N   UNL     1      -4.010  -6.029 -10.650  1.00  0.00    -0.248 NA
ATOM     53  C   UNL     1      -2.098  -7.088 -11.469  1.00  0.00     0.031 C 
ATOM     54  C   UNL     1      -8.139  -7.594 -11.142  1.00  0.00     0.029 A 
ATOM     55  C   UNL     1      -6.843  -7.124 -11.002  1.00  0.00     0.049 A 
ATOM     56  H   UNL     1      -6.153  -5.418  -9.969  1.00  0.00     0.167 HD
ATOM     57  C   UNL     1      -4.384  -7.179 -11.331  1.00  0.00     0.074 A 
ATOM     58  C   UNL     1      -3.168  -7.779 -11.837  1.00  0.00     0.031 C 
ATOM     59  C   UNL     1      -5.625  -7.689 -11.522  1.00  0.00     0.037 A 
BRANCH  46  60
ATOM     60  C   UNL     1     -10.150  -4.467  -8.818  1.00  0.00     0.064 A 
ATOM     61  C   UNL     1     -10.946  -3.457  -9.380  1.00  0.00     0.173 A 
ATOM     62  C   UNL     1     -10.773  -5.396  -7.971  1.00  0.00     0.173 A 
ATOM     63  F   UNL     1     -10.398  -2.536 -10.187  1.00  0.00    -0.203 F 
ATOM     64  C   UNL     1     -12.302  -3.364  -9.081  1.00  0.00     0.198 A 
ATOM     65  C   UNL     1     -12.136  -5.319  -7.700  1.00  0.00     0.198 A 
ATOM     66  F   UNL     1     -10.060  -6.385  -7.410  1.00  0.00    -0.203 F 
ATOM     67  F   UNL     1     -13.030  -2.359  -9.588  1.00  0.00    -0.200 F 
ATOM     68  C   UNL     1     -12.898  -4.299  -8.248  1.00  0.00     0.200 A 
ATOM     69  F   UNL     1     -12.713  -6.232  -6.906  1.00  0.00    -0.200 F 
ATOM     70  F   UNL     1     -14.206  -4.212  -7.968  1.00  0.00    -0.200 F 
ENDBRANCH  46  60
BRANCH  47  71
ATOM     71  C   UNL     1      -0.300  -5.016 -10.436  1.00  0.00     0.064 A 
ATOM     72  C   UNL     1       0.252  -4.880 -11.718  1.00  0.00     0.173 A 
ATOM     73  C   UNL     1       0.578  -5.261  -9.370  1.00  0.00     0.173 A 
ATOM     74  F   UNL     1      -0.549  -4.666 -12.772  1.00  0.00    -0.203 F 
ATOM     75  C   UNL     1       1.624  -5.007 -11.928  1.00  0.00     0.198 A 
ATOM     76  C   UNL     1       1.953  -5.359  -9.578  1.00  0.00     0.198 A 
ATOM     77  F   UNL     1       0.101  -5.393  -8.124  1.00  0.00    -0.203 F 
ATOM     78  F   UNL     1       2.119  -4.920 -13.171  1.00  0.00    -0.200 F 
ATOM     79  C   UNL     1       2.473  -5.240 -10.858  1.00  0.00     0.200 A 
ATOM     80  F   UNL     1       2.772  -5.571  -8.539  1.00  0.00    -0.200 F 
ATOM     81  F   UNL     1       3.792  -5.359 -11.061  1.00  0.00    -0.200 F 
ENDBRANCH  47  71
BRANCH  59  82
ATOM     82  C   UNL     1      -5.746  -8.923 -12.367  1.00  0.00     0.064 A 
ATOM     83  C   UNL     1      -5.354 -10.184 -11.897  1.00  0.00     0.173 A 
ATOM     84  C   UNL     1      -6.330  -8.847 -13.642  1.00  0.00     0.173 A 
ATOM     85  F   UNL     1      -4.778 -10.306 -10.692  1.00  0.00    -0.203 F 
ATOM     86  C   UNL     1      -5.530 -11.323 -12.678  1.00  0.00     0.198 A 
ATOM     87  C   UNL     1      -6.531  -9.991 -14.407  1.00  0.00     0.198 A 
ATOM     88  F   UNL     1      -6.727  -7.663 -14.133  1.00  0.00    -0.203 F 
ATOM     89  F   UNL     1      -5.118 -12.515 -12.224  1.00  0.00    -0.200 F 
ATOM     90  C   UNL     1      -6.128 -11.227 -13.927  1.00  0.00     0.200 A 
ATOM     91  F   UNL     1      -7.122  -9.898 -15.606  1.00  0.00    -0.200 F 
ATOM     92  F   UNL     1      -6.312 -12.328 -14.669  1.00  0.00    -0.200 F 
ENDBRANCH  59  82
ENDBRANCH  33  34
ENDBRANCH  25  28
ENDBRANCH  23  24
ENDBRANCH   1  23
TORSDOF 13
