REMARK SMILES COc1ccc(O[C@H](F)C(=O)NCCCNC(=O)c2ccc(-c3c4nc(c(-c5c(F)c(F)c(F)c(F)c5F)c5ccc([nH]5)c(-c5c(F)c(F)c(F)c(F)c5F)c5nc(c(-c6c(F)c(F)c(F)c(F)c6F)c6ccc3[nH]6)C=C5)C=C4)cc2)c(C(C)(C)C)c1
REMARK SMILES IDX 13 1 12 2 10 3 11 4 8 6 9 7 7 8 6 9 3 10 4 11 87 12 5 13
REMARK SMILES IDX 82 14 2 15 1 16 83 17 84 18 85 19 86 20 14 21 15 22 16 23
REMARK SMILES IDX 17 24 18 26 19 27 20 28 81 29 21 30 80 31 22 32 23 33 24 34
REMARK SMILES IDX 74 35 25 36 79 37 73 38 75 39 26 40 78 41 72 42 71 43 27 45
REMARK SMILES IDX 59 46 39 47 58 48 40 49 43 50 57 51 76 52 41 53 42 54 56 56
REMARK SMILES IDX 77 57 44 58 28 59 29 60 37 61 30 62 31 63 35 64 38 65 32 66
REMARK SMILES IDX 33 67 36 68 34 69 60 70 61 71 69 72 62 73 63 74 67 75 70 76
REMARK SMILES IDX 64 77 65 78 68 79 66 80 45 81 46 82 54 83 47 84 48 85 52 86
REMARK SMILES IDX 55 87 49 88 50 89 53 90 51 91
REMARK H PARENT 12 5 16 25 75 44 43 55
REMARK Flexibility Score: inf
ROOT
ATOM      1  C   UNL     1       3.064  -1.798   3.695  1.00  0.00     0.118 C 
ENDROOT
BRANCH   1   2
ATOM      2  N   UNL     1       3.721  -1.772   4.992  1.00  0.00    -0.350 N 
ATOM      3  C   UNL     1       4.215  -2.829   5.711  1.00  0.00     0.294 C 
ATOM      4  O   UNL     1       4.902  -2.565   6.704  1.00  0.00    -0.267 OA
ATOM      5  H   UNL     1       3.825  -0.884   5.404  1.00  0.00     0.163 HD
BRANCH   3   6
ATOM      6  C   UNL     1       3.959  -4.298   5.264  1.00  0.00     0.440 C 
ATOM      7  F   UNL     1       2.747  -4.441   4.650  1.00  0.00    -0.191 F 
BRANCH   6   8
ATOM      8  O   UNL     1       4.916  -5.049   4.522  1.00  0.00    -0.451 OA
BRANCH   8   9
ATOM      9  C   UNL     1       5.373  -4.448   3.383  1.00  0.00     0.127 A 
ATOM     10  C   UNL     1       6.353  -3.091   1.138  1.00  0.00     0.119 A 
ATOM     11  C   UNL     1       6.726  -2.683   2.411  1.00  0.00     0.050 A 
ATOM     12  C   UNL     1       5.546  -4.226   0.993  1.00  0.00     0.054 A 
ATOM     13  C   UNL     1       6.252  -3.365   3.526  1.00  0.00     0.051 A 
ATOM     14  C   UNL     1       5.080  -4.974   2.105  1.00  0.00     0.003 A 
BRANCH  10  15
ATOM     15  O   UNL     1       6.865  -2.326   0.129  1.00  0.00    -0.497 OA
ATOM     16  C   UNL     1       6.535  -2.692  -1.204  1.00  0.00     0.278 C 
ENDBRANCH  10  15
BRANCH  14  17
ATOM     17  C   UNL     1       4.345  -6.321   1.878  1.00  0.00    -0.009 C 
ATOM     18  C   UNL     1       4.866  -7.423   2.832  1.00  0.00     0.016 C 
ATOM     19  C   UNL     1       2.828  -6.154   2.070  1.00  0.00     0.016 C 
ATOM     20  C   UNL     1       4.547  -6.891   0.446  1.00  0.00     0.016 C 
ENDBRANCH  14  17
ENDBRANCH   8   9
ENDBRANCH   6   8
ENDBRANCH   3   6
ENDBRANCH   1   2
BRANCH   1  21
ATOM     21  C   UNL     1       2.332  -0.503   3.375  1.00  0.00     0.042 C 
BRANCH  21  22
ATOM     22  C   UNL     1       3.227   0.722   3.246  1.00  0.00     0.118 C 
BRANCH  22  23
ATOM     23  N   UNL     1       4.070   0.723   2.059  1.00  0.00    -0.352 N 
ATOM     24  C   UNL     1       4.208   1.691   1.087  1.00  0.00     0.251 C 
ATOM     25  H   UNL     1       4.621  -0.083   1.933  1.00  0.00     0.163 HD
ATOM     26  O   UNL     1       4.904   1.485   0.100  1.00  0.00    -0.269 OA
BRANCH  24  27
ATOM     27  C   UNL     1       3.466   2.968   1.205  1.00  0.00     0.039 A 
ATOM     28  C   UNL     1       2.762   3.438   0.093  1.00  0.00     0.014 A 
ATOM     29  C   UNL     1       3.425   3.676   2.408  1.00  0.00     0.014 A 
ATOM     30  C   UNL     1       1.933   4.556   0.218  1.00  0.00     0.010 A 
ATOM     31  C   UNL     1       2.534   4.736   2.555  1.00  0.00     0.010 A 
ATOM     32  C   UNL     1       1.768   5.180   1.466  1.00  0.00    -0.014 A 
BRANCH  32  33
ATOM     33  C   UNL     1       0.780   6.274   1.659  1.00  0.00     0.031 A 
ATOM     34  C   UNL     1       1.234   7.642   2.084  1.00  0.00     0.074 A 
ATOM     35  C   UNL     1      -0.536   6.012   1.534  1.00  0.00     0.049 A 
ATOM     36  N   UNL     1       0.517   8.695   2.389  1.00  0.00    -0.248 NA
ATOM     37  C   UNL     1       2.684   7.845   2.218  1.00  0.00     0.031 C 
ATOM     38  C   UNL     1      -1.113   4.710   1.192  1.00  0.00     0.029 A 
ATOM     39  N   UNL     1      -1.631   6.825   1.696  1.00  0.00    -0.354 N 
ATOM     40  C   UNL     1       1.426   9.671   2.774  1.00  0.00     0.074 A 
ATOM     41  C   UNL     1       2.742   9.073   2.710  1.00  0.00     0.031 C 
ATOM     42  C   UNL     1      -2.450   4.818   1.146  1.00  0.00     0.029 A 
ATOM     43  C   UNL     1      -2.829   6.185   1.489  1.00  0.00     0.049 A 
ATOM     44  H   UNL     1      -1.564   7.777   1.938  1.00  0.00     0.167 HD
ATOM     45  C   UNL     1       1.187  10.957   3.127  1.00  0.00     0.037 A 
ATOM     46  C   UNL     1      -4.092   6.647   1.571  1.00  0.00     0.037 A 
ATOM     47  C   UNL     1      -0.117  11.564   3.148  1.00  0.00     0.049 A 
ATOM     48  C   UNL     1      -4.328   8.088   1.930  1.00  0.00     0.074 A 
ATOM     49  C   UNL     1      -0.452  12.881   3.413  1.00  0.00     0.029 A 
ATOM     50  N   UNL     1      -1.303  10.894   2.890  1.00  0.00    -0.354 N 
ATOM     51  N   UNL     1      -3.455   9.021   2.220  1.00  0.00    -0.248 NA
ATOM     52  C   UNL     1      -5.726   8.541   1.967  1.00  0.00     0.031 C 
ATOM     53  C   UNL     1      -1.845  13.000   3.349  1.00  0.00     0.029 A 
ATOM     54  C   UNL     1      -2.374  11.767   3.005  1.00  0.00     0.049 A 
ATOM     55  H   UNL     1      -1.375   9.940   2.659  1.00  0.00     0.167 HD
ATOM     56  C   UNL     1      -4.191  10.174   2.451  1.00  0.00     0.074 A 
ATOM     57  C   UNL     1      -5.584   9.828   2.253  1.00  0.00     0.031 C 
ATOM     58  C   UNL     1      -3.753  11.409   2.797  1.00  0.00     0.037 A 
BRANCH  45  59
ATOM     59  C   UNL     1       2.368  11.799   3.511  1.00  0.00     0.064 A 
ATOM     60  C   UNL     1       3.305  12.226   2.559  1.00  0.00     0.173 A 
ATOM     61  C   UNL     1       2.548  12.210   4.840  1.00  0.00     0.173 A 
ATOM     62  F   UNL     1       3.184  11.850   1.276  1.00  0.00    -0.203 F 
ATOM     63  C   UNL     1       4.397  13.008   2.928  1.00  0.00     0.198 A 
ATOM     64  C   UNL     1       3.625  13.016   5.201  1.00  0.00     0.198 A 
ATOM     65  F   UNL     1       1.677  11.834   5.789  1.00  0.00    -0.203 F 
ATOM     66  F   UNL     1       5.306  13.363   2.010  1.00  0.00    -0.200 F 
ATOM     67  C   UNL     1       4.552  13.407   4.247  1.00  0.00     0.200 A 
ATOM     68  F   UNL     1       3.768  13.410   6.474  1.00  0.00    -0.200 F 
ATOM     69  F   UNL     1       5.600  14.164   4.600  1.00  0.00    -0.200 F 
ENDBRANCH  45  59
BRANCH  46  70
ATOM     70  C   UNL     1      -5.232   5.741   1.275  1.00  0.00     0.064 A 
ATOM     71  C   UNL     1      -5.979   5.891   0.099  1.00  0.00     0.173 A 
ATOM     72  C   UNL     1      -5.596   4.712   2.154  1.00  0.00     0.173 A 
ATOM     73  F   UNL     1      -5.681   6.875  -0.762  1.00  0.00    -0.203 F 
ATOM     74  C   UNL     1      -7.059   5.056  -0.179  1.00  0.00     0.198 A 
ATOM     75  C   UNL     1      -6.661   3.862   1.864  1.00  0.00     0.198 A 
ATOM     76  F   UNL     1      -4.909   4.525   3.291  1.00  0.00    -0.203 F 
ATOM     77  F   UNL     1      -7.782   5.247  -1.291  1.00  0.00    -0.200 F 
ATOM     78  C   UNL     1      -7.396   4.038   0.701  1.00  0.00     0.200 A 
ATOM     79  F   UNL     1      -6.976   2.872   2.710  1.00  0.00    -0.200 F 
ATOM     80  F   UNL     1      -8.432   3.233   0.431  1.00  0.00    -0.200 F 
ENDBRANCH  46  70
BRANCH  58  81
ATOM     81  C   UNL     1      -4.785  12.484   2.956  1.00  0.00     0.064 A 
ATOM     82  C   UNL     1      -5.639  12.522   4.067  1.00  0.00     0.173 A 
ATOM     83  C   UNL     1      -4.893  13.511   2.006  1.00  0.00     0.173 A 
ATOM     84  F   UNL     1      -5.585  11.554   4.994  1.00  0.00    -0.203 F 
ATOM     85  C   UNL     1      -6.578  13.540   4.212  1.00  0.00     0.198 A 
ATOM     86  C   UNL     1      -5.815  14.541   2.167  1.00  0.00     0.198 A 
ATOM     87  F   UNL     1      -4.095  13.521   0.928  1.00  0.00    -0.203 F 
ATOM     88  F   UNL     1      -7.412  13.536   5.261  1.00  0.00    -0.200 F 
ATOM     89  C   UNL     1      -6.661  14.552   3.266  1.00  0.00     0.200 A 
ATOM     90  F   UNL     1      -5.887  15.523   1.258  1.00  0.00    -0.200 F 
ATOM     91  F   UNL     1      -7.561  15.534   3.411  1.00  0.00    -0.200 F 
ENDBRANCH  58  81
ENDBRANCH  32  33
ENDBRANCH  24  27
ENDBRANCH  22  23
ENDBRANCH  21  22
ENDBRANCH   1  21
TORSDOF 14
