REMARK SMILES Cc1nn(C)c(OCC(C)(C)[NH+](C)C)c1C(=O)NCCCNC(=O)c1ccc(-c2c3nc(c(-c4c(F)c(F)c(F)c(F)c4F)c4ccc([nH]4)c(-c4c(F)c(F)c(F)c(F)c4F)c4nc(c(-c5c(F)c(F)c(F)c(F)c5F)c5ccc2[nH]5)C=C4)C=C3)cc1
REMARK SMILES IDX 19 1 18 2 16 3 17 4 15 6 1 7 2 8 3 9 4 10 6 11 5 12 7 13
REMARK SMILES IDX 8 14 9 15 10 16 11 17 12 18 13 19 14 20 20 22 21 23 22 24
REMARK SMILES IDX 23 25 24 27 25 28 26 29 87 30 27 31 86 32 28 33 29 34 30 35
REMARK SMILES IDX 80 36 31 37 85 38 79 39 81 40 32 41 84 42 78 43 77 44 33 46
REMARK SMILES IDX 65 47 45 48 64 49 46 50 49 51 63 52 82 53 47 54 48 55 62 57
REMARK SMILES IDX 83 58 50 59 34 60 35 61 43 62 36 63 37 64 41 65 44 66 38 67
REMARK SMILES IDX 39 68 42 69 40 70 66 71 67 72 75 73 68 74 69 75 73 76 76 77
REMARK SMILES IDX 70 78 71 79 74 80 72 81 51 82 52 83 60 84 53 85 54 86 58 87
REMARK SMILES IDX 61 88 55 89 56 90 59 91 57 92
REMARK H PARENT 18 5 12 21 22 26 81 45 49 56
REMARK Flexibility Score: inf
ROOT
ATOM      1  C   UNL     1      -3.683  -1.411   0.114  1.00  0.00     0.118 C 
ENDROOT
BRANCH   1   2
ATOM      2  N   UNL     1      -2.822  -2.181  -0.757  1.00  0.00    -0.352 N 
ATOM      3  C   UNL     1      -1.571  -1.933  -1.249  1.00  0.00     0.258 C 
ATOM      4  O   UNL     1      -1.183  -2.682  -2.146  1.00  0.00    -0.269 OA
ATOM      5  H   UNL     1      -3.207  -3.040  -1.048  1.00  0.00     0.163 HD
BRANCH   3   6
ATOM      6  C   UNL     1      -0.712  -0.916  -0.679  1.00  0.00     0.124 A 
ATOM      7  C   UNL     1      -2.047   1.394  -0.701  1.00  0.00     0.070 C 
ATOM      8  C   UNL     1      -0.886   0.497  -0.496  1.00  0.00     0.076 A 
ATOM      9  N   UNL     1       0.242   1.088  -0.090  1.00  0.00    -0.174 NA
ATOM     10  N   UNL     1       1.139   0.097  -0.082  1.00  0.00    -0.236 N 
ATOM     11  C   UNL     1       0.593  -1.152  -0.240  1.00  0.00     0.225 A 
ATOM     12  C   UNL     1       2.535   0.433   0.061  1.00  0.00     0.178 C 
BRANCH  11  13
ATOM     13  O   UNL     1       1.386  -2.203  -0.013  1.00  0.00    -0.471 OA
BRANCH  13  14
ATOM     14  C   UNL     1       0.874  -3.518   0.190  1.00  0.00     0.299 C 
BRANCH  14  15
ATOM     15  C   UNL     1       0.280  -3.898   1.608  1.00  0.00     0.126 C 
ATOM     16  C   UNL     1      -1.055  -3.175   1.871  1.00  0.00     0.082 C 
ATOM     17  C   UNL     1      -0.063  -5.413   1.475  1.00  0.00     0.082 C 
BRANCH  15  18
ATOM     18  N   UNL     1       1.242  -3.742   2.746  1.00  0.00    -0.333 N 
ATOM     19  C   UNL     1       1.881  -2.425   2.814  1.00  0.00     0.333 C 
ATOM     20  C   UNL     1       0.687  -4.055   4.069  1.00  0.00     0.333 C 
ATOM     21  H   UNL     1       1.948  -4.443   2.519  1.00  0.00     0.348 HD
ENDBRANCH  15  18
ENDBRANCH  14  15
ENDBRANCH  13  14
ENDBRANCH  11  13
ENDBRANCH   3   6
ENDBRANCH   1   2
BRANCH   1  22
ATOM     22  C   UNL     1      -4.773  -0.779  -0.743  1.00  0.00     0.042 C 
BRANCH  22  23
ATOM     23  C   UNL     1      -5.849  -1.782  -1.125  1.00  0.00     0.118 C 
BRANCH  23  24
ATOM     24  N   UNL     1      -6.831  -1.931  -0.066  1.00  0.00    -0.352 N 
ATOM     25  C   UNL     1      -8.189  -1.733  -0.141  1.00  0.00     0.251 C 
ATOM     26  H   UNL     1      -6.482  -2.207   0.812  1.00  0.00     0.163 HD
ATOM     27  O   UNL     1      -8.858  -1.633   0.879  1.00  0.00    -0.269 OA
BRANCH  25  28
ATOM     28  C   UNL     1      -8.828  -1.620  -1.470  1.00  0.00     0.039 A 
ATOM     29  C   UNL     1      -9.779  -0.620  -1.681  1.00  0.00     0.014 A 
ATOM     30  C   UNL     1      -8.476  -2.491  -2.506  1.00  0.00     0.014 A 
ATOM     31  C   UNL     1     -10.346  -0.468  -2.947  1.00  0.00     0.010 A 
ATOM     32  C   UNL     1      -8.973  -2.280  -3.786  1.00  0.00     0.010 A 
ATOM     33  C   UNL     1      -9.927  -1.278  -4.016  1.00  0.00    -0.014 A 
BRANCH  33  34
ATOM     34  C   UNL     1     -10.490  -1.106  -5.378  1.00  0.00     0.031 A 
ATOM     35  C   UNL     1     -11.275  -2.222  -6.011  1.00  0.00     0.074 A 
ATOM     36  C   UNL     1     -10.251   0.030  -6.061  1.00  0.00     0.049 A 
ATOM     37  N   UNL     1     -11.800  -2.290  -7.208  1.00  0.00    -0.248 NA
ATOM     38  C   UNL     1     -11.471  -3.435  -5.201  1.00  0.00     0.031 C 
ATOM     39  C   UNL     1      -9.466   1.163  -5.568  1.00  0.00     0.029 A 
ATOM     40  N   UNL     1     -10.638   0.417  -7.319  1.00  0.00    -0.354 N 
ATOM     41  C   UNL     1     -12.376  -3.551  -7.295  1.00  0.00     0.074 A 
ATOM     42  C   UNL     1     -12.082  -4.239  -6.058  1.00  0.00     0.031 C 
ATOM     43  C   UNL     1      -9.453   2.128  -6.501  1.00  0.00     0.029 A 
ATOM     44  C   UNL     1     -10.190   1.666  -7.673  1.00  0.00     0.049 A 
ATOM     45  H   UNL     1     -11.185  -0.147  -7.912  1.00  0.00     0.167 HD
ATOM     46  C   UNL     1     -13.108  -4.077  -8.306  1.00  0.00     0.037 A 
ATOM     47  C   UNL     1     -10.349   2.356  -8.819  1.00  0.00     0.037 A 
ATOM     48  C   UNL     1     -13.411  -3.378  -9.527  1.00  0.00     0.049 A 
ATOM     49  C   UNL     1     -11.147   1.738  -9.936  1.00  0.00     0.074 A 
ATOM     50  C   UNL     1     -14.188  -3.799 -10.592  1.00  0.00     0.029 A 
ATOM     51  N   UNL     1     -12.944  -2.111  -9.848  1.00  0.00    -0.354 N 
ATOM     52  N   UNL     1     -11.748   0.574  -9.980  1.00  0.00    -0.248 NA
ATOM     53  C   UNL     1     -11.294   2.535 -11.162  1.00  0.00     0.031 C 
ATOM     54  C   UNL     1     -14.143  -2.812 -11.582  1.00  0.00     0.029 A 
ATOM     55  C   UNL     1     -13.393  -1.747 -11.108  1.00  0.00     0.049 A 
ATOM     56  H   UNL     1     -12.377  -1.554  -9.267  1.00  0.00     0.167 HD
ATOM     57  C   UNL     1     -12.370   0.511 -11.220  1.00  0.00     0.074 A 
ATOM     58  C   UNL     1     -12.086   1.763 -11.891  1.00  0.00     0.031 C 
ATOM     59  C   UNL     1     -13.108  -0.492 -11.756  1.00  0.00     0.037 A 
BRANCH  46  60
ATOM     60  C   UNL     1     -13.632  -5.474  -8.133  1.00  0.00     0.064 A 
ATOM     61  C   UNL     1     -14.624  -5.779  -7.188  1.00  0.00     0.173 A 
ATOM     62  C   UNL     1     -13.161  -6.517  -8.945  1.00  0.00     0.173 A 
ATOM     63  F   UNL     1     -15.101  -4.822  -6.377  1.00  0.00    -0.203 F 
ATOM     64  C   UNL     1     -15.100  -7.079  -7.040  1.00  0.00     0.198 A 
ATOM     65  C   UNL     1     -13.665  -7.809  -8.819  1.00  0.00     0.198 A 
ATOM     66  F   UNL     1     -12.217  -6.283  -9.869  1.00  0.00    -0.203 F 
ATOM     67  F   UNL     1     -16.007  -7.355  -6.092  1.00  0.00    -0.200 F 
ATOM     68  C   UNL     1     -14.627  -8.091  -7.861  1.00  0.00     0.200 A 
ATOM     69  F   UNL     1     -13.217  -8.783  -9.623  1.00  0.00    -0.200 F 
ATOM     70  F   UNL     1     -15.092  -9.340  -7.723  1.00  0.00    -0.200 F 
ENDBRANCH  46  60
BRANCH  47  71
ATOM     71  C   UNL     1      -9.760   3.714  -8.960  1.00  0.00     0.064 A 
ATOM     72  C   UNL     1     -10.578   4.848  -9.052  1.00  0.00     0.173 A 
ATOM     73  C   UNL     1      -8.371   3.906  -9.015  1.00  0.00     0.173 A 
ATOM     74  F   UNL     1     -11.912   4.715  -9.023  1.00  0.00    -0.203 F 
ATOM     75  C   UNL     1     -10.032   6.119  -9.220  1.00  0.00     0.198 A 
ATOM     76  C   UNL     1      -7.826   5.181  -9.149  1.00  0.00     0.198 A 
ATOM     77  F   UNL     1      -7.543   2.856  -8.924  1.00  0.00    -0.203 F 
ATOM     78  F   UNL     1     -10.840   7.180  -9.358  1.00  0.00    -0.200 F 
ATOM     79  C   UNL     1      -8.656   6.286  -9.263  1.00  0.00     0.200 A 
ATOM     80  F   UNL     1      -6.495   5.339  -9.172  1.00  0.00    -0.200 F 
ATOM     81  F   UNL     1      -8.132   7.508  -9.421  1.00  0.00    -0.200 F 
ENDBRANCH  47  71
BRANCH  59  82
ATOM     82  C   UNL     1     -13.699  -0.262 -13.118  1.00  0.00     0.064 A 
ATOM     83  C   UNL     1     -12.902  -0.217 -14.272  1.00  0.00     0.173 A 
ATOM     84  C   UNL     1     -15.087  -0.128 -13.273  1.00  0.00     0.173 A 
ATOM     85  F   UNL     1     -11.569  -0.325 -14.177  1.00  0.00    -0.203 F 
ATOM     86  C   UNL     1     -13.472  -0.017 -15.526  1.00  0.00     0.198 A 
ATOM     87  C   UNL     1     -15.656   0.036 -14.533  1.00  0.00     0.198 A 
ATOM     88  F   UNL     1     -15.895  -0.172 -12.203  1.00  0.00    -0.203 F 
ATOM     89  F   UNL     1     -12.687   0.077 -16.609  1.00  0.00    -0.200 F 
ATOM     90  C   UNL     1     -14.848   0.100 -15.657  1.00  0.00     0.200 A 
ATOM     91  F   UNL     1     -16.987   0.130 -14.658  1.00  0.00    -0.200 F 
ATOM     92  F   UNL     1     -15.394   0.282 -16.867  1.00  0.00    -0.200 F 
ENDBRANCH  59  82
ENDBRANCH  33  34
ENDBRANCH  25  28
ENDBRANCH  23  24
ENDBRANCH  22  23
ENDBRANCH   1  22
TORSDOF 14
