REMARK SMILES CCc1ccc2[nH]c(C(=O)c3cc(C)ccn3)c(CC(=O)NCCCNC(=O)c3ccc(-c4c5nc(c(-c6c(F)c(F)c(F)c(F)c6F)c6ccc([nH]6)c(-c6c(F)c(F)c(F)c(F)c6F)c6nc(c(-c7c(F)c(F)c(F)c(F)c7F)c7ccc4[nH]7)C=C6)C=C5)cc3)c2c1
REMARK SMILES IDX 23 1 22 2 20 3 21 4 19 6 18 7 3 8 4 9 93 10 5 11 92 12 6 13
REMARK SMILES IDX 7 14 8 15 2 17 1 18 9 19 10 20 11 21 12 22 17 23 13 24 16 25
REMARK SMILES IDX 14 26 15 27 24 28 25 29 26 30 27 31 28 33 29 34 30 35 91 36
REMARK SMILES IDX 31 37 90 38 32 39 33 40 34 41 84 42 35 43 89 44 83 45 85 46
REMARK SMILES IDX 36 47 88 48 82 49 81 50 37 52 69 53 49 54 68 55 50 56 53 57
REMARK SMILES IDX 67 58 86 59 51 60 52 61 66 63 87 64 54 65 38 66 39 67 47 68
REMARK SMILES IDX 40 69 41 70 45 71 48 72 42 73 43 74 46 75 44 76 70 77 71 78
REMARK SMILES IDX 79 79 72 80 73 81 77 82 80 83 74 84 75 85 78 86 76 87 55 88
REMARK SMILES IDX 56 89 64 90 57 91 58 92 62 93 65 94 59 95 60 96 63 97 61 98
REMARK H PARENT 22 5 7 16 26 32 85 51 53 62
REMARK Flexibility Score: inf
ROOT
ATOM      1  C   UNL     1      -0.111   0.919   4.976  1.00  0.00     0.117 C 
ENDROOT
BRANCH   1   2
ATOM      2  N   UNL     1       0.778   1.284   6.058  1.00  0.00    -0.356 N 
ATOM      3  C   UNL     1       2.131   1.137   6.166  1.00  0.00     0.224 C 
ATOM      4  O   UNL     1       2.675   1.724   7.106  1.00  0.00    -0.275 OA
ATOM      5  H   UNL     1       0.340   1.702   6.834  1.00  0.00     0.163 HD
BRANCH   3   6
ATOM      6  C   UNL     1       2.940   0.393   5.109  1.00  0.00     0.138 C 
BRANCH   6   7
ATOM      7  C   UNL     1       2.582  -1.062   4.940  1.00  0.00    -0.002 A 
ATOM      8  C   UNL     1       1.037  -1.970   1.532  1.00  0.00    -0.048 A 
ATOM      9  C   UNL     1       0.802  -3.312   1.861  1.00  0.00     0.006 A 
ATOM     10  C   UNL     1       1.658  -1.143   2.482  1.00  0.00     0.014 A 
ATOM     11  C   UNL     1       1.164  -3.845   3.104  1.00  0.00     0.027 A 
ATOM     12  C   UNL     1       2.014  -1.646   3.756  1.00  0.00     0.004 A 
ATOM     13  C   UNL     1       1.764  -2.985   4.028  1.00  0.00     0.046 A 
ATOM     14  N   UNL     1       2.200  -3.224   5.308  1.00  0.00    -0.352 N 
ATOM     15  C   UNL     1       2.772  -2.096   5.860  1.00  0.00     0.093 A 
ATOM     16  H   UNL     1       2.115  -4.088   5.772  1.00  0.00     0.167 HD
BRANCH   8  17
ATOM     17  C   UNL     1       0.584  -1.476   0.175  1.00  0.00     0.032 C 
ATOM     18  C   UNL     1       0.920  -0.033  -0.184  1.00  0.00     0.009 C 
ENDBRANCH   8  17
BRANCH  15  19
ATOM     19  C   UNL     1       3.425  -2.039   7.166  1.00  0.00     0.227 C 
ATOM     20  O   UNL     1       3.969  -1.028   7.604  1.00  0.00    -0.285 OA
BRANCH  19  21
ATOM     21  C   UNL     1       3.501  -3.269   7.997  1.00  0.00     0.113 A 
ATOM     22  C   UNL     1       4.281  -4.342   7.574  1.00  0.00     0.036 A 
ATOM     23  N   UNL     1       2.810  -3.250   9.164  1.00  0.00    -0.253 NA
ATOM     24  C   UNL     1       4.361  -5.468   8.396  1.00  0.00    -0.047 A 
ATOM     25  C   UNL     1       2.938  -4.331   9.958  1.00  0.00     0.112 A 
ATOM     26  C   UNL     1       5.191  -6.655   8.011  1.00  0.00     0.044 C 
ATOM     27  C   UNL     1       3.688  -5.449   9.621  1.00  0.00     0.023 A 
ENDBRANCH  19  21
ENDBRANCH  15  19
ENDBRANCH   6   7
ENDBRANCH   3   6
ENDBRANCH   1   2
BRANCH   1  28
ATOM     28  C   UNL     1      -0.920  -0.342   5.264  1.00  0.00     0.042 C 
BRANCH  28  29
ATOM     29  C   UNL     1      -1.911  -0.213   6.417  1.00  0.00     0.118 C 
BRANCH  29  30
ATOM     30  N   UNL     1      -2.969   0.748   6.149  1.00  0.00    -0.352 N 
ATOM     31  C   UNL     1      -4.332   0.624   6.224  1.00  0.00     0.251 C 
ATOM     32  H   UNL     1      -2.653   1.637   5.866  1.00  0.00     0.163 HD
ATOM     33  O   UNL     1      -5.038   1.536   5.798  1.00  0.00    -0.269 OA
BRANCH  31  34
ATOM     34  C   UNL     1      -4.977  -0.582   6.795  1.00  0.00     0.039 A 
ATOM     35  C   UNL     1      -6.176  -1.024   6.222  1.00  0.00     0.014 A 
ATOM     36  C   UNL     1      -4.476  -1.228   7.929  1.00  0.00     0.014 A 
ATOM     37  C   UNL     1      -6.851  -2.122   6.761  1.00  0.00     0.010 A 
ATOM     38  C   UNL     1      -5.116  -2.363   8.429  1.00  0.00     0.010 A 
ATOM     39  C   UNL     1      -6.319  -2.809   7.862  1.00  0.00    -0.014 A 
BRANCH  39  40
ATOM     40  C   UNL     1      -7.036  -3.962   8.462  1.00  0.00     0.031 A 
ATOM     41  C   UNL     1      -7.629  -3.846   9.839  1.00  0.00     0.074 A 
ATOM     42  C   UNL     1      -7.120  -5.125   7.790  1.00  0.00     0.049 A 
ATOM     43  N   UNL     1      -8.243  -4.753  10.557  1.00  0.00    -0.248 NA
ATOM     44  C   UNL     1      -7.491  -2.543  10.507  1.00  0.00     0.031 C 
ATOM     45  C   UNL     1      -6.561  -5.377   6.462  1.00  0.00     0.029 A 
ATOM     46  N   UNL     1      -7.705  -6.317   8.139  1.00  0.00    -0.354 N 
ATOM     47  C   UNL     1      -8.534  -4.141  11.769  1.00  0.00     0.074 A 
ATOM     48  C   UNL     1      -8.004  -2.796  11.702  1.00  0.00     0.031 C 
ATOM     49  C   UNL     1      -6.852  -6.636   6.096  1.00  0.00     0.029 A 
ATOM     50  C   UNL     1      -7.594  -7.286   7.173  1.00  0.00     0.049 A 
ATOM     51  H   UNL     1      -8.161  -6.462   8.999  1.00  0.00     0.167 HD
ATOM     52  C   UNL     1      -9.196  -4.649  12.836  1.00  0.00     0.037 A 
ATOM     53  C   UNL     1      -8.046  -8.554   7.158  1.00  0.00     0.037 A 
ATOM     54  C   UNL     1      -9.766  -5.969  12.887  1.00  0.00     0.049 A 
ATOM     55  C   UNL     1      -8.813  -9.082   8.338  1.00  0.00     0.074 A 
ATOM     56  C   UNL     1     -10.510  -6.552  13.899  1.00  0.00     0.029 A 
ATOM     57  N   UNL     1      -9.662  -6.910  11.874  1.00  0.00    -0.354 N 
ATOM     58  N   UNL     1      -9.123  -8.479   9.459  1.00  0.00    -0.248 NA
ATOM     59  C   UNL     1      -9.299 -10.466   8.245  1.00  0.00     0.031 C 
ATOM     60  C   UNL     1     -10.835  -7.856  13.507  1.00  0.00     0.029 A 
ATOM     61  C   UNL     1     -10.321  -8.073  12.239  1.00  0.00     0.049 A 
ATOM     62  H   UNL     1      -9.190  -6.772  11.022  1.00  0.00     0.167 HD
ATOM     63  C   UNL     1      -9.867  -9.395  10.191  1.00  0.00     0.074 A 
ATOM     64  C   UNL     1      -9.963 -10.595   9.386  1.00  0.00     0.031 C 
ATOM     65  C   UNL     1     -10.422  -9.251  11.418  1.00  0.00     0.037 A 
BRANCH  52  66
ATOM     66  C   UNL     1      -9.332  -3.767  14.041  1.00  0.00     0.064 A 
ATOM     67  C   UNL     1     -10.199  -2.664  14.052  1.00  0.00     0.173 A 
ATOM     68  C   UNL     1      -8.592  -4.033  15.203  1.00  0.00     0.173 A 
ATOM     69  F   UNL     1     -10.917  -2.360  12.960  1.00  0.00    -0.203 F 
ATOM     70  C   UNL     1     -10.295  -1.840  15.170  1.00  0.00     0.198 A 
ATOM     71  C   UNL     1      -8.710  -3.222  16.328  1.00  0.00     0.198 A 
ATOM     72  F   UNL     1      -7.753  -5.079  15.245  1.00  0.00    -0.203 F 
ATOM     73  F   UNL     1     -11.091  -0.762  15.139  1.00  0.00    -0.200 F 
ATOM     74  C   UNL     1      -9.554  -2.121  16.308  1.00  0.00     0.200 A 
ATOM     75  F   UNL     1      -7.999  -3.500  17.430  1.00  0.00    -0.200 F 
ATOM     76  F   UNL     1      -9.645  -1.326  17.383  1.00  0.00    -0.200 F 
ENDBRANCH  52  66
BRANCH  53  77
ATOM     77  C   UNL     1      -7.831  -9.395   5.955  1.00  0.00     0.064 A 
ATOM     78  C   UNL     1      -8.890  -9.669   5.080  1.00  0.00     0.173 A 
ATOM     79  C   UNL     1      -6.570  -9.924   5.646  1.00  0.00     0.173 A 
ATOM     80  F   UNL     1     -10.118  -9.199   5.348  1.00  0.00    -0.203 F 
ATOM     81  C   UNL     1      -8.699 -10.451   3.943  1.00  0.00     0.198 A 
ATOM     82  C   UNL     1      -6.376 -10.689   4.499  1.00  0.00     0.198 A 
ATOM     83  F   UNL     1      -5.526  -9.685   6.453  1.00  0.00    -0.203 F 
ATOM     84  F   UNL     1      -9.735 -10.722   3.138  1.00  0.00    -0.200 F 
ATOM     85  C   UNL     1      -7.441 -10.955   3.651  1.00  0.00     0.200 A 
ATOM     86  F   UNL     1      -5.157 -11.168   4.213  1.00  0.00    -0.200 F 
ATOM     87  F   UNL     1      -7.256 -11.702   2.554  1.00  0.00    -0.200 F 
ENDBRANCH  53  77
BRANCH  65  88
ATOM     88  C   UNL     1     -11.222 -10.403  11.947  1.00  0.00     0.064 A 
ATOM     89  C   UNL     1     -10.605 -11.558  12.446  1.00  0.00     0.173 A 
ATOM     90  C   UNL     1     -12.623 -10.333  11.983  1.00  0.00     0.173 A 
ATOM     91  F   UNL     1      -9.269 -11.675  12.416  1.00  0.00    -0.203 F 
ATOM     92  C   UNL     1     -11.364 -12.612  12.947  1.00  0.00     0.198 A 
ATOM     93  C   UNL     1     -13.377 -11.380  12.504  1.00  0.00     0.198 A 
ATOM     94  F   UNL     1     -13.258  -9.246  11.519  1.00  0.00    -0.203 F 
ATOM     95  F   UNL     1     -10.756 -13.723  13.386  1.00  0.00    -0.200 F 
ATOM     96  C   UNL     1     -12.748 -12.520  12.981  1.00  0.00     0.200 A 
ATOM     97  F   UNL     1     -14.714 -11.288  12.542  1.00  0.00    -0.200 F 
ATOM     98  F   UNL     1     -13.476 -13.536  13.465  1.00  0.00    -0.200 F 
ENDBRANCH  65  88
ENDBRANCH  39  40
ENDBRANCH  31  34
ENDBRANCH  29  30
ENDBRANCH  28  29
ENDBRANCH   1  28
TORSDOF 14
