REMARK SMILES O=C(NCCCNC(=O)[C@@H]1c2ccccc2C(=O)N(C2CCCC2)C12CCCCC2)c1ccc(-c2c3nc(c(-c4c(F)c(F)c(F)c(F)c4F)c4ccc([nH]4)c(-c4c(F)c(F)c(F)c(F)c4F)c4nc(c(-c5c(F)c(F)c(F)c(F)c5F)c5ccc2[nH]5)C=C4)C=C3)cc1
REMARK SMILES IDX 4 1 3 2 1 3 2 4 31 6 32 7 93 8 33 9 92 10 34 11 35 12 36 13
REMARK SMILES IDX 86 14 37 15 91 16 85 17 87 18 38 19 90 20 84 21 83 22 39 24
REMARK SMILES IDX 71 25 51 26 70 27 52 28 55 29 69 30 88 31 53 32 54 33 68 35
REMARK SMILES IDX 89 36 56 37 40 38 41 39 49 40 42 41 43 42 47 43 50 44 44 45
REMARK SMILES IDX 45 46 48 47 46 48 72 49 73 50 81 51 74 52 75 53 79 54 82 55
REMARK SMILES IDX 76 56 77 57 80 58 78 59 57 60 58 61 66 62 59 63 60 64 64 65
REMARK SMILES IDX 67 66 61 67 62 68 65 69 63 70 5 71 6 72 7 73 8 74 9 76 10 77
REMARK SMILES IDX 11 78 25 79 12 80 16 81 19 82 26 83 30 84 13 85 15 86 17 87
REMARK SMILES IDX 27 88 29 89 14 90 18 91 28 92 20 93 21 94 24 95 22 96 23 97
REMARK H PARENT 3 5 87 23 55 34 7 75
REMARK Flexibility Score: inf
ROOT
ATOM      1  C   UNL     1      10.233   4.562  -2.964  1.00  0.00     0.118 C 
ENDROOT
BRANCH   1   2
ATOM      2  N   UNL     1      10.639   5.437  -4.054  1.00  0.00    -0.352 N 
ATOM      3  O   UNL     1      11.788   6.991  -5.211  1.00  0.00    -0.269 OA
ATOM      4  C   UNL     1      11.618   6.400  -4.153  1.00  0.00     0.251 C 
ATOM      5  H   UNL     1      10.114   5.317  -4.878  1.00  0.00     0.163 HD
BRANCH   4   6
ATOM      6  C   UNL     1      12.395   6.790  -2.960  1.00  0.00     0.039 A 
ATOM      7  C   UNL     1      12.590   8.149  -2.702  1.00  0.00     0.014 A 
ATOM      8  C   UNL     1      12.851   5.839  -2.055  1.00  0.00     0.014 A 
ATOM      9  C   UNL     1      13.125   8.546  -1.476  1.00  0.00     0.010 A 
ATOM     10  C   UNL     1      13.210   6.235  -0.777  1.00  0.00     0.010 A 
ATOM     11  C   UNL     1      13.369   7.594  -0.474  1.00  0.00    -0.014 A 
BRANCH  11  12
ATOM     12  C   UNL     1      13.836   7.980   0.881  1.00  0.00     0.031 A 
ATOM     13  C   UNL     1      15.101   7.370   1.427  1.00  0.00     0.074 A 
ATOM     14  C   UNL     1      13.091   8.804   1.645  1.00  0.00     0.049 A 
ATOM     15  N   UNL     1      15.607   7.450   2.631  1.00  0.00    -0.248 NA
ATOM     16  C   UNL     1      15.871   6.502   0.518  1.00  0.00     0.031 C 
ATOM     17  C   UNL     1      11.807   9.396   1.258  1.00  0.00     0.029 A 
ATOM     18  N   UNL     1      13.308   9.294   2.909  1.00  0.00    -0.354 N 
ATOM     19  C   UNL     1      16.710   6.606   2.629  1.00  0.00     0.074 A 
ATOM     20  C   UNL     1      16.759   5.964   1.337  1.00  0.00     0.031 C 
ATOM     21  C   UNL     1      11.386  10.217   2.234  1.00  0.00     0.029 A 
ATOM     22  C   UNL     1      12.343  10.177   3.333  1.00  0.00     0.049 A 
ATOM     23  H   UNL     1      14.082   9.037   3.460  1.00  0.00     0.167 HD
ATOM     24  C   UNL     1      17.634   6.425   3.599  1.00  0.00     0.037 A 
ATOM     25  C   UNL     1      12.255  10.882   4.477  1.00  0.00     0.037 A 
ATOM     26  C   UNL     1      17.641   7.157   4.833  1.00  0.00     0.049 A 
ATOM     27  C   UNL     1      13.340  10.727   5.508  1.00  0.00     0.074 A 
ATOM     28  C   UNL     1      18.577   7.122   5.849  1.00  0.00     0.029 A 
ATOM     29  N   UNL     1      16.680   8.088   5.197  1.00  0.00    -0.354 N 
ATOM     30  N   UNL     1      14.404   9.961   5.475  1.00  0.00    -0.248 NA
ATOM     31  C   UNL     1      13.218  11.530   6.733  1.00  0.00     0.031 C 
ATOM     32  C   UNL     1      18.175   8.023   6.837  1.00  0.00     0.029 A 
ATOM     33  C   UNL     1      17.004   8.639   6.422  1.00  0.00     0.049 A 
ATOM     34  H   UNL     1      15.886   8.321   4.663  1.00  0.00     0.167 HD
ATOM     35  C   UNL     1      15.089  10.207   6.655  1.00  0.00     0.074 A 
ATOM     36  C   UNL     1      14.328  11.202   7.382  1.00  0.00     0.031 C 
ATOM     37  C   UNL     1      16.242   9.654   7.101  1.00  0.00     0.037 A 
BRANCH  24  38
ATOM     38  C   UNL     1      18.742   5.447   3.343  1.00  0.00     0.064 A 
ATOM     39  C   UNL     1      19.749   5.713   2.403  1.00  0.00     0.173 A 
ATOM     40  C   UNL     1      18.830   4.257   4.081  1.00  0.00     0.173 A 
ATOM     41  F   UNL     1      19.702   6.831   1.662  1.00  0.00    -0.203 F 
ATOM     42  C   UNL     1      20.790   4.814   2.194  1.00  0.00     0.198 A 
ATOM     43  C   UNL     1      19.891   3.375   3.891  1.00  0.00     0.198 A 
ATOM     44  F   UNL     1      17.895   3.956   4.995  1.00  0.00    -0.203 F 
ATOM     45  F   UNL     1      21.714   5.070   1.258  1.00  0.00    -0.200 F 
ATOM     46  C   UNL     1      20.866   3.651   2.944  1.00  0.00     0.200 A 
ATOM     47  F   UNL     1      19.970   2.257   4.625  1.00  0.00    -0.200 F 
ATOM     48  F   UNL     1      21.878   2.794   2.752  1.00  0.00    -0.200 F 
ENDBRANCH  24  38
BRANCH  25  49
ATOM     49  C   UNL     1      11.141  11.847   4.672  1.00  0.00     0.064 A 
ATOM     50  C   UNL     1      11.381  13.229   4.637  1.00  0.00     0.173 A 
ATOM     51  C   UNL     1       9.820  11.422   4.872  1.00  0.00     0.173 A 
ATOM     52  F   UNL     1      12.630  13.685   4.463  1.00  0.00    -0.203 F 
ATOM     53  C   UNL     1      10.347  14.147   4.809  1.00  0.00     0.198 A 
ATOM     54  C   UNL     1       8.782  12.341   5.020  1.00  0.00     0.198 A 
ATOM     55  F   UNL     1       9.533  10.112   4.904  1.00  0.00    -0.203 F 
ATOM     56  F   UNL     1      10.613  15.460   4.804  1.00  0.00    -0.200 F 
ATOM     57  C   UNL     1       9.047  13.703   4.994  1.00  0.00     0.200 A 
ATOM     58  F   UNL     1       7.524  11.909   5.183  1.00  0.00    -0.200 F 
ATOM     59  F   UNL     1       8.051  14.585   5.150  1.00  0.00    -0.200 F 
ENDBRANCH  25  49
BRANCH  37  60
ATOM     60  C   UNL     1      16.779  10.122   8.417  1.00  0.00     0.064 A 
ATOM     61  C   UNL     1      16.236   9.664   9.624  1.00  0.00     0.173 A 
ATOM     62  C   UNL     1      17.931  10.922   8.465  1.00  0.00     0.173 A 
ATOM     63  F   UNL     1      15.132   8.903   9.621  1.00  0.00    -0.203 F 
ATOM     64  C   UNL     1      16.834   9.985  10.838  1.00  0.00     0.198 A 
ATOM     65  C   UNL     1      18.538  11.223   9.679  1.00  0.00     0.198 A 
ATOM     66  F   UNL     1      18.489  11.371   7.331  1.00  0.00    -0.203 F 
ATOM     67  F   UNL     1      16.298   9.542  11.984  1.00  0.00    -0.200 F 
ATOM     68  C   UNL     1      17.991  10.752  10.864  1.00  0.00     0.200 A 
ATOM     69  F   UNL     1      19.664  11.948   9.702  1.00  0.00    -0.200 F 
ATOM     70  F   UNL     1      18.582  11.033  12.033  1.00  0.00    -0.200 F 
ENDBRANCH  37  60
ENDBRANCH  11  12
ENDBRANCH   4   6
ENDBRANCH   1   2
BRANCH   1  71
ATOM     71  C   UNL     1       8.843   4.831  -2.401  1.00  0.00     0.042 C 
BRANCH  71  72
ATOM     72  C   UNL     1       7.701   4.282  -3.240  1.00  0.00     0.117 C 
BRANCH  72  73
ATOM     73  N   UNL     1       7.932   2.927  -3.695  1.00  0.00    -0.355 N 
ATOM     74  C   UNL     1       7.451   2.308  -4.815  1.00  0.00     0.229 C 
ATOM     75  H   UNL     1       8.514   2.379  -3.121  1.00  0.00     0.163 HD
ATOM     76  O   UNL     1       7.956   1.222  -5.099  1.00  0.00    -0.274 OA
BRANCH  74  77
ATOM     77  C   UNL     1       6.283   2.939  -5.578  1.00  0.00     0.135 C 
ATOM     78  C   UNL     1       5.125   1.962  -5.835  1.00  0.00    -0.020 A 
ATOM     79  C   UNL     1       6.599   3.731  -6.907  1.00  0.00     0.059 C 
ATOM     80  C   UNL     1       5.010   0.708  -5.210  1.00  0.00     0.005 A 
ATOM     81  C   UNL     1       4.107   2.352  -6.728  1.00  0.00     0.044 A 
ATOM     82  N   UNL     1       5.286   4.485  -7.195  1.00  0.00    -0.329 N 
ATOM     83  C   UNL     1       6.873   2.802  -8.154  1.00  0.00     0.030 C 
ATOM     84  C   UNL     1       7.840   4.669  -6.861  1.00  0.00     0.030 C 
ATOM     85  C   UNL     1       3.949  -0.151  -5.513  1.00  0.00     0.000 A 
ATOM     86  C   UNL     1       3.041   1.490  -7.021  1.00  0.00     0.014 A 
ATOM     87  C   UNL     1       4.107   3.716  -7.329  1.00  0.00     0.254 C 
ATOM     88  C   UNL     1       8.222   2.087  -8.181  1.00  0.00     0.002 C 
ATOM     89  C   UNL     1       9.212   3.989  -6.866  1.00  0.00     0.002 C 
ATOM     90  C   UNL     1       2.971   0.235  -6.423  1.00  0.00     0.001 A 
ATOM     91  O   UNL     1       3.064   4.145  -7.816  1.00  0.00    -0.269 OA
ATOM     92  C   UNL     1       9.389   3.044  -8.038  1.00  0.00     0.000 C 
BRANCH  82  93
ATOM     93  C   UNL     1       5.029   5.925  -6.976  1.00  0.00     0.086 C 
ATOM     94  C   UNL     1       5.186   6.415  -5.534  1.00  0.00     0.025 C 
ATOM     95  C   UNL     1       5.708   6.973  -7.862  1.00  0.00     0.025 C 
ATOM     96  C   UNL     1       5.131   7.926  -5.682  1.00  0.00     0.002 C 
ATOM     97  C   UNL     1       5.918   8.196  -6.959  1.00  0.00     0.002 C 
ENDBRANCH  82  93
ENDBRANCH  74  77
ENDBRANCH  72  73
ENDBRANCH  71  72
ENDBRANCH   1  71
TORSDOF 11
