REMARK SMILES CCC(=O)N1CCC[C@](C[C@H]2CC(c3ccc(C)cc3)=NO2)(C(=O)NCCCNC(=O)c2ccc(-c3c4nc(c(-c5c(F)c(F)c(F)c(F)c5F)c5ccc([nH]5)c(-c5c(F)c(F)c(F)c(F)c5F)c5nc(c(-c6c(F)c(F)c(F)c(F)c6F)c6ccc3[nH]6)C=C5)C=C4)cc2)C1
REMARK SMILES IDX 26 1 25 2 23 3 24 4 9 6 5 7 6 8 95 9 7 10 8 11 3 12 4 13
REMARK SMILES IDX 2 14 1 15 10 16 11 17 12 18 22 19 13 20 21 21 14 22 15 23
REMARK SMILES IDX 20 24 16 25 19 26 17 27 18 28 27 29 28 30 29 31 30 32 31 34
REMARK SMILES IDX 32 35 33 36 94 37 34 38 93 39 35 40 36 41 37 42 87 43 38 44
REMARK SMILES IDX 92 45 86 46 88 47 39 48 91 49 85 50 84 51 40 53 72 54 52 55
REMARK SMILES IDX 71 56 53 57 56 58 70 59 89 60 54 61 55 62 69 64 90 65 57 66
REMARK SMILES IDX 41 67 42 68 50 69 43 70 44 71 48 72 51 73 45 74 46 75 49 76
REMARK SMILES IDX 47 77 73 78 74 79 82 80 75 81 76 82 80 83 83 84 77 85 78 86
REMARK SMILES IDX 81 87 79 88 58 89 59 90 67 91 60 92 61 93 65 94 68 95 62 96
REMARK SMILES IDX 63 97 66 98 64 99
REMARK H PARENT 25 5 29 33 88 52 56 63
REMARK Flexibility Score: inf
ROOT
ATOM      1  C   UNL     1       4.753   2.105   5.235  1.00  0.00     0.117 C 
ENDROOT
BRANCH   1   2
ATOM      2  N   UNL     1       3.568   2.199   4.399  1.00  0.00    -0.355 N 
ATOM      3  C   UNL     1       3.172   1.508   3.290  1.00  0.00     0.228 C 
ATOM      4  O   UNL     1       2.149   1.927   2.742  1.00  0.00    -0.274 OA
ATOM      5  H   UNL     1       2.930   2.891   4.688  1.00  0.00     0.163 HD
BRANCH   3   6
ATOM      6  C   UNL     1       4.025   0.365   2.666  1.00  0.00     0.070 C 
ATOM      7  N   UNL     1       2.011  -1.135   2.359  1.00  0.00    -0.342 N 
ATOM      8  C   UNL     1       2.377  -1.979   3.494  1.00  0.00     0.119 C 
ATOM      9  C   UNL     1       3.105  -0.420   1.669  1.00  0.00     0.136 C 
ATOM     10  C   UNL     1       3.308  -1.277   4.464  1.00  0.00     0.023 C 
ATOM     11  C   UNL     1       4.484  -0.691   3.692  1.00  0.00     0.021 C 
BRANCH   7  12
ATOM     12  C   UNL     1       0.678  -1.137   1.980  1.00  0.00     0.222 C 
ATOM     13  O   UNL     1      -0.222  -1.369   2.793  1.00  0.00    -0.275 OA
BRANCH  12  14
ATOM     14  C   UNL     1       0.336  -1.084   0.499  1.00  0.00     0.097 C 
ATOM     15  C   UNL     1       0.508   0.234  -0.223  1.00  0.00     0.014 C 
ENDBRANCH  12  14
ENDBRANCH   7  12
BRANCH   6  16
ATOM     16  C   UNL     1       5.159   1.138   1.915  1.00  0.00     0.067 C 
BRANCH  16  17
ATOM     17  C   UNL     1       6.371   0.447   1.285  1.00  0.00     0.211 C 
ATOM     18  C   UNL     1       7.363  -0.166   2.247  1.00  0.00     0.108 C 
ATOM     19  O   UNL     1       5.984  -0.573   0.366  1.00  0.00    -0.392 OA
ATOM     20  C   UNL     1       7.185  -1.590   1.878  1.00  0.00     0.091 C 
ATOM     21  N   UNL     1       6.469  -1.815   0.827  1.00  0.00    -0.090 NA
BRANCH  20  22
ATOM     22  C   UNL     1       7.804  -2.661   2.666  1.00  0.00    -0.001 A 
ATOM     23  C   UNL     1       7.570  -2.747   4.040  1.00  0.00     0.010 A 
ATOM     24  C   UNL     1       8.575  -3.621   2.014  1.00  0.00     0.010 A 
ATOM     25  C   UNL     1       8.096  -3.817   4.764  1.00  0.00     0.004 A 
ATOM     26  C   UNL     1       9.122  -4.674   2.747  1.00  0.00     0.004 A 
ATOM     27  C   UNL     1       8.871  -4.790   4.122  1.00  0.00    -0.051 A 
ATOM     28  C   UNL     1       9.447  -5.939   4.895  1.00  0.00     0.044 C 
ENDBRANCH  20  22
ENDBRANCH  16  17
ENDBRANCH   6  16
ENDBRANCH   3   6
ENDBRANCH   1   2
BRANCH   1  29
ATOM     29  C   UNL     1       5.529   3.406   5.291  1.00  0.00     0.042 C 
BRANCH  29  30
ATOM     30  C   UNL     1       4.995   4.375   6.326  1.00  0.00     0.118 C 
BRANCH  30  31
ATOM     31  N   UNL     1       5.609   4.220   7.644  1.00  0.00    -0.352 N 
ATOM     32  C   UNL     1       5.482   5.022   8.769  1.00  0.00     0.251 C 
ATOM     33  H   UNL     1       6.196   3.436   7.748  1.00  0.00     0.163 HD
ATOM     34  O   UNL     1       6.028   4.717   9.816  1.00  0.00    -0.269 OA
BRANCH  32  35
ATOM     35  C   UNL     1       4.556   6.177   8.710  1.00  0.00     0.039 A 
ATOM     36  C   UNL     1       3.542   6.256   9.669  1.00  0.00     0.014 A 
ATOM     37  C   UNL     1       4.522   6.984   7.580  1.00  0.00     0.014 A 
ATOM     38  C   UNL     1       2.369   6.935   9.352  1.00  0.00     0.010 A 
ATOM     39  C   UNL     1       3.312   7.527   7.203  1.00  0.00     0.010 A 
ATOM     40  C   UNL     1       2.213   7.449   8.064  1.00  0.00    -0.014 A 
BRANCH  40  41
ATOM     41  C   UNL     1       0.919   7.823   7.503  1.00  0.00     0.031 A 
ATOM     42  C   UNL     1       0.609   9.238   7.208  1.00  0.00     0.074 A 
ATOM     43  C   UNL     1       0.012   6.869   7.187  1.00  0.00     0.049 A 
ATOM     44  N   UNL     1      -0.591   9.707   7.141  1.00  0.00    -0.248 NA
ATOM     45  C   UNL     1       1.633  10.253   6.987  1.00  0.00     0.031 C 
ATOM     46  C   UNL     1      -1.219   7.043   6.418  1.00  0.00     0.029 A 
ATOM     47  N   UNL     1      -0.077   5.557   7.686  1.00  0.00    -0.354 N 
ATOM     48  C   UNL     1      -0.521  10.984   6.644  1.00  0.00     0.074 A 
ATOM     49  C   UNL     1       0.890  11.293   6.595  1.00  0.00     0.031 C 
ATOM     50  C   UNL     1      -2.075   6.065   6.747  1.00  0.00     0.029 A 
ATOM     51  C   UNL     1      -1.466   5.301   7.819  1.00  0.00     0.049 A 
ATOM     52  H   UNL     1       0.666   4.946   7.897  1.00  0.00     0.167 HD
ATOM     53  C   UNL     1      -1.661  11.610   6.236  1.00  0.00     0.037 A 
ATOM     54  C   UNL     1      -2.025   5.060   9.040  1.00  0.00     0.037 A 
ATOM     55  C   UNL     1      -2.845  10.786   6.453  1.00  0.00     0.049 A 
ATOM     56  C   UNL     1      -3.072   6.067   9.469  1.00  0.00     0.074 A 
ATOM     57  C   UNL     1      -3.634   9.979   5.649  1.00  0.00     0.029 A 
ATOM     58  N   UNL     1      -3.205  10.490   7.753  1.00  0.00    -0.354 N 
ATOM     59  N   UNL     1      -3.421   7.113   8.773  1.00  0.00    -0.248 NA
ATOM     60  C   UNL     1      -3.727   6.030  10.778  1.00  0.00     0.031 C 
ATOM     61  C   UNL     1      -4.493   9.215   6.491  1.00  0.00     0.029 A 
ATOM     62  C   UNL     1      -4.220   9.558   7.801  1.00  0.00     0.049 A 
ATOM     63  H   UNL     1      -2.788  10.895   8.547  1.00  0.00     0.167 HD
ATOM     64  C   UNL     1      -4.251   7.903   9.527  1.00  0.00     0.074 A 
ATOM     65  C   UNL     1      -4.420   7.180  10.771  1.00  0.00     0.031 C 
ATOM     66  C   UNL     1      -4.696   9.119   9.099  1.00  0.00     0.037 A 
BRANCH  53  67
ATOM     67  C   UNL     1      -1.670  12.901   5.461  1.00  0.00     0.064 A 
ATOM     68  C   UNL     1      -2.659  13.156   4.489  1.00  0.00     0.173 A 
ATOM     69  C   UNL     1      -0.709  13.917   5.615  1.00  0.00     0.173 A 
ATOM     70  F   UNL     1      -3.690  12.323   4.303  1.00  0.00    -0.203 F 
ATOM     71  C   UNL     1      -2.618  14.279   3.660  1.00  0.00     0.198 A 
ATOM     72  C   UNL     1      -0.632  15.008   4.745  1.00  0.00     0.198 A 
ATOM     73  F   UNL     1       0.155  13.904   6.640  1.00  0.00    -0.203 F 
ATOM     74  F   UNL     1      -3.585  14.468   2.751  1.00  0.00    -0.200 F 
ATOM     75  C   UNL     1      -1.581  15.183   3.759  1.00  0.00     0.200 A 
ATOM     76  F   UNL     1       0.372  15.888   4.870  1.00  0.00    -0.200 F 
ATOM     77  F   UNL     1      -1.511  16.229   2.926  1.00  0.00    -0.200 F 
ENDBRANCH  53  67
BRANCH  54  78
ATOM     78  C   UNL     1      -1.107   4.334   9.955  1.00  0.00     0.064 A 
ATOM     79  C   UNL     1      -0.689   3.038   9.591  1.00  0.00     0.173 A 
ATOM     80  C   UNL     1      -0.368   5.002  10.935  1.00  0.00     0.173 A 
ATOM     81  F   UNL     1      -1.365   2.354   8.655  1.00  0.00    -0.203 F 
ATOM     82  C   UNL     1       0.489   2.491  10.093  1.00  0.00     0.198 A 
ATOM     83  C   UNL     1       0.802   4.443  11.450  1.00  0.00     0.198 A 
ATOM     84  F   UNL     1      -0.702   6.247  11.306  1.00  0.00    -0.203 F 
ATOM     85  F   UNL     1       0.927   1.309   9.638  1.00  0.00    -0.200 F 
ATOM     86  C   UNL     1       1.249   3.208  11.002  1.00  0.00     0.200 A 
ATOM     87  F   UNL     1       1.552   5.147  12.310  1.00  0.00    -0.200 F 
ATOM     88  F   UNL     1       2.431   2.729  11.413  1.00  0.00    -0.200 F 
ENDBRANCH  54  78
BRANCH  66  89
ATOM     89  C   UNL     1      -5.608  10.011   9.893  1.00  0.00     0.064 A 
ATOM     90  C   UNL     1      -6.752   9.527  10.544  1.00  0.00     0.173 A 
ATOM     91  C   UNL     1      -5.426  11.412   9.916  1.00  0.00     0.173 A 
ATOM     92  F   UNL     1      -7.049   8.220  10.528  1.00  0.00    -0.203 F 
ATOM     93  C   UNL     1      -7.633  10.384  11.210  1.00  0.00     0.198 A 
ATOM     94  C   UNL     1      -6.334  12.268  10.534  1.00  0.00     0.198 A 
ATOM     95  F   UNL     1      -4.350  11.989   9.363  1.00  0.00    -0.203 F 
ATOM     96  F   UNL     1      -8.687   9.876  11.863  1.00  0.00    -0.200 F 
ATOM     97  C   UNL     1      -7.431  11.753  11.193  1.00  0.00     0.200 A 
ATOM     98  F   UNL     1      -6.133  13.593  10.491  1.00  0.00    -0.200 F 
ATOM     99  F   UNL     1      -8.289  12.574  11.813  1.00  0.00    -0.200 F 
ENDBRANCH  66  89
ENDBRANCH  40  41
ENDBRANCH  32  35
ENDBRANCH  30  31
ENDBRANCH  29  30
ENDBRANCH   1  29
TORSDOF 15
