REMARK SMILES CN(C)C(=O)c1cccc(N2CCC3(CC2)[C@H](C(=O)NCCCNC(=O)c2ccc(-c4c5nc(c(-c6c(F)c(F)c(F)c(F)c6F)c6ccc([nH]6)c(-c6c(F)c(F)c(F)c(F)c6F)c6nc(c(-c7c(F)c(F)c(F)c(F)c7F)c7ccc4[nH]7)C=C6)C=C5)cc2)CC(=O)N3C)n1
REMARK SMILES IDX 22 1 21 2 20 3 18 4 19 5 17 7 11 8 12 9 16 10 13 11 15 12
REMARK SMILES IDX 14 13 93 14 90 15 91 16 94 17 92 18 10 19 6 20 7 21 95 22
REMARK SMILES IDX 8 23 9 24 4 25 1 26 2 27 3 28 5 29 23 30 24 31 25 32 26 34
REMARK SMILES IDX 27 35 28 36 89 37 29 38 88 39 30 40 31 41 32 42 82 43 33 44
REMARK SMILES IDX 87 45 81 46 83 47 34 48 86 49 80 50 79 51 35 53 67 54 47 55
REMARK SMILES IDX 66 56 48 57 51 58 65 59 84 60 49 61 50 62 64 64 85 65 52 66
REMARK SMILES IDX 36 67 37 68 45 69 38 70 39 71 43 72 46 73 40 74 41 75 44 76
REMARK SMILES IDX 42 77 68 78 69 79 77 80 70 81 71 82 75 83 78 84 72 85 73 86
REMARK SMILES IDX 76 87 74 88 53 89 54 90 62 91 55 92 56 93 60 94 63 95 57 96
REMARK SMILES IDX 58 97 61 98 59 99
REMARK H PARENT 20 6 24 33 83 52 51 63
REMARK Flexibility Score: inf
ROOT
ATOM      1  C   UNL     1       6.145   8.232   4.039  1.00  0.00     0.042 C 
ENDROOT
BRANCH   1   2
ATOM      2  C   UNL     1       5.705   9.328   5.013  1.00  0.00     0.117 C 
BRANCH   2   3
ATOM      3  N   UNL     1       4.423   9.947   4.697  1.00  0.00    -0.356 N 
ATOM      4  C   UNL     1       3.188   9.927   5.254  1.00  0.00     0.226 C 
ATOM      5  O   UNL     1       2.338  10.636   4.701  1.00  0.00    -0.275 OA
ATOM      6  H   UNL     1       4.465  10.511   3.891  1.00  0.00     0.163 HD
BRANCH   4   7
ATOM      7  C   UNL     1       2.771   9.089   6.462  1.00  0.00     0.113 C 
ATOM      8  N   UNL     1       1.265   5.353   5.102  1.00  0.00    -0.356 N 
ATOM      9  C   UNL     1       2.538   5.692   4.512  1.00  0.00     0.120 C 
ATOM     10  C   UNL     1       1.097   5.525   6.536  1.00  0.00     0.120 C 
ATOM     11  C   UNL     1       2.749   7.165   4.802  1.00  0.00     0.051 C 
ATOM     12  C   UNL     1       1.438   6.970   6.936  1.00  0.00     0.051 C 
ATOM     13  C   UNL     1       2.745   7.538   6.297  1.00  0.00     0.058 C 
ATOM     14  N   UNL     1       3.922   7.149   7.100  1.00  0.00    -0.339 N 
ATOM     15  C   UNL     1       3.589   9.400   7.707  1.00  0.00     0.116 C 
ATOM     16  C   UNL     1       4.388   8.158   7.932  1.00  0.00     0.223 C 
ATOM     17  C   UNL     1       4.531   5.835   7.159  1.00  0.00     0.147 C 
ATOM     18  O   UNL     1       5.321   8.073   8.724  1.00  0.00    -0.275 OA
BRANCH   8  19
ATOM     19  C   UNL     1       0.425   4.561   4.349  1.00  0.00     0.129 A 
ATOM     20  C   UNL     1       0.117   2.861   2.794  1.00  0.00     0.130 A 
ATOM     21  C   UNL     1      -1.242   3.127   2.682  1.00  0.00     0.034 A 
ATOM     22  N   UNL     1       0.951   3.574   3.597  1.00  0.00    -0.226 NA
ATOM     23  C   UNL     1      -1.766   4.175   3.424  1.00  0.00     0.006 A 
ATOM     24  C   UNL     1      -0.928   4.882   4.280  1.00  0.00     0.047 A 
BRANCH  20  25
ATOM     25  C   UNL     1       0.720   1.672   2.109  1.00  0.00     0.272 C 
ATOM     26  C   UNL     1       0.894   0.148   0.212  1.00  0.00     0.146 C 
ATOM     27  N   UNL     1       0.430   1.411   0.761  1.00  0.00    -0.343 N 
ATOM     28  C   UNL     1      -0.158   2.361  -0.171  1.00  0.00     0.146 C 
ATOM     29  O   UNL     1       1.435   0.917   2.771  1.00  0.00    -0.267 OA
ENDBRANCH  20  25
ENDBRANCH   8  19
ENDBRANCH   4   7
ENDBRANCH   2   3
ENDBRANCH   1   2
BRANCH   1  30
ATOM     30  C   UNL     1       6.126   8.652   2.573  1.00  0.00     0.118 C 
BRANCH  30  31
ATOM     31  N   UNL     1       7.320   9.410   2.238  1.00  0.00    -0.352 N 
ATOM     32  C   UNL     1       8.398   9.017   1.482  1.00  0.00     0.251 C 
ATOM     33  H   UNL     1       7.362  10.325   2.600  1.00  0.00     0.163 HD
ATOM     34  O   UNL     1       9.461   9.623   1.566  1.00  0.00    -0.269 OA
BRANCH  32  35
ATOM     35  C   UNL     1       8.277   7.865   0.561  1.00  0.00     0.039 A 
ATOM     36  C   UNL     1       9.326   6.946   0.471  1.00  0.00     0.014 A 
ATOM     37  C   UNL     1       7.148   7.720  -0.251  1.00  0.00     0.014 A 
ATOM     38  C   UNL     1       9.228   5.861  -0.406  1.00  0.00     0.010 A 
ATOM     39  C   UNL     1       7.021   6.602  -1.070  1.00  0.00     0.010 A 
ATOM     40  C   UNL     1       8.066   5.669  -1.169  1.00  0.00    -0.014 A 
BRANCH  40  41
ATOM     41  C   UNL     1       7.925   4.527  -2.110  1.00  0.00     0.031 A 
ATOM     42  C   UNL     1       7.775   4.792  -3.584  1.00  0.00     0.074 A 
ATOM     43  C   UNL     1       7.847   3.268  -1.640  1.00  0.00     0.049 A 
ATOM     44  N   UNL     1       7.489   3.960  -4.554  1.00  0.00    -0.248 NA
ATOM     45  C   UNL     1       7.936   6.188  -4.021  1.00  0.00     0.031 C 
ATOM     46  C   UNL     1       7.946   2.884  -0.232  1.00  0.00     0.029 A 
ATOM     47  N   UNL     1       7.641   2.079  -2.296  1.00  0.00    -0.354 N 
ATOM     48  C   UNL     1       7.411   4.734  -5.704  1.00  0.00     0.074 A 
ATOM     49  C   UNL     1       7.631   6.108  -5.307  1.00  0.00     0.031 C 
ATOM     50  C   UNL     1       7.806   1.552  -0.129  1.00  0.00     0.029 A 
ATOM     51  C   UNL     1       7.564   0.994  -1.457  1.00  0.00     0.049 A 
ATOM     52  H   UNL     1       7.556   2.011  -3.274  1.00  0.00     0.167 HD
ATOM     53  C   UNL     1       7.197   4.333  -6.980  1.00  0.00     0.037 A 
ATOM     54  C   UNL     1       7.306  -0.300  -1.726  1.00  0.00     0.037 A 
ATOM     55  C   UNL     1       7.012   2.961  -7.374  1.00  0.00     0.049 A 
ATOM     56  C   UNL     1       7.065  -0.722  -3.151  1.00  0.00     0.074 A 
ATOM     57  C   UNL     1       6.837   2.445  -8.646  1.00  0.00     0.029 A 
ATOM     58  N   UNL     1       6.982   1.887  -6.497  1.00  0.00    -0.354 N 
ATOM     59  N   UNL     1       7.037   0.011  -4.237  1.00  0.00    -0.248 NA
ATOM     60  C   UNL     1       6.823  -2.152  -3.389  1.00  0.00     0.031 C 
ATOM     61  C   UNL     1       6.658   1.063  -8.535  1.00  0.00     0.029 A 
ATOM     62  C   UNL     1       6.776   0.711  -7.200  1.00  0.00     0.049 A 
ATOM     63  H   UNL     1       7.092   1.950  -5.521  1.00  0.00     0.167 HD
ATOM     64  C   UNL     1       6.814  -0.868  -5.287  1.00  0.00     0.074 A 
ATOM     65  C   UNL     1       6.714  -2.192  -4.710  1.00  0.00     0.031 C 
ATOM     66  C   UNL     1       6.706  -0.602  -6.611  1.00  0.00     0.037 A 
BRANCH  53  67
ATOM     67  C   UNL     1       7.151   5.390  -8.046  1.00  0.00     0.064 A 
ATOM     68  C   UNL     1       8.301   6.097  -8.431  1.00  0.00     0.173 A 
ATOM     69  C   UNL     1       5.952   5.674  -8.717  1.00  0.00     0.173 A 
ATOM     70  F   UNL     1       9.471   5.872  -7.815  1.00  0.00    -0.203 F 
ATOM     71  C   UNL     1       8.244   7.070  -9.426  1.00  0.00     0.198 A 
ATOM     72  C   UNL     1       5.907   6.624  -9.734  1.00  0.00     0.198 A 
ATOM     73  F   UNL     1       4.825   5.023  -8.394  1.00  0.00    -0.203 F 
ATOM     74  F   UNL     1       9.344   7.768  -9.741  1.00  0.00    -0.200 F 
ATOM     75  C   UNL     1       7.050   7.327 -10.082  1.00  0.00     0.200 A 
ATOM     76  F   UNL     1       4.755   6.860 -10.377  1.00  0.00    -0.200 F 
ATOM     77  F   UNL     1       7.000   8.257 -11.045  1.00  0.00    -0.200 F 
ENDBRANCH  53  67
BRANCH  54  78
ATOM     78  C   UNL     1       7.276  -1.294  -0.621  1.00  0.00     0.064 A 
ATOM     79  C   UNL     1       8.280  -2.265  -0.500  1.00  0.00     0.173 A 
ATOM     80  C   UNL     1       6.248  -1.296   0.333  1.00  0.00     0.173 A 
ATOM     81  F   UNL     1       9.271  -2.320  -1.403  1.00  0.00    -0.203 F 
ATOM     82  C   UNL     1       8.248  -3.211   0.522  1.00  0.00     0.198 A 
ATOM     83  C   UNL     1       6.233  -2.224   1.373  1.00  0.00     0.198 A 
ATOM     84  F   UNL     1       5.263  -0.389   0.258  1.00  0.00    -0.203 F 
ATOM     85  F   UNL     1       9.194  -4.158   0.586  1.00  0.00    -0.200 F 
ATOM     86  C   UNL     1       7.228  -3.186   1.462  1.00  0.00     0.200 A 
ATOM     87  F   UNL     1       5.252  -2.192   2.284  1.00  0.00    -0.200 F 
ATOM     88  F   UNL     1       7.200  -4.095   2.446  1.00  0.00    -0.200 F 
ENDBRANCH  54  78
BRANCH  66  89
ATOM     89  C   UNL     1       6.526  -1.764  -7.543  1.00  0.00     0.064 A 
ATOM     90  C   UNL     1       5.308  -2.451  -7.640  1.00  0.00     0.173 A 
ATOM     91  C   UNL     1       7.566  -2.141  -8.407  1.00  0.00     0.173 A 
ATOM     92  F   UNL     1       4.288  -2.136  -6.827  1.00  0.00    -0.203 F 
ATOM     93  C   UNL     1       5.142  -3.482  -8.561  1.00  0.00     0.198 A 
ATOM     94  C   UNL     1       7.387  -3.153  -9.345  1.00  0.00     0.198 A 
ATOM     95  F   UNL     1       8.748  -1.508  -8.357  1.00  0.00    -0.203 F 
ATOM     96  F   UNL     1       3.979  -4.146  -8.617  1.00  0.00    -0.200 F 
ATOM     97  C   UNL     1       6.177  -3.825  -9.419  1.00  0.00     0.200 A 
ATOM     98  F   UNL     1       8.383  -3.471 -10.183  1.00  0.00    -0.200 F 
ATOM     99  F   UNL     1       6.008  -4.804 -10.318  1.00  0.00    -0.200 F 
ENDBRANCH  66  89
ENDBRANCH  40  41
ENDBRANCH  32  35
ENDBRANCH  30  31
ENDBRANCH   1  30
TORSDOF 12
