REMARK SMILES CC[C@H](CNC(=O)[C@H]1CSc2ccccc21)C(=O)NCCCNC(=O)c1ccc(-c2c3nc(c(-c4c(F)c(F)c(F)c(F)c4F)c4ccc([nH]4)c(-c4c(F)c(F)c(F)c(F)c4F)c4nc(c(-c5c(F)c(F)c(F)c(F)c5F)c5ccc2[nH]5)C=C4)C=C3)cc1
REMARK SMILES IDX 20 1 19 2 17 3 18 4 3 6 2 7 1 8 4 9 5 10 6 11 7 13 8 14 9 15
REMARK SMILES IDX 16 16 10 17 11 18 15 19 12 20 14 21 13 22 21 23 22 24 23 25
REMARK SMILES IDX 24 26 25 28 26 29 27 30 88 31 28 32 87 33 29 34 30 35 31 36
REMARK SMILES IDX 81 37 32 38 86 39 80 40 82 41 33 42 85 43 79 44 78 45 34 47
REMARK SMILES IDX 66 48 46 49 65 50 47 51 50 52 64 53 83 54 48 55 49 56 63 58
REMARK SMILES IDX 84 59 51 60 35 61 36 62 44 63 37 64 38 65 42 66 45 67 39 68
REMARK SMILES IDX 40 69 43 70 41 71 67 72 68 73 76 74 69 75 70 76 74 77 77 78
REMARK SMILES IDX 71 79 72 80 75 81 73 82 52 83 53 84 61 85 54 86 55 87 59 88
REMARK SMILES IDX 62 89 56 90 57 91 60 92 58 93
REMARK H PARENT 19 5 5 12 23 27 82 46 50 57
REMARK Flexibility Score: inf
ROOT
ATOM      1  C   UNL     1      -1.807   0.063  -3.973  1.00  0.00     0.117 C 
ENDROOT
BRANCH   1   2
ATOM      2  N   UNL     1      -0.551   0.679  -4.357  1.00  0.00    -0.356 N 
ATOM      3  C   UNL     1       0.679   0.718  -3.791  1.00  0.00     0.224 C 
ATOM      4  O   UNL     1       1.504   1.447  -4.357  1.00  0.00    -0.275 OA
ATOM      5  H   UNL     1      -0.603   1.171  -5.208  1.00  0.00     0.163 HD
BRANCH   3   6
ATOM      6  C   UNL     1       1.103  -0.048  -2.533  1.00  0.00     0.097 C 
BRANCH   6   7
ATOM      7  C   UNL     1       0.757  -1.555  -2.532  1.00  0.00     0.012 C 
ATOM      8  C   UNL     1      -0.136  -2.070  -1.410  1.00  0.00     0.005 C 
ENDBRANCH   6   7
BRANCH   6   9
ATOM      9  C   UNL     1       0.934   0.707  -1.199  1.00  0.00     0.129 C 
BRANCH   9  10
ATOM     10  N   UNL     1       0.799   2.148  -1.310  1.00  0.00    -0.355 N 
ATOM     11  C   UNL     1      -0.107   3.059  -0.881  1.00  0.00     0.228 C 
ATOM     12  H   UNL     1       1.539   2.559  -1.813  1.00  0.00     0.163 HD
ATOM     13  O   UNL     1       0.236   4.242  -1.034  1.00  0.00    -0.274 OA
BRANCH  11  14
ATOM     14  C   UNL     1      -1.510   2.771  -0.327  1.00  0.00     0.120 C 
ATOM     15  C   UNL     1      -2.077   1.355  -0.238  1.00  0.00     0.093 C 
ATOM     16  C   UNL     1      -1.760   3.373   1.043  1.00  0.00    -0.021 A 
ATOM     17  S   UNL     1      -1.861   0.775   1.466  1.00  0.00    -0.125 SA
ATOM     18  C   UNL     1      -1.965   2.435   2.061  1.00  0.00     0.011 A 
ATOM     19  C   UNL     1      -1.866   4.733   1.321  1.00  0.00     0.006 A 
ATOM     20  C   UNL     1      -2.292   2.825   3.349  1.00  0.00     0.015 A 
ATOM     21  C   UNL     1      -2.204   5.136   2.615  1.00  0.00     0.000 A 
ATOM     22  C   UNL     1      -2.422   4.187   3.622  1.00  0.00     0.001 A 
ENDBRANCH  11  14
ENDBRANCH   9  10
ENDBRANCH   6   9
ENDBRANCH   3   6
ENDBRANCH   1   2
BRANCH   1  23
ATOM     23  C   UNL     1      -2.801   1.109  -3.482  1.00  0.00     0.042 C 
BRANCH  23  24
ATOM     24  C   UNL     1      -3.456   1.919  -4.593  1.00  0.00     0.118 C 
BRANCH  24  25
ATOM     25  N   UNL     1      -4.681   1.305  -5.081  1.00  0.00    -0.352 N 
ATOM     26  C   UNL     1      -6.006   1.484  -4.766  1.00  0.00     0.251 C 
ATOM     27  H   UNL     1      -4.530   0.625  -5.777  1.00  0.00     0.163 HD
ATOM     28  O   UNL     1      -6.815   0.671  -5.219  1.00  0.00    -0.269 OA
BRANCH  26  29
ATOM     29  C   UNL     1      -6.509   2.584  -3.898  1.00  0.00     0.039 A 
ATOM     30  C   UNL     1      -5.919   3.844  -3.841  1.00  0.00     0.014 A 
ATOM     31  C   UNL     1      -7.701   2.375  -3.183  1.00  0.00     0.014 A 
ATOM     32  C   UNL     1      -6.417   4.824  -2.979  1.00  0.00     0.010 A 
ATOM     33  C   UNL     1      -8.265   3.397  -2.405  1.00  0.00     0.010 A 
ATOM     34  C   UNL     1      -7.612   4.628  -2.268  1.00  0.00    -0.014 A 
BRANCH  34  35
ATOM     35  C   UNL     1      -8.169   5.748  -1.455  1.00  0.00     0.031 A 
ATOM     36  C   UNL     1      -8.341   5.629   0.035  1.00  0.00     0.074 A 
ATOM     37  C   UNL     1      -8.468   6.915  -2.064  1.00  0.00     0.049 A 
ATOM     38  N   UNL     1      -8.716   6.544   0.897  1.00  0.00    -0.248 NA
ATOM     39  C   UNL     1      -8.071   4.317   0.641  1.00  0.00     0.031 C 
ATOM     40  C   UNL     1      -8.381   7.155  -3.506  1.00  0.00     0.029 A 
ATOM     41  N   UNL     1      -8.860   8.129  -1.553  1.00  0.00    -0.354 N 
ATOM     42  C   UNL     1      -8.738   5.917   2.136  1.00  0.00     0.074 A 
ATOM     43  C   UNL     1      -8.373   4.535   1.915  1.00  0.00     0.031 C 
ATOM     44  C   UNL     1      -8.619   8.451  -3.753  1.00  0.00     0.029 A 
ATOM     45  C   UNL     1      -8.934   9.125  -2.498  1.00  0.00     0.049 A 
ATOM     46  H   UNL     1      -9.069   8.271  -0.601  1.00  0.00     0.167 HD
ATOM     47  C   UNL     1      -9.017   6.450   3.350  1.00  0.00     0.037 A 
ATOM     48  C   UNL     1      -9.213  10.438  -2.373  1.00  0.00     0.037 A 
ATOM     49  C   UNL     1      -9.348   7.832   3.580  1.00  0.00     0.049 A 
ATOM     50  C   UNL     1      -9.520  11.002  -1.016  1.00  0.00     0.074 A 
ATOM     51  C   UNL     1      -9.611   8.465   4.783  1.00  0.00     0.029 A 
ATOM     52  N   UNL     1      -9.458   8.796   2.589  1.00  0.00    -0.354 N 
ATOM     53  N   UNL     1      -9.503  10.402   0.148  1.00  0.00    -0.248 NA
ATOM     54  C   UNL     1      -9.897  12.422  -0.954  1.00  0.00     0.031 C 
ATOM     55  C   UNL     1      -9.914   9.803   4.518  1.00  0.00     0.029 A 
ATOM     56  C   UNL     1      -9.802  10.014   3.154  1.00  0.00     0.049 A 
ATOM     57  H   UNL     1      -9.313   8.638   1.629  1.00  0.00     0.167 HD
ATOM     58  C   UNL     1      -9.856  11.368   1.080  1.00  0.00     0.074 A 
ATOM     59  C   UNL     1     -10.065  12.600   0.350  1.00  0.00     0.031 C 
ATOM     60  C   UNL     1     -10.000  11.236   2.419  1.00  0.00     0.037 A 
BRANCH  47  61
ATOM     61  C   UNL     1      -8.969   5.542   4.543  1.00  0.00     0.064 A 
ATOM     62  C   UNL     1      -7.749   5.100   5.076  1.00  0.00     0.173 A 
ATOM     63  C   UNL     1     -10.149   5.182   5.212  1.00  0.00     0.173 A 
ATOM     64  F   UNL     1      -6.594   5.414   4.471  1.00  0.00    -0.203 F 
ATOM     65  C   UNL     1      -7.713   4.318   6.228  1.00  0.00     0.198 A 
ATOM     66  C   UNL     1     -10.107   4.421   6.377  1.00  0.00     0.198 A 
ATOM     67  F   UNL     1     -11.340   5.590   4.750  1.00  0.00    -0.203 F 
ATOM     68  F   UNL     1      -6.538   3.885   6.705  1.00  0.00    -0.200 F 
ATOM     69  C   UNL     1      -8.891   3.987   6.882  1.00  0.00     0.200 A 
ATOM     70  F   UNL     1     -11.245   4.115   7.018  1.00  0.00    -0.200 F 
ATOM     71  F   UNL     1      -8.852   3.250   8.001  1.00  0.00    -0.200 F 
ENDBRANCH  47  61
BRANCH  48  72
ATOM     72  C   UNL     1      -9.177  11.312  -3.575  1.00  0.00     0.064 A 
ATOM     73  C   UNL     1      -8.155  12.257  -3.743  1.00  0.00     0.173 A 
ATOM     74  C   UNL     1     -10.134  11.197  -4.593  1.00  0.00     0.173 A 
ATOM     75  F   UNL     1      -7.229  12.418  -2.787  1.00  0.00    -0.203 F 
ATOM     76  C   UNL     1      -8.092  13.052  -4.885  1.00  0.00     0.198 A 
ATOM     77  C   UNL     1     -10.055  11.974  -5.746  1.00  0.00     0.198 A 
ATOM     78  F   UNL     1     -11.130  10.306  -4.480  1.00  0.00    -0.203 F 
ATOM     79  F   UNL     1      -7.119  13.965  -5.010  1.00  0.00    -0.200 F 
ATOM     80  C   UNL     1      -9.036  12.903  -5.890  1.00  0.00     0.200 A 
ATOM     81  F   UNL     1     -10.960  11.816  -6.721  1.00  0.00    -0.200 F 
ATOM     82  F   UNL     1      -8.964  13.656  -6.996  1.00  0.00    -0.200 F 
ENDBRANCH  48  72
BRANCH  60  83
ATOM     83  C   UNL     1     -10.396  12.451   3.202  1.00  0.00     0.064 A 
ATOM     84  C   UNL     1     -11.718  12.915   3.204  1.00  0.00     0.173 A 
ATOM     85  C   UNL     1      -9.468  13.094   4.036  1.00  0.00     0.173 A 
ATOM     86  F   UNL     1     -12.636  12.339   2.414  1.00  0.00    -0.203 F 
ATOM     87  C   UNL     1     -12.099  13.981   4.015  1.00  0.00     0.198 A 
ATOM     88  C   UNL     1      -9.857  14.145   4.861  1.00  0.00     0.198 A 
ATOM     89  F   UNL     1      -8.193  12.680   4.073  1.00  0.00    -0.203 F 
ATOM     90  F   UNL     1     -13.366  14.418   3.992  1.00  0.00    -0.200 F 
ATOM     91  C   UNL     1     -11.172  14.587   4.850  1.00  0.00     0.200 A 
ATOM     92  F   UNL     1      -8.964  14.721   5.676  1.00  0.00    -0.200 F 
ATOM     93  F   UNL     1     -11.546  15.597   5.647  1.00  0.00    -0.200 F 
ENDBRANCH  60  83
ENDBRANCH  34  35
ENDBRANCH  26  29
ENDBRANCH  24  25
ENDBRANCH  23  24
ENDBRANCH   1  23
TORSDOF 14
