REMARK SMILES O=C(NCCCNC(=O)c1cc(S[C@H]2CCOC3(CCC3)C2)ccn1)c1ccc(-c2c3nc(c(-c4c(F)c(F)c(F)c(F)c4F)c4ccc([nH]4)c(-c4c(F)c(F)c(F)c(F)c4F)c4nc(c(-c5c(F)c(F)c(F)c(F)c5F)c5ccc2[nH]5)C=C4)C=C3)cc1
REMARK SMILES IDX 5 1 4 2 3 3 1 4 2 5 26 7 27 8 88 9 28 10 87 11 29 12 30 13
REMARK SMILES IDX 31 14 81 15 32 16 86 17 80 18 82 19 33 20 85 21 79 22 78 23
REMARK SMILES IDX 34 25 66 26 46 27 65 28 47 29 50 30 64 31 83 32 48 33 49 34
REMARK SMILES IDX 63 36 84 37 51 38 35 39 36 40 44 41 37 42 38 43 42 44 45 45
REMARK SMILES IDX 39 46 40 47 43 48 41 49 67 50 68 51 76 52 69 53 70 54 74 55
REMARK SMILES IDX 77 56 71 57 72 58 75 59 73 60 52 61 53 62 61 63 54 64 55 65
REMARK SMILES IDX 59 66 62 67 56 68 57 69 60 70 58 71 6 72 7 73 8 74 9 76
REMARK SMILES IDX 10 77 11 78 25 79 12 80 24 81 23 82 13 83 14 84 15 85 22 86
REMARK SMILES IDX 16 87 18 88 17 89 19 90 21 91 20 92
REMARK H PARENT 3 6 82 24 50 35 7 75
REMARK Flexibility Score: inf
ROOT
ATOM      1  C   UNL     1       5.817  11.349  -0.132  1.00  0.00     0.042 C 
ENDROOT
BRANCH   1   2
ATOM      2  C   UNL     1       7.065  11.870   0.555  1.00  0.00     0.118 C 
BRANCH   2   3
ATOM      3  N   UNL     1       7.823  10.807   1.205  1.00  0.00    -0.352 N 
ATOM      4  O   UNL     1       9.450   9.261   1.417  1.00  0.00    -0.269 OA
ATOM      5  C   UNL     1       9.059  10.301   0.893  1.00  0.00     0.251 C 
ATOM      6  H   UNL     1       7.383  10.391   1.982  1.00  0.00     0.163 HD
BRANCH   5   7
ATOM      7  C   UNL     1       9.913  11.008  -0.082  1.00  0.00     0.039 A 
ATOM      8  C   UNL     1       9.999  12.402  -0.057  1.00  0.00     0.014 A 
ATOM      9  C   UNL     1      10.654  10.275  -1.012  1.00  0.00     0.014 A 
ATOM     10  C   UNL     1      10.699  13.070  -1.048  1.00  0.00     0.010 A 
ATOM     11  C   UNL     1      11.457  10.946  -1.938  1.00  0.00     0.010 A 
ATOM     12  C   UNL     1      11.475  12.349  -1.968  1.00  0.00    -0.014 A 
BRANCH  12  13
ATOM     13  C   UNL     1      12.412  13.095  -2.840  1.00  0.00     0.031 A 
ATOM     14  C   UNL     1      12.274  13.085  -4.332  1.00  0.00     0.074 A 
ATOM     15  C   UNL     1      13.400  13.791  -2.243  1.00  0.00     0.049 A 
ATOM     16  N   UNL     1      13.030  13.668  -5.228  1.00  0.00    -0.248 NA
ATOM     17  C   UNL     1      11.152  12.323  -4.900  1.00  0.00     0.031 C 
ATOM     18  C   UNL     1      13.630  13.851  -0.795  1.00  0.00     0.029 A 
ATOM     19  N   UNL     1      14.389  14.583  -2.764  1.00  0.00    -0.354 N 
ATOM     20  C   UNL     1      12.494  13.327  -6.461  1.00  0.00     0.074 A 
ATOM     21  C   UNL     1      11.351  12.476  -6.204  1.00  0.00     0.031 C 
ATOM     22  C   UNL     1      14.667  14.660  -0.544  1.00  0.00     0.029 A 
ATOM     23  C   UNL     1      15.228  15.107  -1.811  1.00  0.00     0.049 A 
ATOM     24  H   UNL     1      14.489  14.759  -3.728  1.00  0.00     0.167 HD
ATOM     25  C   UNL     1      12.926  13.698  -7.690  1.00  0.00     0.037 A 
ATOM     26  C   UNL     1      16.353  15.832  -1.941  1.00  0.00     0.037 A 
ATOM     27  C   UNL     1      14.052  14.566  -7.924  1.00  0.00     0.049 A 
ATOM     28  C   UNL     1      16.820  16.189  -3.322  1.00  0.00     0.074 A 
ATOM     29  C   UNL     1      14.519  15.064  -9.128  1.00  0.00     0.029 A 
ATOM     30  N   UNL     1      14.897  15.053  -6.937  1.00  0.00    -0.354 N 
ATOM     31  N   UNL     1      16.263  15.920  -4.478  1.00  0.00    -0.248 NA
ATOM     32  C   UNL     1      18.078  16.940  -3.420  1.00  0.00     0.031 C 
ATOM     33  C   UNL     1      15.684  15.794  -8.878  1.00  0.00     0.029 A 
ATOM     34  C   UNL     1      15.911  15.803  -7.512  1.00  0.00     0.049 A 
ATOM     35  H   UNL     1      14.791  14.891  -5.971  1.00  0.00     0.167 HD
ATOM     36  C   UNL     1      17.094  16.475  -5.438  1.00  0.00     0.074 A 
ATOM     37  C   UNL     1      18.175  17.127  -4.728  1.00  0.00     0.031 C 
ATOM     38  C   UNL     1      16.981  16.439  -6.787  1.00  0.00     0.037 A 
BRANCH  25  39
ATOM     39  C   UNL     1      12.207  13.161  -8.893  1.00  0.00     0.064 A 
ATOM     40  C   UNL     1      10.941  13.629  -9.270  1.00  0.00     0.173 A 
ATOM     41  C   UNL     1      12.850  12.247  -9.744  1.00  0.00     0.173 A 
ATOM     42  F   UNL     1      10.281  14.497  -8.489  1.00  0.00    -0.203 F 
ATOM     43  C   UNL     1      10.343  13.200 -10.454  1.00  0.00     0.198 A 
ATOM     44  C   UNL     1      12.261  11.840 -10.938  1.00  0.00     0.198 A 
ATOM     45  F   UNL     1      14.066  11.774  -9.433  1.00  0.00    -0.203 F 
ATOM     46  F   UNL     1       9.124  13.647 -10.787  1.00  0.00    -0.200 F 
ATOM     47  C   UNL     1      11.008  12.317 -11.292  1.00  0.00     0.200 A 
ATOM     48  F   UNL     1      12.913  10.999 -11.753  1.00  0.00    -0.200 F 
ATOM     49  F   UNL     1      10.443  11.926 -12.442  1.00  0.00    -0.200 F 
ENDBRANCH  25  39
BRANCH  26  50
ATOM     50  C   UNL     1      17.139  16.212  -0.739  1.00  0.00     0.064 A 
ATOM     51  C   UNL     1      17.302  17.554  -0.371  1.00  0.00     0.173 A 
ATOM     52  C   UNL     1      17.766  15.238   0.055  1.00  0.00     0.173 A 
ATOM     53  F   UNL     1      16.736  18.523  -1.106  1.00  0.00    -0.203 F 
ATOM     54  C   UNL     1      18.088  17.909   0.723  1.00  0.00     0.198 A 
ATOM     55  C   UNL     1      18.519  15.592   1.171  1.00  0.00     0.198 A 
ATOM     56  F   UNL     1      17.637  13.938  -0.248  1.00  0.00    -0.203 F 
ATOM     57  F   UNL     1      18.280  19.202   1.014  1.00  0.00    -0.200 F 
ATOM     58  C   UNL     1      18.692  16.928   1.495  1.00  0.00     0.200 A 
ATOM     59  F   UNL     1      19.082  14.639   1.925  1.00  0.00    -0.200 F 
ATOM     60  F   UNL     1      19.450  17.270   2.545  1.00  0.00    -0.200 F 
ENDBRANCH  26  50
BRANCH  38  61
ATOM     61  C   UNL     1      18.052  17.129  -7.578  1.00  0.00     0.064 A 
ATOM     62  C   UNL     1      19.351  16.605  -7.660  1.00  0.00     0.173 A 
ATOM     63  C   UNL     1      17.771  18.308  -8.284  1.00  0.00     0.173 A 
ATOM     64  F   UNL     1      19.674  15.492  -6.985  1.00  0.00    -0.203 F 
ATOM     65  C   UNL     1      20.336  17.251  -8.402  1.00  0.00     0.198 A 
ATOM     66  C   UNL     1      18.750  18.931  -9.052  1.00  0.00     0.198 A 
ATOM     67  F   UNL     1      16.544  18.846  -8.241  1.00  0.00    -0.203 F 
ATOM     68  F   UNL     1      21.583  16.761  -8.424  1.00  0.00    -0.200 F 
ATOM     69  C   UNL     1      20.032  18.407  -9.104  1.00  0.00     0.200 A 
ATOM     70  F   UNL     1      18.451  20.041  -9.742  1.00  0.00    -0.200 F 
ATOM     71  F   UNL     1      20.980  19.022  -9.826  1.00  0.00    -0.200 F 
ENDBRANCH  38  61
ENDBRANCH  12  13
ENDBRANCH   5   7
ENDBRANCH   2   3
ENDBRANCH   1   2
BRANCH   1  72
ATOM     72  C   UNL     1       4.795  10.802   0.845  1.00  0.00     0.118 C 
BRANCH  72  73
ATOM     73  N   UNL     1       4.269  11.841   1.720  1.00  0.00    -0.351 N 
ATOM     74  C   UNL     1       3.011  12.409   1.723  1.00  0.00     0.269 C 
ATOM     75  H   UNL     1       4.894  12.183   2.400  1.00  0.00     0.163 HD
ATOM     76  O   UNL     1       2.796  13.404   2.408  1.00  0.00    -0.268 OA
BRANCH  74  77
ATOM     77  C   UNL     1       1.933  11.754   0.935  1.00  0.00     0.129 A 
ATOM     78  C   UNL     1       1.721  10.394   1.128  1.00  0.00     0.049 A 
ATOM     79  N   UNL     1       1.268  12.507   0.033  1.00  0.00    -0.251 NA
ATOM     80  C   UNL     1       0.834   9.726   0.302  1.00  0.00     0.011 A 
ATOM     81  C   UNL     1       0.358  11.854  -0.715  1.00  0.00     0.113 A 
ATOM     82  C   UNL     1       0.122  10.486  -0.629  1.00  0.00     0.035 A 
BRANCH  80  83
ATOM     83  S   UNL     1       0.519   7.971   0.398  1.00  0.00    -0.122 SA
BRANCH  83  84
ATOM     84  C   UNL     1       2.101   7.196   0.996  1.00  0.00     0.057 C 
ATOM     85  C   UNL     1       2.198   7.228   2.527  1.00  0.00     0.043 C 
ATOM     86  C   UNL     1       2.094   5.728   0.521  1.00  0.00     0.050 C 
ATOM     87  C   UNL     1       3.446   6.486   2.973  1.00  0.00     0.162 C 
ATOM     88  C   UNL     1       3.266   4.929   1.107  1.00  0.00     0.069 C 
ATOM     89  O   UNL     1       3.356   5.138   2.538  1.00  0.00    -0.375 OA
ATOM     90  C   UNL     1       3.197   3.419   0.718  1.00  0.00     0.035 C 
ATOM     91  C   UNL     1       4.623   4.962   0.337  1.00  0.00     0.035 C 
ATOM     92  C   UNL     1       4.728   3.443   0.581  1.00  0.00     0.006 C 
ENDBRANCH  83  84
ENDBRANCH  80  83
ENDBRANCH  74  77
ENDBRANCH  72  73
ENDBRANCH   1  72
TORSDOF 12
