REMARK SMILES C[C@H]1[C@@H](C(=O)NCCCNC(=O)c2ccc(-c3c4nc(c(-c5c(F)c(F)c(F)c(F)c5F)c5ccc([nH]5)c(-c5c(F)c(F)c(F)c(F)c5F)c5nc(c(-c6c(F)c(F)c(F)c(F)c6F)c6ccc3[nH]6)C=C5)C=C4)cc2)CC[N@@H+]1CC1(O)CCCC1
REMARK SMILES IDX 7 1 6 2 4 3 5 4 3 6 1 7 2 8 78 9 76 10 77 11 79 13 80 14
REMARK SMILES IDX 82 15 85 16 83 17 84 18 81 19 8 21 9 22 10 23 11 24 12 26
REMARK SMILES IDX 13 27 14 28 75 29 15 30 74 31 16 32 17 33 18 34 68 35 19 36
REMARK SMILES IDX 73 37 67 38 69 39 20 40 72 41 66 42 65 43 21 45 53 46 33 47
REMARK SMILES IDX 52 48 34 49 37 50 51 51 70 52 35 53 36 54 50 56 71 57 38 58
REMARK SMILES IDX 22 59 23 60 31 61 24 62 25 63 29 64 32 65 26 66 27 67 30 68
REMARK SMILES IDX 28 69 54 70 55 71 63 72 56 73 57 74 61 75 64 76 58 77 59 78
REMARK SMILES IDX 62 79 60 80 39 81 40 82 48 83 41 84 42 85 46 86 49 87 43 88
REMARK SMILES IDX 44 89 47 90 45 91
REMARK H PARENT 6 5 78 12 81 20 10 25 69 44 37 55
REMARK Flexibility Score: inf
ROOT
ATOM      1  C   UNL     1       2.969   1.786  -1.057  1.00  0.00     0.117 C 
ENDROOT
BRANCH   1   2
ATOM      2  N   UNL     1       1.754   1.913  -1.838  1.00  0.00    -0.356 N 
ATOM      3  C   UNL     1       0.534   1.332  -1.674  1.00  0.00     0.229 C 
ATOM      4  O   UNL     1      -0.182   1.280  -2.675  1.00  0.00    -0.275 OA
ATOM      5  H   UNL     1       1.823   2.516  -2.613  1.00  0.00     0.163 HD
BRANCH   3   6
ATOM      6  C   UNL     1       0.053   0.917  -0.286  1.00  0.00     0.142 C 
ATOM      7  C   UNL     1       1.516  -1.277  -0.420  1.00  0.00     0.076 C 
ATOM      8  C   UNL     1       0.540  -0.402   0.350  1.00  0.00     0.193 C 
ATOM      9  N   UNL     1      -0.645  -1.233   0.579  1.00  0.00    -0.330 N 
ATOM     10  C   UNL     1      -1.481   0.794  -0.276  1.00  0.00     0.081 C 
ATOM     11  C   UNL     1      -1.739  -0.696  -0.217  1.00  0.00     0.263 C 
ATOM     12  H   UNL     1      -0.448  -2.177   0.247  1.00  0.00     0.348 HD
BRANCH   9  13
ATOM     13  C   UNL     1      -0.944  -1.580   1.973  1.00  0.00     0.297 C 
BRANCH  13  14
ATOM     14  C   UNL     1      -1.526  -0.538   2.967  1.00  0.00     0.113 C 
ATOM     15  C   UNL     1      -0.639   0.673   3.270  1.00  0.00     0.041 C 
ATOM     16  C   UNL     1      -1.681  -1.152   4.366  1.00  0.00     0.041 C 
ATOM     17  C   UNL     1      -1.149   1.213   4.607  1.00  0.00     0.003 C 
ATOM     18  C   UNL     1      -1.863   0.049   5.290  1.00  0.00     0.003 C 
BRANCH  14  19
ATOM     19  O   UNL     1      -2.824  -0.128   2.521  1.00  0.00    -0.384 OA
ATOM     20  H   UNL     1      -2.753   0.264   1.637  1.00  0.00     0.211 HD
ENDBRANCH  14  19
ENDBRANCH  13  14
ENDBRANCH   9  13
ENDBRANCH   3   6
ENDBRANCH   1   2
BRANCH   1  21
ATOM     21  C   UNL     1       3.896   0.760  -1.710  1.00  0.00     0.042 C 
BRANCH  21  22
ATOM     22  C   UNL     1       4.429   1.180  -3.072  1.00  0.00     0.118 C 
BRANCH  22  23
ATOM     23  N   UNL     1       5.697   1.875  -2.974  1.00  0.00    -0.352 N 
ATOM     24  C   UNL     1       6.963   1.445  -3.275  1.00  0.00     0.251 C 
ATOM     25  H   UNL     1       5.640   2.799  -2.639  1.00  0.00     0.163 HD
ATOM     26  O   UNL     1       7.925   2.123  -2.902  1.00  0.00    -0.269 OA
BRANCH  24  27
ATOM     27  C   UNL     1       7.209   0.184  -4.018  1.00  0.00     0.039 A 
ATOM     28  C   UNL     1       8.339  -0.572  -3.688  1.00  0.00     0.014 A 
ATOM     29  C   UNL     1       6.398  -0.231  -5.078  1.00  0.00     0.014 A 
ATOM     30  C   UNL     1       8.635  -1.742  -4.393  1.00  0.00     0.010 A 
ATOM     31  C   UNL     1       6.635  -1.451  -5.713  1.00  0.00     0.010 A 
ATOM     32  C   UNL     1       7.775  -2.205  -5.402  1.00  0.00    -0.014 A 
BRANCH  32  33
ATOM     33  C   UNL     1       8.091  -3.436  -6.173  1.00  0.00     0.031 A 
ATOM     34  C   UNL     1       8.347  -3.358  -7.657  1.00  0.00     0.074 A 
ATOM     35  C   UNL     1       8.122  -4.631  -5.553  1.00  0.00     0.049 A 
ATOM     36  N   UNL     1       8.613  -4.319  -8.506  1.00  0.00    -0.248 NA
ATOM     37  C   UNL     1       8.265  -2.025  -8.274  1.00  0.00     0.031 C 
ATOM     38  C   UNL     1       7.838  -4.855  -4.135  1.00  0.00     0.029 A 
ATOM     39  N   UNL     1       8.405  -5.885  -6.037  1.00  0.00    -0.354 N 
ATOM     40  C   UNL     1       8.709  -3.710  -9.751  1.00  0.00     0.074 A 
ATOM     41  C   UNL     1       8.416  -2.307  -9.559  1.00  0.00     0.031 C 
ATOM     42  C   UNL     1       7.987  -6.160  -3.858  1.00  0.00     0.029 A 
ATOM     43  C   UNL     1       8.350  -6.870  -5.081  1.00  0.00     0.049 A 
ATOM     44  H   UNL     1       8.627  -6.061  -6.980  1.00  0.00     0.167 HD
ATOM     45  C   UNL     1       9.042  -4.261 -10.943  1.00  0.00     0.037 A 
ATOM     46  C   UNL     1       8.569  -8.195  -5.180  1.00  0.00     0.037 A 
ATOM     47  C   UNL     1       9.372  -5.649 -11.131  1.00  0.00     0.049 A 
ATOM     48  C   UNL     1       8.968  -8.779  -6.507  1.00  0.00     0.074 A 
ATOM     49  C   UNL     1       9.778  -6.293 -12.287  1.00  0.00     0.029 A 
ATOM     50  N   UNL     1       9.335  -6.609 -10.130  1.00  0.00    -0.354 N 
ATOM     51  N   UNL     1       9.120  -8.180  -7.663  1.00  0.00    -0.248 NA
ATOM     52  C   UNL     1       9.240 -10.223  -6.540  1.00  0.00     0.031 C 
ATOM     53  C   UNL     1       9.955  -7.650 -11.993  1.00  0.00     0.029 A 
ATOM     54  C   UNL     1       9.700  -7.843 -10.645  1.00  0.00     0.049 A 
ATOM     55  H   UNL     1       9.087  -6.439  -9.193  1.00  0.00     0.167 HD
ATOM     56  C   UNL     1       9.520  -9.165  -8.555  1.00  0.00     0.074 A 
ATOM     57  C   UNL     1       9.611 -10.398  -7.801  1.00  0.00     0.031 C 
ATOM     58  C   UNL     1       9.785  -9.060  -9.880  1.00  0.00     0.037 A 
BRANCH  45  59
ATOM     59  C   UNL     1       9.079  -3.352 -12.139  1.00  0.00     0.064 A 
ATOM     60  C   UNL     1      10.073  -2.372 -12.285  1.00  0.00     0.173 A 
ATOM     61  C   UNL     1       8.127  -3.477 -13.161  1.00  0.00     0.173 A 
ATOM     62  F   UNL     1      11.000  -2.203 -11.330  1.00  0.00    -0.203 F 
ATOM     63  C   UNL     1      10.092  -1.529 -13.394  1.00  0.00     0.198 A 
ATOM     64  C   UNL     1       8.167  -2.653 -14.283  1.00  0.00     0.198 A 
ATOM     65  F   UNL     1       7.159  -4.402 -13.075  1.00  0.00    -0.203 F 
ATOM     66  F   UNL     1      11.019  -0.566 -13.485  1.00  0.00    -0.200 F 
ATOM     67  C   UNL     1       9.143  -1.674 -14.394  1.00  0.00     0.200 A 
ATOM     68  F   UNL     1       7.257  -2.802 -15.256  1.00  0.00    -0.200 F 
ATOM     69  F   UNL     1       9.165  -0.865 -15.462  1.00  0.00    -0.200 F 
ENDBRANCH  45  59
BRANCH  46  70
ATOM     70  C   UNL     1       8.450  -9.054  -3.974  1.00  0.00     0.064 A 
ATOM     71  C   UNL     1       9.586  -9.612  -3.372  1.00  0.00     0.173 A 
ATOM     72  C   UNL     1       7.202  -9.328  -3.395  1.00  0.00     0.173 A 
ATOM     73  F   UNL     1      10.799  -9.394  -3.901  1.00  0.00    -0.203 F 
ATOM     74  C   UNL     1       9.477 -10.426  -2.246  1.00  0.00     0.198 A 
ATOM     75  C   UNL     1       7.097 -10.121  -2.254  1.00  0.00     0.198 A 
ATOM     76  F   UNL     1       6.086  -8.814  -3.931  1.00  0.00    -0.203 F 
ATOM     77  F   UNL     1      10.576 -10.979  -1.714  1.00  0.00    -0.200 F 
ATOM     78  C   UNL     1       8.234 -10.674  -1.684  1.00  0.00     0.200 A 
ATOM     79  F   UNL     1       5.896 -10.347  -1.706  1.00  0.00    -0.200 F 
ATOM     80  F   UNL     1       8.131 -11.451  -0.598  1.00  0.00    -0.200 F 
ENDBRANCH  46  70
BRANCH  58  81
ATOM     81  C   UNL     1      10.218 -10.307 -10.593  1.00  0.00     0.064 A 
ATOM     82  C   UNL     1       9.314 -11.344 -10.871  1.00  0.00     0.173 A 
ATOM     83  C   UNL     1      11.543 -10.456 -11.027  1.00  0.00     0.173 A 
ATOM     84  F   UNL     1       8.039 -11.255 -10.463  1.00  0.00    -0.203 F 
ATOM     85  C   UNL     1       9.729 -12.495 -11.533  1.00  0.00     0.198 A 
ATOM     86  C   UNL     1      11.949 -11.597 -11.713  1.00  0.00     0.198 A 
ATOM     87  F   UNL     1      12.444  -9.490 -10.791  1.00  0.00    -0.203 F 
ATOM     88  F   UNL     1       8.861 -13.494 -11.745  1.00  0.00    -0.200 F 
ATOM     89  C   UNL     1      11.044 -12.619 -11.959  1.00  0.00     0.200 A 
ATOM     90  F   UNL     1      13.216 -11.710 -12.133  1.00  0.00    -0.200 F 
ATOM     91  F   UNL     1      11.441 -13.727 -12.598  1.00  0.00    -0.200 F 
ENDBRANCH  58  81
ENDBRANCH  32  33
ENDBRANCH  24  27
ENDBRANCH  22  23
ENDBRANCH  21  22
ENDBRANCH   1  21
TORSDOF 13
