REMARK SMILES CCOC(=O)c1c(NC(=O)c2ncccc2C(=O)NCCCNC(=O)c2ccc(-c3c4nc(c(-c5c(F)c(F)c(F)c(F)c5F)c5ccc([nH]5)c(-c5c(F)c(F)c(F)c(F)c5F)c5nc(c(-c6c(F)c(F)c(F)c(F)c6F)c6ccc3[nH]6)C=C5)C=C4)cc2)sc2c1CC[C@H](C)C2
REMARK SMILES IDX 17 1 18 2 19 3 16 5 11 6 12 7 13 8 15 9 14 10 9 11 8 12
REMARK SMILES IDX 10 14 7 15 6 16 91 17 89 18 90 19 92 20 96 21 93 22 94 23
REMARK SMILES IDX 95 24 4 25 5 26 3 27 2 28 1 29 20 30 21 31 22 32 23 33 24 34
REMARK SMILES IDX 25 36 26 37 27 38 88 39 28 40 87 41 29 42 30 43 31 44 81 45
REMARK SMILES IDX 32 46 86 47 80 48 82 49 33 50 85 51 79 52 78 53 34 55 66 56
REMARK SMILES IDX 46 57 65 58 47 59 50 60 64 61 83 62 48 63 49 64 63 66 84 67
REMARK SMILES IDX 51 68 35 69 36 70 44 71 37 72 38 73 42 74 45 75 39 76 40 77
REMARK SMILES IDX 43 78 41 79 67 80 68 81 76 82 69 83 70 84 74 85 77 86 71 87
REMARK SMILES IDX 72 88 75 89 73 90 52 91 53 92 61 93 54 94 55 95 59 96 62 97
REMARK SMILES IDX 56 98 57 99 60 100 58 101
REMARK H PARENT 19 4 8 13 23 35 82 54 50 65
REMARK Flexibility Score: inf
ROOT
ATOM      1  C   UNL     1       3.016   0.752   4.526  1.00  0.00     0.253 C 
ATOM      2  O   UNL     1       2.917   1.387   5.571  1.00  0.00    -0.269 OA
ATOM      3  N   UNL     1       4.256   0.649   3.928  1.00  0.00    -0.352 N 
ATOM      4  H   UNL     1       4.953   1.216   4.330  1.00  0.00     0.163 HD
ENDROOT
BRANCH   1   5
ATOM      5  C   UNL     1       1.815   0.120   3.939  1.00  0.00     0.071 A 
ATOM      6  C   UNL     1       0.570   0.745   3.919  1.00  0.00     0.141 A 
ATOM      7  N   UNL     1      -0.559   0.133   3.431  1.00  0.00    -0.250 NA
ATOM      8  C   UNL     1      -0.455  -1.125   2.967  1.00  0.00     0.112 A 
ATOM      9  C   UNL     1       1.866  -1.203   3.476  1.00  0.00     0.018 A 
ATOM     10  C   UNL     1       0.733  -1.823   2.953  1.00  0.00     0.021 A 
BRANCH   6  11
ATOM     11  C   UNL     1       0.246   2.030   4.579  1.00  0.00     0.275 C 
ATOM     12  N   UNL     1       0.871   3.223   4.367  1.00  0.00    -0.311 N 
ATOM     13  H   UNL     1       0.513   3.934   4.946  1.00  0.00     0.171 HD
ATOM     14  O   UNL     1      -0.658   2.023   5.424  1.00  0.00    -0.267 OA
BRANCH  12  15
ATOM     15  C   UNL     1       1.869   3.683   3.554  1.00  0.00     0.110 A 
ATOM     16  C   UNL     1       2.516   3.388   2.364  1.00  0.00     0.098 A 
ATOM     17  C   UNL     1       3.688   4.261   2.218  1.00  0.00    -0.017 A 
ATOM     18  S   UNL     1       2.502   5.069   4.333  1.00  0.00    -0.122 S 
ATOM     19  C   UNL     1       3.791   5.162   3.262  1.00  0.00     0.011 A 
ATOM     20  C   UNL     1       4.675   4.319   1.076  1.00  0.00     0.038 C 
ATOM     21  C   UNL     1       4.880   6.160   3.468  1.00  0.00     0.050 C 
ATOM     22  C   UNL     1       5.948   5.117   1.445  1.00  0.00     0.008 C 
ATOM     23  C   UNL     1       5.576   6.449   2.131  1.00  0.00    -0.009 C 
ATOM     24  C   UNL     1       6.772   7.359   2.369  1.00  0.00     0.008 C 
BRANCH  16  25
ATOM     25  C   UNL     1       2.142   2.369   1.379  1.00  0.00     0.341 C 
ATOM     26  O   UNL     1       2.969   1.681   0.813  1.00  0.00    -0.246 OA
BRANCH  25  27
ATOM     27  O   UNL     1       0.804   2.299   1.146  1.00  0.00    -0.462 OA
BRANCH  27  28
ATOM     28  C   UNL     1       0.261   1.241   0.325  1.00  0.00     0.230 C 
ATOM     29  C   UNL     1       0.991   0.841  -0.948  1.00  0.00     0.049 C 
ENDBRANCH  27  28
ENDBRANCH  25  27
ENDBRANCH  16  25
ENDBRANCH  12  15
ENDBRANCH   6  11
ENDBRANCH   1   5
BRANCH   3  30
ATOM     30  C   UNL     1       4.707  -0.160   2.797  1.00  0.00     0.118 C 
BRANCH  30  31
ATOM     31  C   UNL     1       5.668   0.512   1.822  1.00  0.00     0.042 C 
BRANCH  31  32
ATOM     32  C   UNL     1       6.977   0.966   2.416  1.00  0.00     0.118 C 
BRANCH  32  33
ATOM     33  N   UNL     1       7.889  -0.129   2.736  1.00  0.00    -0.352 N 
ATOM     34  C   UNL     1       9.232  -0.017   3.054  1.00  0.00     0.251 C 
ATOM     35  H   UNL     1       7.511  -1.038   2.725  1.00  0.00     0.163 HD
ATOM     36  O   UNL     1       9.994  -0.971   2.970  1.00  0.00    -0.269 OA
BRANCH  34  37
ATOM     37  C   UNL     1       9.718   1.296   3.510  1.00  0.00     0.039 A 
ATOM     38  C   UNL     1      10.931   1.836   3.076  1.00  0.00     0.014 A 
ATOM     39  C   UNL     1       8.870   2.019   4.343  1.00  0.00     0.014 A 
ATOM     40  C   UNL     1      11.243   3.142   3.442  1.00  0.00     0.010 A 
ATOM     41  C   UNL     1       9.071   3.357   4.510  1.00  0.00     0.010 A 
ATOM     42  C   UNL     1      10.294   3.901   4.147  1.00  0.00    -0.014 A 
BRANCH  42  43
ATOM     43  C   UNL     1      10.500   5.314   4.430  1.00  0.00     0.031 A 
ATOM     44  C   UNL     1      10.761   6.142   3.218  1.00  0.00     0.074 A 
ATOM     45  C   UNL     1      10.229   5.831   5.653  1.00  0.00     0.049 A 
ATOM     46  N   UNL     1      11.769   6.911   2.985  1.00  0.00    -0.248 NA
ATOM     47  C   UNL     1       9.844   6.022   2.071  1.00  0.00     0.031 C 
ATOM     48  C   UNL     1       9.670   5.142   6.828  1.00  0.00     0.029 A 
ATOM     49  N   UNL     1      10.294   7.120   6.086  1.00  0.00    -0.354 N 
ATOM     50  C   UNL     1      11.518   7.533   1.762  1.00  0.00     0.074 A 
ATOM     51  C   UNL     1      10.383   6.864   1.187  1.00  0.00     0.031 C 
ATOM     52  C   UNL     1       9.232   6.046   7.731  1.00  0.00     0.029 A 
ATOM     53  C   UNL     1       9.639   7.365   7.293  1.00  0.00     0.049 A 
ATOM     54  H   UNL     1      10.767   7.824   5.586  1.00  0.00     0.167 HD
ATOM     55  C   UNL     1      12.135   8.706   1.455  1.00  0.00     0.037 A 
ATOM     56  C   UNL     1       9.434   8.573   7.878  1.00  0.00     0.037 A 
ATOM     57  C   UNL     1      13.326   8.869   2.251  1.00  0.00     0.049 A 
ATOM     58  C   UNL     1      10.391   9.521   7.258  1.00  0.00     0.074 A 
ATOM     59  C   UNL     1      14.488   8.137   2.402  1.00  0.00     0.029 A 
ATOM     60  N   UNL     1      13.252   9.684   3.353  1.00  0.00    -0.354 N 
ATOM     61  N   UNL     1      11.683   9.450   7.416  1.00  0.00    -0.248 NA
ATOM     62  C   UNL     1       9.940  10.240   6.077  1.00  0.00     0.031 C 
ATOM     63  C   UNL     1      14.768   8.183   3.800  1.00  0.00     0.029 A 
ATOM     64  C   UNL     1      13.825   9.016   4.403  1.00  0.00     0.049 A 
ATOM     65  H   UNL     1      12.859  10.586   3.383  1.00  0.00     0.167 HD
ATOM     66  C   UNL     1      12.202   9.709   6.157  1.00  0.00     0.074 A 
ATOM     67  C   UNL     1      11.085  10.259   5.390  1.00  0.00     0.031 C 
ATOM     68  C   UNL     1      13.399   9.178   5.772  1.00  0.00     0.037 A 
BRANCH  55  69
ATOM     69  C   UNL     1      11.457   9.876   0.780  1.00  0.00     0.064 A 
ATOM     70  C   UNL     1      12.217  11.033   0.508  1.00  0.00     0.173 A 
ATOM     71  C   UNL     1      10.057  10.042   0.711  1.00  0.00     0.173 A 
ATOM     72  F   UNL     1      13.558  10.993   0.544  1.00  0.00    -0.203 F 
ATOM     73  C   UNL     1      11.620  12.279   0.305  1.00  0.00     0.198 A 
ATOM     74  C   UNL     1       9.465  11.279   0.462  1.00  0.00     0.198 A 
ATOM     75  F   UNL     1       9.207   9.050   0.990  1.00  0.00    -0.203 F 
ATOM     76  F   UNL     1      12.386  13.373   0.199  1.00  0.00    -0.200 F 
ATOM     77  C   UNL     1      10.244  12.404   0.297  1.00  0.00     0.200 A 
ATOM     78  F   UNL     1       8.128  11.382   0.473  1.00  0.00    -0.200 F 
ATOM     79  F   UNL     1       9.669  13.608   0.181  1.00  0.00    -0.200 F 
ENDBRANCH  55  69
BRANCH  56  80
ATOM     80  C   UNL     1       8.282   9.041   8.690  1.00  0.00     0.064 A 
ATOM     81  C   UNL     1       8.366  10.217   9.456  1.00  0.00     0.173 A 
ATOM     82  C   UNL     1       6.990   8.518   8.492  1.00  0.00     0.173 A 
ATOM     83  F   UNL     1       9.554  10.807   9.656  1.00  0.00    -0.203 F 
ATOM     84  C   UNL     1       7.225  10.849   9.963  1.00  0.00     0.198 A 
ATOM     85  C   UNL     1       5.852   9.147   9.002  1.00  0.00     0.198 A 
ATOM     86  F   UNL     1       6.798   7.444   7.712  1.00  0.00    -0.203 F 
ATOM     87  F   UNL     1       7.341  12.008  10.628  1.00  0.00    -0.200 F 
ATOM     88  C   UNL     1       5.968  10.321   9.724  1.00  0.00     0.200 A 
ATOM     89  F   UNL     1       4.638   8.648   8.727  1.00  0.00    -0.200 F 
ATOM     90  F   UNL     1       4.870  10.963  10.146  1.00  0.00    -0.200 F 
ENDBRANCH  56  80
BRANCH  68  91
ATOM     91  C   UNL     1      14.254   8.531   6.828  1.00  0.00     0.064 A 
ATOM     92  C   UNL     1      13.885   7.394   7.569  1.00  0.00     0.173 A 
ATOM     93  C   UNL     1      15.561   9.007   6.991  1.00  0.00     0.173 A 
ATOM     94  F   UNL     1      12.691   6.815   7.401  1.00  0.00    -0.203 F 
ATOM     95  C   UNL     1      14.772   6.794   8.463  1.00  0.00     0.198 A 
ATOM     96  C   UNL     1      16.457   8.383   7.854  1.00  0.00     0.198 A 
ATOM     97  F   UNL     1      15.988  10.055   6.269  1.00  0.00    -0.203 F 
ATOM     98  F   UNL     1      14.392   5.718   9.169  1.00  0.00    -0.200 F 
ATOM     99  C   UNL     1      16.059   7.285   8.599  1.00  0.00     0.200 A 
ATOM    100  F   UNL     1      17.716   8.832   7.942  1.00  0.00    -0.200 F 
ATOM    101  F   UNL     1      16.926   6.686   9.427  1.00  0.00    -0.200 F 
ENDBRANCH  68  91
ENDBRANCH  42  43
ENDBRANCH  34  37
ENDBRANCH  32  33
ENDBRANCH  31  32
ENDBRANCH  30  31
ENDBRANCH   3  30
TORSDOF 15
