REMARK SMILES CCC1(CC)CCN(C(=O)N[C@H](CO)C(=O)NCCCNC(=O)c2ccc(-c3c4nc(c(-c5c(F)c(F)c(F)c(F)c5F)c5ccc([nH]5)c(-c5c(F)c(F)c(F)c(F)c5F)c5nc(c(-c6c(F)c(F)c(F)c(F)c6F)c6ccc3[nH]6)C=C5)C=C4)cc2)C1
REMARK SMILES IDX 18 1 17 2 15 3 16 4 12 6 11 7 9 8 10 9 8 11 3 12 6 13 87 14
REMARK SMILES IDX 7 15 2 16 1 17 4 18 5 19 13 20 14 21 19 23 20 24 21 25 22 26
REMARK SMILES IDX 23 28 24 29 25 30 86 31 26 32 85 33 27 34 28 35 29 36 79 37
REMARK SMILES IDX 30 38 84 39 78 40 80 41 31 42 83 43 77 44 76 45 32 47 64 48
REMARK SMILES IDX 44 49 63 50 45 51 48 52 62 53 81 54 46 55 47 56 61 58 82 59
REMARK SMILES IDX 49 60 33 61 34 62 42 63 35 64 36 65 40 66 43 67 37 68 38 69
REMARK SMILES IDX 41 70 39 71 65 72 66 73 74 74 67 75 68 76 72 77 75 78 69 79
REMARK SMILES IDX 70 80 73 81 71 82 50 83 51 84 59 85 52 86 53 87 57 88 60 89
REMARK SMILES IDX 54 90 55 91 58 92 56 93
REMARK H PARENT 17 5 11 10 14 22 21 27 80 46 48 57
REMARK Flexibility Score: inf
ROOT
ATOM      1  C   UNL     1       0.452   9.877   2.540  1.00  0.00     0.117 C 
ENDROOT
BRANCH   1   2
ATOM      2  N   UNL     1       0.292   8.514   2.985  1.00  0.00    -0.354 N 
ATOM      3  C   UNL     1       0.573   7.318   2.413  1.00  0.00     0.245 C 
ATOM      4  O   UNL     1       0.149   6.343   3.049  1.00  0.00    -0.273 OA
ATOM      5  H   UNL     1      -0.099   8.438   3.885  1.00  0.00     0.163 HD
BRANCH   3   6
ATOM      6  C   UNL     1       1.277   7.105   1.042  1.00  0.00     0.198 C 
BRANCH   6   7
ATOM      7  N   UNL     1       2.233   8.098   0.517  1.00  0.00    -0.324 N 
ATOM      8  C   UNL     1       2.315   9.224  -0.196  1.00  0.00     0.318 C 
ATOM      9  O   UNL     1       3.421   9.775  -0.146  1.00  0.00    -0.249 OA
ATOM     10  H   UNL     1       3.140   7.835   0.793  1.00  0.00     0.166 HD
BRANCH   8  11
ATOM     11  N   UNL     1       1.293   9.789  -0.882  1.00  0.00    -0.324 N 
ATOM     12  C   UNL     1       0.197  11.563  -2.166  1.00  0.00    -0.011 C 
ATOM     13  C   UNL     1      -0.577  10.232  -2.301  1.00  0.00     0.030 C 
ATOM     14  C   UNL     1       1.489  11.131  -1.413  1.00  0.00     0.128 C 
ATOM     15  C   UNL     1       0.068   9.216  -1.367  1.00  0.00     0.122 C 
BRANCH  12  16
ATOM     16  C   UNL     1      -0.579  12.595  -1.285  1.00  0.00     0.005 C 
ATOM     17  C   UNL     1      -1.475  13.605  -1.982  1.00  0.00     0.004 C 
ENDBRANCH  12  16
BRANCH  12  18
ATOM     18  C   UNL     1       0.609  12.109  -3.564  1.00  0.00     0.005 C 
ATOM     19  C   UNL     1      -0.481  12.230  -4.629  1.00  0.00     0.004 C 
ENDBRANCH  12  18
ENDBRANCH   8  11
ENDBRANCH   6   7
BRANCH   6  20
ATOM     20  C   UNL     1       0.344   6.444   0.019  1.00  0.00     0.191 C 
BRANCH  20  21
ATOM     21  O   UNL     1       0.250   5.033   0.230  1.00  0.00    -0.394 OA
ATOM     22  H   UNL     1       1.127   4.632   0.130  1.00  0.00     0.210 HD
ENDBRANCH  20  21
ENDBRANCH   6  20
ENDBRANCH   3   6
ENDBRANCH   1   2
BRANCH   1  23
ATOM     23  C   UNL     1      -0.783  10.348   1.786  1.00  0.00     0.042 C 
BRANCH  23  24
ATOM     24  C   UNL     1      -1.710  11.255   2.580  1.00  0.00     0.118 C 
BRANCH  24  25
ATOM     25  N   UNL     1      -1.111  12.555   2.855  1.00  0.00    -0.352 N 
ATOM     26  C   UNL     1      -1.536  13.829   2.582  1.00  0.00     0.251 C 
ATOM     27  H   UNL     1      -0.246  12.509   3.321  1.00  0.00     0.163 HD
ATOM     28  O   UNL     1      -0.755  14.763   2.776  1.00  0.00    -0.269 OA
BRANCH  26  29
ATOM     29  C   UNL     1      -2.884  14.118   2.037  1.00  0.00     0.039 A 
ATOM     30  C   UNL     1      -3.038  15.230   1.199  1.00  0.00     0.014 A 
ATOM     31  C   UNL     1      -4.005  13.353   2.362  1.00  0.00     0.014 A 
ATOM     32  C   UNL     1      -4.283  15.528   0.639  1.00  0.00     0.010 A 
ATOM     33  C   UNL     1      -5.225  13.593   1.733  1.00  0.00     0.010 A 
ATOM     34  C   UNL     1      -5.381  14.690   0.874  1.00  0.00    -0.014 A 
BRANCH  34  35
ATOM     35  C   UNL     1      -6.708  14.962   0.263  1.00  0.00     0.031 A 
ATOM     36  C   UNL     1      -7.890  15.269   1.142  1.00  0.00     0.074 A 
ATOM     37  C   UNL     1      -6.864  14.873  -1.072  1.00  0.00     0.049 A 
ATOM     38  N   UNL     1      -9.144  15.455   0.813  1.00  0.00    -0.248 NA
ATOM     39  C   UNL     1      -7.633  15.346   2.588  1.00  0.00     0.031 C 
ATOM     40  C   UNL     1      -5.805  14.545  -2.027  1.00  0.00     0.029 A 
ATOM     41  N   UNL     1      -7.979  15.038  -1.856  1.00  0.00    -0.354 N 
ATOM     42  C   UNL     1      -9.822  15.653   2.009  1.00  0.00     0.074 A 
ATOM     43  C   UNL     1      -8.855  15.503   3.074  1.00  0.00     0.031 C 
ATOM     44  C   UNL     1      -6.315  14.555  -3.269  1.00  0.00     0.029 A 
ATOM     45  C   UNL     1      -7.744  14.847  -3.196  1.00  0.00     0.049 A 
ATOM     46  H   UNL     1      -8.864  15.271  -1.492  1.00  0.00     0.167 HD
ATOM     47  C   UNL     1     -11.128  15.960   2.201  1.00  0.00     0.037 A 
ATOM     48  C   UNL     1      -8.588  14.893  -4.245  1.00  0.00     0.037 A 
ATOM     49  C   UNL     1     -12.081  16.130   1.136  1.00  0.00     0.049 A 
ATOM     50  C   UNL     1     -10.039  15.215  -4.004  1.00  0.00     0.074 A 
ATOM     51  C   UNL     1     -13.412  16.496   1.219  1.00  0.00     0.029 A 
ATOM     52  N   UNL     1     -11.802  15.938  -0.210  1.00  0.00    -0.354 N 
ATOM     53  N   UNL     1     -10.656  15.469  -2.875  1.00  0.00    -0.248 NA
ATOM     54  C   UNL     1     -10.911  15.264  -5.186  1.00  0.00     0.031 C 
ATOM     55  C   UNL     1     -13.954  16.470  -0.070  1.00  0.00     0.029 A 
ATOM     56  C   UNL     1     -12.945  16.150  -0.965  1.00  0.00     0.049 A 
ATOM     57  H   UNL     1     -10.923  15.688  -0.575  1.00  0.00     0.167 HD
ATOM     58  C   UNL     1     -11.976  15.737  -3.211  1.00  0.00     0.074 A 
ATOM     59  C   UNL     1     -12.068  15.630  -4.653  1.00  0.00     0.031 C 
ATOM     60  C   UNL     1     -13.018  16.046  -2.400  1.00  0.00     0.037 A 
BRANCH  47  61
ATOM     61  C   UNL     1     -11.600  16.127   3.618  1.00  0.00     0.064 A 
ATOM     62  C   UNL     1     -11.171  17.198   4.419  1.00  0.00     0.173 A 
ATOM     63  C   UNL     1     -12.511  15.217   4.177  1.00  0.00     0.173 A 
ATOM     64  F   UNL     1     -10.293  18.091   3.939  1.00  0.00    -0.203 F 
ATOM     65  C   UNL     1     -11.605  17.328   5.736  1.00  0.00     0.198 A 
ATOM     66  C   UNL     1     -12.970  15.372   5.483  1.00  0.00     0.198 A 
ATOM     67  F   UNL     1     -12.960  14.179   3.456  1.00  0.00    -0.203 F 
ATOM     68  F   UNL     1     -11.132  18.323   6.499  1.00  0.00    -0.200 F 
ATOM     69  C   UNL     1     -12.509  16.420   6.264  1.00  0.00     0.200 A 
ATOM     70  F   UNL     1     -13.856  14.501   5.987  1.00  0.00    -0.200 F 
ATOM     71  F   UNL     1     -12.929  16.549   7.531  1.00  0.00    -0.200 F 
ENDBRANCH  47  61
BRANCH  48  72
ATOM     72  C   UNL     1      -8.078  14.651  -5.621  1.00  0.00     0.064 A 
ATOM     73  C   UNL     1      -8.032  15.687  -6.564  1.00  0.00     0.173 A 
ATOM     74  C   UNL     1      -7.631  13.384  -6.023  1.00  0.00     0.173 A 
ATOM     75  F   UNL     1      -8.467  16.912  -6.234  1.00  0.00    -0.203 F 
ATOM     76  C   UNL     1      -7.579  15.460  -7.862  1.00  0.00     0.198 A 
ATOM     77  C   UNL     1      -7.149  13.166  -7.312  1.00  0.00     0.198 A 
ATOM     78  F   UNL     1      -7.648  12.359  -5.158  1.00  0.00    -0.203 F 
ATOM     79  F   UNL     1      -7.591  16.458  -8.757  1.00  0.00    -0.200 F 
ATOM     80  C   UNL     1      -7.131  14.202  -8.233  1.00  0.00     0.200 A 
ATOM     81  F   UNL     1      -6.701  11.952  -7.661  1.00  0.00    -0.200 F 
ATOM     82  F   UNL     1      -6.690  13.986  -9.480  1.00  0.00    -0.200 F 
ENDBRANCH  48  72
BRANCH  60  83
ATOM     83  C   UNL     1     -14.341  16.329  -3.054  1.00  0.00     0.064 A 
ATOM     84  C   UNL     1     -15.101  15.315  -3.655  1.00  0.00     0.173 A 
ATOM     85  C   UNL     1     -14.876  17.627  -3.037  1.00  0.00     0.173 A 
ATOM     86  F   UNL     1     -14.629  14.060  -3.711  1.00  0.00    -0.203 F 
ATOM     87  C   UNL     1     -16.333  15.596  -4.241  1.00  0.00     0.198 A 
ATOM     88  C   UNL     1     -16.123  17.897  -3.592  1.00  0.00     0.198 A 
ATOM     89  F   UNL     1     -14.194  18.632  -2.467  1.00  0.00    -0.203 F 
ATOM     90  F   UNL     1     -17.018  14.621  -4.856  1.00  0.00    -0.200 F 
ATOM     91  C   UNL     1     -16.847  16.883  -4.200  1.00  0.00     0.200 A 
ATOM     92  F   UNL     1     -16.625  19.138  -3.537  1.00  0.00    -0.200 F 
ATOM     93  F   UNL     1     -18.038  17.149  -4.755  1.00  0.00    -0.200 F 
ENDBRANCH  60  83
ENDBRANCH  34  35
ENDBRANCH  26  29
ENDBRANCH  24  25
ENDBRANCH  23  24
ENDBRANCH   1  23
TORSDOF 16
