REMARK SMILES COCc1cc(SCC(=O)NCCCNC(=O)c2ccc(-c3c4nc(c(-c5c(F)c(F)c(F)c(F)c5F)c5ccc([nH]5)c(-c5c(F)c(F)c(F)c(F)c5F)c5nc(c(-c6c(F)c(F)c(F)c(F)c6F)c6ccc3[nH]6)C=C5)C=C4)cc2)nc(-c2cccnc2)n1
REMARK SMILES IDX 12 1 11 2 9 3 10 4 8 6 7 7 6 8 4 9 5 10 89 11 82 12 81 13
REMARK SMILES IDX 3 14 2 15 1 16 83 17 84 18 88 19 85 20 87 21 86 22 13 23
REMARK SMILES IDX 14 24 15 25 16 26 17 28 18 29 19 30 80 31 20 32 79 33 21 34
REMARK SMILES IDX 22 35 23 36 73 37 24 38 78 39 72 40 74 41 25 42 77 43 71 44
REMARK SMILES IDX 70 45 26 47 58 48 38 49 57 50 39 51 42 52 56 53 75 54 40 55
REMARK SMILES IDX 41 56 55 58 76 59 43 60 27 61 28 62 36 63 29 64 30 65 34 66
REMARK SMILES IDX 37 67 31 68 32 69 35 70 33 71 59 72 60 73 68 74 61 75 62 76
REMARK SMILES IDX 66 77 69 78 63 79 64 80 67 81 65 82 44 83 45 84 53 85 46 86
REMARK SMILES IDX 47 87 51 88 54 89 48 90 49 91 52 92 50 93
REMARK H PARENT 11 5 15 27 74 46 42 57
REMARK Flexibility Score: inf
ROOT
ATOM      1  C   UNL     1       3.558  -7.534  -2.555  1.00  0.00     0.117 C 
ENDROOT
BRANCH   1   2
ATOM      2  N   UNL     1       3.560  -6.843  -1.279  1.00  0.00    -0.355 N 
ATOM      3  C   UNL     1       2.537  -6.597  -0.418  1.00  0.00     0.230 C 
ATOM      4  O   UNL     1       2.786  -5.915   0.581  1.00  0.00    -0.274 OA
ATOM      5  H   UNL     1       4.437  -6.500  -0.993  1.00  0.00     0.163 HD
BRANCH   3   6
ATOM      6  C   UNL     1       1.157  -7.190  -0.630  1.00  0.00     0.176 C 
BRANCH   6   7
ATOM      7  S   UNL     1       0.215  -6.461  -2.003  1.00  0.00    -0.096 SA
BRANCH   7   8
ATOM      8  C   UNL     1       0.137  -4.715  -1.664  1.00  0.00     0.101 A 
ATOM      9  C   UNL     1       0.467  -2.739  -0.424  1.00  0.00     0.071 A 
ATOM     10  C   UNL     1       0.462  -4.122  -0.465  1.00  0.00     0.062 A 
ATOM     11  N   UNL     1       0.131  -2.002  -1.500  1.00  0.00    -0.230 NA
ATOM     12  C   UNL     1      -0.273  -2.659  -2.595  1.00  0.00     0.162 A 
ATOM     13  N   UNL     1      -0.270  -3.993  -2.727  1.00  0.00    -0.222 NA
BRANCH   9  14
ATOM     14  C   UNL     1       0.956  -2.033   0.828  1.00  0.00     0.215 C 
BRANCH  14  15
ATOM     15  O   UNL     1       0.450  -0.708   1.009  1.00  0.00    -0.378 OA
ATOM     16  C   UNL     1       1.176   0.277   0.284  1.00  0.00     0.195 C 
ENDBRANCH  14  15
ENDBRANCH   9  14
BRANCH  12  17
ATOM     17  C   UNL     1      -0.757  -1.854  -3.708  1.00  0.00     0.038 A 
ATOM     18  C   UNL     1      -1.982  -2.104  -4.340  1.00  0.00     0.015 A 
ATOM     19  C   UNL     1      -0.033  -0.759  -4.174  1.00  0.00     0.123 A 
ATOM     20  C   UNL     1      -2.425  -1.273  -5.368  1.00  0.00     0.021 A 
ATOM     21  N   UNL     1      -0.424   0.057  -5.186  1.00  0.00    -0.264 NA
ATOM     22  C   UNL     1      -1.616  -0.217  -5.754  1.00  0.00     0.111 A 
ENDBRANCH  12  17
ENDBRANCH   7   8
ENDBRANCH   6   7
ENDBRANCH   3   6
ENDBRANCH   1   2
BRANCH   1  23
ATOM     23  C   UNL     1       3.706  -6.562  -3.724  1.00  0.00     0.042 C 
BRANCH  23  24
ATOM     24  C   UNL     1       5.009  -5.762  -3.725  1.00  0.00     0.118 C 
BRANCH  24  25
ATOM     25  N   UNL     1       6.192  -6.597  -3.874  1.00  0.00    -0.352 N 
ATOM     26  C   UNL     1       7.199  -6.551  -4.805  1.00  0.00     0.251 C 
ATOM     27  H   UNL     1       6.285  -7.308  -3.199  1.00  0.00     0.163 HD
ATOM     28  O   UNL     1       8.031  -7.460  -4.840  1.00  0.00    -0.269 OA
BRANCH  26  29
ATOM     29  C   UNL     1       7.291  -5.444  -5.781  1.00  0.00     0.039 A 
ATOM     30  C   UNL     1       7.614  -5.746  -7.108  1.00  0.00     0.014 A 
ATOM     31  C   UNL     1       7.102  -4.114  -5.398  1.00  0.00     0.014 A 
ATOM     32  C   UNL     1       7.681  -4.727  -8.061  1.00  0.00     0.010 A 
ATOM     33  C   UNL     1       7.104  -3.105  -6.361  1.00  0.00     0.010 A 
ATOM     34  C   UNL     1       7.391  -3.401  -7.702  1.00  0.00    -0.014 A 
BRANCH  34  35
ATOM     35  C   UNL     1       7.366  -2.317  -8.719  1.00  0.00     0.031 A 
ATOM     36  C   UNL     1       8.356  -1.189  -8.656  1.00  0.00     0.074 A 
ATOM     37  C   UNL     1       6.400  -2.311  -9.657  1.00  0.00     0.049 A 
ATOM     38  N   UNL     1       8.438  -0.115  -9.401  1.00  0.00    -0.248 NA
ATOM     39  C   UNL     1       9.377  -1.265  -7.600  1.00  0.00     0.031 C 
ATOM     40  C   UNL     1       5.350  -3.321  -9.795  1.00  0.00     0.029 A 
ATOM     41  N   UNL     1       6.132  -1.415 -10.662  1.00  0.00    -0.354 N 
ATOM     42  C   UNL     1       9.500   0.620  -8.893  1.00  0.00     0.074 A 
ATOM     43  C   UNL     1      10.009  -0.110  -7.751  1.00  0.00     0.031 C 
ATOM     44  C   UNL     1       4.560  -2.996 -10.830  1.00  0.00     0.029 A 
ATOM     45  C   UNL     1       5.024  -1.737 -11.406  1.00  0.00     0.049 A 
ATOM     46  H   UNL     1       6.683  -0.617 -10.834  1.00  0.00     0.167 HD
ATOM     47  C   UNL     1      10.015   1.788  -9.348  1.00  0.00     0.037 A 
ATOM     48  C   UNL     1       4.438  -1.085 -12.428  1.00  0.00     0.037 A 
ATOM     49  C   UNL     1       9.526   2.498 -10.501  1.00  0.00     0.049 A 
ATOM     50  C   UNL     1       5.032   0.206 -12.918  1.00  0.00     0.074 A 
ATOM     51  C   UNL     1      10.030   3.647 -11.085  1.00  0.00     0.029 A 
ATOM     52  N   UNL     1       8.415   2.127 -11.244  1.00  0.00    -0.354 N 
ATOM     53  N   UNL     1       6.083   0.853 -12.476  1.00  0.00    -0.248 NA
ATOM     54  C   UNL     1       4.362   0.855 -14.054  1.00  0.00     0.031 C 
ATOM     55  C   UNL     1       9.198   3.997 -12.154  1.00  0.00     0.029 A 
ATOM     56  C   UNL     1       8.203   3.039 -12.267  1.00  0.00     0.049 A 
ATOM     57  H   UNL     1       7.859   1.333 -11.071  1.00  0.00     0.167 HD
ATOM     58  C   UNL     1       6.213   1.970 -13.289  1.00  0.00     0.074 A 
ATOM     59  C   UNL     1       5.144   1.905 -14.263  1.00  0.00     0.031 C 
ATOM     60  C   UNL     1       7.136   2.961 -13.231  1.00  0.00     0.037 A 
BRANCH  47  61
ATOM     61  C   UNL     1      11.173   2.376  -8.594  1.00  0.00     0.064 A 
ATOM     62  C   UNL     1      12.447   1.789  -8.627  1.00  0.00     0.173 A 
ATOM     63  C   UNL     1      11.016   3.561  -7.860  1.00  0.00     0.173 A 
ATOM     64  F   UNL     1      12.648   0.650  -9.307  1.00  0.00    -0.203 F 
ATOM     65  C   UNL     1      13.513   2.350  -7.929  1.00  0.00     0.198 A 
ATOM     66  C   UNL     1      12.091   4.135  -7.187  1.00  0.00     0.198 A 
ATOM     67  F   UNL     1       9.821   4.167  -7.802  1.00  0.00    -0.203 F 
ATOM     68  F   UNL     1      14.709   1.745  -7.936  1.00  0.00    -0.200 F 
ATOM     69  C   UNL     1      13.336   3.526  -7.215  1.00  0.00     0.200 A 
ATOM     70  F   UNL     1      11.921   5.278  -6.508  1.00  0.00    -0.200 F 
ATOM     71  F   UNL     1      14.364   4.067  -6.548  1.00  0.00    -0.200 F 
ENDBRANCH  47  61
BRANCH  48  72
ATOM     72  C   UNL     1       3.227  -1.658 -13.070  1.00  0.00     0.064 A 
ATOM     73  C   UNL     1       3.287  -2.199 -14.362  1.00  0.00     0.173 A 
ATOM     74  C   UNL     1       1.992  -1.685 -12.407  1.00  0.00     0.173 A 
ATOM     75  F   UNL     1       4.442  -2.176 -15.044  1.00  0.00    -0.203 F 
ATOM     76  C   UNL     1       2.154  -2.732 -14.972  1.00  0.00     0.198 A 
ATOM     77  C   UNL     1       0.865  -2.241 -13.008  1.00  0.00     0.198 A 
ATOM     78  F   UNL     1       1.884  -1.183 -11.169  1.00  0.00    -0.203 F 
ATOM     79  F   UNL     1       2.230  -3.207 -16.223  1.00  0.00    -0.200 F 
ATOM     80  C   UNL     1       0.945  -2.758 -14.293  1.00  0.00     0.200 A 
ATOM     81  F   UNL     1      -0.298  -2.277 -12.344  1.00  0.00    -0.200 F 
ATOM     82  F   UNL     1      -0.143  -3.276 -14.878  1.00  0.00    -0.200 F 
ENDBRANCH  48  72
BRANCH  60  83
ATOM     83  C   UNL     1       7.048   4.043 -14.268  1.00  0.00     0.064 A 
ATOM     84  C   UNL     1       6.037   5.014 -14.232  1.00  0.00     0.173 A 
ATOM     85  C   UNL     1       8.009   4.130 -15.287  1.00  0.00     0.173 A 
ATOM     86  F   UNL     1       5.086   4.965 -13.288  1.00  0.00    -0.203 F 
ATOM     87  C   UNL     1       5.978   6.020 -15.193  1.00  0.00     0.198 A 
ATOM     88  C   UNL     1       7.962   5.153 -16.230  1.00  0.00     0.198 A 
ATOM     89  F   UNL     1       8.999   3.228 -15.362  1.00  0.00    -0.203 F 
ATOM     90  F   UNL     1       4.978   6.912 -15.167  1.00  0.00    -0.200 F 
ATOM     91  C   UNL     1       6.944   6.093 -16.186  1.00  0.00     0.200 A 
ATOM     92  F   UNL     1       8.903   5.229 -17.181  1.00  0.00    -0.200 F 
ATOM     93  F   UNL     1       6.889   7.066 -17.106  1.00  0.00    -0.200 F 
ENDBRANCH  60  83
ENDBRANCH  34  35
ENDBRANCH  26  29
ENDBRANCH  24  25
ENDBRANCH  23  24
ENDBRANCH   1  23
TORSDOF 15
