REMARK SMILES CC[C@H](c1ccc(OC)cc1)[N@H+]1CC[C@H](C(=O)NCCCNC(=O)c2ccc(-c3c4nc(c(-c5c(F)c(F)c(F)c(F)c5F)c5ccc([nH]5)c(-c5c(F)c(F)c(F)c(F)c5F)c5nc(c(-c6c(F)c(F)c(F)c(F)c6F)c6ccc3[nH]6)C=C5)C=C4)cc2)[C@@H]1C
REMARK SMILES IDX 19 1 18 2 16 3 17 4 15 6 12 7 13 8 88 9 14 11 89 12 3 13
REMARK SMILES IDX 2 14 1 15 4 16 5 17 11 18 6 19 10 20 7 21 8 22 9 23 20 24
REMARK SMILES IDX 21 25 22 26 23 27 24 29 25 30 26 31 87 32 27 33 86 34 28 35
REMARK SMILES IDX 29 36 30 37 80 38 31 39 85 40 79 41 81 42 32 43 84 44 78 45
REMARK SMILES IDX 77 46 33 48 65 49 45 50 64 51 46 52 49 53 63 54 82 55 47 56
REMARK SMILES IDX 48 57 62 59 83 60 50 61 34 62 35 63 43 64 36 65 37 66 41 67
REMARK SMILES IDX 44 68 38 69 39 70 42 71 40 72 66 73 67 74 75 75 68 76 69 77
REMARK SMILES IDX 73 78 76 79 70 80 71 81 74 82 72 83 51 84 52 85 60 86 53 87
REMARK SMILES IDX 54 88 58 89 61 90 55 91 56 92 59 93 57 94
REMARK H PARENT 18 5 12 10 22 28 81 47 49 58
REMARK Flexibility Score: inf
ROOT
ATOM      1  C   UNL     1       0.188   7.005   4.176  1.00  0.00     0.117 C 
ENDROOT
BRANCH   1   2
ATOM      2  N   UNL     1       0.604   6.019   5.153  1.00  0.00    -0.356 N 
ATOM      3  C   UNL     1       1.010   4.725   5.019  1.00  0.00     0.229 C 
ATOM      4  O   UNL     1       0.926   4.050   6.050  1.00  0.00    -0.275 OA
ATOM      5  H   UNL     1       0.592   6.343   6.082  1.00  0.00     0.163 HD
BRANCH   3   6
ATOM      6  C   UNL     1       1.717   4.195   3.759  1.00  0.00     0.142 C 
ATOM      7  N   UNL     1       0.770   2.466   2.280  1.00  0.00    -0.326 N 
ATOM      8  C   UNL     1       1.267   1.849   3.516  1.00  0.00     0.264 C 
ATOM      9  C   UNL     1       1.020   3.922   2.410  1.00  0.00     0.194 C 
ATOM     10  H   UNL     1      -0.229   2.289   2.173  1.00  0.00     0.348 HD
ATOM     11  C   UNL     1       2.320   2.807   4.045  1.00  0.00     0.081 C 
ATOM     12  C   UNL     1      -0.287   4.601   2.061  1.00  0.00     0.076 C 
BRANCH   7  13
ATOM     13  C   UNL     1       1.315   1.860   1.035  1.00  0.00     0.215 C 
BRANCH  13  14
ATOM     14  C   UNL     1       0.920   2.651  -0.259  1.00  0.00     0.067 C 
ATOM     15  C   UNL     1       1.552   2.136  -1.549  1.00  0.00     0.010 C 
ENDBRANCH  13  14
BRANCH  13  16
ATOM     16  C   UNL     1       0.820   0.426   0.821  1.00  0.00     0.010 A 
ATOM     17  C   UNL     1      -0.545   0.107   0.916  1.00  0.00     0.014 A 
ATOM     18  C   UNL     1       1.706  -0.541   0.321  1.00  0.00     0.014 A 
ATOM     19  C   UNL     1      -1.023  -1.105   0.413  1.00  0.00     0.047 A 
ATOM     20  C   UNL     1       1.223  -1.744  -0.196  1.00  0.00     0.047 A 
ATOM     21  C   UNL     1      -0.148  -1.997  -0.203  1.00  0.00     0.118 A 
BRANCH  21  22
ATOM     22  O   UNL     1      -0.713  -3.094  -0.797  1.00  0.00    -0.497 OA
ATOM     23  C   UNL     1      -0.145  -3.396  -2.073  1.00  0.00     0.278 C 
ENDBRANCH  21  22
ENDBRANCH  13  16
ENDBRANCH   7  13
ENDBRANCH   3   6
ENDBRANCH   1   2
BRANCH   1  24
ATOM     24  C   UNL     1      -1.325   6.891   3.959  1.00  0.00     0.042 C 
BRANCH  24  25
ATOM     25  C   UNL     1      -2.160   7.635   4.991  1.00  0.00     0.118 C 
BRANCH  25  26
ATOM     26  N   UNL     1      -2.375   9.020   4.610  1.00  0.00    -0.352 N 
ATOM     27  C   UNL     1      -3.525   9.650   4.205  1.00  0.00     0.251 C 
ATOM     28  H   UNL     1      -1.575   9.593   4.649  1.00  0.00     0.163 HD
ATOM     29  O   UNL     1      -3.447  10.765   3.684  1.00  0.00    -0.269 OA
BRANCH  27  30
ATOM     30  C   UNL     1      -4.855   9.017   4.371  1.00  0.00     0.039 A 
ATOM     31  C   UNL     1      -5.822   9.204   3.376  1.00  0.00     0.014 A 
ATOM     32  C   UNL     1      -5.184   8.293   5.520  1.00  0.00     0.014 A 
ATOM     33  C   UNL     1      -7.089   8.626   3.508  1.00  0.00     0.010 A 
ATOM     34  C   UNL     1      -6.417   7.651   5.615  1.00  0.00     0.010 A 
ATOM     35  C   UNL     1      -7.389   7.821   4.618  1.00  0.00    -0.014 A 
BRANCH  35  36
ATOM     36  C   UNL     1      -8.715   7.168   4.777  1.00  0.00     0.031 A 
ATOM     37  C   UNL     1      -9.599   7.540   5.937  1.00  0.00     0.074 A 
ATOM     38  C   UNL     1      -9.088   6.188   3.933  1.00  0.00     0.049 A 
ATOM     39  N   UNL     1     -10.722   6.997   6.333  1.00  0.00    -0.248 NA
ATOM     40  C   UNL     1      -9.142   8.655   6.782  1.00  0.00     0.031 C 
ATOM     41  C   UNL     1      -8.306   5.711   2.792  1.00  0.00     0.029 A 
ATOM     42  N   UNL     1     -10.212   5.399   3.918  1.00  0.00    -0.354 N 
ATOM     43  C   UNL     1     -11.088   7.681   7.485  1.00  0.00     0.074 A 
ATOM     44  C   UNL     1     -10.048   8.652   7.749  1.00  0.00     0.031 C 
ATOM     45  C   UNL     1      -8.976   4.720   2.183  1.00  0.00     0.029 A 
ATOM     46  C   UNL     1     -10.213   4.462   2.913  1.00  0.00     0.049 A 
ATOM     47  H   UNL     1     -10.948   5.496   4.565  1.00  0.00     0.167 HD
ATOM     48  C   UNL     1     -12.199   7.527   8.243  1.00  0.00     0.037 A 
ATOM     49  C   UNL     1     -11.102   3.490   2.627  1.00  0.00     0.037 A 
ATOM     50  C   UNL     1     -13.252   6.590   7.953  1.00  0.00     0.049 A 
ATOM     51  C   UNL     1     -12.326   3.335   3.488  1.00  0.00     0.074 A 
ATOM     52  C   UNL     1     -14.457   6.415   8.611  1.00  0.00     0.029 A 
ATOM     53  N   UNL     1     -13.223   5.669   6.917  1.00  0.00    -0.354 N 
ATOM     54  N   UNL     1     -12.690   4.029   4.538  1.00  0.00    -0.248 NA
ATOM     55  C   UNL     1     -13.260   2.259   3.126  1.00  0.00     0.031 C 
ATOM     56  C   UNL     1     -15.139   5.359   7.997  1.00  0.00     0.029 A 
ATOM     57  C   UNL     1     -14.378   4.904   6.932  1.00  0.00     0.049 A 
ATOM     58  H   UNL     1     -12.490   5.573   6.266  1.00  0.00     0.167 HD
ATOM     59  C   UNL     1     -13.900   3.488   4.952  1.00  0.00     0.074 A 
ATOM     60  C   UNL     1     -14.217   2.418   4.030  1.00  0.00     0.031 C 
ATOM     61  C   UNL     1     -14.677   3.845   6.004  1.00  0.00     0.037 A 
BRANCH  48  62
ATOM     62  C   UNL     1     -12.339   8.394   9.461  1.00  0.00     0.064 A 
ATOM     63  C   UNL     1     -12.593   9.770   9.359  1.00  0.00     0.173 A 
ATOM     64  C   UNL     1     -12.255   7.836  10.745  1.00  0.00     0.173 A 
ATOM     65  F   UNL     1     -12.672  10.355   8.154  1.00  0.00    -0.203 F 
ATOM     66  C   UNL     1     -12.729  10.560  10.498  1.00  0.00     0.198 A 
ATOM     67  C   UNL     1     -12.420   8.623  11.882  1.00  0.00     0.198 A 
ATOM     68  F   UNL     1     -12.021   6.524  10.899  1.00  0.00    -0.203 F 
ATOM     69  F   UNL     1     -12.925  11.880  10.376  1.00  0.00    -0.200 F 
ATOM     70  C   UNL     1     -12.649   9.985  11.758  1.00  0.00     0.200 A 
ATOM     71  F   UNL     1     -12.355   8.065  13.098  1.00  0.00    -0.200 F 
ATOM     72  F   UNL     1     -12.787  10.746  12.852  1.00  0.00    -0.200 F 
ENDBRANCH  48  62
BRANCH  49  73
ATOM     73  C   UNL     1     -10.869   2.594   1.465  1.00  0.00     0.064 A 
ATOM     74  C   UNL     1     -11.665   2.686   0.316  1.00  0.00     0.173 A 
ATOM     75  C   UNL     1      -9.847   1.633   1.476  1.00  0.00     0.173 A 
ATOM     76  F   UNL     1     -12.670   3.574   0.268  1.00  0.00    -0.203 F 
ATOM     77  C   UNL     1     -11.457   1.844  -0.774  1.00  0.00     0.198 A 
ATOM     78  C   UNL     1      -9.623   0.809   0.375  1.00  0.00     0.198 A 
ATOM     79  F   UNL     1      -9.056   1.506   2.551  1.00  0.00    -0.203 F 
ATOM     80  F   UNL     1     -12.257   1.928  -1.846  1.00  0.00    -0.200 F 
ATOM     81  C   UNL     1     -10.431   0.911  -0.747  1.00  0.00     0.200 A 
ATOM     82  F   UNL     1      -8.623  -0.084   0.401  1.00  0.00    -0.200 F 
ATOM     83  F   UNL     1     -10.227   0.105  -1.798  1.00  0.00    -0.200 F 
ENDBRANCH  49  73
BRANCH  61  84
ATOM     84  C   UNL     1     -15.953   3.085   6.206  1.00  0.00     0.064 A 
ATOM     85  C   UNL     1     -15.952   1.780   6.720  1.00  0.00     0.173 A 
ATOM     86  C   UNL     1     -17.191   3.688   5.940  1.00  0.00     0.173 A 
ATOM     87  F   UNL     1     -14.792   1.156   6.975  1.00  0.00    -0.203 F 
ATOM     88  C   UNL     1     -17.146   1.102   6.948  1.00  0.00     0.198 A 
ATOM     89  C   UNL     1     -18.383   3.017   6.193  1.00  0.00     0.198 A 
ATOM     90  F   UNL     1     -17.243   4.937   5.452  1.00  0.00    -0.203 F 
ATOM     91  F   UNL     1     -17.122  -0.156   7.409  1.00  0.00    -0.200 F 
ATOM     92  C   UNL     1     -18.360   1.724   6.693  1.00  0.00     0.200 A 
ATOM     93  F   UNL     1     -19.555   3.623   5.957  1.00  0.00    -0.200 F 
ATOM     94  F   UNL     1     -19.509   1.073   6.926  1.00  0.00    -0.200 F 
ENDBRANCH  61  84
ENDBRANCH  35  36
ENDBRANCH  27  30
ENDBRANCH  25  26
ENDBRANCH  24  25
ENDBRANCH   1  24
TORSDOF 14
