REMARK SMILES Cc1nc(Nc2ccc(C(=O)NCCCNC(=O)c3ccc(-c4c5nc(c(-c6c(F)c(F)c(F)c(F)c6F)c6ccc([nH]6)c(-c6c(F)c(F)c(F)c(F)c6F)c6nc(c(-c7c(F)c(F)c(F)c(F)c7F)c7ccc4[nH]7)C=C6)C=C5)cc3)cc2)c2c(C)c(C)sc2n1
REMARK SMILES IDX 14 1 13 2 12 3 10 4 11 5 9 7 6 8 7 9 83 10 8 11 82 12 5 13
REMARK SMILES IDX 4 15 1 16 2 17 3 18 91 19 90 20 84 21 89 22 85 23 87 24
REMARK SMILES IDX 86 25 88 26 15 27 16 28 17 29 18 31 19 32 20 33 81 34 21 35
REMARK SMILES IDX 80 36 22 37 23 38 24 39 74 40 25 41 79 42 73 43 75 44 26 45
REMARK SMILES IDX 78 46 72 47 71 48 27 50 59 51 39 52 58 53 40 54 43 55 57 56
REMARK SMILES IDX 76 57 41 58 42 59 56 61 77 62 44 63 28 64 29 65 37 66 30 67
REMARK SMILES IDX 31 68 35 69 38 70 32 71 33 72 36 73 34 74 60 75 61 76 69 77
REMARK SMILES IDX 62 78 63 79 67 80 70 81 64 82 65 83 68 84 66 85 45 86 46 87
REMARK SMILES IDX 54 88 47 89 48 90 52 91 55 92 49 93 50 94 53 95 51 96
REMARK H PARENT 12 6 5 14 16 30 75 49 43 60
REMARK Flexibility Score: inf
ROOT
ATOM      1  C   UNL     1       0.819  -2.565 -11.224  1.00  0.00     0.042 C 
ENDROOT
BRANCH   1   2
ATOM      2  C   UNL     1      -0.438  -2.059 -10.502  1.00  0.00     0.118 C 
BRANCH   2   3
ATOM      3  N   UNL     1      -1.417  -3.122 -10.359  1.00  0.00    -0.352 N 
ATOM      4  C   UNL     1      -1.788  -3.939  -9.323  1.00  0.00     0.251 C 
ATOM      5  O   UNL     1      -2.689  -4.751  -9.556  1.00  0.00    -0.269 OA
ATOM      6  H   UNL     1      -1.925  -3.292 -11.186  1.00  0.00     0.163 HD
BRANCH   4   7
ATOM      7  C   UNL     1      -1.255  -3.838  -7.933  1.00  0.00     0.039 A 
ATOM      8  C   UNL     1      -0.681  -3.287  -5.226  1.00  0.00     0.040 A 
ATOM      9  C   UNL     1      -1.796  -4.056  -5.563  1.00  0.00     0.027 A 
ATOM     10  C   UNL     1       0.236  -2.966  -6.232  1.00  0.00     0.027 A 
ATOM     11  C   UNL     1      -2.098  -4.296  -6.906  1.00  0.00     0.016 A 
ATOM     12  C   UNL     1      -0.029  -3.275  -7.575  1.00  0.00     0.016 A 
BRANCH   8  13
ATOM     13  N   UNL     1      -0.573  -2.786  -3.928  1.00  0.00    -0.340 N 
ATOM     14  H   UNL     1      -0.683  -3.459  -3.218  1.00  0.00     0.168 HD
BRANCH  13  15
ATOM     15  C   UNL     1      -0.332  -1.485  -3.468  1.00  0.00     0.143 A 
ATOM     16  C   UNL     1       0.978  -0.203  -0.262  1.00  0.00     0.090 C 
ATOM     17  C   UNL     1       0.505  -0.224  -1.683  1.00  0.00     0.129 A 
ATOM     18  N   UNL     1       0.158  -1.414  -2.204  1.00  0.00    -0.215 NA
ATOM     19  N   UNL     1       0.490   0.943  -2.328  1.00  0.00    -0.222 NA
ATOM     20  C   UNL     1      -0.066   0.863  -3.545  1.00  0.00     0.129 A 
ATOM     21  C   UNL     1      -0.577  -0.270  -4.162  1.00  0.00     0.057 A 
ATOM     22  S   UNL     1      -0.177   2.263  -4.503  1.00  0.00    -0.120 S 
ATOM     23  C   UNL     1      -1.326   0.129  -5.351  1.00  0.00    -0.024 A 
ATOM     24  C   UNL     1      -1.060   1.444  -5.707  1.00  0.00     0.007 A 
ATOM     25  C   UNL     1      -2.309  -0.706  -6.106  1.00  0.00     0.046 C 
ATOM     26  C   UNL     1      -1.514   2.185  -6.924  1.00  0.00     0.057 C 
ENDBRANCH  13  15
ENDBRANCH   8  13
ENDBRANCH   4   7
ENDBRANCH   2   3
ENDBRANCH   1   2
BRANCH   1  27
ATOM     27  C   UNL     1       0.688  -2.557 -12.757  1.00  0.00     0.118 C 
BRANCH  27  28
ATOM     28  N   UNL     1       0.663  -1.190 -13.257  1.00  0.00    -0.352 N 
ATOM     29  C   UNL     1       1.312  -0.588 -14.292  1.00  0.00     0.251 C 
ATOM     30  H   UNL     1       0.066  -0.590 -12.754  1.00  0.00     0.163 HD
ATOM     31  O   UNL     1       1.343   0.650 -14.304  1.00  0.00    -0.269 OA
BRANCH  29  32
ATOM     32  C   UNL     1       1.960  -1.324 -15.397  1.00  0.00     0.039 A 
ATOM     33  C   UNL     1       3.085  -0.727 -15.983  1.00  0.00     0.014 A 
ATOM     34  C   UNL     1       1.409  -2.471 -15.978  1.00  0.00     0.014 A 
ATOM     35  C   UNL     1       3.655  -1.269 -17.132  1.00  0.00     0.010 A 
ATOM     36  C   UNL     1       1.989  -3.021 -17.131  1.00  0.00     0.010 A 
ATOM     37  C   UNL     1       3.111  -2.420 -17.717  1.00  0.00    -0.014 A 
BRANCH  37  38
ATOM     38  C   UNL     1       3.814  -2.980 -18.886  1.00  0.00     0.031 A 
ATOM     39  C   UNL     1       4.095  -4.444 -18.864  1.00  0.00     0.074 A 
ATOM     40  C   UNL     1       3.791  -2.376 -20.093  1.00  0.00     0.049 A 
ATOM     41  N   UNL     1       3.241  -5.344 -19.262  1.00  0.00    -0.248 NA
ATOM     42  C   UNL     1       5.275  -4.996 -18.202  1.00  0.00     0.031 C 
ATOM     43  C   UNL     1       2.631  -1.650 -20.620  1.00  0.00     0.029 A 
ATOM     44  N   UNL     1       4.645  -2.486 -21.166  1.00  0.00    -0.354 N 
ATOM     45  C   UNL     1       3.731  -6.572 -18.862  1.00  0.00     0.074 A 
ATOM     46  C   UNL     1       5.001  -6.309 -18.220  1.00  0.00     0.031 C 
ATOM     47  C   UNL     1       2.771  -1.533 -21.957  1.00  0.00     0.029 A 
ATOM     48  C   UNL     1       4.090  -2.018 -22.353  1.00  0.00     0.049 A 
ATOM     49  H   UNL     1       5.555  -2.856 -21.101  1.00  0.00     0.167 HD
ATOM     50  C   UNL     1       3.073  -7.742 -19.073  1.00  0.00     0.037 A 
ATOM     51  C   UNL     1       4.408  -2.469 -23.597  1.00  0.00     0.037 A 
ATOM     52  C   UNL     1       1.841  -7.652 -19.795  1.00  0.00     0.049 A 
ATOM     53  C   UNL     1       3.819  -3.856 -23.559  1.00  0.00     0.074 A 
ATOM     54  C   UNL     1       0.499  -7.540 -19.504  1.00  0.00     0.029 A 
ATOM     55  N   UNL     1       1.902  -7.620 -21.168  1.00  0.00    -0.354 N 
ATOM     56  N   UNL     1       2.561  -4.163 -23.741  1.00  0.00    -0.248 NA
ATOM     57  C   UNL     1       4.625  -4.917 -22.951  1.00  0.00     0.031 C 
ATOM     58  C   UNL     1      -0.101  -6.986 -20.679  1.00  0.00     0.029 A 
ATOM     59  C   UNL     1       0.931  -6.747 -21.584  1.00  0.00     0.049 A 
ATOM     60  H   UNL     1       2.522  -8.126 -21.741  1.00  0.00     0.167 HD
ATOM     61  C   UNL     1       2.366  -5.347 -23.026  1.00  0.00     0.074 A 
ATOM     62  C   UNL     1       3.679  -5.774 -22.594  1.00  0.00     0.031 C 
ATOM     63  C   UNL     1       1.136  -5.811 -22.664  1.00  0.00     0.037 A 
BRANCH  50  64
ATOM     64  C   UNL     1       3.612  -9.074 -18.747  1.00  0.00     0.064 A 
ATOM     65  C   UNL     1       4.125  -9.858 -19.789  1.00  0.00     0.173 A 
ATOM     66  C   UNL     1       3.436  -9.664 -17.493  1.00  0.00     0.173 A 
ATOM     67  F   UNL     1       4.298  -9.321 -21.008  1.00  0.00    -0.203 F 
ATOM     68  C   UNL     1       4.410 -11.204 -19.598  1.00  0.00     0.198 A 
ATOM     69  C   UNL     1       3.731 -11.013 -17.301  1.00  0.00     0.198 A 
ATOM     70  F   UNL     1       2.938  -8.951 -16.472  1.00  0.00    -0.203 F 
ATOM     71  F   UNL     1       4.852 -11.942 -20.625  1.00  0.00    -0.200 F 
ATOM     72  C   UNL     1       4.202 -11.784 -18.357  1.00  0.00     0.200 A 
ATOM     73  F   UNL     1       3.529 -11.579 -16.103  1.00  0.00    -0.200 F 
ATOM     74  F   UNL     1       4.444 -13.091 -18.182  1.00  0.00    -0.200 F 
ENDBRANCH  50  64
BRANCH  51  75
ATOM     75  C   UNL     1       5.807  -2.172 -24.050  1.00  0.00     0.064 A 
ATOM     76  C   UNL     1       6.281  -0.845 -23.944  1.00  0.00     0.173 A 
ATOM     77  C   UNL     1       6.709  -3.100 -24.591  1.00  0.00     0.173 A 
ATOM     78  F   UNL     1       5.453   0.137 -23.554  1.00  0.00    -0.203 F 
ATOM     79  C   UNL     1       7.603  -0.503 -24.231  1.00  0.00     0.198 A 
ATOM     80  C   UNL     1       8.042  -2.764 -24.852  1.00  0.00     0.198 A 
ATOM     81  F   UNL     1       6.330  -4.354 -24.869  1.00  0.00    -0.203 F 
ATOM     82  F   UNL     1       8.015   0.763 -24.078  1.00  0.00    -0.200 F 
ATOM     83  C   UNL     1       8.493  -1.472 -24.654  1.00  0.00     0.200 A 
ATOM     84  F   UNL     1       8.892  -3.709 -25.277  1.00  0.00    -0.200 F 
ATOM     85  F   UNL     1       9.777  -1.162 -24.876  1.00  0.00    -0.200 F 
ENDBRANCH  51  75
BRANCH  63  86
ATOM     86  C   UNL     1      -0.024  -5.092 -23.256  1.00  0.00     0.064 A 
ATOM     87  C   UNL     1      -0.341  -5.264 -24.609  1.00  0.00     0.173 A 
ATOM     88  C   UNL     1      -0.854  -4.267 -22.482  1.00  0.00     0.173 A 
ATOM     89  F   UNL     1       0.419  -6.052 -25.388  1.00  0.00    -0.203 F 
ATOM     90  C   UNL     1      -1.461  -4.652 -25.162  1.00  0.00     0.198 A 
ATOM     91  C   UNL     1      -1.988  -3.679 -23.032  1.00  0.00     0.198 A 
ATOM     92  F   UNL     1      -0.587  -4.049 -21.184  1.00  0.00    -0.203 F 
ATOM     93  F   UNL     1      -1.754  -4.838 -26.457  1.00  0.00    -0.200 F 
ATOM     94  C   UNL     1      -2.291  -3.873 -24.370  1.00  0.00     0.200 A 
ATOM     95  F   UNL     1      -2.800  -2.942 -22.260  1.00  0.00    -0.200 F 
ATOM     96  F   UNL     1      -3.394  -3.319 -24.894  1.00  0.00    -0.200 F 
ENDBRANCH  63  86
ENDBRANCH  37  38
ENDBRANCH  29  32
ENDBRANCH  27  28
ENDBRANCH   1  27
TORSDOF 12
