REMARK SMILES C/C(=C/C[NH+]1C[C@@H](C)[C@H](C)C1)C(=O)NCCCNC(=O)c1ccc(-c2c3nc(c(-c4c(F)c(F)c(F)c(F)c4F)c4ccc([nH]4)c(-c4c(F)c(F)c(F)c(F)c4F)c4nc(c(-c5c(F)c(F)c(F)c(F)c5F)c5ccc2[nH]5)C=C4)C=C3)cc1
REMARK SMILES IDX 16 1 15 2 14 3 12 4 13 5 2 7 1 8 3 9 4 10 5 11 6 12 11 13
REMARK SMILES IDX 7 15 9 16 8 17 10 18 17 19 18 20 19 21 20 23 21 24 22 25
REMARK SMILES IDX 83 26 23 27 82 28 24 29 25 30 26 31 76 32 27 33 81 34 75 35
REMARK SMILES IDX 77 36 28 37 80 38 74 39 73 40 29 42 61 43 41 44 60 45 42 46
REMARK SMILES IDX 45 47 59 48 78 49 43 50 44 51 58 53 79 54 46 55 30 56 31 57
REMARK SMILES IDX 39 58 32 59 33 60 37 61 40 62 34 63 35 64 38 65 36 66 62 67
REMARK SMILES IDX 63 68 71 69 64 70 65 71 69 72 72 73 66 74 67 75 70 76 68 77
REMARK SMILES IDX 47 78 48 79 56 80 49 81 50 82 54 83 57 84 51 85 52 86 55 87
REMARK SMILES IDX 53 88
REMARK H PARENT 14 6 5 14 18 22 77 41 45 52
REMARK Flexibility Score: inf
ROOT
ATOM      1  C   UNL     1      -1.412   1.029   4.720  1.00  0.00     0.042 C 
ENDROOT
BRANCH   1   2
ATOM      2  C   UNL     1       0.102   0.925   4.524  1.00  0.00     0.118 C 
BRANCH   2   3
ATOM      3  N   UNL     1       0.483  -0.041   3.514  1.00  0.00    -0.352 N 
ATOM      4  C   UNL     1       0.709  -0.138   2.193  1.00  0.00     0.246 C 
ATOM      5  O   UNL     1       1.192  -1.240   1.886  1.00  0.00    -0.270 OA
ATOM      6  H   UNL     1       0.622  -0.919   3.936  1.00  0.00     0.163 HD
BRANCH   4   7
ATOM      7  C   UNL     1       0.462   0.851   1.071  1.00  0.00     0.015 C 
ATOM      8  C   UNL     1       0.844   0.196  -0.255  1.00  0.00     0.050 C 
ATOM      9  C   UNL     1      -0.044   2.102   0.975  1.00  0.00     0.042 C 
BRANCH   9  10
ATOM     10  C   UNL     1      -0.654   2.995   1.989  1.00  0.00     0.291 C 
BRANCH  10  11
ATOM     11  N   UNL     1      -0.023   4.306   2.120  1.00  0.00    -0.331 N 
ATOM     12  C   UNL     1      -0.872   5.389   1.608  1.00  0.00     0.266 C 
ATOM     13  C   UNL     1       0.195   4.648   3.538  1.00  0.00     0.266 C 
ATOM     14  H   UNL     1       0.847   4.234   1.593  1.00  0.00     0.348 HD
ATOM     15  C   UNL     1      -0.225   6.633   2.214  1.00  0.00     0.049 C 
ATOM     16  C   UNL     1       0.225   6.174   3.608  1.00  0.00     0.049 C 
ATOM     17  C   UNL     1      -1.181   7.817   2.277  1.00  0.00     0.014 C 
ATOM     18  C   UNL     1       1.600   6.710   3.985  1.00  0.00     0.014 C 
ENDBRANCH  10  11
ENDBRANCH   9  10
ENDBRANCH   4   7
ENDBRANCH   2   3
ENDBRANCH   1   2
BRANCH   1  19
ATOM     19  C   UNL     1      -1.799   1.252   6.171  1.00  0.00     0.118 C 
BRANCH  19  20
ATOM     20  N   UNL     1      -1.223   2.441   6.782  1.00  0.00    -0.352 N 
ATOM     21  C   UNL     1      -1.703   3.178   7.845  1.00  0.00     0.251 C 
ATOM     22  H   UNL     1      -0.382   2.761   6.384  1.00  0.00     0.163 HD
ATOM     23  O   UNL     1      -1.114   4.185   8.208  1.00  0.00    -0.269 OA
BRANCH  21  24
ATOM     24  C   UNL     1      -2.969   2.775   8.505  1.00  0.00     0.039 A 
ATOM     25  C   UNL     1      -3.901   3.763   8.835  1.00  0.00     0.014 A 
ATOM     26  C   UNL     1      -3.261   1.434   8.753  1.00  0.00     0.014 A 
ATOM     27  C   UNL     1      -5.155   3.395   9.330  1.00  0.00     0.010 A 
ATOM     28  C   UNL     1      -4.543   1.063   9.133  1.00  0.00     0.010 A 
ATOM     29  C   UNL     1      -5.503   2.039   9.435  1.00  0.00    -0.014 A 
BRANCH  29  30
ATOM     30  C   UNL     1      -6.853   1.606   9.872  1.00  0.00     0.031 A 
ATOM     31  C   UNL     1      -7.003   0.759  11.105  1.00  0.00     0.074 A 
ATOM     32  C   UNL     1      -7.927   1.896   9.112  1.00  0.00     0.049 A 
ATOM     33  N   UNL     1      -8.074   0.191  11.600  1.00  0.00    -0.248 NA
ATOM     34  C   UNL     1      -5.772   0.471  11.859  1.00  0.00     0.031 C 
ATOM     35  C   UNL     1      -7.899   2.654   7.861  1.00  0.00     0.029 A 
ATOM     36  N   UNL     1      -9.251   1.579   9.278  1.00  0.00    -0.354 N 
ATOM     37  C   UNL     1      -7.640  -0.539  12.698  1.00  0.00     0.074 A 
ATOM     38  C   UNL     1      -6.201  -0.405  12.754  1.00  0.00     0.031 C 
ATOM     39  C   UNL     1      -9.151   2.781   7.395  1.00  0.00     0.029 A 
ATOM     40  C   UNL     1     -10.064   2.079   8.291  1.00  0.00     0.049 A 
ATOM     41  H   UNL     1      -9.587   1.043  10.033  1.00  0.00     0.167 HD
ATOM     42  C   UNL     1      -8.376  -1.231  13.600  1.00  0.00     0.037 A 
ATOM     43  C   UNL     1     -11.398   1.984   8.133  1.00  0.00     0.037 A 
ATOM     44  C   UNL     1      -9.811  -1.325  13.557  1.00  0.00     0.049 A 
ATOM     45  C   UNL     1     -12.199   1.224   9.154  1.00  0.00     0.074 A 
ATOM     46  C   UNL     1     -10.665  -1.940  14.454  1.00  0.00     0.029 A 
ATOM     47  N   UNL     1     -10.604  -0.782  12.555  1.00  0.00    -0.354 N 
ATOM     48  N   UNL     1     -11.788   0.596  10.228  1.00  0.00    -0.248 NA
ATOM     49  C   UNL     1     -13.651   1.166   8.942  1.00  0.00     0.031 C 
ATOM     50  C   UNL     1     -11.973  -1.804  13.973  1.00  0.00     0.029 A 
ATOM     51  C   UNL     1     -11.938  -1.062  12.803  1.00  0.00     0.049 A 
ATOM     52  H   UNL     1     -10.268  -0.272  11.783  1.00  0.00     0.167 HD
ATOM     53  C   UNL     1     -12.929   0.093  10.838  1.00  0.00     0.074 A 
ATOM     54  C   UNL     1     -14.052   0.500  10.016  1.00  0.00     0.031 C 
ATOM     55  C   UNL     1     -13.039  -0.639  11.974  1.00  0.00     0.037 A 
BRANCH  42  56
ATOM     56  C   UNL     1      -7.631  -1.930  14.703  1.00  0.00     0.064 A 
ATOM     57  C   UNL     1      -6.936  -1.215  15.692  1.00  0.00     0.173 A 
ATOM     58  C   UNL     1      -7.596  -3.331  14.765  1.00  0.00     0.173 A 
ATOM     59  F   UNL     1      -6.926   0.127  15.674  1.00  0.00    -0.203 F 
ATOM     60  C   UNL     1      -6.190  -1.874  16.666  1.00  0.00     0.198 A 
ATOM     61  C   UNL     1      -6.879  -3.988  15.763  1.00  0.00     0.198 A 
ATOM     62  F   UNL     1      -8.246  -4.066  13.851  1.00  0.00    -0.203 F 
ATOM     63  F   UNL     1      -5.471  -1.168  17.549  1.00  0.00    -0.200 F 
ATOM     64  C   UNL     1      -6.165  -3.260  16.703  1.00  0.00     0.200 A 
ATOM     65  F   UNL     1      -6.866  -5.327  15.806  1.00  0.00    -0.200 F 
ATOM     66  F   UNL     1      -5.442  -3.893  17.636  1.00  0.00    -0.200 F 
ENDBRANCH  42  56
BRANCH  43  67
ATOM     67  C   UNL     1     -12.058   2.679   6.998  1.00  0.00     0.064 A 
ATOM     68  C   UNL     1     -12.846   3.817   7.222  1.00  0.00     0.173 A 
ATOM     69  C   UNL     1     -11.899   2.247   5.674  1.00  0.00     0.173 A 
ATOM     70  F   UNL     1     -13.041   4.259   8.473  1.00  0.00    -0.203 F 
ATOM     71  C   UNL     1     -13.459   4.489   6.167  1.00  0.00     0.198 A 
ATOM     72  C   UNL     1     -12.492   2.935   4.617  1.00  0.00     0.198 A 
ATOM     73  F   UNL     1     -11.148   1.169   5.405  1.00  0.00    -0.203 F 
ATOM     74  F   UNL     1     -14.233   5.555   6.414  1.00  0.00    -0.200 F 
ATOM     75  C   UNL     1     -13.276   4.052   4.864  1.00  0.00     0.200 A 
ATOM     76  F   UNL     1     -12.300   2.519   3.357  1.00  0.00    -0.200 F 
ATOM     77  F   UNL     1     -13.856   4.705   3.848  1.00  0.00    -0.200 F 
ENDBRANCH  43  67
BRANCH  55  78
ATOM     78  C   UNL     1     -14.423  -1.013  12.416  1.00  0.00     0.064 A 
ATOM     79  C   UNL     1     -15.177  -1.982  11.738  1.00  0.00     0.173 A 
ATOM     80  C   UNL     1     -14.984  -0.424  13.560  1.00  0.00     0.173 A 
ATOM     81  F   UNL     1     -14.690  -2.562  10.630  1.00  0.00    -0.203 F 
ATOM     82  C   UNL     1     -16.452  -2.329  12.175  1.00  0.00     0.198 A 
ATOM     83  C   UNL     1     -16.247  -0.796  14.011  1.00  0.00     0.198 A 
ATOM     84  F   UNL     1     -14.300   0.504  14.247  1.00  0.00    -0.203 F 
ATOM     85  F   UNL     1     -17.174  -3.222  11.484  1.00  0.00    -0.200 F 
ATOM     86  C   UNL     1     -16.982  -1.742  13.314  1.00  0.00     0.200 A 
ATOM     87  F   UNL     1     -16.751  -0.238  15.120  1.00  0.00    -0.200 F 
ATOM     88  F   UNL     1     -18.207  -2.084  13.738  1.00  0.00    -0.200 F 
ENDBRANCH  55  78
ENDBRANCH  29  30
ENDBRANCH  21  24
ENDBRANCH  19  20
ENDBRANCH   1  19
TORSDOF 12
