REMARK SMILES Cc1cc(C(=O)N[C@@H](Cc2ccccc2)C(=O)NCCCNC(=O)c2ccc(-c3c4nc(c(-c5c(F)c(F)c(F)c(F)c5F)c5ccc([nH]5)c(-c5c(F)c(F)c(F)c(F)c5F)c5nc(c(-c6c(F)c(F)c(F)c(F)c6F)c6ccc3[nH]6)C=C5)C=C4)cc2)c(C)o1
REMARK SMILES IDX 20 1 19 2 18 3 16 4 17 5 8 7 7 8 5 9 6 10 4 12 1 13 2 14
REMARK SMILES IDX 3 15 90 16 88 17 89 18 9 19 10 20 11 21 15 22 12 23 14 24
REMARK SMILES IDX 13 25 21 26 22 27 23 28 24 30 25 31 26 32 87 33 27 34 86 35
REMARK SMILES IDX 28 36 29 37 30 38 80 39 31 40 85 41 79 42 81 43 32 44 84 45
REMARK SMILES IDX 78 46 77 47 33 49 65 50 45 51 64 52 46 53 49 54 63 55 82 56
REMARK SMILES IDX 47 57 48 58 62 60 83 61 50 62 34 63 35 64 43 65 36 66 37 67
REMARK SMILES IDX 41 68 44 69 38 70 39 71 42 72 40 73 66 74 67 75 75 76 68 77
REMARK SMILES IDX 69 78 73 79 76 80 70 81 71 82 74 83 72 84 51 85 52 86 60 87
REMARK SMILES IDX 53 88 54 89 58 90 61 91 55 92 56 93 59 94 57 95
REMARK H PARENT 18 6 7 11 22 29 81 48 49 59
REMARK Flexibility Score: inf
ROOT
ATOM      1  C   UNL     1      -1.794   6.891   2.221  1.00  0.00     0.042 C 
ENDROOT
BRANCH   1   2
ATOM      2  C   UNL     1      -0.712   6.542   1.222  1.00  0.00     0.117 C 
BRANCH   2   3
ATOM      3  N   UNL     1       0.336   5.666   1.694  1.00  0.00    -0.354 N 
ATOM      4  C   UNL     1       1.023   4.715   0.986  1.00  0.00     0.242 C 
ATOM      5  O   UNL     1       2.113   4.353   1.442  1.00  0.00    -0.273 OA
ATOM      6  H   UNL     1       0.587   5.764   2.640  1.00  0.00     0.163 HD
BRANCH   4   7
ATOM      7  C   UNL     1       0.501   4.113  -0.346  1.00  0.00     0.176 C 
BRANCH   7   8
ATOM      8  N   UNL     1      -0.856   3.595  -0.175  1.00  0.00    -0.340 N 
ATOM      9  C   UNL     1      -1.342   2.353   0.144  1.00  0.00     0.255 C 
ATOM     10  O   UNL     1      -2.554   2.306   0.367  1.00  0.00    -0.269 OA
ATOM     11  H   UNL     1      -1.558   4.270  -0.318  1.00  0.00     0.164 HD
BRANCH   9  12
ATOM     12  C   UNL     1      -0.511   1.151   0.153  1.00  0.00     0.081 A 
ATOM     13  C   UNL     1       2.372  -1.212   0.110  1.00  0.00     0.087 C 
ATOM     14  C   UNL     1       1.142  -0.397   0.145  1.00  0.00     0.101 A 
ATOM     15  C   UNL     1       0.892   0.944   0.333  1.00  0.00     0.059 A 
ATOM     16  O   UNL     1      -0.025  -1.061  -0.029  1.00  0.00    -0.466 OA
ATOM     17  C   UNL     1      -1.025  -0.138   0.010  1.00  0.00     0.113 A 
ATOM     18  C   UNL     1      -2.384  -0.715  -0.117  1.00  0.00     0.088 C 
ENDBRANCH   9  12
ENDBRANCH   7   8
BRANCH   7  19
ATOM     19  C   UNL     1       0.746   4.942  -1.630  1.00  0.00     0.070 C 
BRANCH  19  20
ATOM     20  C   UNL     1       0.072   6.280  -1.803  1.00  0.00    -0.045 A 
ATOM     21  C   UNL     1       0.810   7.465  -1.649  1.00  0.00     0.004 A 
ATOM     22  C   UNL     1      -1.299   6.371  -2.090  1.00  0.00     0.004 A 
ATOM     23  C   UNL     1       0.175   8.709  -1.699  1.00  0.00     0.000 A 
ATOM     24  C   UNL     1      -1.935   7.616  -2.116  1.00  0.00     0.000 A 
ATOM     25  C   UNL     1      -1.200   8.782  -1.907  1.00  0.00     0.000 A 
ENDBRANCH  19  20
ENDBRANCH   7  19
ENDBRANCH   4   7
ENDBRANCH   2   3
ENDBRANCH   1   2
BRANCH   1  26
ATOM     26  C   UNL     1      -1.378   7.945   3.233  1.00  0.00     0.118 C 
BRANCH  26  27
ATOM     27  N   UNL     1      -1.059   9.240   2.634  1.00  0.00    -0.352 N 
ATOM     28  C   UNL     1      -1.728  10.443   2.597  1.00  0.00     0.251 C 
ATOM     29  H   UNL     1      -0.194   9.255   2.164  1.00  0.00     0.163 HD
ATOM     30  O   UNL     1      -1.296  11.344   1.889  1.00  0.00    -0.269 OA
BRANCH  28  31
ATOM     31  C   UNL     1      -2.977  10.657   3.365  1.00  0.00     0.039 A 
ATOM     32  C   UNL     1      -3.978  11.471   2.824  1.00  0.00     0.014 A 
ATOM     33  C   UNL     1      -3.169  10.084   4.619  1.00  0.00     0.014 A 
ATOM     34  C   UNL     1      -5.198  11.620   3.493  1.00  0.00     0.010 A 
ATOM     35  C   UNL     1      -4.423  10.118   5.215  1.00  0.00     0.010 A 
ATOM     36  C   UNL     1      -5.452  10.895   4.667  1.00  0.00    -0.014 A 
BRANCH  36  37
ATOM     37  C   UNL     1      -6.768  10.934   5.356  1.00  0.00     0.031 A 
ATOM     38  C   UNL     1      -6.848  11.358   6.799  1.00  0.00     0.074 A 
ATOM     39  C   UNL     1      -7.870  10.482   4.726  1.00  0.00     0.049 A 
ATOM     40  N   UNL     1      -7.864  11.312   7.624  1.00  0.00    -0.248 NA
ATOM     41  C   UNL     1      -5.604  11.850   7.412  1.00  0.00     0.031 C 
ATOM     42  C   UNL     1      -7.914   9.974   3.353  1.00  0.00     0.029 A 
ATOM     43  N   UNL     1      -9.164  10.356   5.166  1.00  0.00    -0.354 N 
ATOM     44  C   UNL     1      -7.368  11.723   8.855  1.00  0.00     0.074 A 
ATOM     45  C   UNL     1      -5.952  11.957   8.685  1.00  0.00     0.031 C 
ATOM     46  C   UNL     1      -9.173   9.618   3.055  1.00  0.00     0.029 A 
ATOM     47  C   UNL     1     -10.017   9.831   4.226  1.00  0.00     0.049 A 
ATOM     48  H   UNL     1      -9.453  10.617   6.070  1.00  0.00     0.167 HD
ATOM     49  C   UNL     1      -8.038  11.916  10.016  1.00  0.00     0.037 A 
ATOM     50  C   UNL     1     -11.330   9.545   4.303  1.00  0.00     0.037 A 
ATOM     51  C   UNL     1      -9.459  11.743  10.163  1.00  0.00     0.049 A 
ATOM     52  C   UNL     1     -12.065   9.819   5.585  1.00  0.00     0.074 A 
ATOM     53  C   UNL     1     -10.252  12.007  11.265  1.00  0.00     0.029 A 
ATOM     54  N   UNL     1     -10.300  11.266   9.168  1.00  0.00    -0.354 N 
ATOM     55  N   UNL     1     -11.602  10.279   6.722  1.00  0.00    -0.248 NA
ATOM     56  C   UNL     1     -13.508   9.540   5.594  1.00  0.00     0.031 C 
ATOM     57  C   UNL     1     -11.568  11.654  10.949  1.00  0.00     0.029 A 
ATOM     58  C   UNL     1     -11.602  11.213   9.636  1.00  0.00     0.049 A 
ATOM     59  H   UNL     1     -10.013  11.005   8.263  1.00  0.00     0.167 HD
ATOM     60  C   UNL     1     -12.694  10.367   7.573  1.00  0.00     0.074 A 
ATOM     61  C   UNL     1     -13.848   9.925   6.816  1.00  0.00     0.031 C 
ATOM     62  C   UNL     1     -12.738  10.774   8.865  1.00  0.00     0.037 A 
BRANCH  49  63
ATOM     63  C   UNL     1      -7.239  12.346  11.214  1.00  0.00     0.064 A 
ATOM     64  C   UNL     1      -6.640  13.614  11.287  1.00  0.00     0.173 A 
ATOM     65  C   UNL     1      -7.074  11.482  12.307  1.00  0.00     0.173 A 
ATOM     66  F   UNL     1      -6.756  14.475  10.264  1.00  0.00    -0.203 F 
ATOM     67  C   UNL     1      -5.871  13.982  12.387  1.00  0.00     0.198 A 
ATOM     68  C   UNL     1      -6.333  11.867  13.421  1.00  0.00     0.198 A 
ATOM     69  F   UNL     1      -7.630  10.261  12.294  1.00  0.00    -0.203 F 
ATOM     70  F   UNL     1      -5.254  15.172  12.403  1.00  0.00    -0.200 F 
ATOM     71  C   UNL     1      -5.722  13.111  13.456  1.00  0.00     0.200 A 
ATOM     72  F   UNL     1      -6.201  11.029  14.459  1.00  0.00    -0.200 F 
ATOM     73  F   UNL     1      -4.981  13.467  14.514  1.00  0.00    -0.200 F 
ENDBRANCH  49  63
BRANCH  50  74
ATOM     74  C   UNL     1     -12.037   9.007   3.113  1.00  0.00     0.064 A 
ATOM     75  C   UNL     1     -12.934   9.806   2.392  1.00  0.00     0.173 A 
ATOM     76  C   UNL     1     -11.814   7.700   2.656  1.00  0.00     0.173 A 
ATOM     77  F   UNL     1     -13.193  11.057   2.801  1.00  0.00    -0.203 F 
ATOM     78  C   UNL     1     -13.592   9.316   1.266  1.00  0.00     0.198 A 
ATOM     79  C   UNL     1     -12.453   7.218   1.515  1.00  0.00     0.198 A 
ATOM     80  F   UNL     1     -10.958   6.898   3.306  1.00  0.00    -0.203 F 
ATOM     81  F   UNL     1     -14.470  10.090   0.615  1.00  0.00    -0.200 F 
ATOM     82  C   UNL     1     -13.345   8.024   0.824  1.00  0.00     0.200 A 
ATOM     83  F   UNL     1     -12.200   5.976   1.082  1.00  0.00    -0.200 F 
ATOM     84  F   UNL     1     -13.969   7.556  -0.266  1.00  0.00    -0.200 F 
ENDBRANCH  50  74
BRANCH  62  85
ATOM     85  C   UNL     1     -14.080  10.790   9.534  1.00  0.00     0.064 A 
ATOM     86  C   UNL     1     -14.723   9.605   9.918  1.00  0.00     0.173 A 
ATOM     87  C   UNL     1     -14.707  12.008   9.836  1.00  0.00     0.173 A 
ATOM     88  F   UNL     1     -14.170   8.415   9.637  1.00  0.00    -0.203 F 
ATOM     89  C   UNL     1     -15.957   9.638  10.562  1.00  0.00     0.198 A 
ATOM     90  C   UNL     1     -15.927  12.038  10.505  1.00  0.00     0.198 A 
ATOM     91  F   UNL     1     -14.129  13.170   9.495  1.00  0.00    -0.203 F 
ATOM     92  F   UNL     1     -16.574   8.492  10.882  1.00  0.00    -0.200 F 
ATOM     93  C   UNL     1     -16.554  10.853  10.862  1.00  0.00     0.200 A 
ATOM     94  F   UNL     1     -16.497  13.213  10.806  1.00  0.00    -0.200 F 
ATOM     95  F   UNL     1     -17.738  10.883  11.489  1.00  0.00    -0.200 F 
ENDBRANCH  62  85
ENDBRANCH  36  37
ENDBRANCH  28  31
ENDBRANCH  26  27
ENDBRANCH   1  26
TORSDOF 14
