REMARK SMILES C[C@@H](NS(=O)(=O)c1ccccc1)C(=O)NCCCNC(=O)c1ccc(-c2c3nc(c(-c4c(F)c(F)c(F)c(F)c4F)c4ccc([nH]4)c(-c4c(F)c(F)c(F)c(F)c4F)c4nc(c(-c5c(F)c(F)c(F)c(F)c5F)c5ccc2[nH]5)C=C4)C=C3)cc1
REMARK SMILES IDX 16 1 15 2 13 3 14 4 2 6 1 7 3 8 4 10 5 11 6 12 7 13 8 14
REMARK SMILES IDX 12 15 9 16 11 17 10 18 17 19 18 20 19 21 20 22 21 24 22 25
REMARK SMILES IDX 23 26 84 27 24 28 83 29 25 30 26 31 27 32 77 33 28 34 82 35
REMARK SMILES IDX 76 36 78 37 29 38 81 39 75 40 74 41 30 43 62 44 42 45 61 46
REMARK SMILES IDX 43 47 46 48 60 49 79 50 44 51 45 52 59 54 80 55 47 56 31 57
REMARK SMILES IDX 32 58 40 59 33 60 34 61 38 62 41 63 35 64 36 65 39 66 37 67
REMARK SMILES IDX 63 68 64 69 72 70 65 71 66 72 70 73 73 74 67 75 68 76 71 77
REMARK SMILES IDX 69 78 48 79 49 80 57 81 50 82 51 83 55 84 58 85 52 86 53 87
REMARK SMILES IDX 56 88 54 89
REMARK H PARENT 15 5 3 9 19 23 78 42 46 53
REMARK Flexibility Score: inf
ROOT
ATOM      1  C   UNL     1      -1.047  -2.256   0.034  1.00  0.00     0.117 C 
ENDROOT
BRANCH   1   2
ATOM      2  N   UNL     1      -1.552  -1.036  -0.572  1.00  0.00    -0.355 N 
ATOM      3  C   UNL     1      -0.885  -0.019  -1.192  1.00  0.00     0.237 C 
ATOM      4  O   UNL     1      -1.514   1.009  -1.451  1.00  0.00    -0.273 OA
ATOM      5  H   UNL     1      -2.529  -0.926  -0.529  1.00  0.00     0.163 HD
BRANCH   3   6
ATOM      6  C   UNL     1       0.593  -0.155  -1.552  1.00  0.00     0.155 C 
ATOM      7  C   UNL     1       1.444   0.066  -0.306  1.00  0.00     0.036 C 
BRANCH   6   8
ATOM      8  N   UNL     1       0.899  -1.462  -2.171  1.00  0.00    -0.199 NA
ATOM      9  H   UNL     1       0.446  -2.174  -1.598  1.00  0.00     0.142 HD
BRANCH   8  10
ATOM     10  S   UNL     1       0.443  -1.754  -3.766  1.00  0.00     0.241 S 
ATOM     11  O   UNL     1       0.775  -0.582  -4.540  1.00  0.00    -0.207 OA
ATOM     12  O   UNL     1       1.007  -3.050  -4.085  1.00  0.00    -0.207 OA
BRANCH  10  13
ATOM     13  C   UNL     1      -1.321  -1.935  -3.712  1.00  0.00     0.082 A 
ATOM     14  C   UNL     1      -2.127  -0.814  -3.941  1.00  0.00     0.022 A 
ATOM     15  C   UNL     1      -1.901  -3.182  -3.461  1.00  0.00     0.022 A 
ATOM     16  C   UNL     1      -3.512  -0.920  -3.823  1.00  0.00     0.001 A 
ATOM     17  C   UNL     1      -3.291  -3.286  -3.368  1.00  0.00     0.001 A 
ATOM     18  C   UNL     1      -4.093  -2.153  -3.530  1.00  0.00     0.000 A 
ENDBRANCH  10  13
ENDBRANCH   8  10
ENDBRANCH   6   8
ENDBRANCH   3   6
ENDBRANCH   1   2
BRANCH   1  19
ATOM     19  C   UNL     1      -1.267  -2.232   1.539  1.00  0.00     0.042 C 
BRANCH  19  20
ATOM     20  C   UNL     1      -2.737  -2.303   1.926  1.00  0.00     0.118 C 
BRANCH  20  21
ATOM     21  N   UNL     1      -3.336  -3.586   1.588  1.00  0.00    -0.352 N 
ATOM     22  C   UNL     1      -4.008  -4.475   2.387  1.00  0.00     0.251 C 
ATOM     23  H   UNL     1      -3.244  -3.856   0.646  1.00  0.00     0.163 HD
ATOM     24  O   UNL     1      -4.261  -5.600   1.966  1.00  0.00    -0.269 OA
BRANCH  22  25
ATOM     25  C   UNL     1      -4.413  -4.089   3.755  1.00  0.00     0.039 A 
ATOM     26  C   UNL     1      -4.303  -5.034   4.777  1.00  0.00     0.014 A 
ATOM     27  C   UNL     1      -4.921  -2.816   4.032  1.00  0.00     0.014 A 
ATOM     28  C   UNL     1      -4.660  -4.688   6.080  1.00  0.00     0.010 A 
ATOM     29  C   UNL     1      -5.187  -2.443   5.346  1.00  0.00     0.010 A 
ATOM     30  C   UNL     1      -5.075  -3.380   6.383  1.00  0.00    -0.014 A 
BRANCH  30  31
ATOM     31  C   UNL     1      -5.401  -2.992   7.779  1.00  0.00     0.031 A 
ATOM     32  C   UNL     1      -6.793  -2.554   8.146  1.00  0.00     0.074 A 
ATOM     33  C   UNL     1      -4.430  -3.010   8.713  1.00  0.00     0.049 A 
ATOM     34  N   UNL     1      -7.265  -2.191   9.312  1.00  0.00    -0.248 NA
ATOM     35  C   UNL     1      -7.779  -2.492   7.056  1.00  0.00     0.031 C 
ATOM     36  C   UNL     1      -3.030  -3.361   8.470  1.00  0.00     0.029 A 
ATOM     37  N   UNL     1      -4.473  -2.730  10.056  1.00  0.00    -0.354 N 
ATOM     38  C   UNL     1      -8.595  -1.855   9.094  1.00  0.00     0.074 A 
ATOM     39  C   UNL     1      -8.838  -1.991   7.675  1.00  0.00     0.031 C 
ATOM     40  C   UNL     1      -2.357  -3.315   9.629  1.00  0.00     0.029 A 
ATOM     41  C   UNL     1      -3.265  -2.891  10.690  1.00  0.00     0.049 A 
ATOM     42  H   UNL     1      -5.291  -2.440  10.521  1.00  0.00     0.167 HD
ATOM     43  C   UNL     1      -9.536  -1.493   9.999  1.00  0.00     0.037 A 
ATOM     44  C   UNL     1      -2.929  -2.717  11.982  1.00  0.00     0.037 A 
ATOM     45  C   UNL     1      -9.292  -1.370  11.412  1.00  0.00     0.049 A 
ATOM     46  C   UNL     1      -3.991  -2.302  12.964  1.00  0.00     0.074 A 
ATOM     47  C   UNL     1     -10.189  -1.061  12.420  1.00  0.00     0.029 A 
ATOM     48  N   UNL     1      -8.055  -1.541  12.019  1.00  0.00    -0.354 N 
ATOM     49  N   UNL     1      -5.264  -2.066  12.759  1.00  0.00    -0.248 NA
ATOM     50  C   UNL     1      -3.569  -2.140  14.362  1.00  0.00     0.031 C 
ATOM     51  C   UNL     1      -9.484  -0.984  13.625  1.00  0.00     0.029 A 
ATOM     52  C   UNL     1      -8.161  -1.316  13.383  1.00  0.00     0.049 A 
ATOM     53  H   UNL     1      -7.225  -1.787  11.549  1.00  0.00     0.167 HD
ATOM     54  C   UNL     1      -5.801  -1.760  14.003  1.00  0.00     0.074 A 
ATOM     55  C   UNL     1      -4.718  -1.862  14.959  1.00  0.00     0.031 C 
ATOM     56  C   UNL     1      -7.075  -1.423  14.324  1.00  0.00     0.037 A 
BRANCH  43  57
ATOM     57  C   UNL     1     -10.920  -1.203   9.487  1.00  0.00     0.064 A 
ATOM     58  C   UNL     1     -11.739  -2.213   8.958  1.00  0.00     0.173 A 
ATOM     59  C   UNL     1     -11.450   0.094   9.562  1.00  0.00     0.173 A 
ATOM     60  F   UNL     1     -11.280  -3.470   8.853  1.00  0.00    -0.203 F 
ATOM     61  C   UNL     1     -13.021  -1.930   8.494  1.00  0.00     0.198 A 
ATOM     62  C   UNL     1     -12.746   0.367   9.130  1.00  0.00     0.198 A 
ATOM     63  F   UNL     1     -10.716   1.098  10.064  1.00  0.00    -0.203 F 
ATOM     64  F   UNL     1     -13.762  -2.901   7.942  1.00  0.00    -0.200 F 
ATOM     65  C   UNL     1     -13.527  -0.642   8.589  1.00  0.00     0.200 A 
ATOM     66  F   UNL     1     -13.239   1.609   9.238  1.00  0.00    -0.200 F 
ATOM     67  F   UNL     1     -14.765  -0.373   8.151  1.00  0.00    -0.200 F 
ENDBRANCH  43  57
BRANCH  44  68
ATOM     68  C   UNL     1      -1.530  -2.960  12.427  1.00  0.00     0.064 A 
ATOM     69  C   UNL     1      -1.219  -4.024  13.287  1.00  0.00     0.173 A 
ATOM     70  C   UNL     1      -0.479  -2.128  12.014  1.00  0.00     0.173 A 
ATOM     71  F   UNL     1      -2.192  -4.837  13.724  1.00  0.00    -0.203 F 
ATOM     72  C   UNL     1       0.083  -4.228  13.739  1.00  0.00     0.198 A 
ATOM     73  C   UNL     1       0.829  -2.355  12.439  1.00  0.00     0.198 A 
ATOM     74  F   UNL     1      -0.720  -1.101  11.186  1.00  0.00    -0.203 F 
ATOM     75  F   UNL     1       0.341  -5.218  14.604  1.00  0.00    -0.200 F 
ATOM     76  C   UNL     1       1.107  -3.397  13.310  1.00  0.00     0.200 A 
ATOM     77  F   UNL     1       1.817  -1.561  12.007  1.00  0.00    -0.200 F 
ATOM     78  F   UNL     1       2.359  -3.596  13.742  1.00  0.00    -0.200 F 
ENDBRANCH  44  68
BRANCH  56  79
ATOM     79  C   UNL     1      -7.376  -1.182  15.777  1.00  0.00     0.064 A 
ATOM     80  C   UNL     1      -6.864  -0.072  16.467  1.00  0.00     0.173 A 
ATOM     81  C   UNL     1      -8.206  -2.066  16.485  1.00  0.00     0.173 A 
ATOM     82  F   UNL     1      -6.055   0.797  15.842  1.00  0.00    -0.203 F 
ATOM     83  C   UNL     1      -7.137   0.120  17.819  1.00  0.00     0.198 A 
ATOM     84  C   UNL     1      -8.509  -1.849  17.826  1.00  0.00     0.198 A 
ATOM     85  F   UNL     1      -8.731  -3.138  15.873  1.00  0.00    -0.203 F 
ATOM     86  F   UNL     1      -6.582   1.150  18.472  1.00  0.00    -0.200 F 
ATOM     87  C   UNL     1      -7.964  -0.764  18.495  1.00  0.00     0.200 A 
ATOM     88  F   UNL     1      -9.323  -2.694  18.472  1.00  0.00    -0.200 F 
ATOM     89  F   UNL     1      -8.228  -0.576  19.795  1.00  0.00    -0.200 F 
ENDBRANCH  56  79
ENDBRANCH  30  31
ENDBRANCH  22  25
ENDBRANCH  20  21
ENDBRANCH  19  20
ENDBRANCH   1  19
TORSDOF 13
