REMARK SMILES O=C(NCCCNC(=O)C1(C/C=C/c2ccccc2)CCCCC1)c1ccc(-c2c3nc(c(-c4c(F)c(F)c(F)c(F)c4F)c4ccc([nH]4)c(-c4c(F)c(F)c(F)c(F)c4F)c4nc(c(-c5c(F)c(F)c(F)c(F)c5F)c5ccc2[nH]5)C=C4)C=C3)cc1
REMARK SMILES IDX 5 1 4 2 3 3 1 4 2 5 25 7 26 8 87 9 27 10 86 11 28 12 29 13
REMARK SMILES IDX 30 14 80 15 31 16 85 17 79 18 81 19 32 20 84 21 78 22 77 23
REMARK SMILES IDX 33 25 65 26 45 27 64 28 46 29 49 30 63 31 82 32 47 33 48 34
REMARK SMILES IDX 62 36 83 37 50 38 34 39 35 40 43 41 36 42 37 43 41 44 44 45
REMARK SMILES IDX 38 46 39 47 42 48 40 49 66 50 67 51 75 52 68 53 69 54 73 55
REMARK SMILES IDX 76 56 70 57 71 58 74 59 72 60 51 61 52 62 60 63 53 64 54 65
REMARK SMILES IDX 58 66 61 67 55 68 56 69 59 70 57 71 6 72 7 73 8 74 9 76
REMARK SMILES IDX 10 77 20 78 24 79 21 80 23 81 22 82 11 83 12 84 13 85 14 86
REMARK SMILES IDX 15 87 19 88 16 89 18 90 17 91
REMARK H PARENT 3 6 81 24 49 35 7 75
REMARK Flexibility Score: inf
ROOT
ATOM      1  C   UNL     1       4.631  -2.240  -0.567  1.00  0.00     0.042 C 
ENDROOT
BRANCH   1   2
ATOM      2  C   UNL     1       4.415  -0.802  -1.020  1.00  0.00     0.118 C 
BRANCH   2   3
ATOM      3  N   UNL     1       3.003  -0.422  -1.002  1.00  0.00    -0.352 N 
ATOM      4  O   UNL     1       1.067   0.346  -0.147  1.00  0.00    -0.269 OA
ATOM      5  C   UNL     1       2.292   0.360  -0.123  1.00  0.00     0.251 C 
ATOM      6  H   UNL     1       2.471  -0.789  -1.745  1.00  0.00     0.163 HD
BRANCH   5   7
ATOM      7  C   UNL     1       3.001   1.208   0.857  1.00  0.00     0.039 A 
ATOM      8  C   UNL     1       4.171   1.871   0.497  1.00  0.00     0.014 A 
ATOM      9  C   UNL     1       2.479   1.363   2.146  1.00  0.00     0.014 A 
ATOM     10  C   UNL     1       4.927   2.509   1.467  1.00  0.00     0.010 A 
ATOM     11  C   UNL     1       3.179   2.120   3.091  1.00  0.00     0.010 A 
ATOM     12  C   UNL     1       4.435   2.658   2.773  1.00  0.00    -0.014 A 
BRANCH  12  13
ATOM     13  C   UNL     1       5.249   3.414   3.759  1.00  0.00     0.031 A 
ATOM     14  C   UNL     1       5.772   2.755   5.005  1.00  0.00     0.074 A 
ATOM     15  C   UNL     1       5.570   4.694   3.482  1.00  0.00     0.049 A 
ATOM     16  N   UNL     1       6.547   3.251   5.937  1.00  0.00    -0.248 NA
ATOM     17  C   UNL     1       5.366   1.362   5.246  1.00  0.00     0.031 C 
ATOM     18  C   UNL     1       5.113   5.439   2.306  1.00  0.00     0.029 A 
ATOM     19  N   UNL     1       6.379   5.582   4.141  1.00  0.00    -0.354 N 
ATOM     20  C   UNL     1       6.698   2.247   6.884  1.00  0.00     0.074 A 
ATOM     21  C   UNL     1       5.912   1.120   6.430  1.00  0.00     0.031 C 
ATOM     22  C   UNL     1       5.703   6.642   2.289  1.00  0.00     0.029 A 
ATOM     23  C   UNL     1       6.518   6.783   3.489  1.00  0.00     0.049 A 
ATOM     24  H   UNL     1       6.819   5.379   4.998  1.00  0.00     0.167 HD
ATOM     25  C   UNL     1       7.432   2.264   8.023  1.00  0.00     0.037 A 
ATOM     26  C   UNL     1       7.215   7.883   3.825  1.00  0.00     0.037 A 
ATOM     27  C   UNL     1       8.230   3.384   8.454  1.00  0.00     0.049 A 
ATOM     28  C   UNL     1       8.008   7.875   5.100  1.00  0.00     0.074 A 
ATOM     29  C   UNL     1       9.040   3.488   9.572  1.00  0.00     0.029 A 
ATOM     30  N   UNL     1       8.317   4.598   7.785  1.00  0.00    -0.354 N 
ATOM     31  N   UNL     1       8.169   6.907   5.968  1.00  0.00    -0.248 NA
ATOM     32  C   UNL     1       8.714   9.115   5.441  1.00  0.00     0.031 C 
ATOM     33  C   UNL     1       9.571   4.782   9.609  1.00  0.00     0.029 A 
ATOM     34  C   UNL     1       9.147   5.464   8.480  1.00  0.00     0.049 A 
ATOM     35  H   UNL     1       7.857   4.812   6.941  1.00  0.00     0.167 HD
ATOM     36  C   UNL     1       9.017   7.409   6.944  1.00  0.00     0.074 A 
ATOM     37  C   UNL     1       9.351   8.762   6.548  1.00  0.00     0.031 C 
ATOM     38  C   UNL     1       9.477   6.805   8.067  1.00  0.00     0.037 A 
BRANCH  25  39
ATOM     39  C   UNL     1       7.386   1.046   8.903  1.00  0.00     0.064 A 
ATOM     40  C   UNL     1       7.980  -0.168   8.526  1.00  0.00     0.173 A 
ATOM     41  C   UNL     1       6.770   1.107  10.163  1.00  0.00     0.173 A 
ATOM     42  F   UNL     1       8.572  -0.287   7.328  1.00  0.00    -0.203 F 
ATOM     43  C   UNL     1       7.934  -1.281   9.364  1.00  0.00     0.198 A 
ATOM     44  C   UNL     1       6.754   0.003  11.011  1.00  0.00     0.198 A 
ATOM     45  F   UNL     1       6.192   2.244  10.579  1.00  0.00    -0.203 F 
ATOM     46  F   UNL     1       8.464  -2.444   8.960  1.00  0.00    -0.200 F 
ATOM     47  C   UNL     1       7.328  -1.192  10.608  1.00  0.00     0.200 A 
ATOM     48  F   UNL     1       6.180   0.096  12.219  1.00  0.00    -0.200 F 
ATOM     49  F   UNL     1       7.291  -2.262  11.415  1.00  0.00    -0.200 F 
ENDBRANCH  25  39
BRANCH  26  50
ATOM     50  C   UNL     1       7.193   9.075   2.937  1.00  0.00     0.064 A 
ATOM     51  C   UNL     1       8.347   9.492   2.260  1.00  0.00     0.173 A 
ATOM     52  C   UNL     1       6.019   9.818   2.745  1.00  0.00     0.173 A 
ATOM     53  F   UNL     1       9.498   8.825   2.424  1.00  0.00    -0.203 F 
ATOM     54  C   UNL     1       8.332  10.620   1.441  1.00  0.00     0.198 A 
ATOM     55  C   UNL     1       5.996  10.924   1.899  1.00  0.00     0.198 A 
ATOM     56  F   UNL     1       4.885   9.457   3.364  1.00  0.00    -0.203 F 
ATOM     57  F   UNL     1       9.460  11.025   0.843  1.00  0.00    -0.200 F 
ATOM     58  C   UNL     1       7.155  11.330   1.256  1.00  0.00     0.200 A 
ATOM     59  F   UNL     1       4.852  11.595   1.708  1.00  0.00    -0.200 F 
ATOM     60  F   UNL     1       7.140  12.410   0.463  1.00  0.00    -0.200 F 
ENDBRANCH  26  50
BRANCH  38  61
ATOM     61  C   UNL     1      10.434   7.588   8.918  1.00  0.00     0.064 A 
ATOM     62  C   UNL     1      10.023   8.705   9.661  1.00  0.00     0.173 A 
ATOM     63  C   UNL     1      11.782   7.206   8.999  1.00  0.00     0.173 A 
ATOM     64  F   UNL     1       8.749   9.122   9.605  1.00  0.00    -0.203 F 
ATOM     65  C   UNL     1      10.934   9.433  10.422  1.00  0.00     0.198 A 
ATOM     66  C   UNL     1      12.682   7.914   9.789  1.00  0.00     0.198 A 
ATOM     67  F   UNL     1      12.225   6.141   8.314  1.00  0.00    -0.203 F 
ATOM     68  F   UNL     1      10.533  10.534  11.072  1.00  0.00    -0.200 F 
ATOM     69  C   UNL     1      12.260   9.033  10.491  1.00  0.00     0.200 A 
ATOM     70  F   UNL     1      13.960   7.517   9.866  1.00  0.00    -0.200 F 
ATOM     71  F   UNL     1      13.136   9.734  11.225  1.00  0.00    -0.200 F 
ENDBRANCH  38  61
ENDBRANCH  12  13
ENDBRANCH   5   7
ENDBRANCH   2   3
ENDBRANCH   1   2
BRANCH   1  72
ATOM     72  C   UNL     1       4.022  -3.241  -1.533  1.00  0.00     0.117 C 
BRANCH  72  73
ATOM     73  N   UNL     1       4.789  -3.347  -2.760  1.00  0.00    -0.356 N 
ATOM     74  C   UNL     1       5.602  -4.273  -3.320  1.00  0.00     0.226 C 
ATOM     75  H   UNL     1       4.696  -2.546  -3.326  1.00  0.00     0.163 HD
ATOM     76  O   UNL     1       5.960  -3.991  -4.473  1.00  0.00    -0.274 OA
BRANCH  74  77
ATOM     77  C   UNL     1       6.139  -5.556  -2.627  1.00  0.00     0.053 C 
ATOM     78  C   UNL     1       5.220  -6.111  -1.514  1.00  0.00     0.017 C 
ATOM     79  C   UNL     1       6.219  -6.626  -3.761  1.00  0.00     0.017 C 
ATOM     80  C   UNL     1       5.493  -7.548  -1.074  1.00  0.00     0.001 C 
ATOM     81  C   UNL     1       6.530  -8.040  -3.286  1.00  0.00     0.001 C 
ATOM     82  C   UNL     1       5.514  -8.501  -2.254  1.00  0.00     0.000 C 
BRANCH  77  83
ATOM     83  C   UNL     1       7.534  -5.222  -2.005  1.00  0.00     0.044 C 
BRANCH  83  84
ATOM     84  C   UNL     1       8.623  -4.837  -2.974  1.00  0.00    -0.025 C 
ATOM     85  C   UNL     1       9.293  -3.673  -2.948  1.00  0.00     0.004 C 
BRANCH  85  86
ATOM     86  C   UNL     1      10.301  -3.325  -3.958  1.00  0.00    -0.026 A 
ATOM     87  C   UNL     1      11.536  -2.798  -3.562  1.00  0.00     0.008 A 
ATOM     88  C   UNL     1      10.027  -3.456  -5.326  1.00  0.00     0.008 A 
ATOM     89  C   UNL     1      12.489  -2.433  -4.518  1.00  0.00     0.001 A 
ATOM     90  C   UNL     1      10.979  -3.090  -6.281  1.00  0.00     0.001 A 
ATOM     91  C   UNL     1      12.211  -2.581  -5.876  1.00  0.00     0.000 A 
ENDBRANCH  85  86
ENDBRANCH  83  84
ENDBRANCH  77  83
ENDBRANCH  74  77
ENDBRANCH  72  73
ENDBRANCH   1  72
TORSDOF 13
