REMARK SMILES Cc1ccccc1OCC(=O)N1C[C@@H](O)C[C@H]1C(=O)NCCCNC(=O)c1ccc(-c2c3nc(c(-c4c(F)c(F)c(F)c(F)c4F)c4ccc([nH]4)c(-c4c(F)c(F)c(F)c(F)c4F)c4nc(c(-c5c(F)c(F)c(F)c(F)c5F)c5ccc2[nH]5)C=C4)C=C3)cc1
REMARK SMILES IDX 21 1 20 2 18 3 19 4 17 6 12 7 13 8 14 9 16 10 10 11 11 12
REMARK SMILES IDX 9 13 8 14 7 15 1 16 2 17 3 18 4 19 6 20 5 21 15 22 22 24
REMARK SMILES IDX 23 25 24 26 25 27 26 29 27 30 28 31 89 32 29 33 88 34 30 35
REMARK SMILES IDX 31 36 32 37 82 38 33 39 87 40 81 41 83 42 34 43 86 44 80 45
REMARK SMILES IDX 79 46 35 48 67 49 47 50 66 51 48 52 51 53 65 54 84 55 49 56
REMARK SMILES IDX 50 57 64 59 85 60 52 61 36 62 37 63 45 64 38 65 39 66 43 67
REMARK SMILES IDX 46 68 40 69 41 70 44 71 42 72 68 73 69 74 77 75 70 76 71 77
REMARK SMILES IDX 75 78 78 79 72 80 73 81 76 82 74 83 53 84 54 85 62 86 55 87
REMARK SMILES IDX 56 88 60 89 63 90 57 91 58 92 61 93 59 94
REMARK H PARENT 20 5 15 23 24 28 83 47 51 58
REMARK Flexibility Score: inf
ROOT
ATOM      1  C   UNL     1       1.505   0.318   4.960  1.00  0.00     0.117 C 
ENDROOT
BRANCH   1   2
ATOM      2  N   UNL     1       2.932   0.165   4.745  1.00  0.00    -0.354 N 
ATOM      3  C   UNL     1       3.886   1.049   4.330  1.00  0.00     0.242 C 
ATOM      4  O   UNL     1       5.060   0.690   4.479  1.00  0.00    -0.273 OA
ATOM      5  H   UNL     1       3.274  -0.739   4.931  1.00  0.00     0.163 HD
BRANCH   3   6
ATOM      6  C   UNL     1       3.567   2.477   3.826  1.00  0.00     0.177 C 
ATOM      7  N   UNL     1       2.665   2.562   2.678  1.00  0.00    -0.325 N 
ATOM      8  C   UNL     1       1.485   3.353   2.963  1.00  0.00     0.152 C 
ATOM      9  C   UNL     1       1.810   4.119   4.242  1.00  0.00     0.136 C 
ATOM     10  C   UNL     1       2.958   3.365   4.913  1.00  0.00     0.069 C 
BRANCH   7  11
ATOM     11  C   UNL     1       3.116   2.189   1.423  1.00  0.00     0.261 C 
ATOM     12  O   UNL     1       4.213   1.648   1.271  1.00  0.00    -0.271 OA
BRANCH  11  13
ATOM     13  C   UNL     1       2.263   2.552   0.200  1.00  0.00     0.329 C 
BRANCH  13  14
ATOM     14  O   UNL     1       0.887   2.270   0.249  1.00  0.00    -0.484 OA
BRANCH  14  15
ATOM     15  C   UNL     1       0.356   1.030   0.061  1.00  0.00     0.122 A 
ATOM     16  C   UNL     1       2.435  -0.470  -0.345  1.00  0.00     0.048 C 
ATOM     17  C   UNL     1       0.963  -0.209  -0.195  1.00  0.00    -0.009 A 
ATOM     18  C   UNL     1       0.134  -1.353  -0.280  1.00  0.00     0.007 A 
ATOM     19  C   UNL     1      -1.252  -1.276  -0.142  1.00  0.00     0.001 A 
ATOM     20  C   UNL     1      -1.046   1.089   0.177  1.00  0.00     0.047 A 
ATOM     21  C   UNL     1      -1.846  -0.047   0.079  1.00  0.00     0.004 A 
ENDBRANCH  14  15
ENDBRANCH  13  14
ENDBRANCH  11  13
ENDBRANCH   7  11
BRANCH   9  22
ATOM     22  O   UNL     1       0.688   4.223   5.108  1.00  0.00    -0.391 OA
ATOM     23  H   UNL     1       0.387   3.335   5.355  1.00  0.00     0.211 HD
ENDBRANCH   9  22
ENDBRANCH   3   6
ENDBRANCH   1   2
BRANCH   1  24
ATOM     24  C   UNL     1       0.676  -0.037   3.739  1.00  0.00     0.042 C 
BRANCH  24  25
ATOM     25  C   UNL     1       0.246  -1.494   3.717  1.00  0.00     0.118 C 
BRANCH  25  26
ATOM     26  N   UNL     1      -1.079  -1.733   4.288  1.00  0.00    -0.352 N 
ATOM     27  C   UNL     1      -1.750  -2.939   4.438  1.00  0.00     0.251 C 
ATOM     28  H   UNL     1      -1.558  -0.935   4.607  1.00  0.00     0.163 HD
ATOM     29  O   UNL     1      -2.858  -2.988   4.937  1.00  0.00    -0.269 OA
BRANCH  27  30
ATOM     30  C   UNL     1      -1.024  -4.182   4.090  1.00  0.00     0.039 A 
ATOM     31  C   UNL     1      -0.849  -5.140   5.092  1.00  0.00     0.014 A 
ATOM     32  C   UNL     1      -0.307  -4.253   2.900  1.00  0.00     0.014 A 
ATOM     33  C   UNL     1       0.237  -6.006   5.008  1.00  0.00     0.010 A 
ATOM     34  C   UNL     1       0.833  -5.029   2.870  1.00  0.00     0.010 A 
ATOM     35  C   UNL     1       1.144  -5.849   3.960  1.00  0.00    -0.014 A 
BRANCH  35  36
ATOM     36  C   UNL     1       2.492  -6.406   3.986  1.00  0.00     0.031 A 
ATOM     37  C   UNL     1       2.852  -7.538   3.112  1.00  0.00     0.074 A 
ATOM     38  C   UNL     1       3.440  -5.824   4.754  1.00  0.00     0.049 A 
ATOM     39  N   UNL     1       3.873  -8.304   3.297  1.00  0.00    -0.248 NA
ATOM     40  C   UNL     1       2.043  -7.926   1.965  1.00  0.00     0.031 C 
ATOM     41  C   UNL     1       4.883  -6.057   4.718  1.00  0.00     0.029 A 
ATOM     42  N   UNL     1       3.245  -5.050   5.912  1.00  0.00    -0.354 N 
ATOM     43  C   UNL     1       4.015  -9.100   2.185  1.00  0.00     0.074 A 
ATOM     44  C   UNL     1       2.817  -8.864   1.411  1.00  0.00     0.031 C 
ATOM     45  C   UNL     1       5.396  -5.752   5.919  1.00  0.00     0.029 A 
ATOM     46  C   UNL     1       4.279  -5.453   6.796  1.00  0.00     0.049 A 
ATOM     47  H   UNL     1       2.545  -4.377   6.074  1.00  0.00     0.167 HD
ATOM     48  C   UNL     1       5.186  -9.777   2.001  1.00  0.00     0.037 A 
ATOM     49  C   UNL     1       3.991  -6.103   7.960  1.00  0.00     0.037 A 
ATOM     50  C   UNL     1       6.074  -9.645   3.158  1.00  0.00     0.049 A 
ATOM     51  C   UNL     1       4.605  -7.483   8.091  1.00  0.00     0.074 A 
ATOM     52  C   UNL     1       7.205  -8.898   3.446  1.00  0.00     0.029 A 
ATOM     53  N   UNL     1       5.657 -10.173   4.368  1.00  0.00    -0.354 N 
ATOM     54  N   UNL     1       5.275  -8.091   7.152  1.00  0.00    -0.248 NA
ATOM     55  C   UNL     1       4.401  -8.332   9.266  1.00  0.00     0.031 C 
ATOM     56  C   UNL     1       7.474  -9.009   4.842  1.00  0.00     0.029 A 
ATOM     57  C   UNL     1       6.503  -9.818   5.400  1.00  0.00     0.049 A 
ATOM     58  H   UNL     1       4.856 -10.734   4.479  1.00  0.00     0.167 HD
ATOM     59  C   UNL     1       5.548  -9.374   7.546  1.00  0.00     0.074 A 
ATOM     60  C   UNL     1       4.971  -9.482   8.873  1.00  0.00     0.031 C 
ATOM     61  C   UNL     1       6.188 -10.273   6.742  1.00  0.00     0.037 A 
BRANCH  48  62
ATOM     62  C   UNL     1       5.623 -10.370   0.676  1.00  0.00     0.064 A 
ATOM     63  C   UNL     1       6.993 -10.489   0.355  1.00  0.00     0.173 A 
ATOM     64  C   UNL     1       4.750 -10.782  -0.347  1.00  0.00     0.173 A 
ATOM     65  F   UNL     1       7.950 -10.264   1.264  1.00  0.00    -0.203 F 
ATOM     66  C   UNL     1       7.440 -10.847  -0.921  1.00  0.00     0.198 A 
ATOM     67  C   UNL     1       5.191 -11.078  -1.641  1.00  0.00     0.198 A 
ATOM     68  F   UNL     1       3.448 -10.983  -0.114  1.00  0.00    -0.203 F 
ATOM     69  F   UNL     1       8.755 -10.933  -1.164  1.00  0.00    -0.200 F 
ATOM     70  C   UNL     1       6.537 -11.096  -1.933  1.00  0.00     0.200 A 
ATOM     71  F   UNL     1       4.295 -11.353  -2.601  1.00  0.00    -0.200 F 
ATOM     72  F   UNL     1       6.962 -11.385  -3.170  1.00  0.00    -0.200 F 
ENDBRANCH  48  62
BRANCH  49  73
ATOM     73  C   UNL     1       2.684  -5.698   8.545  1.00  0.00     0.064 A 
ATOM     74  C   UNL     1       2.479  -4.342   8.871  1.00  0.00     0.173 A 
ATOM     75  C   UNL     1       1.555  -6.519   8.460  1.00  0.00     0.173 A 
ATOM     76  F   UNL     1       3.527  -3.506   8.963  1.00  0.00    -0.203 F 
ATOM     77  C   UNL     1       1.198  -3.809   8.985  1.00  0.00     0.198 A 
ATOM     78  C   UNL     1       0.273  -5.986   8.601  1.00  0.00     0.198 A 
ATOM     79  F   UNL     1       1.676  -7.811   8.126  1.00  0.00    -0.203 F 
ATOM     80  F   UNL     1       1.034  -2.491   9.170  1.00  0.00    -0.200 F 
ATOM     81  C   UNL     1       0.094  -4.629   8.826  1.00  0.00     0.200 A 
ATOM     82  F   UNL     1      -0.796  -6.774   8.415  1.00  0.00    -0.200 F 
ATOM     83  F   UNL     1      -1.139  -4.106   8.842  1.00  0.00    -0.200 F 
ENDBRANCH  49  73
BRANCH  61  84
ATOM     84  C   UNL     1       6.533 -11.680   7.155  1.00  0.00     0.064 A 
ATOM     85  C   UNL     1       7.013 -12.000   8.435  1.00  0.00     0.173 A 
ATOM     86  C   UNL     1       6.487 -12.748   6.231  1.00  0.00     0.173 A 
ATOM     87  F   UNL     1       7.196 -11.047   9.360  1.00  0.00    -0.203 F 
ATOM     88  C   UNL     1       7.343 -13.311   8.791  1.00  0.00     0.198 A 
ATOM     89  C   UNL     1       6.868 -14.045   6.573  1.00  0.00     0.198 A 
ATOM     90  F   UNL     1       6.051 -12.575   4.976  1.00  0.00    -0.203 F 
ATOM     91  F   UNL     1       7.732 -13.580  10.045  1.00  0.00    -0.200 F 
ATOM     92  C   UNL     1       7.276 -14.331   7.859  1.00  0.00     0.200 A 
ATOM     93  F   UNL     1       6.827 -15.015   5.648  1.00  0.00    -0.200 F 
ATOM     94  F   UNL     1       7.605 -15.584   8.199  1.00  0.00    -0.200 F 
ENDBRANCH  61  84
ENDBRANCH  35  36
ENDBRANCH  27  30
ENDBRANCH  25  26
ENDBRANCH  24  25
ENDBRANCH   1  24
TORSDOF 15
