REMARK SMILES Cc1nnc(SCC2=C(C(=O)NCCCNC(=O)c3ccc(-c4c5nc(c(-c6c(F)c(F)c(F)c(F)c6F)c6ccc([nH]6)c(-c6c(F)c(F)c(F)c(F)c6F)c6nc(c(-c7c(F)c(F)c(F)c(F)c7F)c7ccc4[nH]7)C=C6)C=C5)cc3)N3C(=O)[C@H](NC(=O)c4ccc(F)cc4F)[C@H]3SC2)s1
REMARK SMILES IDX 13 1 12 2 10 3 11 4 9 6 8 7 99 8 82 9 98 10 83 11 97 12
REMARK SMILES IDX 84 13 85 14 7 15 6 16 5 17 1 18 2 19 3 20 100 21 4 22 86 23
REMARK SMILES IDX 87 24 88 26 89 27 90 28 95 29 91 30 94 31 96 32 92 33 93 34
REMARK SMILES IDX 14 35 15 36 16 37 17 38 18 40 19 41 20 42 81 43 21 44 80 45
REMARK SMILES IDX 22 46 23 47 24 48 74 49 25 50 79 51 73 52 75 53 26 54 78 55
REMARK SMILES IDX 72 56 71 57 27 59 59 60 39 61 58 62 40 63 43 64 57 65 76 66
REMARK SMILES IDX 41 67 42 68 56 70 77 71 44 72 28 73 29 74 37 75 30 76 31 77
REMARK SMILES IDX 35 78 38 79 32 80 33 81 36 82 34 83 60 84 61 85 69 86 62 87
REMARK SMILES IDX 63 88 67 89 70 90 64 91 65 92 68 93 66 94 45 95 46 96 54 97
REMARK SMILES IDX 47 98 48 99 52 100 55 101 49 102 50 103 53 104 51 105
REMARK H PARENT 12 5 86 25 16 39 75 58 43 69
REMARK Flexibility Score: inf
ROOT
ATOM      1  C   UNL     1       3.305  -1.523  -1.929  1.00  0.00     0.118 C 
ENDROOT
BRANCH   1   2
ATOM      2  N   UNL     1       3.316  -2.785  -1.237  1.00  0.00    -0.351 N 
ATOM      3  C   UNL     1       3.422  -3.254   0.020  1.00  0.00     0.268 C 
ATOM      4  O   UNL     1       2.941  -4.395   0.085  1.00  0.00    -0.268 OA
ATOM      5  H   UNL     1       3.215  -3.528  -1.875  1.00  0.00     0.163 HD
BRANCH   3   6
ATOM      6  C   UNL     1       4.030  -2.632   1.293  1.00  0.00     0.111 C 
ATOM      7  C   UNL     1       4.457  -1.362   1.607  1.00  0.00    -0.020 C 
ATOM      8  C   UNL     1       5.114  -0.958   2.948  1.00  0.00     0.106 C 
ATOM      9  N   UNL     1       4.048  -3.537   2.346  1.00  0.00    -0.290 N 
ATOM     10  S   UNL     1       5.468  -2.275   4.114  1.00  0.00    -0.129 SA
ATOM     11  C   UNL     1       3.892  -4.854   2.642  1.00  0.00     0.253 C 
ATOM     12  C   UNL     1       3.915  -3.069   3.698  1.00  0.00     0.181 C 
ATOM     13  O   UNL     1       3.908  -5.892   2.020  1.00  0.00    -0.272 OA
ATOM     14  C   UNL     1       3.771  -4.519   4.174  1.00  0.00     0.206 C 
BRANCH   7  15
ATOM     15  C   UNL     1       4.434  -0.114   0.767  1.00  0.00     0.111 C 
BRANCH  15  16
ATOM     16  S   UNL     1       3.188   1.113   1.254  1.00  0.00    -0.089 SA
BRANCH  16  17
ATOM     17  C   UNL     1       1.658   0.394   0.819  1.00  0.00     0.174 A 
ATOM     18  C   UNL     1      -2.045  -0.169  -0.024  1.00  0.00     0.081 C 
ATOM     19  C   UNL     1      -0.589  -0.153   0.268  1.00  0.00     0.115 A 
ATOM     20  N   UNL     1       0.167  -1.222   0.403  1.00  0.00    -0.143 NA
ATOM     21  S   UNL     1       0.257   1.328   0.482  1.00  0.00    -0.091 S 
ATOM     22  N   UNL     1       1.463  -0.902   0.751  1.00  0.00    -0.132 NA
ENDBRANCH  16  17
ENDBRANCH  15  16
ENDBRANCH   7  15
BRANCH  14  23
ATOM     23  N   UNL     1       2.481  -4.894   4.831  1.00  0.00    -0.338 N 
ATOM     24  C   UNL     1       1.840  -4.332   5.917  1.00  0.00     0.254 C 
ATOM     25  H   UNL     1       2.017  -5.662   4.426  1.00  0.00     0.164 HD
ATOM     26  O   UNL     1       0.893  -4.899   6.451  1.00  0.00    -0.269 OA
BRANCH  24  27
ATOM     27  C   UNL     1       2.296  -3.053   6.485  1.00  0.00     0.075 A 
ATOM     28  C   UNL     1       2.983  -3.032   7.702  1.00  0.00     0.020 A 
ATOM     29  C   UNL     1       1.973  -1.849   5.857  1.00  0.00     0.138 A 
ATOM     30  C   UNL     1       3.438  -1.811   8.212  1.00  0.00     0.040 A 
ATOM     31  C   UNL     1       2.475  -0.640   6.325  1.00  0.00     0.079 A 
ATOM     32  F   UNL     1       1.216  -1.837   4.750  1.00  0.00    -0.206 F 
ATOM     33  C   UNL     1       3.213  -0.634   7.499  1.00  0.00     0.126 A 
ATOM     34  F   UNL     1       3.703   0.523   7.960  1.00  0.00    -0.207 F 
ENDBRANCH  24  27
ENDBRANCH  14  23
ENDBRANCH   3   6
ENDBRANCH   1   2
BRANCH   1  35
ATOM     35  C   UNL     1       4.672  -1.157  -2.490  1.00  0.00     0.042 C 
BRANCH  35  36
ATOM     36  C   UNL     1       4.727  -1.358  -3.991  1.00  0.00     0.118 C 
BRANCH  36  37
ATOM     37  N   UNL     1       3.880  -0.386  -4.677  1.00  0.00    -0.352 N 
ATOM     38  C   UNL     1       4.205   0.533  -5.640  1.00  0.00     0.251 C 
ATOM     39  H   UNL     1       2.933  -0.393  -4.407  1.00  0.00     0.163 HD
ATOM     40  O   UNL     1       3.418   1.434  -5.917  1.00  0.00    -0.269 OA
BRANCH  38  41
ATOM     41  C   UNL     1       5.509   0.447  -6.326  1.00  0.00     0.039 A 
ATOM     42  C   UNL     1       6.180   1.625  -6.660  1.00  0.00     0.014 A 
ATOM     43  C   UNL     1       6.066  -0.794  -6.643  1.00  0.00     0.014 A 
ATOM     44  C   UNL     1       7.435   1.553  -7.262  1.00  0.00     0.010 A 
ATOM     45  C   UNL     1       7.362  -0.865  -7.132  1.00  0.00     0.010 A 
ATOM     46  C   UNL     1       8.050   0.308  -7.470  1.00  0.00    -0.014 A 
BRANCH  46  47
ATOM     47  C   UNL     1       9.399   0.203  -8.072  1.00  0.00     0.031 A 
ATOM     48  C   UNL     1       9.577  -0.532  -9.374  1.00  0.00     0.074 A 
ATOM     49  C   UNL     1      10.461   0.707  -7.415  1.00  0.00     0.049 A 
ATOM     50  N   UNL     1      10.679  -0.804 -10.025  1.00  0.00    -0.248 NA
ATOM     51  C   UNL     1       8.360  -1.062 -10.014  1.00  0.00     0.031 C 
ATOM     52  C   UNL     1      10.410   1.386  -6.118  1.00  0.00     0.029 A 
ATOM     53  N   UNL     1      11.793   0.717  -7.740  1.00  0.00    -0.354 N 
ATOM     54  C   UNL     1      10.289  -1.551 -11.129  1.00  0.00     0.074 A 
ATOM     55  C   UNL     1       8.860  -1.739 -11.037  1.00  0.00     0.031 C 
ATOM     56  C   UNL     1      11.649   1.765  -5.770  1.00  0.00     0.029 A 
ATOM     57  C   UNL     1      12.587   1.317  -6.793  1.00  0.00     0.049 A 
ATOM     58  H   UNL     1      12.147   0.330  -8.574  1.00  0.00     0.167 HD
ATOM     59  C   UNL     1      11.056  -2.015 -12.142  1.00  0.00     0.037 A 
ATOM     60  C   UNL     1      13.924   1.471  -6.753  1.00  0.00     0.037 A 
ATOM     61  C   UNL     1      12.471  -1.783 -12.245  1.00  0.00     0.049 A 
ATOM     62  C   UNL     1      14.747   0.952  -7.902  1.00  0.00     0.074 A 
ATOM     63  C   UNL     1      13.328  -2.136 -13.272  1.00  0.00     0.029 A 
ATOM     64  N   UNL     1      13.237  -1.141 -11.284  1.00  0.00    -0.354 N 
ATOM     65  N   UNL     1      14.355   0.328  -8.987  1.00  0.00    -0.248 NA
ATOM     66  C   UNL     1      16.199   1.167  -7.828  1.00  0.00     0.031 C 
ATOM     67  C   UNL     1      14.623  -1.763 -12.904  1.00  0.00     0.029 A 
ATOM     68  C   UNL     1      14.563  -1.115 -11.681  1.00  0.00     0.049 A 
ATOM     69  H   UNL     1      12.890  -0.760 -10.445  1.00  0.00     0.167 HD
ATOM     70  C   UNL     1      15.503   0.106  -9.736  1.00  0.00     0.074 A 
ATOM     71  C   UNL     1      16.603   0.682  -8.992  1.00  0.00     0.031 C 
ATOM     72  C   UNL     1      15.638  -0.520 -10.931  1.00  0.00     0.037 A 
BRANCH  59  73
ATOM     73  C   UNL     1      10.392  -2.811 -13.227  1.00  0.00     0.064 A 
ATOM     74  C   UNL     1       9.520  -2.218 -14.152  1.00  0.00     0.173 A 
ATOM     75  C   UNL     1      10.696  -4.171 -13.392  1.00  0.00     0.173 A 
ATOM     76  F   UNL     1       9.185  -0.924 -14.032  1.00  0.00    -0.203 F 
ATOM     77  C   UNL     1       8.968  -2.959 -15.194  1.00  0.00     0.198 A 
ATOM     78  C   UNL     1      10.167  -4.901 -14.453  1.00  0.00     0.198 A 
ATOM     79  F   UNL     1      11.525  -4.787 -12.536  1.00  0.00    -0.203 F 
ATOM     80  F   UNL     1       8.111  -2.379 -16.046  1.00  0.00    -0.200 F 
ATOM     81  C   UNL     1       9.302  -4.296 -15.351  1.00  0.00     0.200 A 
ATOM     82  F   UNL     1      10.504  -6.189 -14.611  1.00  0.00    -0.200 F 
ATOM     83  F   UNL     1       8.789  -5.001 -16.368  1.00  0.00    -0.200 F 
ENDBRANCH  59  73
BRANCH  60  84
ATOM     84  C   UNL     1      14.572   2.141  -5.593  1.00  0.00     0.064 A 
ATOM     85  C   UNL     1      15.247   3.361  -5.744  1.00  0.00     0.173 A 
ATOM     86  C   UNL     1      14.569   1.555  -4.318  1.00  0.00     0.173 A 
ATOM     87  F   UNL     1      15.292   3.957  -6.945  1.00  0.00    -0.203 F 
ATOM     88  C   UNL     1      15.930   3.945  -4.678  1.00  0.00     0.198 A 
ATOM     89  C   UNL     1      15.220   2.159  -3.244  1.00  0.00     0.198 A 
ATOM     90  F   UNL     1      13.929   0.395  -4.112  1.00  0.00    -0.203 F 
ATOM     91  F   UNL     1      16.626   5.074  -4.870  1.00  0.00    -0.200 F 
ATOM     92  C   UNL     1      15.914   3.345  -3.429  1.00  0.00     0.200 A 
ATOM     93  F   UNL     1      15.183   1.586  -2.033  1.00  0.00    -0.200 F 
ATOM     94  F   UNL     1      16.576   3.903  -2.406  1.00  0.00    -0.200 F 
ENDBRANCH  60  84
BRANCH  72  95
ATOM     95  C   UNL     1      17.014  -0.571 -11.530  1.00  0.00     0.064 A 
ATOM     96  C   UNL     1      18.030  -1.365 -10.981  1.00  0.00     0.173 A 
ATOM     97  C   UNL     1      17.302   0.153 -12.697  1.00  0.00     0.173 A 
ATOM     98  F   UNL     1      17.809  -2.066  -9.858  1.00  0.00    -0.203 F 
ATOM     99  C   UNL     1      19.295  -1.407 -11.560  1.00  0.00     0.198 A 
ATOM    100  C   UNL     1      18.556   0.078 -13.295  1.00  0.00     0.198 A 
ATOM    101  F   UNL     1      16.361   0.920 -13.268  1.00  0.00    -0.203 F 
ATOM    102  F   UNL     1      20.269  -2.128 -10.986  1.00  0.00    -0.200 F 
ATOM    103  C   UNL     1      19.554  -0.693 -12.721  1.00  0.00     0.200 A 
ATOM    104  F   UNL     1      18.798   0.753 -14.427  1.00  0.00    -0.200 F 
ATOM    105  F   UNL     1      20.770  -0.744 -13.283  1.00  0.00    -0.200 F 
ENDBRANCH  72  95
ENDBRANCH  46  47
ENDBRANCH  38  41
ENDBRANCH  36  37
ENDBRANCH  35  36
ENDBRANCH   1  35
TORSDOF 15
