REMARK SMILES CCN(C(=O)N(C)Cc1cccc(C)n1)C(C)(C)C(=O)NCCCNC(=O)c1ccc(-c2c3nc(c(-c4c(F)c(F)c(F)c(F)c4F)c4ccc([nH]4)c(-c4c(F)c(F)c(F)c(F)c4F)c4nc(c(-c5c(F)c(F)c(F)c(F)c5F)c5ccc2[nH]5)C=C4)C=C3)cc1
REMARK SMILES IDX 19 1 20 2 21 3 16 5 17 6 18 7 3 8 2 9 1 10 4 11 5 12 6 13
REMARK SMILES IDX 7 14 8 15 9 16 10 17 15 18 11 19 13 20 12 21 14 22 22 23
REMARK SMILES IDX 23 24 24 25 25 26 26 27 27 29 28 30 29 31 90 32 30 33 89 34
REMARK SMILES IDX 31 35 32 36 33 37 83 38 34 39 88 40 82 41 84 42 35 43 87 44
REMARK SMILES IDX 81 45 80 46 36 48 68 49 48 50 67 51 49 52 52 53 66 54 85 55
REMARK SMILES IDX 50 56 51 57 65 59 86 60 53 61 37 62 38 63 46 64 39 65 40 66
REMARK SMILES IDX 44 67 47 68 41 69 42 70 45 71 43 72 69 73 70 74 78 75 71 76
REMARK SMILES IDX 72 77 76 78 79 79 73 80 74 81 77 82 75 83 54 84 55 85 63 86
REMARK SMILES IDX 56 87 57 88 61 89 64 90 58 91 59 92 62 93 60 94
REMARK H PARENT 21 4 25 28 84 47 52 58
REMARK Flexibility Score: inf
ROOT
ATOM      1  C   UNL     1       2.694   2.491   2.971  1.00  0.00     0.245 C 
ATOM      2  O   UNL     1       1.933   3.464   2.935  1.00  0.00    -0.272 OA
ATOM      3  N   UNL     1       3.951   2.746   3.472  1.00  0.00    -0.354 N 
ATOM      4  H   UNL     1       3.996   3.533   4.061  1.00  0.00     0.163 HD
ENDROOT
BRANCH   1   5
ATOM      5  C   UNL     1       2.325   1.081   2.354  1.00  0.00     0.117 C 
ATOM      6  C   UNL     1       2.818  -0.060   3.279  1.00  0.00     0.045 C 
ATOM      7  C   UNL     1       3.064   1.103   0.993  1.00  0.00     0.045 C 
BRANCH   5   8
ATOM      8  N   UNL     1       0.838   0.855   2.082  1.00  0.00    -0.311 N 
BRANCH   8   9
ATOM      9  C   UNL     1       0.471  -0.385   1.369  1.00  0.00     0.119 C 
ATOM     10  C   UNL     1       0.574  -0.332  -0.149  1.00  0.00     0.027 C 
ENDBRANCH   8   9
BRANCH   8  11
ATOM     11  C   UNL     1      -0.055   1.341   3.049  1.00  0.00     0.320 C 
ATOM     12  O   UNL     1       0.326   1.536   4.205  1.00  0.00    -0.248 OA
BRANCH  11  13
ATOM     13  N   UNL     1      -1.359   1.635   2.658  1.00  0.00    -0.322 N 
ATOM     14  C   UNL     1      -1.984   1.372   1.369  1.00  0.00     0.149 C 
BRANCH  13  15
ATOM     15  C   UNL     1      -2.174   2.425   3.594  1.00  0.00     0.177 C 
BRANCH  15  16
ATOM     16  C   UNL     1      -3.371   1.731   4.211  1.00  0.00     0.060 A 
ATOM     17  C   UNL     1      -3.420   0.353   4.395  1.00  0.00     0.026 A 
ATOM     18  N   UNL     1      -4.364   2.549   4.659  1.00  0.00    -0.256 NA
ATOM     19  C   UNL     1      -4.523  -0.201   5.039  1.00  0.00     0.004 A 
ATOM     20  C   UNL     1      -5.417   1.999   5.309  1.00  0.00     0.038 A 
ATOM     21  C   UNL     1      -5.532   0.630   5.512  1.00  0.00     0.023 A 
ATOM     22  C   UNL     1      -6.434   2.950   5.864  1.00  0.00     0.067 C 
ENDBRANCH  15  16
ENDBRANCH  13  15
ENDBRANCH  11  13
ENDBRANCH   8  11
ENDBRANCH   5   8
ENDBRANCH   1   5
BRANCH   3  23
ATOM     23  C   UNL     1       5.230   2.063   3.291  1.00  0.00     0.117 C 
BRANCH  23  24
ATOM     24  C   UNL     1       6.174   2.868   2.403  1.00  0.00     0.042 C 
BRANCH  24  25
ATOM     25  C   UNL     1       6.657   4.160   3.043  1.00  0.00     0.118 C 
BRANCH  25  26
ATOM     26  N   UNL     1       7.606   3.928   4.122  1.00  0.00    -0.352 N 
ATOM     27  C   UNL     1       8.920   4.330   4.232  1.00  0.00     0.251 C 
ATOM     28  H   UNL     1       7.260   3.410   4.884  1.00  0.00     0.163 HD
ATOM     29  O   UNL     1       9.628   3.901   5.127  1.00  0.00    -0.269 OA
BRANCH  27  30
ATOM     30  C   UNL     1       9.474   5.270   3.232  1.00  0.00     0.039 A 
ATOM     31  C   UNL     1      10.713   4.993   2.650  1.00  0.00     0.014 A 
ATOM     32  C   UNL     1       8.757   6.407   2.858  1.00  0.00     0.014 A 
ATOM     33  C   UNL     1      11.196   5.815   1.628  1.00  0.00     0.010 A 
ATOM     34  C   UNL     1       9.197   7.175   1.787  1.00  0.00     0.010 A 
ATOM     35  C   UNL     1      10.420   6.887   1.160  1.00  0.00    -0.014 A 
BRANCH  35  36
ATOM     36  C   UNL     1      10.852   7.747   0.031  1.00  0.00     0.031 A 
ATOM     37  C   UNL     1      11.067   9.215   0.266  1.00  0.00     0.074 A 
ATOM     38  C   UNL     1      10.932   7.240  -1.214  1.00  0.00     0.049 A 
ATOM     39  N   UNL     1      11.231  10.181  -0.602  1.00  0.00    -0.248 NA
ATOM     40  C   UNL     1      11.058   9.660   1.668  1.00  0.00     0.031 C 
ATOM     41  C   UNL     1      10.718   5.839  -1.575  1.00  0.00     0.029 A 
ATOM     42  N   UNL     1      11.185   7.858  -2.415  1.00  0.00    -0.354 N 
ATOM     43  C   UNL     1      11.310  11.347   0.148  1.00  0.00     0.074 A 
ATOM     44  C   UNL     1      11.131  10.975   1.534  1.00  0.00     0.031 C 
ATOM     45  C   UNL     1      10.846   5.703  -2.905  1.00  0.00     0.029 A 
ATOM     46  C   UNL     1      11.102   7.013  -3.495  1.00  0.00     0.049 A 
ATOM     47  H   UNL     1      11.404   8.814  -2.493  1.00  0.00     0.167 HD
ATOM     48  C   UNL     1      11.530  12.612  -0.282  1.00  0.00     0.037 A 
ATOM     49  C   UNL     1      11.193   7.273  -4.814  1.00  0.00     0.037 A 
ATOM     50  C   UNL     1      11.738  12.970  -1.660  1.00  0.00     0.049 A 
ATOM     51  C   UNL     1      11.434   8.687  -5.270  1.00  0.00     0.074 A 
ATOM     52  C   UNL     1      12.012  14.215  -2.196  1.00  0.00     0.029 A 
ATOM     53  N   UNL     1      11.697  12.076  -2.720  1.00  0.00    -0.354 N 
ATOM     54  N   UNL     1      11.544   9.779  -4.552  1.00  0.00    -0.248 NA
ATOM     55  C   UNL     1      11.565   8.907  -6.717  1.00  0.00     0.031 C 
ATOM     56  C   UNL     1      12.104  14.081  -3.585  1.00  0.00     0.029 A 
ATOM     57  C   UNL     1      11.933  12.744  -3.909  1.00  0.00     0.049 A 
ATOM     58  H   UNL     1      11.526  11.110  -2.638  1.00  0.00     0.167 HD
ATOM     59  C   UNL     1      11.790  10.806  -5.453  1.00  0.00     0.074 A 
ATOM     60  C   UNL     1      11.814  10.208  -6.772  1.00  0.00     0.031 C 
ATOM     61  C   UNL     1      11.980  12.125  -5.209  1.00  0.00     0.037 A 
BRANCH  48  62
ATOM     62  C   UNL     1      11.557  13.698   0.753  1.00  0.00     0.064 A 
ATOM     63  C   UNL     1      12.599  13.798   1.688  1.00  0.00     0.173 A 
ATOM     64  C   UNL     1      10.540  14.664   0.800  1.00  0.00     0.173 A 
ATOM     65  F   UNL     1      13.589  12.893   1.693  1.00  0.00    -0.203 F 
ATOM     66  C   UNL     1      12.603  14.800   2.653  1.00  0.00     0.198 A 
ATOM     67  C   UNL     1      10.564  15.684   1.747  1.00  0.00     0.198 A 
ATOM     68  F   UNL     1       9.523  14.620  -0.074  1.00  0.00    -0.203 F 
ATOM     69  F   UNL     1      13.579  14.840   3.571  1.00  0.00    -0.200 F 
ATOM     70  C   UNL     1      11.589  15.746   2.678  1.00  0.00     0.200 A 
ATOM     71  F   UNL     1       9.591  16.606   1.761  1.00  0.00    -0.200 F 
ATOM     72  F   UNL     1      11.596  16.713   3.606  1.00  0.00    -0.200 F 
ENDBRANCH  48  62
BRANCH  49  73
ATOM     73  C   UNL     1      11.064   6.166  -5.796  1.00  0.00     0.064 A 
ATOM     74  C   UNL     1      12.174   5.718  -6.525  1.00  0.00     0.173 A 
ATOM     75  C   UNL     1       9.835   5.527  -6.021  1.00  0.00     0.173 A 
ATOM     76  F   UNL     1      13.366   6.311  -6.359  1.00  0.00    -0.203 F 
ATOM     77  C   UNL     1      12.058   4.685  -7.452  1.00  0.00     0.198 A 
ATOM     78  C   UNL     1       9.726   4.476  -6.929  1.00  0.00     0.198 A 
ATOM     79  F   UNL     1       8.743   5.913  -5.345  1.00  0.00    -0.203 F 
ATOM     80  F   UNL     1      13.128   4.304  -8.164  1.00  0.00    -0.200 F 
ATOM     81  C   UNL     1      10.836   4.060  -7.649  1.00  0.00     0.200 A 
ATOM     82  F   UNL     1       8.547   3.865  -7.106  1.00  0.00    -0.200 F 
ATOM     83  F   UNL     1      10.727   3.062  -8.536  1.00  0.00    -0.200 F 
ENDBRANCH  49  73
BRANCH  61  84
ATOM     84  C   UNL     1      12.289  13.011  -6.379  1.00  0.00     0.064 A 
ATOM     85  C   UNL     1      11.299  13.398  -7.292  1.00  0.00     0.173 A 
ATOM     86  C   UNL     1      13.578  13.542  -6.538  1.00  0.00     0.173 A 
ATOM     87  F   UNL     1      10.055  12.906  -7.190  1.00  0.00    -0.203 F 
ATOM     88  C   UNL     1      11.591  14.280  -8.330  1.00  0.00     0.198 A 
ATOM     89  C   UNL     1      13.860  14.442  -7.561  1.00  0.00     0.198 A 
ATOM     90  F   UNL     1      14.558  13.204  -5.686  1.00  0.00    -0.203 F 
ATOM     91  F   UNL     1      10.638  14.617  -9.209  1.00  0.00    -0.200 F 
ATOM     92  C   UNL     1      12.868  14.809  -8.457  1.00  0.00     0.200 A 
ATOM     93  F   UNL     1      15.090  14.962  -7.673  1.00  0.00    -0.200 F 
ATOM     94  F   UNL     1      13.142  15.671  -9.445  1.00  0.00    -0.200 F 
ENDBRANCH  61  84
ENDBRANCH  35  36
ENDBRANCH  27  30
ENDBRANCH  25  26
ENDBRANCH  24  25
ENDBRANCH  23  24
ENDBRANCH   3  23
TORSDOF 16
