REMARK SMILES COc1ccc([C@H]2[C@@H](C(=O)NCCCNC(=O)c3ccc(-c4c5nc(c(-c6c(F)c(F)c(F)c(F)c6F)c6ccc([nH]6)c(-c6c(F)c(F)c(F)c(F)c6F)c6nc(c(-c7c(F)c(F)c(F)c(F)c7F)c7ccc4[nH]7)C=C6)C=C5)cc3)CC(=O)N2Cc2ccccc2)cc1
REMARK SMILES IDX 13 1 12 2 11 3 9 4 10 5 8 7 7 8 84 9 81 10 82 11 83 12 6 13
REMARK SMILES IDX 3 14 4 15 93 16 5 17 92 18 2 19 1 20 85 21 86 22 87 23 91 24
REMARK SMILES IDX 88 25 90 26 89 27 14 28 15 29 16 30 17 32 18 33 19 34 80 35
REMARK SMILES IDX 20 36 79 37 21 38 22 39 23 40 73 41 24 42 78 43 72 44 74 45
REMARK SMILES IDX 25 46 77 47 71 48 70 49 26 51 58 52 38 53 57 54 39 55 42 56
REMARK SMILES IDX 56 57 75 58 40 59 41 60 55 62 76 63 43 64 27 65 28 66 36 67
REMARK SMILES IDX 29 68 30 69 34 70 37 71 31 72 32 73 35 74 33 75 59 76 60 77
REMARK SMILES IDX 68 78 61 79 62 80 66 81 69 82 63 83 64 84 67 85 65 86 44 87
REMARK SMILES IDX 45 88 53 89 46 90 47 91 51 92 54 93 48 94 49 95 52 96 50 97
REMARK H PARENT 11 6 15 31 74 50 42 61
REMARK Flexibility Score: inf
ROOT
ATOM      1  C   UNL     1       0.710 -10.968   1.524  1.00  0.00     0.042 C 
ENDROOT
BRANCH   1   2
ATOM      2  C   UNL     1       0.997  -9.485   1.528  1.00  0.00     0.117 C 
BRANCH   2   3
ATOM      3  N   UNL     1       2.093  -9.078   2.376  1.00  0.00    -0.356 N 
ATOM      4  C   UNL     1       2.886  -7.979   2.238  1.00  0.00     0.226 C 
ATOM      5  O   UNL     1       3.522  -7.606   3.228  1.00  0.00    -0.275 OA
ATOM      6  H   UNL     1       2.291  -9.663   3.143  1.00  0.00     0.163 HD
BRANCH   4   7
ATOM      7  C   UNL     1       3.038  -7.242   0.918  1.00  0.00     0.115 C 
ATOM      8  C   UNL     1       1.901  -6.329   0.414  1.00  0.00     0.128 C 
ATOM      9  N   UNL     1       1.870  -6.576  -1.027  1.00  0.00    -0.330 N 
ATOM     10  C   UNL     1       3.419  -8.169  -0.234  1.00  0.00     0.116 C 
ATOM     11  C   UNL     1       2.670  -7.636  -1.419  1.00  0.00     0.224 C 
ATOM     12  O   UNL     1       2.814  -8.054  -2.558  1.00  0.00    -0.275 OA
BRANCH   8  13
ATOM     13  C   UNL     1       0.569  -6.396   1.149  1.00  0.00    -0.024 A 
ATOM     14  C   UNL     1      -1.845  -6.517   2.637  1.00  0.00     0.118 A 
ATOM     15  C   UNL     1      -0.709  -5.925   3.181  1.00  0.00     0.047 A 
ATOM     16  C   UNL     1      -1.794  -7.030   1.345  1.00  0.00     0.047 A 
ATOM     17  C   UNL     1       0.484  -5.865   2.449  1.00  0.00     0.010 A 
ATOM     18  C   UNL     1      -0.595  -6.978   0.616  1.00  0.00     0.010 A 
BRANCH  14  19
ATOM     19  O   UNL     1      -2.980  -6.469   3.398  1.00  0.00    -0.497 OA
ATOM     20  C   UNL     1      -3.695  -7.701   3.467  1.00  0.00     0.278 C 
ENDBRANCH  14  19
ENDBRANCH   8  13
BRANCH   9  21
ATOM     21  C   UNL     1       1.445  -5.578  -2.009  1.00  0.00     0.155 C 
BRANCH  21  22
ATOM     22  C   UNL     1      -0.043  -5.421  -2.158  1.00  0.00    -0.029 A 
ATOM     23  C   UNL     1      -0.758  -6.230  -3.054  1.00  0.00     0.005 A 
ATOM     24  C   UNL     1      -0.745  -4.495  -1.373  1.00  0.00     0.005 A 
ATOM     25  C   UNL     1      -2.148  -6.128  -3.144  1.00  0.00     0.000 A 
ATOM     26  C   UNL     1      -2.135  -4.411  -1.448  1.00  0.00     0.000 A 
ATOM     27  C   UNL     1      -2.836  -5.228  -2.333  1.00  0.00     0.000 A 
ENDBRANCH  21  22
ENDBRANCH   9  21
ENDBRANCH   4   7
ENDBRANCH   2   3
ENDBRANCH   1   2
BRANCH   1  28
ATOM     28  C   UNL     1      -0.097 -11.402   2.738  1.00  0.00     0.118 C 
BRANCH  28  29
ATOM     29  N   UNL     1      -1.424 -10.787   2.813  1.00  0.00    -0.352 N 
ATOM     30  C   UNL     1      -2.670 -11.359   2.936  1.00  0.00     0.251 C 
ATOM     31  H   UNL     1      -1.425  -9.803   2.769  1.00  0.00     0.163 HD
ATOM     32  O   UNL     1      -3.683 -10.677   2.847  1.00  0.00    -0.269 OA
BRANCH  30  33
ATOM     33  C   UNL     1      -2.788 -12.814   3.120  1.00  0.00     0.039 A 
ATOM     34  C   UNL     1      -3.766 -13.502   2.399  1.00  0.00     0.014 A 
ATOM     35  C   UNL     1      -1.889 -13.501   3.934  1.00  0.00     0.014 A 
ATOM     36  C   UNL     1      -3.749 -14.893   2.387  1.00  0.00     0.010 A 
ATOM     37  C   UNL     1      -1.788 -14.875   3.816  1.00  0.00     0.010 A 
ATOM     38  C   UNL     1      -2.709 -15.581   3.030  1.00  0.00    -0.014 A 
BRANCH  38  39
ATOM     39  C   UNL     1      -2.537 -17.041   2.870  1.00  0.00     0.031 A 
ATOM     40  C   UNL     1      -2.568 -17.926   4.079  1.00  0.00     0.074 A 
ATOM     41  C   UNL     1      -2.246 -17.534   1.651  1.00  0.00     0.049 A 
ATOM     42  N   UNL     1      -2.317 -19.205   4.175  1.00  0.00    -0.248 NA
ATOM     43  C   UNL     1      -2.872 -17.276   5.365  1.00  0.00     0.031 C 
ATOM     44  C   UNL     1      -2.113 -16.741   0.425  1.00  0.00     0.029 A 
ATOM     45  N   UNL     1      -1.999 -18.817   1.239  1.00  0.00    -0.354 N 
ATOM     46  C   UNL     1      -2.402 -19.502   5.528  1.00  0.00     0.074 A 
ATOM     47  C   UNL     1      -2.663 -18.262   6.223  1.00  0.00     0.031 C 
ATOM     48  C   UNL     1      -1.848 -17.559  -0.605  1.00  0.00     0.029 A 
ATOM     49  C   UNL     1      -1.750 -18.925  -0.107  1.00  0.00     0.049 A 
ATOM     50  H   UNL     1      -2.000 -19.589   1.851  1.00  0.00     0.167 HD
ATOM     51  C   UNL     1      -2.298 -20.709   6.129  1.00  0.00     0.037 A 
ATOM     52  C   UNL     1      -1.473 -20.012  -0.852  1.00  0.00     0.037 A 
ATOM     53  C   UNL     1      -2.080 -21.936   5.411  1.00  0.00     0.049 A 
ATOM     54  C   UNL     1      -1.417 -21.349  -0.168  1.00  0.00     0.074 A 
ATOM     55  C   UNL     1      -2.020 -23.227   5.901  1.00  0.00     0.029 A 
ATOM     56  N   UNL     1      -1.894 -22.016   4.037  1.00  0.00    -0.354 N 
ATOM     57  N   UNL     1      -1.564 -21.631   1.105  1.00  0.00    -0.248 NA
ATOM     58  C   UNL     1      -1.167 -22.518  -1.019  1.00  0.00     0.031 C 
ATOM     59  C   UNL     1      -1.765 -24.086   4.826  1.00  0.00     0.029 A 
ATOM     60  C   UNL     1      -1.710 -23.335   3.661  1.00  0.00     0.049 A 
ATOM     61  H   UNL     1      -1.892 -21.248   3.421  1.00  0.00     0.167 HD
ATOM     62  C   UNL     1      -1.448 -23.009   1.206  1.00  0.00     0.074 A 
ATOM     63  C   UNL     1      -1.234 -23.507  -0.139  1.00  0.00     0.031 C 
ATOM     64  C   UNL     1      -1.510 -23.794   2.310  1.00  0.00     0.037 A 
BRANCH  51  65
ATOM     65  C   UNL     1      -2.428 -20.749   7.624  1.00  0.00     0.064 A 
ATOM     66  C   UNL     1      -3.644 -20.464   8.267  1.00  0.00     0.173 A 
ATOM     67  C   UNL     1      -1.323 -21.066   8.428  1.00  0.00     0.173 A 
ATOM     68  F   UNL     1      -4.727 -20.136   7.546  1.00  0.00    -0.203 F 
ATOM     69  C   UNL     1      -3.737 -20.455   9.656  1.00  0.00     0.198 A 
ATOM     70  C   UNL     1      -1.429 -21.089   9.817  1.00  0.00     0.198 A 
ATOM     71  F   UNL     1      -0.137 -21.347   7.868  1.00  0.00    -0.203 F 
ATOM     72  F   UNL     1      -4.892 -20.114  10.245  1.00  0.00    -0.200 F 
ATOM     73  C   UNL     1      -2.632 -20.772  10.430  1.00  0.00     0.200 A 
ATOM     74  F   UNL     1      -0.362 -21.404  10.563  1.00  0.00    -0.200 F 
ATOM     75  F   UNL     1      -2.723 -20.761  11.767  1.00  0.00    -0.200 F 
ENDBRANCH  51  65
BRANCH  52  76
ATOM     76  C   UNL     1      -1.281 -19.878  -2.319  1.00  0.00     0.064 A 
ATOM     77  C   UNL     1      -2.245 -20.361  -3.215  1.00  0.00     0.173 A 
ATOM     78  C   UNL     1      -0.154 -19.241  -2.858  1.00  0.00     0.173 A 
ATOM     79  F   UNL     1      -3.335 -20.989  -2.749  1.00  0.00    -0.203 F 
ATOM     80  C   UNL     1      -2.082 -20.228  -4.592  1.00  0.00     0.198 A 
ATOM     81  C   UNL     1      -0.004 -19.084  -4.235  1.00  0.00     0.198 A 
ATOM     82  F   UNL     1       0.792 -18.748  -2.044  1.00  0.00    -0.203 F 
ATOM     83  F   UNL     1      -3.003 -20.731  -5.426  1.00  0.00    -0.200 F 
ATOM     84  C   UNL     1      -0.965 -19.584  -5.101  1.00  0.00     0.200 A 
ATOM     85  F   UNL     1       1.069 -18.446  -4.722  1.00  0.00    -0.200 F 
ATOM     86  F   UNL     1      -0.812 -19.447  -6.425  1.00  0.00    -0.200 F 
ENDBRANCH  52  76
BRANCH  64  87
ATOM     87  C   UNL     1      -1.377 -25.272   2.099  1.00  0.00     0.064 A 
ATOM     88  C   UNL     1      -0.142 -25.860   1.795  1.00  0.00     0.173 A 
ATOM     89  C   UNL     1      -2.491 -26.110   2.255  1.00  0.00     0.173 A 
ATOM     90  F   UNL     1       0.947 -25.096   1.623  1.00  0.00    -0.203 F 
ATOM     91  C   UNL     1      -0.031 -27.238   1.633  1.00  0.00     0.198 A 
ATOM     92  C   UNL     1      -2.370 -27.489   2.119  1.00  0.00     0.198 A 
ATOM     93  F   UNL     1      -3.691 -25.591   2.552  1.00  0.00    -0.203 F 
ATOM     94  F   UNL     1       1.150 -27.778   1.301  1.00  0.00    -0.200 F 
ATOM     95  C   UNL     1      -1.142 -28.051   1.803  1.00  0.00     0.200 A 
ATOM     96  F   UNL     1      -3.441 -28.274   2.296  1.00  0.00    -0.200 F 
ATOM     97  F   UNL     1      -1.031 -29.378   1.656  1.00  0.00    -0.200 F 
ENDBRANCH  64  87
ENDBRANCH  38  39
ENDBRANCH  30  33
ENDBRANCH  28  29
ENDBRANCH   1  28
TORSDOF 14
