REMARK SMILES COc1ccccc1[C@@H]1CN(C(=O)Cc2csc(C)n2)C[C@H]1C(=O)NCCCNC(=O)c1ccc(-c2c3nc(c(-c4c(F)c(F)c(F)c(F)c4F)c4ccc([nH]4)c(-c4c(F)c(F)c(F)c(F)c4F)c4nc(c(-c5c(F)c(F)c(F)c(F)c5F)c5ccc2[nH]5)C=C4)C=C3)cc1
REMARK SMILES IDX 26 1 25 2 23 3 24 4 22 6 9 7 10 8 11 9 21 10 8 11 3 12 4 13
REMARK SMILES IDX 5 14 7 15 6 16 2 17 1 18 12 19 13 20 14 21 15 22 16 23 20 24
REMARK SMILES IDX 17 25 18 26 19 27 27 28 28 29 29 30 30 31 31 33 32 34 33 35
REMARK SMILES IDX 94 36 34 37 93 38 35 39 36 40 37 41 87 42 38 43 92 44 86 45
REMARK SMILES IDX 88 46 39 47 91 48 85 49 84 50 40 52 72 53 52 54 71 55 53 56
REMARK SMILES IDX 56 57 70 58 89 59 54 60 55 61 69 63 90 64 57 65 41 66 42 67
REMARK SMILES IDX 50 68 43 69 44 70 48 71 51 72 45 73 46 74 49 75 47 76 73 77
REMARK SMILES IDX 74 78 82 79 75 80 76 81 80 82 83 83 77 84 78 85 81 86 79 87
REMARK SMILES IDX 58 88 59 89 67 90 60 91 61 92 65 93 68 94 62 95 63 96 66 97
REMARK SMILES IDX 64 98
REMARK H PARENT 25 5 29 32 88 51 56 62
REMARK Flexibility Score: inf
ROOT
ATOM      1  C   UNL     1       5.696  -2.489   0.537  1.00  0.00     0.117 C 
ENDROOT
BRANCH   1   2
ATOM      2  N   UNL     1       4.469  -3.260   0.628  1.00  0.00    -0.356 N 
ATOM      3  C   UNL     1       3.165  -2.892   0.567  1.00  0.00     0.225 C 
ATOM      4  O   UNL     1       2.326  -3.784   0.722  1.00  0.00    -0.275 OA
ATOM      5  H   UNL     1       4.609  -4.226   0.757  1.00  0.00     0.163 HD
BRANCH   3   6
ATOM      6  C   UNL     1       2.723  -1.463   0.324  1.00  0.00     0.107 C 
ATOM      7  C   UNL     1       3.089  -0.486   1.457  1.00  0.00     0.057 C 
ATOM      8  C   UNL     1       3.515   0.797   0.747  1.00  0.00     0.128 C 
ATOM      9  N   UNL     1       3.954   0.367  -0.570  1.00  0.00    -0.341 N 
ATOM     10  C   UNL     1       3.313  -0.877  -0.957  1.00  0.00     0.133 C 
BRANCH   7  11
ATOM     11  C   UNL     1       2.035  -0.315   2.536  1.00  0.00    -0.000 A 
ATOM     12  C   UNL     1       0.808   0.353   2.369  1.00  0.00     0.122 A 
ATOM     13  C   UNL     1      -0.093   0.476   3.433  1.00  0.00     0.047 A 
ATOM     14  C   UNL     1       0.213  -0.058   4.683  1.00  0.00     0.004 A 
ATOM     15  C   UNL     1       2.320  -0.846   3.811  1.00  0.00     0.008 A 
ATOM     16  C   UNL     1       1.426  -0.709   4.875  1.00  0.00     0.001 A 
BRANCH  12  17
ATOM     17  O   UNL     1       0.515   1.076   1.245  1.00  0.00    -0.496 OA
ATOM     18  C   UNL     1      -0.151   0.326   0.235  1.00  0.00     0.278 C 
ENDBRANCH  12  17
ENDBRANCH   7  11
BRANCH   9  19
ATOM     19  C   UNL     1       4.703   1.092  -1.476  1.00  0.00     0.228 C 
ATOM     20  O   UNL     1       4.979   0.630  -2.587  1.00  0.00    -0.274 OA
BRANCH  19  21
ATOM     21  C   UNL     1       5.269   2.433  -1.039  1.00  0.00     0.157 C 
BRANCH  21  22
ATOM     22  C   UNL     1       4.262   3.537  -0.973  1.00  0.00     0.061 A 
ATOM     23  C   UNL     1       4.544   4.884  -0.833  1.00  0.00     0.091 A 
ATOM     24  N   UNL     1       2.909   3.248  -0.993  1.00  0.00    -0.246 NA
ATOM     25  S   UNL     1       3.094   5.785  -0.671  1.00  0.00    -0.127 S 
ATOM     26  C   UNL     1       2.193   4.331  -0.792  1.00  0.00     0.090 A 
ATOM     27  C   UNL     1       0.713   4.335  -0.651  1.00  0.00     0.079 C 
ENDBRANCH  21  22
ENDBRANCH  19  21
ENDBRANCH   9  19
ENDBRANCH   3   6
ENDBRANCH   1   2
BRANCH   1  28
ATOM     28  C   UNL     1       6.436  -2.448   1.866  1.00  0.00     0.042 C 
BRANCH  28  29
ATOM     29  C   UNL     1       6.840  -3.823   2.374  1.00  0.00     0.118 C 
BRANCH  29  30
ATOM     30  N   UNL     1       7.761  -4.499   1.472  1.00  0.00    -0.352 N 
ATOM     31  C   UNL     1       9.078  -4.840   1.653  1.00  0.00     0.251 C 
ATOM     32  H   UNL     1       7.381  -4.750   0.599  1.00  0.00     0.163 HD
ATOM     33  O   UNL     1       9.756  -5.205   0.700  1.00  0.00    -0.269 OA
BRANCH  31  34
ATOM     34  C   UNL     1       9.681  -4.750   2.998  1.00  0.00     0.039 A 
ATOM     35  C   UNL     1      10.970  -4.228   3.129  1.00  0.00     0.014 A 
ATOM     36  C   UNL     1       8.982  -5.191   4.124  1.00  0.00     0.014 A 
ATOM     37  C   UNL     1      11.532  -4.092   4.399  1.00  0.00     0.010 A 
ATOM     38  C   UNL     1       9.501  -4.965   5.392  1.00  0.00     0.010 A 
ATOM     39  C   UNL     1      10.788  -4.427   5.542  1.00  0.00    -0.014 A 
BRANCH  39  40
ATOM     40  C   UNL     1      11.343  -4.250   6.905  1.00  0.00     0.031 A 
ATOM     41  C   UNL     1      11.545  -5.448   7.792  1.00  0.00     0.074 A 
ATOM     42  C   UNL     1      11.596  -3.011   7.367  1.00  0.00     0.049 A 
ATOM     43  N   UNL     1      11.936  -5.499   9.040  1.00  0.00    -0.248 NA
ATOM     44  C   UNL     1      11.231  -6.763   7.208  1.00  0.00     0.031 C 
ATOM     45  C   UNL     1      11.387  -1.770   6.620  1.00  0.00     0.029 A 
ATOM     46  N   UNL     1      12.073  -2.591   8.583  1.00  0.00    -0.354 N 
ATOM     47  C   UNL     1      11.895  -6.842   9.392  1.00  0.00     0.074 A 
ATOM     48  C   UNL     1      11.384  -7.566   8.249  1.00  0.00     0.031 C 
ATOM     49  C   UNL     1      11.757  -0.730   7.383  1.00  0.00     0.029 A 
ATOM     50  C   UNL     1      12.193  -1.226   8.685  1.00  0.00     0.049 A 
ATOM     51  H   UNL     1      12.308  -3.208   9.312  1.00  0.00     0.167 HD
ATOM     52  C   UNL     1      12.275  -7.421  10.555  1.00  0.00     0.037 A 
ATOM     53  C   UNL     1      12.604  -0.465   9.716  1.00  0.00     0.037 A 
ATOM     54  C   UNL     1      12.816  -6.699  11.675  1.00  0.00     0.049 A 
ATOM     55  C   UNL     1      13.034  -1.134  10.992  1.00  0.00     0.074 A 
ATOM     56  C   UNL     1      13.293  -7.196  12.875  1.00  0.00     0.029 A 
ATOM     57  N   UNL     1      12.953  -5.319  11.729  1.00  0.00    -0.354 N 
ATOM     58  N   UNL     1      13.057  -2.410  11.291  1.00  0.00    -0.248 NA
ATOM     59  C   UNL     1      13.505  -0.257  12.073  1.00  0.00     0.031 C 
ATOM     60  C   UNL     1      13.680  -6.114  13.672  1.00  0.00     0.029 A 
ATOM     61  C   UNL     1      13.490  -4.946  12.950  1.00  0.00     0.049 A 
ATOM     62  H   UNL     1      12.705  -4.697  11.007  1.00  0.00     0.167 HD
ATOM     63  C   UNL     1      13.568  -2.493  12.579  1.00  0.00     0.074 A 
ATOM     64  C   UNL     1      13.857  -1.137  12.999  1.00  0.00     0.031 C 
ATOM     65  C   UNL     1      13.778  -3.591  13.345  1.00  0.00     0.037 A 
BRANCH  52  66
ATOM     66  C   UNL     1      12.128  -8.911  10.668  1.00  0.00     0.064 A 
ATOM     67  C   UNL     1      12.934  -9.789   9.926  1.00  0.00     0.173 A 
ATOM     68  C   UNL     1      11.190  -9.470  11.548  1.00  0.00     0.173 A 
ATOM     69  F   UNL     1      13.837  -9.307   9.059  1.00  0.00    -0.203 F 
ATOM     70  C   UNL     1      12.783 -11.169  10.037  1.00  0.00     0.198 A 
ATOM     71  C   UNL     1      11.063 -10.851  11.681  1.00  0.00     0.198 A 
ATOM     72  F   UNL     1      10.397  -8.677  12.285  1.00  0.00    -0.203 F 
ATOM     73  F   UNL     1      13.526 -11.986   9.277  1.00  0.00    -0.200 F 
ATOM     74  C   UNL     1      11.853 -11.698  10.919  1.00  0.00     0.200 A 
ATOM     75  F   UNL     1      10.173 -11.361  12.543  1.00  0.00    -0.200 F 
ATOM     76  F   UNL     1      11.713 -13.027  11.029  1.00  0.00    -0.200 F 
ENDBRANCH  52  66
BRANCH  53  77
ATOM     77  C   UNL     1      12.656   1.013   9.571  1.00  0.00     0.064 A 
ATOM     78  C   UNL     1      13.884   1.687   9.515  1.00  0.00     0.173 A 
ATOM     79  C   UNL     1      11.486   1.782   9.484  1.00  0.00     0.173 A 
ATOM     80  F   UNL     1      15.030   0.997   9.612  1.00  0.00    -0.203 F 
ATOM     81  C   UNL     1      13.941   3.074   9.399  1.00  0.00     0.198 A 
ATOM     82  C   UNL     1      11.544   3.166   9.340  1.00  0.00     0.198 A 
ATOM     83  F   UNL     1      10.286   1.185   9.524  1.00  0.00    -0.203 F 
ATOM     84  F   UNL     1      15.128   3.696   9.393  1.00  0.00    -0.200 F 
ATOM     85  C   UNL     1      12.771   3.812   9.306  1.00  0.00     0.200 A 
ATOM     86  F   UNL     1      10.411   3.874   9.234  1.00  0.00    -0.200 F 
ATOM     87  F   UNL     1      12.825   5.146   9.189  1.00  0.00    -0.200 F 
ENDBRANCH  53  77
BRANCH  65  88
ATOM     88  C   UNL     1      14.380  -3.374  14.703  1.00  0.00     0.064 A 
ATOM     89  C   UNL     1      13.646  -2.802  15.751  1.00  0.00     0.173 A 
ATOM     90  C   UNL     1      15.696  -3.784  14.967  1.00  0.00     0.173 A 
ATOM     91  F   UNL     1      12.389  -2.381  15.543  1.00  0.00    -0.203 F 
ATOM     92  C   UNL     1      14.215  -2.623  17.008  1.00  0.00     0.198 A 
ATOM     93  C   UNL     1      16.252  -3.631  16.234  1.00  0.00     0.198 A 
ATOM     94  F   UNL     1      16.438  -4.344  14.000  1.00  0.00    -0.203 F 
ATOM     95  F   UNL     1      13.511  -2.030  17.982  1.00  0.00    -0.200 F 
ATOM     96  C   UNL     1      15.514  -3.045  17.250  1.00  0.00     0.200 A 
ATOM     97  F   UNL     1      17.503  -4.052  16.470  1.00  0.00    -0.200 F 
ATOM     98  F   UNL     1      16.058  -2.878  18.464  1.00  0.00    -0.200 F 
ENDBRANCH  65  88
ENDBRANCH  39  40
ENDBRANCH  31  34
ENDBRANCH  29  30
ENDBRANCH  28  29
ENDBRANCH   1  28
TORSDOF 15
