REMARK SMILES O=C(CN1C(=O)/C(=C2\SC(N3CCN(c4ccccc4F)CC3)=[NH+]C2=O)c2ccccc21)NCCCNC(=O)c1ccc(-c2c3nc(c(-c4c(F)c(F)c(F)c(F)c4F)c4ccc([nH]4)c(-c4c(F)c(F)c(F)c(F)c4F)c4nc(c(-c5c(F)c(F)c(F)c(F)c5F)c5ccc2[nH]5)C=C4)C=C3)cc1
REMARK SMILES IDX 35 1 34 2 33 3 1 4 2 5 3 7 4 8 5 9 32 10 6 11 7 12 27 13
REMARK SMILES IDX 31 14 8 15 28 16 30 17 9 18 25 19 29 20 10 21 24 22 26 23
REMARK SMILES IDX 11 24 12 26 23 27 13 28 22 29 14 30 15 31 16 32 20 33 17 34
REMARK SMILES IDX 19 35 21 36 18 37 36 38 37 39 38 40 39 42 40 43 41 44 102 45
REMARK SMILES IDX 42 46 101 47 43 48 44 49 45 50 95 51 46 52 100 53 94 54
REMARK SMILES IDX 96 55 47 56 99 57 93 58 92 59 48 61 80 62 60 63 79 64 61 65
REMARK SMILES IDX 64 66 78 67 97 68 62 69 63 70 77 72 98 73 65 74 49 75 50 76
REMARK SMILES IDX 58 77 51 78 52 79 56 80 59 81 53 82 54 83 57 84 55 85 81 86
REMARK SMILES IDX 82 87 90 88 83 89 84 90 88 91 91 92 85 93 86 94 89 95 87 96
REMARK SMILES IDX 66 97 67 98 75 99 68 100 69 101 73 102 76 103 70 104 71 105
REMARK SMILES IDX 74 106 72 107
REMARK H PARENT 33 6 24 25 37 41 96 60 64 71
REMARK Flexibility Score: inf
ROOT
ATOM      1  C   UNL     1       2.514   1.543   3.179  1.00  0.00     0.042 C 
ENDROOT
BRANCH   1   2
ATOM      2  C   UNL     1       2.203   1.847   1.723  1.00  0.00     0.117 C 
BRANCH   2   3
ATOM      3  N   UNL     1       2.877   0.963   0.795  1.00  0.00    -0.354 N 
ATOM      4  O   UNL     1       1.146  -0.509   0.574  1.00  0.00    -0.273 OA
ATOM      5  C   UNL     1       2.209  -0.054   0.152  1.00  0.00     0.240 C 
ATOM      6  H   UNL     1       3.837   1.093   0.620  1.00  0.00     0.163 HD
BRANCH   5   7
ATOM      7  C   UNL     1       2.930  -0.714  -1.038  1.00  0.00     0.225 C 
BRANCH   7   8
ATOM      8  N   UNL     1       3.935   0.045  -1.776  1.00  0.00    -0.298 N 
ATOM      9  C   UNL     1       3.793   1.385  -2.118  1.00  0.00     0.260 C 
ATOM     10  C   UNL     1       4.875  -0.566  -2.633  1.00  0.00     0.053 A 
ATOM     11  O   UNL     1       2.932   2.144  -1.714  1.00  0.00    -0.269 OA
ATOM     12  C   UNL     1       4.882   1.689  -3.123  1.00  0.00     0.071 C 
ATOM     13  C   UNL     1       5.467   0.386  -3.486  1.00  0.00     0.012 A 
ATOM     14  C   UNL     1       5.187  -1.917  -2.708  1.00  0.00     0.027 A 
ATOM     15  C   UNL     1       5.171   2.955  -3.475  1.00  0.00     0.122 C 
ATOM     16  C   UNL     1       6.416  -0.027  -4.407  1.00  0.00     0.011 A 
ATOM     17  C   UNL     1       6.127  -2.325  -3.653  1.00  0.00     0.002 A 
ATOM     18  S   UNL     1       4.650   4.358  -2.597  1.00  0.00     0.007 SA
ATOM     19  C   UNL     1       6.059   3.444  -4.579  1.00  0.00     0.347 C 
ATOM     20  C   UNL     1       6.739  -1.387  -4.492  1.00  0.00     0.001 A 
ATOM     21  C   UNL     1       5.778   5.359  -3.472  1.00  0.00     0.319 C 
ATOM     22  N   UNL     1       6.373   4.780  -4.458  1.00  0.00    -0.200 N 
ATOM     23  O   UNL     1       6.422   2.754  -5.518  1.00  0.00    -0.240 OA
ATOM     24  N   UNL     1       5.954   6.654  -3.078  1.00  0.00    -0.252 N 
ATOM     25  H   UNL     1       6.990   5.247  -5.066  1.00  0.00     0.316 HD
ATOM     26  C   UNL     1       5.979   7.067  -1.663  1.00  0.00     0.258 C 
ATOM     27  C   UNL     1       5.935   7.756  -4.056  1.00  0.00     0.258 C 
ATOM     28  C   UNL     1       7.125   8.068  -1.405  1.00  0.00     0.162 C 
ATOM     29  C   UNL     1       7.003   8.829  -3.759  1.00  0.00     0.162 C 
ATOM     30  N   UNL     1       6.981   9.189  -2.336  1.00  0.00    -0.361 N 
BRANCH  30  31
ATOM     31  C   UNL     1       7.198  10.486  -1.919  1.00  0.00     0.073 A 
ATOM     32  C   UNL     1       6.312  11.495  -2.325  1.00  0.00     0.029 A 
ATOM     33  C   UNL     1       8.233  10.858  -1.044  1.00  0.00     0.146 A 
ATOM     34  C   UNL     1       6.437  12.808  -1.858  1.00  0.00     0.002 A 
ATOM     35  C   UNL     1       8.379  12.168  -0.589  1.00  0.00     0.041 A 
ATOM     36  F   UNL     1       9.126   9.943  -0.630  1.00  0.00    -0.205 F 
ATOM     37  C   UNL     1       7.473  13.145  -0.991  1.00  0.00     0.003 A 
ENDBRANCH  30  31
ENDBRANCH   7   8
ENDBRANCH   5   7
ENDBRANCH   2   3
ENDBRANCH   1   2
BRANCH   1  38
ATOM     38  C   UNL     1       3.991   1.631   3.537  1.00  0.00     0.118 C 
BRANCH  38  39
ATOM     39  N   UNL     1       4.558   2.967   3.386  1.00  0.00    -0.352 N 
ATOM     40  C   UNL     1       5.253   3.752   4.277  1.00  0.00     0.251 C 
ATOM     41  H   UNL     1       4.421   3.374   2.499  1.00  0.00     0.163 HD
ATOM     42  O   UNL     1       5.568   4.896   3.960  1.00  0.00    -0.269 OA
BRANCH  40  43
ATOM     43  C   UNL     1       5.586   3.248   5.630  1.00  0.00     0.039 A 
ATOM     44  C   UNL     1       6.029   1.941   5.829  1.00  0.00     0.014 A 
ATOM     45  C   UNL     1       5.442   4.105   6.726  1.00  0.00     0.014 A 
ATOM     46  C   UNL     1       6.130   1.435   7.122  1.00  0.00     0.010 A 
ATOM     47  C   UNL     1       5.643   3.622   8.024  1.00  0.00     0.010 A 
ATOM     48  C   UNL     1       5.929   2.265   8.237  1.00  0.00    -0.014 A 
BRANCH  48  49
ATOM     49  C   UNL     1       6.006   1.684   9.606  1.00  0.00     0.031 A 
ATOM     50  C   UNL     1       4.797   1.664  10.505  1.00  0.00     0.074 A 
ATOM     51  C   UNL     1       7.154   1.111  10.018  1.00  0.00     0.049 A 
ATOM     52  N   UNL     1       4.672   1.163  11.710  1.00  0.00    -0.248 NA
ATOM     53  C   UNL     1       3.568   2.288   9.990  1.00  0.00     0.031 C 
ATOM     54  C   UNL     1       8.393   1.057   9.240  1.00  0.00     0.029 A 
ATOM     55  N   UNL     1       7.460   0.440  11.176  1.00  0.00    -0.354 N 
ATOM     56  C   UNL     1       3.363   1.421  12.097  1.00  0.00     0.074 A 
ATOM     57  C   UNL     1       2.742   2.159  11.019  1.00  0.00     0.031 C 
ATOM     58  C   UNL     1       9.305   0.342   9.914  1.00  0.00     0.029 A 
ATOM     59  C   UNL     1       8.740  -0.060  11.199  1.00  0.00     0.049 A 
ATOM     60  H   UNL     1       6.824   0.328  11.919  1.00  0.00     0.167 HD
ATOM     61  C   UNL     1       2.731   1.058  13.239  1.00  0.00     0.037 A 
ATOM     62  C   UNL     1       9.393  -0.755  12.150  1.00  0.00     0.037 A 
ATOM     63  C   UNL     1       3.340   0.302  14.302  1.00  0.00     0.049 A 
ATOM     64  C   UNL     1       8.683  -1.098  13.430  1.00  0.00     0.074 A 
ATOM     65  C   UNL     1       2.768  -0.135  15.485  1.00  0.00     0.029 A 
ATOM     66  N   UNL     1       4.658  -0.130  14.312  1.00  0.00    -0.354 N 
ATOM     67  N   UNL     1       7.439  -0.866  13.772  1.00  0.00    -0.248 NA
ATOM     68  C   UNL     1       9.469  -1.792  14.459  1.00  0.00     0.031 C 
ATOM     69  C   UNL     1       3.752  -0.788  16.232  1.00  0.00     0.029 A 
ATOM     70  C   UNL     1       4.924  -0.806  15.493  1.00  0.00     0.049 A 
ATOM     71  H   UNL     1       5.308   0.020  13.589  1.00  0.00     0.167 HD
ATOM     72  C   UNL     1       7.289  -1.395  15.046  1.00  0.00     0.074 A 
ATOM     73  C   UNL     1       8.562  -1.981  15.409  1.00  0.00     0.031 C 
ATOM     74  C   UNL     1       6.194  -1.388  15.844  1.00  0.00     0.037 A 
BRANCH  61  75
ATOM     75  C   UNL     1       1.295   1.467  13.410  1.00  0.00     0.064 A 
ATOM     76  C   UNL     1       0.267   0.864  12.671  1.00  0.00     0.173 A 
ATOM     77  C   UNL     1       0.935   2.414  14.383  1.00  0.00     0.173 A 
ATOM     78  F   UNL     1       0.557  -0.041  11.725  1.00  0.00    -0.203 F 
ATOM     79  C   UNL     1      -1.067   1.203  12.889  1.00  0.00     0.198 A 
ATOM     80  C   UNL     1      -0.401   2.729  14.617  1.00  0.00     0.198 A 
ATOM     81  F   UNL     1       1.879   3.014  15.124  1.00  0.00    -0.203 F 
ATOM     82  F   UNL     1      -2.030   0.636  12.149  1.00  0.00    -0.200 F 
ATOM     83  C   UNL     1      -1.400   2.127  13.868  1.00  0.00     0.200 A 
ATOM     84  F   UNL     1      -0.722   3.609  15.576  1.00  0.00    -0.200 F 
ATOM     85  F   UNL     1      -2.685   2.438  14.089  1.00  0.00    -0.200 F 
ENDBRANCH  61  75
BRANCH  62  86
ATOM     86  C   UNL     1      10.798  -1.178  11.915  1.00  0.00     0.064 A 
ATOM     87  C   UNL     1      11.125  -2.530  11.748  1.00  0.00     0.173 A 
ATOM     88  C   UNL     1      11.837  -0.240  11.826  1.00  0.00     0.173 A 
ATOM     89  F   UNL     1      10.170  -3.467  11.846  1.00  0.00    -0.203 F 
ATOM     90  C   UNL     1      12.438  -2.929  11.507  1.00  0.00     0.198 A 
ATOM     91  C   UNL     1      13.144  -0.636  11.554  1.00  0.00     0.198 A 
ATOM     92  F   UNL     1      11.577   1.067  11.977  1.00  0.00    -0.203 F 
ATOM     93  F   UNL     1      12.729  -4.231  11.383  1.00  0.00    -0.200 F 
ATOM     94  C   UNL     1      13.445  -1.980  11.399  1.00  0.00     0.200 A 
ATOM     95  F   UNL     1      14.110   0.285  11.433  1.00  0.00    -0.200 F 
ATOM     96  F   UNL     1      14.704  -2.363  11.150  1.00  0.00    -0.200 F 
ENDBRANCH  62  86
BRANCH  74  97
ATOM     97  C   UNL     1       6.308  -2.043  17.189  1.00  0.00     0.064 A 
ATOM     98  C   UNL     1       7.035  -1.450  18.231  1.00  0.00     0.173 A 
ATOM     99  C   UNL     1       5.617  -3.233  17.464  1.00  0.00     0.173 A 
ATOM    100  F   UNL     1       7.724  -0.319  18.015  1.00  0.00    -0.203 F 
ATOM    101  C   UNL     1       7.075  -2.030  19.496  1.00  0.00     0.198 A 
ATOM    102  C   UNL     1       5.635  -3.795  18.738  1.00  0.00     0.198 A 
ATOM    103  F   UNL     1       4.901  -3.837  16.503  1.00  0.00    -0.203 F 
ATOM    104  F   UNL     1       7.803  -1.463  20.469  1.00  0.00    -0.200 F 
ATOM    105  C   UNL     1       6.367  -3.195  19.751  1.00  0.00     0.200 A 
ATOM    106  F   UNL     1       4.936  -4.911  18.986  1.00  0.00    -0.200 F 
ATOM    107  F   UNL     1       6.390  -3.741  20.975  1.00  0.00    -0.200 F 
ENDBRANCH  74  97
ENDBRANCH  48  49
ENDBRANCH  40  43
ENDBRANCH  38  39
ENDBRANCH   1  38
TORSDOF 12
