REMARK SMILES Cc1ccc(C[C@H](C(=O)NCCCNC(=O)c2ccc(-c3c4nc(c(-c5c(F)c(F)c(F)c(F)c5F)c5ccc([nH]5)c(-c5c(F)c(F)c(F)c(F)c5F)c5nc(c(-c6c(F)c(F)c(F)c(F)c6F)c6ccc3[nH]6)C=C5)C=C4)cc2)[C@@H]2CCCC[C@@H]2O)cc1
REMARK SMILES IDX 12 1 11 2 10 3 8 4 9 5 7 7 6 8 5 9 1 10 2 11 3 12 88 13 4 14
REMARK SMILES IDX 87 15 80 16 81 17 85 18 82 19 84 20 83 21 86 22 13 24 14 25
REMARK SMILES IDX 15 26 16 28 17 29 18 30 79 31 19 32 78 33 20 34 21 35 22 36
REMARK SMILES IDX 72 37 23 38 77 39 71 40 73 41 24 42 76 43 70 44 69 45 25 47
REMARK SMILES IDX 57 48 37 49 56 50 38 51 41 52 55 53 74 54 39 55 40 56 54 58
REMARK SMILES IDX 75 59 42 60 26 61 27 62 35 63 28 64 29 65 33 66 36 67 30 68
REMARK SMILES IDX 31 69 34 70 32 71 58 72 59 73 67 74 60 75 61 76 65 77 68 78
REMARK SMILES IDX 62 79 63 80 66 81 64 82 43 83 44 84 52 85 45 86 46 87 50 88
REMARK SMILES IDX 53 89 47 90 48 91 51 92 49 93
REMARK H PARENT 10 6 86 23 14 27 73 46 41 57
REMARK Flexibility Score: inf
ROOT
ATOM      1  C   UNL     1      -5.908  -1.910   4.099  1.00  0.00     0.042 C 
ENDROOT
BRANCH   1   2
ATOM      2  C   UNL     1      -5.675  -1.095   2.853  1.00  0.00     0.117 C 
BRANCH   2   3
ATOM      3  N   UNL     1      -4.688  -1.539   1.919  1.00  0.00    -0.356 N 
ATOM      4  C   UNL     1      -4.567  -1.083   0.636  1.00  0.00     0.223 C 
ATOM      5  O   UNL     1      -3.543  -1.425   0.034  1.00  0.00    -0.275 OA
ATOM      6  H   UNL     1      -4.048  -2.223   2.222  1.00  0.00     0.163 HD
BRANCH   4   7
ATOM      7  C   UNL     1      -5.706  -0.262  -0.056  1.00  0.00     0.088 C 
BRANCH   7   8
ATOM      8  C   UNL     1      -5.745   1.246   0.361  1.00  0.00     0.049 C 
BRANCH   8   9
ATOM      9  C   UNL     1      -6.210   1.666   1.744  1.00  0.00    -0.047 A 
ATOM     10  C   UNL     1      -7.259   2.366   5.886  1.00  0.00     0.044 C 
ATOM     11  C   UNL     1      -6.928   2.215   4.428  1.00  0.00    -0.051 A 
ATOM     12  C   UNL     1      -7.836   1.596   3.562  1.00  0.00     0.004 A 
ATOM     13  C   UNL     1      -5.692   2.632   3.922  1.00  0.00     0.004 A 
ATOM     14  C   UNL     1      -7.494   1.352   2.224  1.00  0.00     0.004 A 
ATOM     15  C   UNL     1      -5.339   2.367   2.593  1.00  0.00     0.004 A 
ENDBRANCH   8   9
ENDBRANCH   7   8
BRANCH   7  16
ATOM     16  C   UNL     1      -5.489  -0.426  -1.625  1.00  0.00     0.030 C 
ATOM     17  C   UNL     1      -6.060   0.681  -2.531  1.00  0.00     0.007 C 
ATOM     18  C   UNL     1      -5.970  -1.802  -2.166  1.00  0.00     0.118 C 
ATOM     19  C   UNL     1      -7.578   0.625  -2.645  1.00  0.00     0.001 C 
ATOM     20  C   UNL     1      -7.488  -1.873  -2.361  1.00  0.00     0.032 C 
ATOM     21  C   UNL     1      -8.019  -0.721  -3.205  1.00  0.00     0.003 C 
BRANCH  18  22
ATOM     22  O   UNL     1      -5.585  -2.880  -1.322  1.00  0.00    -0.393 OA
ATOM     23  H   UNL     1      -6.023  -2.788  -0.462  1.00  0.00     0.210 HD
ENDBRANCH  18  22
ENDBRANCH   7  16
ENDBRANCH   4   7
ENDBRANCH   2   3
ENDBRANCH   1   2
BRANCH   1  24
ATOM     24  C   UNL     1      -4.878  -1.658   5.197  1.00  0.00     0.118 C 
BRANCH  24  25
ATOM     25  N   UNL     1      -4.805  -0.258   5.656  1.00  0.00    -0.352 N 
ATOM     26  C   UNL     1      -4.782   0.383   6.888  1.00  0.00     0.251 C 
ATOM     27  H   UNL     1      -4.761   0.378   4.906  1.00  0.00     0.163 HD
ATOM     28  O   UNL     1      -4.465   1.557   6.947  1.00  0.00    -0.269 OA
BRANCH  26  29
ATOM     29  C   UNL     1      -4.980  -0.363   8.158  1.00  0.00     0.039 A 
ATOM     30  C   UNL     1      -3.866  -0.287   9.004  1.00  0.00     0.014 A 
ATOM     31  C   UNL     1      -5.753  -1.505   8.111  1.00  0.00     0.014 A 
ATOM     32  C   UNL     1      -3.203  -1.466   9.293  1.00  0.00     0.010 A 
ATOM     33  C   UNL     1      -5.063  -2.676   8.331  1.00  0.00     0.010 A 
ATOM     34  C   UNL     1      -3.722  -2.632   8.758  1.00  0.00    -0.014 A 
BRANCH  34  35
ATOM     35  C   UNL     1      -2.913  -3.797   8.405  1.00  0.00     0.031 A 
ATOM     36  C   UNL     1      -3.294  -5.099   8.982  1.00  0.00     0.074 A 
ATOM     37  C   UNL     1      -1.978  -3.727   7.422  1.00  0.00     0.049 A 
ATOM     38  N   UNL     1      -2.640  -6.191   8.806  1.00  0.00    -0.248 NA
ATOM     39  C   UNL     1      -4.440  -5.257   9.871  1.00  0.00     0.031 C 
ATOM     40  C   UNL     1      -1.410  -4.844   6.661  1.00  0.00     0.029 A 
ATOM     41  N   UNL     1      -1.200  -2.623   7.020  1.00  0.00    -0.354 N 
ATOM     42  C   UNL     1      -3.381  -7.220   9.334  1.00  0.00     0.074 A 
ATOM     43  C   UNL     1      -4.449  -6.578  10.053  1.00  0.00     0.031 C 
ATOM     44  C   UNL     1      -0.232  -4.472   6.139  1.00  0.00     0.029 A 
ATOM     45  C   UNL     1       0.072  -3.160   6.670  1.00  0.00     0.049 A 
ATOM     46  H   UNL     1      -1.477  -1.679   6.987  1.00  0.00     0.167 HD
ATOM     47  C   UNL     1      -3.019  -8.493   9.015  1.00  0.00     0.037 A 
ATOM     48  C   UNL     1       1.190  -2.859   7.397  1.00  0.00     0.037 A 
ATOM     49  C   UNL     1      -1.664  -8.506   8.455  1.00  0.00     0.049 A 
ATOM     50  C   UNL     1       1.825  -4.038   8.114  1.00  0.00     0.074 A 
ATOM     51  C   UNL     1      -1.105  -8.615   7.194  1.00  0.00     0.029 A 
ATOM     52  N   UNL     1      -0.641  -8.084   9.285  1.00  0.00    -0.354 N 
ATOM     53  N   UNL     1       1.361  -5.257   8.086  1.00  0.00    -0.248 NA
ATOM     54  C   UNL     1       2.975  -3.905   9.012  1.00  0.00     0.031 C 
ATOM     55  C   UNL     1       0.261  -8.194   7.282  1.00  0.00     0.029 A 
ATOM     56  C   UNL     1       0.530  -7.856   8.597  1.00  0.00     0.049 A 
ATOM     57  H   UNL     1      -0.739  -7.961  10.257  1.00  0.00     0.167 HD
ATOM     58  C   UNL     1       2.031  -6.018   9.007  1.00  0.00     0.074 A 
ATOM     59  C   UNL     1       3.049  -5.136   9.545  1.00  0.00     0.031 C 
ATOM     60  C   UNL     1       1.663  -7.293   9.319  1.00  0.00     0.037 A 
BRANCH  47  61
ATOM     61  C   UNL     1      -3.889  -9.725   9.120  1.00  0.00     0.064 A 
ATOM     62  C   UNL     1      -3.412 -10.958   8.622  1.00  0.00     0.173 A 
ATOM     63  C   UNL     1      -5.221  -9.766   9.586  1.00  0.00     0.173 A 
ATOM     64  F   UNL     1      -2.162 -11.085   8.153  1.00  0.00    -0.203 F 
ATOM     65  C   UNL     1      -4.206 -12.108   8.564  1.00  0.00     0.198 A 
ATOM     66  C   UNL     1      -6.004 -10.922   9.554  1.00  0.00     0.198 A 
ATOM     67  F   UNL     1      -5.854  -8.696  10.064  1.00  0.00    -0.203 F 
ATOM     68  F   UNL     1      -3.706 -13.234   8.036  1.00  0.00    -0.200 F 
ATOM     69  C   UNL     1      -5.504 -12.090   9.029  1.00  0.00     0.200 A 
ATOM     70  F   UNL     1      -7.262 -10.878  10.018  1.00  0.00    -0.200 F 
ATOM     71  F   UNL     1      -6.271 -13.185   8.963  1.00  0.00    -0.200 F 
ENDBRANCH  47  61
BRANCH  48  72
ATOM     72  C   UNL     1       1.149  -1.468   7.918  1.00  0.00     0.064 A 
ATOM     73  C   UNL     1       1.180  -0.411   6.988  1.00  0.00     0.173 A 
ATOM     74  C   UNL     1       0.650  -1.197   9.197  1.00  0.00     0.173 A 
ATOM     75  F   UNL     1       1.659  -0.621   5.751  1.00  0.00    -0.203 F 
ATOM     76  C   UNL     1       0.599   0.821   7.279  1.00  0.00     0.198 A 
ATOM     77  C   UNL     1       0.084   0.043   9.488  1.00  0.00     0.198 A 
ATOM     78  F   UNL     1       0.578  -2.171  10.116  1.00  0.00    -0.203 F 
ATOM     79  F   UNL     1       0.527   1.767   6.332  1.00  0.00    -0.200 F 
ATOM     80  C   UNL     1       0.018   1.033   8.518  1.00  0.00     0.200 A 
ATOM     81  F   UNL     1      -0.503   0.240  10.678  1.00  0.00    -0.200 F 
ATOM     82  F   UNL     1      -0.644   2.171   8.765  1.00  0.00    -0.200 F 
ENDBRANCH  48  72
BRANCH  60  83
ATOM     83  C   UNL     1       2.347  -8.104  10.381  1.00  0.00     0.064 A 
ATOM     84  C   UNL     1       3.736  -8.299  10.386  1.00  0.00     0.173 A 
ATOM     85  C   UNL     1       1.612  -8.815  11.353  1.00  0.00     0.173 A 
ATOM     86  F   UNL     1       4.515  -7.675   9.490  1.00  0.00    -0.203 F 
ATOM     87  C   UNL     1       4.349  -9.149  11.309  1.00  0.00     0.198 A 
ATOM     88  C   UNL     1       2.219  -9.707  12.233  1.00  0.00     0.198 A 
ATOM     89  F   UNL     1       0.289  -8.640  11.493  1.00  0.00    -0.203 F 
ATOM     90  F   UNL     1       5.683  -9.276  11.312  1.00  0.00    -0.200 F 
ATOM     91  C   UNL     1       3.589  -9.870  12.216  1.00  0.00     0.200 A 
ATOM     92  F   UNL     1       1.466 -10.403  13.097  1.00  0.00    -0.200 F 
ATOM     93  F   UNL     1       4.176 -10.711  13.078  1.00  0.00    -0.200 F 
ENDBRANCH  60  83
ENDBRANCH  34  35
ENDBRANCH  26  29
ENDBRANCH  24  25
ENDBRANCH   1  24
TORSDOF 14
