REMARK SMILES CC(C)[C@H](CO)NS(=O)(=O)c1ccc(C(=O)NCCCNC(=O)c2ccc(-c3c4nc(c(-c5c(F)c(F)c(F)c(F)c5F)c5ccc([nH]5)c(-c5c(F)c(F)c(F)c(F)c5F)c5nc(c(-c6c(F)c(F)c(F)c(F)c6F)c6ccc3[nH]6)C=C5)C=C4)cc2)cn1
REMARK SMILES IDX 15 1 16 2 17 3 14 5 11 6 12 7 88 8 13 9 87 10 8 11 9 12
REMARK SMILES IDX 10 13 7 14 4 16 2 17 1 18 3 19 5 20 6 21 18 23 19 24 20 25
REMARK SMILES IDX 21 26 22 27 23 29 24 30 25 31 86 32 26 33 85 34 27 35 28 36
REMARK SMILES IDX 29 37 79 38 30 39 84 40 78 41 80 42 31 43 83 44 77 45 76 46
REMARK SMILES IDX 32 48 64 49 44 50 63 51 45 52 48 53 62 54 81 55 46 56 47 57
REMARK SMILES IDX 61 59 82 60 49 61 33 62 34 63 42 64 35 65 36 66 40 67 43 68
REMARK SMILES IDX 37 69 38 70 41 71 39 72 65 73 66 74 74 75 67 76 68 77 72 78
REMARK SMILES IDX 75 79 69 80 70 81 73 82 71 83 50 84 51 85 59 86 52 87 53 88
REMARK SMILES IDX 57 89 60 90 54 91 55 92 58 93 56 94
REMARK H PARENT 17 4 7 15 6 22 21 28 80 47 48 58
REMARK Flexibility Score: inf
ROOT
ATOM      1  C   UNL     1      -5.148   2.555  -4.068  1.00  0.00     0.252 C 
ATOM      2  O   UNL     1      -5.474   3.641  -4.544  1.00  0.00    -0.269 OA
ATOM      3  N   UNL     1      -5.224   1.447  -4.870  1.00  0.00    -0.352 N 
ATOM      4  H   UNL     1      -5.638   1.615  -5.748  1.00  0.00     0.163 HD
ENDROOT
BRANCH   1   5
ATOM      5  C   UNL     1      -4.661   2.508  -2.672  1.00  0.00     0.058 A 
ATOM      6  C   UNL     1      -3.745   2.690  -0.095  1.00  0.00     0.170 A 
ATOM      7  C   UNL     1      -4.465   1.559  -0.463  1.00  0.00     0.043 A 
ATOM      8  N   UNL     1      -3.474   3.725  -0.928  1.00  0.00    -0.243 NA
ATOM      9  C   UNL     1      -4.923   1.470  -1.777  1.00  0.00     0.018 A 
ATOM     10  C   UNL     1      -3.967   3.617  -2.189  1.00  0.00     0.126 A 
BRANCH   6  11
ATOM     11  S   UNL     1      -3.243   2.914   1.614  1.00  0.00     0.258 S 
ATOM     12  O   UNL     1      -4.104   2.072   2.418  1.00  0.00    -0.205 OA
ATOM     13  O   UNL     1      -3.143   4.326   1.917  1.00  0.00    -0.205 OA
BRANCH  11  14
ATOM     14  N   UNL     1      -1.673   2.279   1.781  1.00  0.00    -0.204 NA
ATOM     15  H   UNL     1      -1.031   3.049   1.593  1.00  0.00     0.141 HD
BRANCH  14  16
ATOM     16  C   UNL     1      -1.198   1.128   0.958  1.00  0.00     0.098 C 
BRANCH  16  17
ATOM     17  C   UNL     1      -1.314  -0.253   1.665  1.00  0.00     0.003 C 
ATOM     18  C   UNL     1      -2.566  -0.471   2.513  1.00  0.00     0.009 C 
ATOM     19  C   UNL     1      -1.261  -1.374   0.612  1.00  0.00     0.009 C 
ENDBRANCH  16  17
BRANCH  16  20
ATOM     20  C   UNL     1       0.289   1.436   0.631  1.00  0.00     0.176 C 
BRANCH  20  21
ATOM     21  O   UNL     1       1.026   1.686   1.830  1.00  0.00    -0.395 OA
ATOM     22  H   UNL     1       0.646   2.452   2.289  1.00  0.00     0.210 HD
ENDBRANCH  20  21
ENDBRANCH  16  20
ENDBRANCH  14  16
ENDBRANCH  11  14
ENDBRANCH   6  11
ENDBRANCH   1   5
BRANCH   3  23
ATOM     23  C   UNL     1      -4.808   0.070  -4.666  1.00  0.00     0.118 C 
BRANCH  23  24
ATOM     24  C   UNL     1      -6.008  -0.856  -4.470  1.00  0.00     0.042 C 
BRANCH  24  25
ATOM     25  C   UNL     1      -6.828  -1.083  -5.739  1.00  0.00     0.118 C 
BRANCH  25  26
ATOM     26  N   UNL     1      -6.107  -1.871  -6.727  1.00  0.00    -0.352 N 
ATOM     27  C   UNL     1      -6.435  -3.063  -7.323  1.00  0.00     0.251 C 
ATOM     28  H   UNL     1      -5.246  -1.488  -7.014  1.00  0.00     0.163 HD
ATOM     29  O   UNL     1      -5.584  -3.664  -7.973  1.00  0.00    -0.269 OA
BRANCH  27  30
ATOM     30  C   UNL     1      -7.791  -3.639  -7.186  1.00  0.00     0.039 A 
ATOM     31  C   UNL     1      -7.918  -5.023  -7.025  1.00  0.00     0.014 A 
ATOM     32  C   UNL     1      -8.936  -2.842  -7.275  1.00  0.00     0.014 A 
ATOM     33  C   UNL     1      -9.186  -5.599  -6.902  1.00  0.00     0.010 A 
ATOM     34  C   UNL     1     -10.197  -3.409  -7.088  1.00  0.00     0.010 A 
ATOM     35  C   UNL     1     -10.335  -4.793  -6.905  1.00  0.00    -0.014 A 
BRANCH  35  36
ATOM     36  C   UNL     1     -11.687  -5.380  -6.722  1.00  0.00     0.031 A 
ATOM     37  C   UNL     1     -12.697  -5.317  -7.835  1.00  0.00     0.074 A 
ATOM     38  C   UNL     1     -12.025  -5.916  -5.534  1.00  0.00     0.049 A 
ATOM     39  N   UNL     1     -13.952  -5.690  -7.838  1.00  0.00    -0.248 NA
ATOM     40  C   UNL     1     -12.243  -4.735  -9.108  1.00  0.00     0.031 C 
ATOM     41  C   UNL     1     -11.147  -6.003  -4.366  1.00  0.00     0.029 A 
ATOM     42  N   UNL     1     -13.204  -6.476  -5.105  1.00  0.00    -0.354 N 
ATOM     43  C   UNL     1     -14.439  -5.377  -9.100  1.00  0.00     0.074 A 
ATOM     44  C   UNL     1     -13.359  -4.740  -9.823  1.00  0.00     0.031 C 
ATOM     45  C   UNL     1     -11.812  -6.593  -3.359  1.00  0.00     0.029 A 
ATOM     46  C   UNL     1     -13.172  -6.891  -3.796  1.00  0.00     0.049 A 
ATOM     47  H   UNL     1     -13.996  -6.570  -5.681  1.00  0.00     0.167 HD
ATOM     48  C   UNL     1     -15.668  -5.617  -9.616  1.00  0.00     0.037 A 
ATOM     49  C   UNL     1     -14.136  -7.439  -3.032  1.00  0.00     0.037 A 
ATOM     50  C   UNL     1     -16.732  -6.275  -8.904  1.00  0.00     0.049 A 
ATOM     51  C   UNL     1     -15.494  -7.690  -3.630  1.00  0.00     0.074 A 
ATOM     52  C   UNL     1     -17.998  -6.605  -9.356  1.00  0.00     0.029 A 
ATOM     53  N   UNL     1     -16.652  -6.706  -7.588  1.00  0.00    -0.354 N 
ATOM     54  N   UNL     1     -15.923  -7.439  -4.843  1.00  0.00    -0.248 NA
ATOM     55  C   UNL     1     -16.500  -8.308  -2.755  1.00  0.00     0.031 C 
ATOM     56  C   UNL     1     -18.697  -7.203  -8.302  1.00  0.00     0.029 A 
ATOM     57  C   UNL     1     -17.852  -7.286  -7.208  1.00  0.00     0.049 A 
ATOM     58  H   UNL     1     -15.861  -6.613  -7.010  1.00  0.00     0.167 HD
ATOM     59  C   UNL     1     -17.234  -7.894  -4.885  1.00  0.00     0.074 A 
ATOM     60  C   UNL     1     -17.526  -8.451  -3.581  1.00  0.00     0.031 C 
ATOM     61  C   UNL     1     -18.118  -7.852  -5.911  1.00  0.00     0.037 A 
BRANCH  48  62
ATOM     62  C   UNL     1     -15.930  -5.178 -11.028  1.00  0.00     0.064 A 
ATOM     63  C   UNL     1     -15.345  -5.836 -12.120  1.00  0.00     0.173 A 
ATOM     64  C   UNL     1     -16.820  -4.127 -11.295  1.00  0.00     0.173 A 
ATOM     65  F   UNL     1     -14.478  -6.840 -11.918  1.00  0.00    -0.203 F 
ATOM     66  C   UNL     1     -15.623  -5.443 -13.427  1.00  0.00     0.198 A 
ATOM     67  C   UNL     1     -17.119  -3.756 -12.604  1.00  0.00     0.198 A 
ATOM     68  F   UNL     1     -17.413  -3.470 -10.287  1.00  0.00    -0.203 F 
ATOM     69  F   UNL     1     -15.021  -6.060 -14.453  1.00  0.00    -0.200 F 
ATOM     70  C   UNL     1     -16.516  -4.410 -13.668  1.00  0.00     0.200 A 
ATOM     71  F   UNL     1     -17.991  -2.765 -12.835  1.00  0.00    -0.200 F 
ATOM     72  F   UNL     1     -16.792  -4.041 -14.926  1.00  0.00    -0.200 F 
ENDBRANCH  48  62
BRANCH  49  73
ATOM     73  C   UNL     1     -13.852  -7.804  -1.619  1.00  0.00     0.064 A 
ATOM     74  C   UNL     1     -13.804  -9.147  -1.218  1.00  0.00     0.173 A 
ATOM     75  C   UNL     1     -13.645  -6.824  -0.638  1.00  0.00     0.173 A 
ATOM     76  F   UNL     1     -14.016 -10.121  -2.116  1.00  0.00    -0.203 F 
ATOM     77  C   UNL     1     -13.589  -9.494   0.114  1.00  0.00     0.198 A 
ATOM     78  C   UNL     1     -13.400  -7.172   0.688  1.00  0.00     0.198 A 
ATOM     79  F   UNL     1     -13.674  -5.524  -0.971  1.00  0.00    -0.203 F 
ATOM     80  F   UNL     1     -13.601 -10.784   0.478  1.00  0.00    -0.200 F 
ATOM     81  C   UNL     1     -13.382  -8.507   1.065  1.00  0.00     0.200 A 
ATOM     82  F   UNL     1     -13.186  -6.216   1.601  1.00  0.00    -0.200 F 
ATOM     83  F   UNL     1     -13.176  -8.841   2.346  1.00  0.00    -0.200 F 
ENDBRANCH  49  73
BRANCH  61  84
ATOM     84  C   UNL     1     -19.469  -8.463  -5.680  1.00  0.00     0.064 A 
ATOM     85  C   UNL     1     -20.425  -7.847  -4.860  1.00  0.00     0.173 A 
ATOM     86  C   UNL     1     -19.822  -9.662  -6.317  1.00  0.00     0.173 A 
ATOM     87  F   UNL     1     -20.129  -6.708  -4.216  1.00  0.00    -0.203 F 
ATOM     88  C   UNL     1     -21.678  -8.422  -4.667  1.00  0.00     0.198 A 
ATOM     89  C   UNL     1     -21.086 -10.219  -6.145  1.00  0.00     0.198 A 
ATOM     90  F   UNL     1     -18.945 -10.287  -7.117  1.00  0.00    -0.203 F 
ATOM     91  F   UNL     1     -22.560  -7.841  -3.843  1.00  0.00    -0.200 F 
ATOM     92  C   UNL     1     -22.010  -9.603  -5.315  1.00  0.00     0.200 A 
ATOM     93  F   UNL     1     -21.409 -11.353  -6.782  1.00  0.00    -0.200 F 
ATOM     94  F   UNL     1     -23.219 -10.152  -5.133  1.00  0.00    -0.200 F 
ENDBRANCH  61  84
ENDBRANCH  35  36
ENDBRANCH  27  30
ENDBRANCH  25  26
ENDBRANCH  24  25
ENDBRANCH  23  24
ENDBRANCH   3  23
TORSDOF 16
