REMARK SMILES Cc1cccc(OCC(=O)Nc2cc(C(=O)NCCCNC(=O)c3ccc(-c4c5nc(c(-c6c(F)c(F)c(F)c(F)c6F)c6ccc([nH]6)c(-c6c(F)c(F)c(F)c(F)c6F)c6nc(c(-c7c(F)c(F)c(F)c(F)c7F)c7ccc4[nH]7)C=C6)C=C5)cc3)c(Cl)cc2Cl)c1
REMARK SMILES IDX 18 1 17 2 15 3 16 4 14 6 12 7 13 8 90 9 89 10 91 11 87 12
REMARK SMILES IDX 88 13 11 14 9 15 10 16 8 18 7 19 6 20 1 21 2 22 3 23 92 24
REMARK SMILES IDX 4 25 5 26 19 27 20 28 21 29 22 30 23 32 24 33 25 34 86 35
REMARK SMILES IDX 26 36 85 37 27 38 28 39 29 40 79 41 30 42 84 43 78 44 80 45
REMARK SMILES IDX 31 46 83 47 77 48 76 49 32 51 64 52 44 53 63 54 45 55 48 56
REMARK SMILES IDX 62 57 81 58 46 59 47 60 61 62 82 63 49 64 33 65 34 66 42 67
REMARK SMILES IDX 35 68 36 69 40 70 43 71 37 72 38 73 41 74 39 75 65 76 66 77
REMARK SMILES IDX 74 78 67 79 68 80 72 81 75 82 69 83 70 84 73 85 71 86 50 87
REMARK SMILES IDX 51 88 59 89 52 90 53 91 57 92 60 93 54 94 55 95 58 96 56 97
REMARK H PARENT 17 5 11 17 21 31 80 50 48 61
REMARK Flexibility Score: inf
ROOT
ATOM      1  C   UNL     1      -3.575   0.673   0.511  1.00  0.00     0.118 C 
ENDROOT
BRANCH   1   2
ATOM      2  N   UNL     1      -4.945   1.121   0.639  1.00  0.00    -0.352 N 
ATOM      3  C   UNL     1      -5.456   2.240   1.251  1.00  0.00     0.252 C 
ATOM      4  O   UNL     1      -6.649   2.491   1.069  1.00  0.00    -0.269 OA
ATOM      5  H   UNL     1      -5.615   0.532   0.222  1.00  0.00     0.163 HD
BRANCH   3   6
ATOM      6  C   UNL     1      -4.625   3.118   2.128  1.00  0.00     0.060 A 
ATOM      7  C   UNL     1      -2.464   4.137   2.660  1.00  0.00     0.061 A 
ATOM      8  C   UNL     1      -3.303   3.476   1.761  1.00  0.00     0.043 A 
ATOM      9  C   UNL     1      -3.021   4.585   3.877  1.00  0.00     0.066 A 
ATOM     10  C   UNL     1      -4.354   4.345   4.202  1.00  0.00     0.044 A 
ATOM     11  Cl  UNL     1      -2.062   5.452   5.032  1.00  0.00    -0.082 Cl
ATOM     12  C   UNL     1      -5.150   3.585   3.346  1.00  0.00     0.055 A 
ATOM     13  Cl  UNL     1      -6.743   3.228   3.921  1.00  0.00    -0.083 Cl
BRANCH   7  14
ATOM     14  N   UNL     1      -1.073   4.307   2.503  1.00  0.00    -0.322 N 
ATOM     15  C   UNL     1      -0.141   4.129   1.530  1.00  0.00     0.262 C 
ATOM     16  O   UNL     1       1.041   4.254   1.879  1.00  0.00    -0.271 OA
ATOM     17  H   UNL     1      -0.662   4.651   3.329  1.00  0.00     0.170 HD
BRANCH  15  18
ATOM     18  C   UNL     1      -0.473   3.898   0.059  1.00  0.00     0.329 C 
BRANCH  18  19
ATOM     19  O   UNL     1      -0.793   2.597  -0.373  1.00  0.00    -0.484 OA
BRANCH  19  20
ATOM     20  C   UNL     1       0.132   1.599  -0.300  1.00  0.00     0.120 A 
ATOM     21  C   UNL     1       3.682   0.454   0.466  1.00  0.00     0.044 C 
ATOM     22  C   UNL     1       2.216   0.452   0.166  1.00  0.00    -0.047 A 
ATOM     23  C   UNL     1       1.606  -0.787  -0.051  1.00  0.00     0.003 A 
ATOM     24  C   UNL     1       1.468   1.648   0.065  1.00  0.00     0.049 A 
ATOM     25  C   UNL     1       0.297  -0.827  -0.471  1.00  0.00     0.004 A 
ATOM     26  C   UNL     1      -0.395   0.365  -0.646  1.00  0.00     0.046 A 
ENDBRANCH  19  20
ENDBRANCH  18  19
ENDBRANCH  15  18
ENDBRANCH   7  14
ENDBRANCH   3   6
ENDBRANCH   1   2
BRANCH   1  27
ATOM     27  C   UNL     1      -3.393  -0.831   0.599  1.00  0.00     0.042 C 
BRANCH  27  28
ATOM     28  C   UNL     1      -3.722  -1.608  -0.675  1.00  0.00     0.118 C 
BRANCH  28  29
ATOM     29  N   UNL     1      -2.894  -1.257  -1.843  1.00  0.00    -0.352 N 
ATOM     30  C   UNL     1      -1.938  -1.870  -2.640  1.00  0.00     0.251 C 
ATOM     31  H   UNL     1      -3.068  -0.335  -2.139  1.00  0.00     0.163 HD
ATOM     32  O   UNL     1      -1.377  -1.183  -3.494  1.00  0.00    -0.269 OA
BRANCH  30  33
ATOM     33  C   UNL     1      -1.657  -3.341  -2.636  1.00  0.00     0.039 A 
ATOM     34  C   UNL     1      -1.960  -3.873  -3.901  1.00  0.00     0.014 A 
ATOM     35  C   UNL     1      -2.056  -4.028  -1.511  1.00  0.00     0.014 A 
ATOM     36  C   UNL     1      -3.165  -4.534  -4.040  1.00  0.00     0.010 A 
ATOM     37  C   UNL     1      -3.287  -4.624  -1.626  1.00  0.00     0.010 A 
ATOM     38  C   UNL     1      -3.900  -4.724  -2.887  1.00  0.00    -0.014 A 
BRANCH  38  39
ATOM     39  C   UNL     1      -5.321  -4.993  -2.838  1.00  0.00     0.031 A 
ATOM     40  C   UNL     1      -5.701  -6.318  -2.332  1.00  0.00     0.074 A 
ATOM     41  C   UNL     1      -6.208  -3.979  -2.988  1.00  0.00     0.049 A 
ATOM     42  N   UNL     1      -6.897  -6.768  -2.313  1.00  0.00    -0.248 NA
ATOM     43  C   UNL     1      -4.726  -7.272  -1.810  1.00  0.00     0.031 C 
ATOM     44  C   UNL     1      -7.601  -3.941  -2.544  1.00  0.00     0.029 A 
ATOM     45  N   UNL     1      -6.067  -2.801  -3.745  1.00  0.00    -0.354 N 
ATOM     46  C   UNL     1      -6.909  -7.904  -1.538  1.00  0.00     0.074 A 
ATOM     47  C   UNL     1      -5.524  -8.210  -1.301  1.00  0.00     0.031 C 
ATOM     48  C   UNL     1      -8.268  -3.014  -3.252  1.00  0.00     0.029 A 
ATOM     49  C   UNL     1      -7.359  -2.534  -4.274  1.00  0.00     0.049 A 
ATOM     50  H   UNL     1      -5.248  -2.272  -3.879  1.00  0.00     0.167 HD
ATOM     51  C   UNL     1      -8.124  -8.350  -1.116  1.00  0.00     0.037 A 
ATOM     52  C   UNL     1      -7.597  -2.617  -5.618  1.00  0.00     0.037 A 
ATOM     53  C   UNL     1      -9.178  -7.617  -1.821  1.00  0.00     0.049 A 
ATOM     54  C   UNL     1      -8.580  -3.711  -5.977  1.00  0.00     0.074 A 
ATOM     55  C   UNL     1      -9.979  -6.539  -1.482  1.00  0.00     0.029 A 
ATOM     56  N   UNL     1      -9.245  -7.736  -3.206  1.00  0.00    -0.354 N 
ATOM     57  N   UNL     1      -8.829  -4.739  -5.211  1.00  0.00    -0.248 NA
ATOM     58  C   UNL     1      -9.377  -3.725  -7.199  1.00  0.00     0.031 C 
ATOM     59  C   UNL     1     -10.486  -5.978  -2.686  1.00  0.00     0.029 A 
ATOM     60  C   UNL     1     -10.015  -6.730  -3.750  1.00  0.00     0.049 A 
ATOM     61  H   UNL     1      -8.801  -8.443  -3.728  1.00  0.00     0.167 HD
ATOM     62  C   UNL     1      -9.789  -5.529  -5.791  1.00  0.00     0.074 A 
ATOM     63  C   UNL     1     -10.098  -4.850  -7.035  1.00  0.00     0.031 C 
ATOM     64  C   UNL     1     -10.246  -6.670  -5.188  1.00  0.00     0.037 A 
BRANCH  51  65
ATOM     65  C   UNL     1      -8.387  -9.274   0.051  1.00  0.00     0.064 A 
ATOM     66  C   UNL     1      -9.688  -9.354   0.597  1.00  0.00     0.173 A 
ATOM     67  C   UNL     1      -7.426 -10.047   0.732  1.00  0.00     0.173 A 
ATOM     68  F   UNL     1     -10.721  -8.706   0.043  1.00  0.00    -0.203 F 
ATOM     69  C   UNL     1      -9.983 -10.096   1.744  1.00  0.00     0.198 A 
ATOM     70  C   UNL     1      -7.717 -10.778   1.887  1.00  0.00     0.198 A 
ATOM     71  F   UNL     1      -6.168 -10.164   0.309  1.00  0.00    -0.203 F 
ATOM     72  F   UNL     1     -11.236 -10.114   2.218  1.00  0.00    -0.200 F 
ATOM     73  C   UNL     1      -8.995 -10.799   2.398  1.00  0.00     0.200 A 
ATOM     74  F   UNL     1      -6.739 -11.461   2.500  1.00  0.00    -0.200 F 
ATOM     75  F   UNL     1      -9.271 -11.501   3.504  1.00  0.00    -0.200 F 
ENDBRANCH  51  65
BRANCH  52  76
ATOM     76  C   UNL     1      -6.411  -2.181  -6.408  1.00  0.00     0.064 A 
ATOM     77  C   UNL     1      -6.013  -0.835  -6.264  1.00  0.00     0.173 A 
ATOM     78  C   UNL     1      -5.440  -3.100  -6.826  1.00  0.00     0.173 A 
ATOM     79  F   UNL     1      -6.910   0.089  -5.883  1.00  0.00    -0.203 F 
ATOM     80  C   UNL     1      -4.673  -0.463  -6.349  1.00  0.00     0.198 A 
ATOM     81  C   UNL     1      -4.101  -2.713  -6.939  1.00  0.00     0.198 A 
ATOM     82  F   UNL     1      -5.753  -4.394  -6.980  1.00  0.00    -0.203 F 
ATOM     83  F   UNL     1      -4.309   0.792  -6.044  1.00  0.00    -0.200 F 
ATOM     84  C   UNL     1      -3.713  -1.412  -6.651  1.00  0.00     0.200 A 
ATOM     85  F   UNL     1      -3.165  -3.631  -7.225  1.00  0.00    -0.200 F 
ATOM     86  F   UNL     1      -2.413  -1.086  -6.629  1.00  0.00    -0.200 F 
ENDBRANCH  52  76
BRANCH  64  87
ATOM     87  C   UNL     1     -11.018  -7.807  -5.837  1.00  0.00     0.064 A 
ATOM     88  C   UNL     1     -11.089  -8.031  -7.221  1.00  0.00     0.173 A 
ATOM     89  C   UNL     1     -11.598  -8.833  -5.040  1.00  0.00     0.173 A 
ATOM     90  F   UNL     1     -10.480  -7.223  -8.097  1.00  0.00    -0.203 F 
ATOM     91  C   UNL     1     -11.739  -9.146  -7.763  1.00  0.00     0.198 A 
ATOM     92  C   UNL     1     -12.171  -9.981  -5.582  1.00  0.00     0.198 A 
ATOM     93  F   UNL     1     -11.600  -8.779  -3.700  1.00  0.00    -0.203 F 
ATOM     94  F   UNL     1     -11.823  -9.278  -9.094  1.00  0.00    -0.200 F 
ATOM     95  C   UNL     1     -12.264 -10.128  -6.946  1.00  0.00     0.200 A 
ATOM     96  F   UNL     1     -12.610 -10.953  -4.768  1.00  0.00    -0.200 F 
ATOM     97  F   UNL     1     -12.835 -11.219  -7.471  1.00  0.00    -0.200 F 
ENDBRANCH  64  87
ENDBRANCH  38  39
ENDBRANCH  30  33
ENDBRANCH  28  29
ENDBRANCH  27  28
ENDBRANCH   1  27
TORSDOF 14
