REMARK SMILES O=C(NCCCNC(=O)[C@H]1CCCCN1S(=O)(=O)c1cc[nH]c1)c1ccc(-c2c3nc(c(-c4c(F)c(F)c(F)c(F)c4F)c4ccc([nH]4)c(-c4c(F)c(F)c(F)c(F)c4F)c4nc(c(-c5c(F)c(F)c(F)c(F)c5F)c5ccc2[nH]5)C=C4)C=C3)cc1
REMARK SMILES IDX 5 1 4 2 3 3 1 4 2 5 24 7 25 8 86 9 26 10 85 11 27 12 28 13
REMARK SMILES IDX 29 14 79 15 30 16 84 17 78 18 80 19 31 20 83 21 77 22 76 23
REMARK SMILES IDX 32 25 64 26 44 27 63 28 45 29 48 30 62 31 81 32 46 33 47 34
REMARK SMILES IDX 61 36 82 37 49 38 33 39 34 40 42 41 35 42 36 43 40 44 43 45
REMARK SMILES IDX 37 46 38 47 41 48 39 49 65 50 66 51 74 52 67 53 68 54 72 55
REMARK SMILES IDX 75 56 69 57 70 58 73 59 71 60 50 61 51 62 59 63 52 64 53 65
REMARK SMILES IDX 57 66 60 67 54 68 55 69 58 70 56 71 6 72 7 73 8 74 9 76
REMARK SMILES IDX 10 77 11 78 15 79 12 80 14 81 13 82 16 83 17 84 18 85 19 86
REMARK SMILES IDX 20 87 23 88 21 89 22 90
REMARK H PARENT 3 6 80 24 48 35 7 75 22 91
REMARK Flexibility Score: inf
ROOT
ATOM      1  C   UNL     1       7.861  -3.795   0.493  1.00  0.00     0.042 C 
ENDROOT
BRANCH   1   2
ATOM      2  C   UNL     1       9.128  -4.065   1.309  1.00  0.00     0.118 C 
BRANCH   2   3
ATOM      3  N   UNL     1       9.642  -2.922   2.046  1.00  0.00    -0.352 N 
ATOM      4  O   UNL     1       9.862  -1.293   3.552  1.00  0.00    -0.269 OA
ATOM      5  C   UNL     1       9.136  -2.164   3.071  1.00  0.00     0.251 C 
ATOM      6  H   UNL     1      10.535  -2.633   1.749  1.00  0.00     0.163 HD
BRANCH   5   7
ATOM      7  C   UNL     1       7.752  -2.304   3.598  1.00  0.00     0.039 A 
ATOM      8  C   UNL     1       7.058  -3.515   3.665  1.00  0.00     0.014 A 
ATOM      9  C   UNL     1       7.147  -1.146   4.117  1.00  0.00     0.014 A 
ATOM     10  C   UNL     1       5.771  -3.565   4.199  1.00  0.00     0.010 A 
ATOM     11  C   UNL     1       5.871  -1.194   4.683  1.00  0.00     0.010 A 
ATOM     12  C   UNL     1       5.186  -2.413   4.738  1.00  0.00    -0.014 A 
BRANCH  12  13
ATOM     13  C   UNL     1       3.948  -2.568   5.543  1.00  0.00     0.031 A 
ATOM     14  C   UNL     1       4.214  -3.083   6.960  1.00  0.00     0.074 A 
ATOM     15  C   UNL     1       2.756  -2.277   4.952  1.00  0.00     0.049 A 
ATOM     16  N   UNL     1       3.422  -3.702   7.784  1.00  0.00    -0.248 NA
ATOM     17  C   UNL     1       5.582  -2.933   7.524  1.00  0.00     0.031 C 
ATOM     18  C   UNL     1       2.633  -1.749   3.587  1.00  0.00     0.029 A 
ATOM     19  N   UNL     1       1.431  -2.354   5.351  1.00  0.00    -0.354 N 
ATOM     20  C   UNL     1       4.120  -3.842   9.001  1.00  0.00     0.074 A 
ATOM     21  C   UNL     1       5.475  -3.460   8.744  1.00  0.00     0.031 C 
ATOM     22  C   UNL     1       1.337  -1.596   3.254  1.00  0.00     0.029 A 
ATOM     23  C   UNL     1       0.484  -2.007   4.355  1.00  0.00     0.049 A 
ATOM     24  H   UNL     1       1.167  -2.629   6.259  1.00  0.00     0.167 HD
ATOM     25  C   UNL     1       3.517  -4.130  10.189  1.00  0.00     0.037 A 
ATOM     26  C   UNL     1      -0.884  -2.068   4.388  1.00  0.00     0.037 A 
ATOM     27  C   UNL     1       2.122  -4.353  10.021  1.00  0.00     0.049 A 
ATOM     28  C   UNL     1      -1.252  -2.400   5.778  1.00  0.00     0.074 A 
ATOM     29  C   UNL     1       1.373  -5.393   9.541  1.00  0.00     0.029 A 
ATOM     30  N   UNL     1       1.296  -3.276  10.218  1.00  0.00    -0.354 N 
ATOM     31  N   UNL     1      -1.196  -1.565   6.773  1.00  0.00    -0.248 NA
ATOM     32  C   UNL     1      -1.700  -3.762   6.097  1.00  0.00     0.031 C 
ATOM     33  C   UNL     1       0.147  -4.809   9.149  1.00  0.00     0.029 A 
ATOM     34  C   UNL     1       0.200  -3.437   9.409  1.00  0.00     0.049 A 
ATOM     35  H   UNL     1       1.461  -2.523  10.830  1.00  0.00     0.167 HD
ATOM     36  C   UNL     1      -1.300  -2.394   7.868  1.00  0.00     0.074 A 
ATOM     37  C   UNL     1      -1.899  -3.621   7.404  1.00  0.00     0.031 C 
ATOM     38  C   UNL     1      -0.431  -2.240   8.897  1.00  0.00     0.037 A 
BRANCH  25  39
ATOM     39  C   UNL     1       4.021  -4.003  11.604  1.00  0.00     0.064 A 
ATOM     40  C   UNL     1       3.347  -4.721  12.623  1.00  0.00     0.173 A 
ATOM     41  C   UNL     1       4.869  -2.974  12.035  1.00  0.00     0.173 A 
ATOM     42  F   UNL     1       2.535  -5.747  12.319  1.00  0.00    -0.203 F 
ATOM     43  C   UNL     1       3.422  -4.351  13.965  1.00  0.00     0.198 A 
ATOM     44  C   UNL     1       4.984  -2.640  13.389  1.00  0.00     0.198 A 
ATOM     45  F   UNL     1       5.524  -2.201  11.158  1.00  0.00    -0.203 F 
ATOM     46  F   UNL     1       2.657  -4.974  14.873  1.00  0.00    -0.200 F 
ATOM     47  C   UNL     1       4.231  -3.300  14.345  1.00  0.00     0.200 A 
ATOM     48  F   UNL     1       5.772  -1.620  13.755  1.00  0.00    -0.200 F 
ATOM     49  F   UNL     1       4.258  -2.898  15.623  1.00  0.00    -0.200 F 
ENDBRANCH  25  39
BRANCH  26  50
ATOM     50  C   UNL     1      -2.038  -1.919   3.408  1.00  0.00     0.064 A 
ATOM     51  C   UNL     1      -1.936  -1.545   2.061  1.00  0.00     0.173 A 
ATOM     52  C   UNL     1      -3.368  -2.244   3.807  1.00  0.00     0.173 A 
ATOM     53  F   UNL     1      -0.787  -1.117   1.538  1.00  0.00    -0.203 F 
ATOM     54  C   UNL     1      -3.030  -1.588   1.177  1.00  0.00     0.198 A 
ATOM     55  C   UNL     1      -4.448  -2.325   2.923  1.00  0.00     0.198 A 
ATOM     56  F   UNL     1      -3.678  -2.509   5.083  1.00  0.00    -0.203 F 
ATOM     57  F   UNL     1      -2.858  -1.230  -0.103  1.00  0.00    -0.200 F 
ATOM     58  C   UNL     1      -4.275  -2.009   1.599  1.00  0.00     0.200 A 
ATOM     59  F   UNL     1      -5.644  -2.732   3.372  1.00  0.00    -0.200 F 
ATOM     60  F   UNL     1      -5.299  -2.103   0.741  1.00  0.00    -0.200 F 
ENDBRANCH  26  50
BRANCH  38  61
ATOM     61  C   UNL     1       0.124  -0.835   8.994  1.00  0.00     0.064 A 
ATOM     62  C   UNL     1      -0.710   0.230   9.361  1.00  0.00     0.173 A 
ATOM     63  C   UNL     1       1.425  -0.497   8.586  1.00  0.00     0.173 A 
ATOM     64  F   UNL     1      -1.968  -0.011   9.759  1.00  0.00    -0.203 F 
ATOM     65  C   UNL     1      -0.264   1.554   9.315  1.00  0.00     0.198 A 
ATOM     66  C   UNL     1       1.879   0.820   8.553  1.00  0.00     0.198 A 
ATOM     67  F   UNL     1       2.279  -1.445   8.204  1.00  0.00    -0.203 F 
ATOM     68  F   UNL     1      -1.091   2.549   9.662  1.00  0.00    -0.200 F 
ATOM     69  C   UNL     1       1.030   1.848   8.911  1.00  0.00     0.200 A 
ATOM     70  F   UNL     1       3.138   1.085   8.174  1.00  0.00    -0.200 F 
ATOM     71  F   UNL     1       1.459   3.117   8.874  1.00  0.00    -0.200 F 
ENDBRANCH  38  61
ENDBRANCH  12  13
ENDBRANCH   5   7
ENDBRANCH   2   3
ENDBRANCH   1   2
BRANCH   1  72
ATOM     72  C   UNL     1       8.154  -3.299  -0.921  1.00  0.00     0.117 C 
BRANCH  72  73
ATOM     73  N   UNL     1       8.610  -4.378  -1.773  1.00  0.00    -0.355 N 
ATOM     74  C   UNL     1       7.940  -5.181  -2.644  1.00  0.00     0.238 C 
ATOM     75  H   UNL     1       9.575  -4.564  -1.711  1.00  0.00     0.163 HD
ATOM     76  O   UNL     1       8.630  -6.043  -3.197  1.00  0.00    -0.273 OA
BRANCH  74  77
ATOM     77  C   UNL     1       6.433  -5.016  -2.934  1.00  0.00     0.162 C 
ATOM     78  C   UNL     1       6.056  -5.721  -4.257  1.00  0.00     0.030 C 
ATOM     79  N   UNL     1       5.590  -5.518  -1.794  1.00  0.00    -0.185 NA
ATOM     80  C   UNL     1       6.080  -7.243  -4.159  1.00  0.00     0.004 C 
ATOM     81  C   UNL     1       5.444  -6.982  -1.712  1.00  0.00     0.103 C 
ATOM     82  C   UNL     1       5.192  -7.707  -3.024  1.00  0.00     0.017 C 
BRANCH  79  83
ATOM     83  S   UNL     1       4.388  -4.453  -1.268  1.00  0.00     0.245 S 
ATOM     84  O   UNL     1       5.058  -3.261  -0.799  1.00  0.00    -0.207 OA
ATOM     85  O   UNL     1       3.383  -4.362  -2.309  1.00  0.00    -0.207 OA
BRANCH  83  86
ATOM     86  C   UNL     1       3.490  -4.918   0.142  1.00  0.00     0.100 A 
ATOM     87  C   UNL     1       3.691  -6.000   1.036  1.00  0.00     0.041 A 
ATOM     88  C   UNL     1       2.454  -4.160   0.666  1.00  0.00     0.104 A 
ATOM     89  C   UNL     1       2.772  -5.873   2.059  1.00  0.00     0.083 A 
ATOM     90  N   UNL     1       2.045  -4.734   1.839  1.00  0.00    -0.366 N 
ATOM     91  H   UNL     1       1.341  -4.383   2.432  1.00  0.00     0.165 HD
ENDBRANCH  83  86
ENDBRANCH  79  83
ENDBRANCH  74  77
ENDBRANCH  72  73
ENDBRANCH   1  72
TORSDOF 12
