REMARK SMILES O=C(/C=C/c1ccc(C(=O)NC2CC2)cc1)NC1(C(=O)NCCCNC(=O)c2ccc(-c3c4nc(c(-c5c(F)c(F)c(F)c(F)c5F)c5ccc([nH]5)c(-c5c(F)c(F)c(F)c(F)c5F)c5nc(c(-c6c(F)c(F)c(F)c(F)c6F)c6ccc3[nH]6)C=C5)C=C4)cc2)CCCC1
REMARK SMILES IDX 19 1 20 2 21 3 18 5 91 6 94 7 92 8 93 9 17 10 1 11 2 12 3 14
REMARK SMILES IDX 4 15 5 16 6 17 16 18 7 19 15 20 8 21 9 22 10 23 11 24 12 26
REMARK SMILES IDX 13 27 14 28 22 29 23 30 24 31 25 32 26 33 27 35 28 36 29 37
REMARK SMILES IDX 90 38 30 39 89 40 31 41 32 42 33 43 83 44 34 45 88 46 82 47
REMARK SMILES IDX 84 48 35 49 87 50 81 51 80 52 36 54 68 55 48 56 67 57 49 58
REMARK SMILES IDX 52 59 66 60 85 61 50 62 51 63 65 65 86 66 53 67 37 68 38 69
REMARK SMILES IDX 46 70 39 71 40 72 44 73 47 74 41 75 42 76 45 77 43 78 69 79
REMARK SMILES IDX 70 80 78 81 71 82 72 83 76 84 79 85 73 86 74 87 77 88 75 89
REMARK SMILES IDX 54 90 55 91 63 92 56 93 57 94 61 95 64 96 58 97 59 98 62 99
REMARK SMILES IDX 60 100
REMARK H PARENT 21 4 17 13 11 25 25 34 84 53 52 64
REMARK Flexibility Score: inf
ROOT
ATOM      1  C   UNL     1       2.833  -0.963   3.199  1.00  0.00     0.245 C 
ATOM      2  O   UNL     1       3.914  -0.380   3.006  1.00  0.00    -0.272 OA
ATOM      3  N   UNL     1       2.545  -1.223   4.496  1.00  0.00    -0.354 N 
ATOM      4  H   UNL     1       3.210  -0.876   5.134  1.00  0.00     0.163 HD
ENDROOT
BRANCH   1   5
ATOM      5  C   UNL     1       1.945  -1.389   1.978  1.00  0.00     0.119 C 
ATOM      6  C   UNL     1       0.450  -1.067   2.143  1.00  0.00     0.038 C 
ATOM      7  C   UNL     1       2.046  -2.894   1.700  1.00  0.00     0.038 C 
ATOM      8  C   UNL     1      -0.306  -2.401   2.112  1.00  0.00     0.003 C 
ATOM      9  C   UNL     1       0.726  -3.518   2.120  1.00  0.00     0.003 C 
BRANCH   5  10
ATOM     10  N   UNL     1       2.593  -0.627   0.887  1.00  0.00    -0.338 N 
ATOM     11  O   UNL     1       1.015  -0.766  -0.776  1.00  0.00    -0.270 OA
ATOM     12  C   UNL     1       2.119  -0.414  -0.368  1.00  0.00     0.244 C 
ATOM     13  H   UNL     1       3.469  -0.228   1.095  1.00  0.00     0.164 HD
BRANCH  12  14
ATOM     14  C   UNL     1       2.998   0.383  -1.254  1.00  0.00     0.072 C 
ATOM     15  C   UNL     1       4.341   0.454  -1.213  1.00  0.00     0.014 C 
BRANCH  15  16
ATOM     16  C   UNL     1       5.053   1.284  -2.192  1.00  0.00    -0.025 A 
ATOM     17  C   UNL     1       6.126   0.782  -2.927  1.00  0.00     0.009 A 
ATOM     18  C   UNL     1       4.640   2.598  -2.423  1.00  0.00     0.009 A 
ATOM     19  C   UNL     1       6.713   1.561  -3.938  1.00  0.00     0.014 A 
ATOM     20  C   UNL     1       5.226   3.369  -3.430  1.00  0.00     0.014 A 
ATOM     21  C   UNL     1       6.251   2.859  -4.228  1.00  0.00     0.039 A 
BRANCH  21  22
ATOM     22  C   UNL     1       6.891   3.581  -5.376  1.00  0.00     0.251 C 
ATOM     23  O   UNL     1       7.838   3.047  -5.960  1.00  0.00    -0.269 OA
ATOM     24  N   UNL     1       6.477   4.812  -5.845  1.00  0.00    -0.349 N 
ATOM     25  H   UNL     1       6.986   5.144  -6.620  1.00  0.00     0.164 HD
BRANCH  24  26
ATOM     26  C   UNL     1       5.445   5.684  -5.405  1.00  0.00     0.082 C 
ATOM     27  C   UNL     1       4.795   6.671  -6.336  1.00  0.00     0.027 C 
ATOM     28  C   UNL     1       4.026   5.475  -5.867  1.00  0.00     0.027 C 
ENDBRANCH  24  26
ENDBRANCH  21  22
ENDBRANCH  15  16
ENDBRANCH  12  14
ENDBRANCH   5  10
ENDBRANCH   1   5
BRANCH   3  29
ATOM     29  C   UNL     1       1.440  -1.917   5.114  1.00  0.00     0.117 C 
BRANCH  29  30
ATOM     30  C   UNL     1       1.879  -3.231   5.735  1.00  0.00     0.042 C 
BRANCH  30  31
ATOM     31  C   UNL     1       2.498  -3.050   7.111  1.00  0.00     0.118 C 
BRANCH  31  32
ATOM     32  N   UNL     1       1.546  -2.498   8.069  1.00  0.00    -0.352 N 
ATOM     33  C   UNL     1       0.995  -3.038   9.202  1.00  0.00     0.251 C 
ATOM     34  H   UNL     1       1.249  -1.581   7.868  1.00  0.00     0.163 HD
ATOM     35  O   UNL     1       0.025  -2.490   9.719  1.00  0.00    -0.269 OA
BRANCH  33  36
ATOM     36  C   UNL     1       1.549  -4.269   9.798  1.00  0.00     0.039 A 
ATOM     37  C   UNL     1       0.675  -5.173  10.407  1.00  0.00     0.014 A 
ATOM     38  C   UNL     1       2.922  -4.525   9.792  1.00  0.00     0.014 A 
ATOM     39  C   UNL     1       1.173  -6.356  10.951  1.00  0.00     0.010 A 
ATOM     40  C   UNL     1       3.403  -5.752  10.230  1.00  0.00     0.010 A 
ATOM     41  C   UNL     1       2.536  -6.675  10.827  1.00  0.00    -0.014 A 
BRANCH  41  42
ATOM     42  C   UNL     1       3.055  -7.979  11.306  1.00  0.00     0.031 A 
ATOM     43  C   UNL     1       4.101  -8.040  12.383  1.00  0.00     0.074 A 
ATOM     44  C   UNL     1       2.614  -9.110  10.724  1.00  0.00     0.049 A 
ATOM     45  N   UNL     1       4.663  -9.088  12.931  1.00  0.00    -0.248 NA
ATOM     46  C   UNL     1       4.609  -6.756  12.891  1.00  0.00     0.031 C 
ATOM     47  C   UNL     1       1.664  -9.170   9.611  1.00  0.00     0.029 A 
ATOM     48  N   UNL     1       2.904 -10.425  10.984  1.00  0.00    -0.354 N 
ATOM     49  C   UNL     1       5.595  -8.590  13.832  1.00  0.00     0.074 A 
ATOM     50  C   UNL     1       5.572  -7.149  13.711  1.00  0.00     0.031 C 
ATOM     51  C   UNL     1       1.417 -10.454   9.313  1.00  0.00     0.029 A 
ATOM     52  C   UNL     1       2.220 -11.306  10.184  1.00  0.00     0.049 A 
ATOM     53  H   UNL     1       3.542 -10.709  11.678  1.00  0.00     0.167 HD
ATOM     54  C   UNL     1       6.378  -9.272  14.702  1.00  0.00     0.037 A 
ATOM     55  C   UNL     1       2.236 -12.651  10.157  1.00  0.00     0.037 A 
ATOM     56  C   UNL     1       6.380 -10.707  14.825  1.00  0.00     0.049 A 
ATOM     57  C   UNL     1       3.094 -13.386  11.148  1.00  0.00     0.074 A 
ATOM     58  C   UNL     1       7.074 -11.496  15.725  1.00  0.00     0.029 A 
ATOM     59  N   UNL     1       5.659 -11.571  14.011  1.00  0.00    -0.354 N 
ATOM     60  N   UNL     1       3.898 -12.905  12.065  1.00  0.00    -0.248 NA
ATOM     61  C   UNL     1       3.035 -14.852  11.109  1.00  0.00     0.031 C 
ATOM     62  C   UNL     1       6.825 -12.838  15.413  1.00  0.00     0.029 A 
ATOM     63  C   UNL     1       5.920 -12.886  14.364  1.00  0.00     0.049 A 
ATOM     64  H   UNL     1       5.052 -11.290  13.288  1.00  0.00     0.167 HD
ATOM     65  C   UNL     1       4.428 -14.005  12.724  1.00  0.00     0.074 A 
ATOM     66  C   UNL     1       3.829 -15.178  12.118  1.00  0.00     0.031 C 
ATOM     67  C   UNL     1       5.330 -14.043  13.737  1.00  0.00     0.037 A 
BRANCH  54  68
ATOM     68  C   UNL     1       7.303  -8.473  15.577  1.00  0.00     0.064 A 
ATOM     69  C   UNL     1       6.822  -7.609  16.575  1.00  0.00     0.173 A 
ATOM     70  C   UNL     1       8.694  -8.581  15.426  1.00  0.00     0.173 A 
ATOM     71  F   UNL     1       5.501  -7.457  16.757  1.00  0.00    -0.203 F 
ATOM     72  C   UNL     1       7.694  -6.854  17.355  1.00  0.00     0.198 A 
ATOM     73  C   UNL     1       9.565  -7.853  16.234  1.00  0.00     0.198 A 
ATOM     74  F   UNL     1       9.213  -9.393  14.493  1.00  0.00    -0.203 F 
ATOM     75  F   UNL     1       7.206  -5.987  18.254  1.00  0.00    -0.200 F 
ATOM     76  C   UNL     1       9.064  -6.981  17.189  1.00  0.00     0.200 A 
ATOM     77  F   UNL     1      10.889  -7.988  16.082  1.00  0.00    -0.200 F 
ATOM     78  F   UNL     1       9.902  -6.256  17.943  1.00  0.00    -0.200 F 
ENDBRANCH  54  68
BRANCH  55  79
ATOM     79  C   UNL     1       1.386 -13.376   9.178  1.00  0.00     0.064 A 
ATOM     80  C   UNL     1       0.269 -14.113   9.595  1.00  0.00     0.173 A 
ATOM     81  C   UNL     1       1.655 -13.323   7.802  1.00  0.00     0.173 A 
ATOM     82  F   UNL     1      -0.021 -14.206  10.901  1.00  0.00    -0.203 F 
ATOM     83  C   UNL     1      -0.536 -14.782   8.676  1.00  0.00     0.198 A 
ATOM     84  C   UNL     1       0.831 -13.965   6.881  1.00  0.00     0.198 A 
ATOM     85  F   UNL     1       2.706 -12.622   7.350  1.00  0.00    -0.203 F 
ATOM     86  F   UNL     1      -1.575 -15.511   9.105  1.00  0.00    -0.200 F 
ATOM     87  C   UNL     1      -0.260 -14.700   7.319  1.00  0.00     0.200 A 
ATOM     88  F   UNL     1       1.090 -13.866   5.570  1.00  0.00    -0.200 F 
ATOM     89  F   UNL     1      -1.043 -15.332   6.434  1.00  0.00    -0.200 F 
ENDBRANCH  55  79
BRANCH  67  90
ATOM     90  C   UNL     1       5.710 -15.401  14.257  1.00  0.00     0.064 A 
ATOM     91  C   UNL     1       6.453 -16.307  13.484  1.00  0.00     0.173 A 
ATOM     92  C   UNL     1       5.329 -15.800  15.548  1.00  0.00     0.173 A 
ATOM     93  F   UNL     1       6.831 -15.981  12.239  1.00  0.00    -0.203 F 
ATOM     94  C   UNL     1       6.759 -17.578  13.966  1.00  0.00     0.198 A 
ATOM     95  C   UNL     1       5.671 -17.057  16.041  1.00  0.00     0.198 A 
ATOM     96  F   UNL     1       4.627 -14.971  16.334  1.00  0.00    -0.203 F 
ATOM     97  F   UNL     1       7.406 -18.451  13.182  1.00  0.00    -0.200 F 
ATOM     98  C   UNL     1       6.373 -17.949  15.245  1.00  0.00     0.200 A 
ATOM     99  F   UNL     1       5.312 -17.407  17.283  1.00  0.00    -0.200 F 
ATOM    100  F   UNL     1       6.667 -19.172  15.706  1.00  0.00    -0.200 F 
ENDBRANCH  67  90
ENDBRANCH  41  42
ENDBRANCH  33  36
ENDBRANCH  31  32
ENDBRANCH  30  31
ENDBRANCH  29  30
ENDBRANCH   3  29
TORSDOF 15
