REMARK SMILES CCS(=O)(=O)N1CCC[C@@H](C(=O)NCCCNC(=O)c2ccc(-c3c4nc(c(-c5c(F)c(F)c(F)c(F)c5F)c5ccc([nH]5)c(-c5c(F)c(F)c(F)c(F)c5F)c5nc(c(-c6c(F)c(F)c(F)c(F)c6F)c6ccc3[nH]6)C=C5)C=C4)cc2)C1
REMARK SMILES IDX 15 1 14 2 13 3 11 4 12 5 10 7 6 8 7 9 83 10 8 11 9 12 3 13
REMARK SMILES IDX 4 14 5 15 2 16 1 17 16 18 17 19 18 20 19 22 20 23 21 24
REMARK SMILES IDX 82 25 22 26 81 27 23 28 24 29 25 30 75 31 26 32 80 33 74 34
REMARK SMILES IDX 76 35 27 36 79 37 73 38 72 39 28 41 60 42 40 43 59 44 41 45
REMARK SMILES IDX 44 46 58 47 77 48 42 49 43 50 57 52 78 53 45 54 29 55 30 56
REMARK SMILES IDX 38 57 31 58 32 59 36 60 39 61 33 62 34 63 37 64 35 65 61 66
REMARK SMILES IDX 62 67 70 68 63 69 64 70 68 71 71 72 65 73 66 74 69 75 67 76
REMARK SMILES IDX 46 77 47 78 55 79 48 80 49 81 53 82 56 83 50 84 51 85 54 86
REMARK SMILES IDX 52 87
REMARK H PARENT 13 6 17 21 76 40 44 51
REMARK Flexibility Score: inf
ROOT
ATOM      1  C   UNL     1       3.463   2.594  -7.123  1.00  0.00     0.042 C 
ENDROOT
BRANCH   1   2
ATOM      2  C   UNL     1       4.537   1.890  -6.308  1.00  0.00     0.117 C 
BRANCH   2   3
ATOM      3  N   UNL     1       5.169   2.776  -5.341  1.00  0.00    -0.356 N 
ATOM      4  C   UNL     1       5.307   2.683  -3.989  1.00  0.00     0.224 C 
ATOM      5  O   UNL     1       5.891   3.603  -3.412  1.00  0.00    -0.275 OA
ATOM      6  H   UNL     1       5.567   3.587  -5.734  1.00  0.00     0.163 HD
BRANCH   4   7
ATOM      7  C   UNL     1       4.763   1.500  -3.203  1.00  0.00     0.093 C 
ATOM      8  N   UNL     1       2.628   0.236  -2.747  1.00  0.00    -0.201 NA
ATOM      9  C   UNL     1       3.227  -0.973  -3.366  1.00  0.00     0.102 C 
ATOM     10  C   UNL     1       3.233   1.515  -3.230  1.00  0.00     0.115 C 
ATOM     11  C   UNL     1       4.716  -1.019  -3.050  1.00  0.00     0.018 C 
ATOM     12  C   UNL     1       5.435   0.190  -3.624  1.00  0.00     0.016 C 
BRANCH   8  13
ATOM     13  S   UNL     1       0.909   0.238  -2.738  1.00  0.00     0.213 S 
ATOM     14  O   UNL     1       0.443  -1.130  -2.771  1.00  0.00    -0.212 OA
ATOM     15  O   UNL     1       0.464   1.197  -3.730  1.00  0.00    -0.212 OA
BRANCH  13  16
ATOM     16  C   UNL     1       0.562   0.900  -1.112  1.00  0.00     0.151 C 
ATOM     17  C   UNL     1       1.045  -0.008   0.001  1.00  0.00     0.022 C 
ENDBRANCH  13  16
ENDBRANCH   8  13
ENDBRANCH   4   7
ENDBRANCH   2   3
ENDBRANCH   1   2
BRANCH   1  18
ATOM     18  C   UNL     1       4.000   3.680  -8.045  1.00  0.00     0.118 C 
BRANCH  18  19
ATOM     19  N   UNL     1       4.888   3.157  -9.076  1.00  0.00    -0.352 N 
ATOM     20  C   UNL     1       4.777   3.200 -10.444  1.00  0.00     0.251 C 
ATOM     21  H   UNL     1       5.693   2.703  -8.739  1.00  0.00     0.163 HD
ATOM     22  O   UNL     1       5.544   2.540 -11.139  1.00  0.00    -0.269 OA
BRANCH  20  23
ATOM     23  C   UNL     1       3.726   4.019 -11.084  1.00  0.00     0.039 A 
ATOM     24  C   UNL     1       3.038   3.497 -12.183  1.00  0.00     0.014 A 
ATOM     25  C   UNL     1       3.420   5.297 -10.612  1.00  0.00     0.014 A 
ATOM     26  C   UNL     1       1.997   4.227 -12.759  1.00  0.00     0.010 A 
ATOM     27  C   UNL     1       2.322   5.980 -11.123  1.00  0.00     0.010 A 
ATOM     28  C   UNL     1       1.601   5.456 -12.206  1.00  0.00    -0.014 A 
BRANCH  28  29
ATOM     29  C   UNL     1       0.437   6.205 -12.742  1.00  0.00     0.031 A 
ATOM     30  C   UNL     1       0.620   7.582 -13.316  1.00  0.00     0.074 A 
ATOM     31  C   UNL     1      -0.798   5.674 -12.644  1.00  0.00     0.049 A 
ATOM     32  N   UNL     1      -0.281   8.419 -13.768  1.00  0.00    -0.248 NA
ATOM     33  C   UNL     1       1.995   8.102 -13.358  1.00  0.00     0.031 C 
ATOM     34  C   UNL     1      -1.113   4.371 -12.058  1.00  0.00     0.029 A 
ATOM     35  N   UNL     1      -2.019   6.171 -13.025  1.00  0.00    -0.354 N 
ATOM     36  C   UNL     1       0.416   9.564 -14.131  1.00  0.00     0.074 A 
ATOM     37  C   UNL     1       1.804   9.340 -13.788  1.00  0.00     0.031 C 
ATOM     38  C   UNL     1      -2.435   4.160 -12.140  1.00  0.00     0.029 A 
ATOM     39  C   UNL     1      -3.067   5.330 -12.742  1.00  0.00     0.049 A 
ATOM     40  H   UNL     1      -2.133   7.048 -13.459  1.00  0.00     0.167 HD
ATOM     41  C   UNL     1      -0.054  10.690 -14.719  1.00  0.00     0.037 A 
ATOM     42  C   UNL     1      -4.391   5.488 -12.935  1.00  0.00     0.037 A 
ATOM     43  C   UNL     1      -1.435  10.900 -15.070  1.00  0.00     0.049 A 
ATOM     44  C   UNL     1      -4.893   6.752 -13.578  1.00  0.00     0.074 A 
ATOM     45  C   UNL     1      -2.004  11.977 -15.727  1.00  0.00     0.029 A 
ATOM     46  N   UNL     1      -2.467  10.019 -14.780  1.00  0.00    -0.354 N 
ATOM     47  N   UNL     1      -4.216   7.796 -13.990  1.00  0.00    -0.248 NA
ATOM     48  C   UNL     1      -6.343   6.856 -13.788  1.00  0.00     0.031 C 
ATOM     49  C   UNL     1      -3.387  11.777 -15.777  1.00  0.00     0.029 A 
ATOM     50  C   UNL     1      -3.675  10.543 -15.215  1.00  0.00     0.049 A 
ATOM     51  H   UNL     1      -2.358   9.149 -14.331  1.00  0.00     0.167 HD
ATOM     52  C   UNL     1      -5.150   8.668 -14.534  1.00  0.00     0.074 A 
ATOM     53  C   UNL     1      -6.441   8.022 -14.411  1.00  0.00     0.031 C 
ATOM     54  C   UNL     1      -4.954   9.891 -15.086  1.00  0.00     0.037 A 
BRANCH  41  55
ATOM     55  C   UNL     1       0.935  11.785 -15.008  1.00  0.00     0.064 A 
ATOM     56  C   UNL     1       1.957  11.630 -15.957  1.00  0.00     0.173 A 
ATOM     57  C   UNL     1       0.852  13.014 -14.335  1.00  0.00     0.173 A 
ATOM     58  F   UNL     1       2.090  10.473 -16.624  1.00  0.00    -0.203 F 
ATOM     59  C   UNL     1       2.884  12.643 -16.189  1.00  0.00     0.198 A 
ATOM     60  C   UNL     1       1.756  14.040 -14.597  1.00  0.00     0.198 A 
ATOM     61  F   UNL     1      -0.110  13.223 -13.422  1.00  0.00    -0.203 F 
ATOM     62  F   UNL     1       3.891  12.444 -17.051  1.00  0.00    -0.200 F 
ATOM     63  C   UNL     1       2.779  13.849 -15.513  1.00  0.00     0.200 A 
ATOM     64  F   UNL     1       1.643  15.211 -13.955  1.00  0.00    -0.200 F 
ATOM     65  F   UNL     1       3.670  14.825 -15.738  1.00  0.00    -0.200 F 
ENDBRANCH  41  55
BRANCH  42  66
ATOM     66  C   UNL     1      -5.327   4.406 -12.533  1.00  0.00     0.064 A 
ATOM     67  C   UNL     1      -6.006   3.647 -13.496  1.00  0.00     0.173 A 
ATOM     68  C   UNL     1      -5.546   4.094 -11.183  1.00  0.00     0.173 A 
ATOM     69  F   UNL     1      -5.845   3.919 -14.799  1.00  0.00    -0.203 F 
ATOM     70  C   UNL     1      -6.881   2.628 -13.123  1.00  0.00     0.198 A 
ATOM     71  C   UNL     1      -6.397   3.055 -10.813  1.00  0.00     0.198 A 
ATOM     72  F   UNL     1      -4.916   4.787 -10.223  1.00  0.00    -0.203 F 
ATOM     73  F   UNL     1      -7.549   1.945 -14.063  1.00  0.00    -0.200 F 
ATOM     74  C   UNL     1      -7.069   2.327 -11.783  1.00  0.00     0.200 A 
ATOM     75  F   UNL     1      -6.563   2.757  -9.517  1.00  0.00    -0.200 F 
ATOM     76  F   UNL     1      -7.902   1.340 -11.426  1.00  0.00    -0.200 F 
ENDBRANCH  42  66
BRANCH  54  77
ATOM     77  C   UNL     1      -6.160  10.601 -15.636  1.00  0.00     0.064 A 
ATOM     78  C   UNL     1      -7.157  11.123 -14.799  1.00  0.00     0.173 A 
ATOM     79  C   UNL     1      -6.295  10.799 -17.019  1.00  0.00     0.173 A 
ATOM     80  F   UNL     1      -7.084  10.950 -13.471  1.00  0.00    -0.203 F 
ATOM     81  C   UNL     1      -8.259  11.791 -15.329  1.00  0.00     0.198 A 
ATOM     82  C   UNL     1      -7.379  11.498 -17.542  1.00  0.00     0.198 A 
ATOM     83  F   UNL     1      -5.366  10.327 -17.864  1.00  0.00    -0.203 F 
ATOM     84  F   UNL     1      -9.226  12.235 -14.514  1.00  0.00    -0.200 F 
ATOM     85  C   UNL     1      -8.364  11.986 -16.698  1.00  0.00     0.200 A 
ATOM     86  F   UNL     1      -7.469  11.700 -18.864  1.00  0.00    -0.200 F 
ATOM     87  F   UNL     1      -9.420  12.638 -17.205  1.00  0.00    -0.200 F 
ENDBRANCH  54  77
ENDBRANCH  28  29
ENDBRANCH  20  23
ENDBRANCH  18  19
ENDBRANCH   1  18
TORSDOF 12
