REMARK SMILES O=C(NCCCNC(=O)[C@@H](CO)NC(=O)c1ccc2noc(-c3ccccc3)c2c1)c1ccc(-c2c3nc(c(-c4c(F)c(F)c(F)c(F)c4F)c4ccc([nH]4)c(-c4c(F)c(F)c(F)c(F)c4F)c4nc(c(-c5c(F)c(F)c(F)c(F)c5F)c5ccc2[nH]5)C=C4)C=C3)cc1
REMARK SMILES IDX 5 1 4 2 3 3 1 4 2 5 31 7 32 8 93 9 33 10 92 11 34 12 35 13
REMARK SMILES IDX 36 14 86 15 37 16 91 17 85 18 87 19 38 20 90 21 84 22 83 23
REMARK SMILES IDX 39 25 71 26 51 27 70 28 52 29 55 30 69 31 88 32 53 33 54 34
REMARK SMILES IDX 68 36 89 37 56 38 40 39 41 40 49 41 42 42 43 43 47 44 50 45
REMARK SMILES IDX 44 46 45 47 48 48 46 49 72 50 73 51 81 52 74 53 75 54 79 55
REMARK SMILES IDX 82 56 76 57 77 58 80 59 78 60 57 61 58 62 66 63 59 64 60 65
REMARK SMILES IDX 64 66 67 67 61 68 62 69 65 70 63 71 6 72 7 73 8 74 9 76
REMARK SMILES IDX 10 77 11 78 12 79 13 81 14 82 15 84 16 85 17 86 30 87 18 88
REMARK SMILES IDX 29 89 19 90 22 91 20 92 21 93 23 94 24 95 28 96 25 97 27 98
REMARK SMILES IDX 26 99
REMARK H PARENT 3 6 87 24 55 35 7 75 12 80 13 83
REMARK Flexibility Score: inf
ROOT
ATOM      1  C   UNL     1       4.556   2.455  -1.506  1.00  0.00     0.042 C 
ENDROOT
BRANCH   1   2
ATOM      2  C   UNL     1       4.154   1.299  -0.625  1.00  0.00     0.118 C 
BRANCH   2   3
ATOM      3  N   UNL     1       2.716   1.017  -0.607  1.00  0.00    -0.352 N 
ATOM      4  O   UNL     1       0.963  -0.400  -0.240  1.00  0.00    -0.269 OA
ATOM      5  C   UNL     1       2.076  -0.025   0.063  1.00  0.00     0.251 C 
ATOM      6  H   UNL     1       2.141   1.627  -1.123  1.00  0.00     0.163 HD
BRANCH   5   7
ATOM      7  C   UNL     1       2.818  -0.658   1.171  1.00  0.00     0.039 A 
ATOM      8  C   UNL     1       2.870  -2.036   1.373  1.00  0.00     0.014 A 
ATOM      9  C   UNL     1       3.583   0.200   1.943  1.00  0.00     0.014 A 
ATOM     10  C   UNL     1       3.767  -2.519   2.326  1.00  0.00     0.010 A 
ATOM     11  C   UNL     1       4.680  -0.295   2.574  1.00  0.00     0.010 A 
ATOM     12  C   UNL     1       4.688  -1.631   2.912  1.00  0.00    -0.014 A 
BRANCH  12  13
ATOM     13  C   UNL     1       5.687  -2.051   3.884  1.00  0.00     0.031 A 
ATOM     14  C   UNL     1       6.419  -3.277   3.507  1.00  0.00     0.074 A 
ATOM     15  C   UNL     1       6.011  -1.326   4.981  1.00  0.00     0.049 A 
ATOM     16  N   UNL     1       6.250  -4.454   4.005  1.00  0.00    -0.248 NA
ATOM     17  C   UNL     1       7.309  -3.237   2.339  1.00  0.00     0.031 C 
ATOM     18  C   UNL     1       5.591   0.032   5.364  1.00  0.00     0.029 A 
ATOM     19  N   UNL     1       6.867  -1.652   5.988  1.00  0.00    -0.354 N 
ATOM     20  C   UNL     1       7.164  -5.273   3.358  1.00  0.00     0.074 A 
ATOM     21  C   UNL     1       7.647  -4.524   2.226  1.00  0.00     0.031 C 
ATOM     22  C   UNL     1       6.358   0.489   6.376  1.00  0.00     0.029 A 
ATOM     23  C   UNL     1       7.174  -0.606   6.851  1.00  0.00     0.049 A 
ATOM     24  H   UNL     1       7.239  -2.557   6.096  1.00  0.00     0.167 HD
ATOM     25  C   UNL     1       7.629  -6.394   3.971  1.00  0.00     0.037 A 
ATOM     26  C   UNL     1       8.027  -0.646   7.902  1.00  0.00     0.037 A 
ATOM     27  C   UNL     1       6.786  -6.757   5.087  1.00  0.00     0.049 A 
ATOM     28  C   UNL     1       8.159  -2.071   8.284  1.00  0.00     0.074 A 
ATOM     29  C   UNL     1       5.461  -7.121   5.225  1.00  0.00     0.029 A 
ATOM     30  N   UNL     1       7.203  -6.373   6.337  1.00  0.00    -0.354 N 
ATOM     31  N   UNL     1       7.191  -2.777   8.798  1.00  0.00    -0.248 NA
ATOM     32  C   UNL     1       9.241  -2.834   7.684  1.00  0.00     0.031 C 
ATOM     33  C   UNL     1       5.030  -6.511   6.442  1.00  0.00     0.029 A 
ATOM     34  C   UNL     1       6.127  -5.866   7.018  1.00  0.00     0.049 A 
ATOM     35  H   UNL     1       8.121  -6.449   6.686  1.00  0.00     0.167 HD
ATOM     36  C   UNL     1       7.318  -4.026   8.210  1.00  0.00     0.074 A 
ATOM     37  C   UNL     1       8.657  -4.034   7.626  1.00  0.00     0.031 C 
ATOM     38  C   UNL     1       6.223  -4.816   8.008  1.00  0.00     0.037 A 
BRANCH  25  39
ATOM     39  C   UNL     1       9.037  -6.914   3.827  1.00  0.00     0.064 A 
ATOM     40  C   UNL     1       9.371  -8.153   4.407  1.00  0.00     0.173 A 
ATOM     41  C   UNL     1      10.131  -6.122   3.413  1.00  0.00     0.173 A 
ATOM     42  F   UNL     1       8.412  -8.975   4.862  1.00  0.00    -0.203 F 
ATOM     43  C   UNL     1      10.698  -8.534   4.622  1.00  0.00     0.198 A 
ATOM     44  C   UNL     1      11.452  -6.530   3.579  1.00  0.00     0.198 A 
ATOM     45  F   UNL     1       9.978  -4.879   2.944  1.00  0.00    -0.203 F 
ATOM     46  F   UNL     1      10.965  -9.662   5.293  1.00  0.00    -0.200 F 
ATOM     47  C   UNL     1      11.737  -7.720   4.211  1.00  0.00     0.200 A 
ATOM     48  F   UNL     1      12.445  -5.714   3.195  1.00  0.00    -0.200 F 
ATOM     49  F   UNL     1      13.008  -8.054   4.469  1.00  0.00    -0.200 F 
ENDBRANCH  25  39
BRANCH  26  50
ATOM     50  C   UNL     1       8.961   0.397   8.387  1.00  0.00     0.064 A 
ATOM     51  C   UNL     1       9.613   0.251   9.623  1.00  0.00     0.173 A 
ATOM     52  C   UNL     1       9.473   1.381   7.521  1.00  0.00     0.173 A 
ATOM     53  F   UNL     1       9.205  -0.684  10.494  1.00  0.00    -0.203 F 
ATOM     54  C   UNL     1      10.747   1.001   9.948  1.00  0.00     0.198 A 
ATOM     55  C   UNL     1      10.603   2.134   7.849  1.00  0.00     0.198 A 
ATOM     56  F   UNL     1       8.955   1.559   6.297  1.00  0.00    -0.203 F 
ATOM     57  F   UNL     1      11.392   0.772  11.101  1.00  0.00    -0.200 F 
ATOM     58  C   UNL     1      11.252   1.929   9.053  1.00  0.00     0.200 A 
ATOM     59  F   UNL     1      11.104   3.003   6.960  1.00  0.00    -0.200 F 
ATOM     60  F   UNL     1      12.385   2.589   9.329  1.00  0.00    -0.200 F 
ENDBRANCH  26  50
BRANCH  38  61
ATOM     61  C   UNL     1       4.950  -4.436   8.719  1.00  0.00     0.064 A 
ATOM     62  C   UNL     1       4.223  -3.257   8.475  1.00  0.00     0.173 A 
ATOM     63  C   UNL     1       4.374  -5.378   9.582  1.00  0.00     0.173 A 
ATOM     64  F   UNL     1       4.660  -2.343   7.601  1.00  0.00    -0.203 F 
ATOM     65  C   UNL     1       2.994  -3.023   9.093  1.00  0.00     0.198 A 
ATOM     66  C   UNL     1       3.131  -5.159  10.169  1.00  0.00     0.198 A 
ATOM     67  F   UNL     1       5.000  -6.541   9.818  1.00  0.00    -0.203 F 
ATOM     68  F   UNL     1       2.323  -1.887   8.851  1.00  0.00    -0.200 F 
ATOM     69  C   UNL     1       2.444  -3.979   9.931  1.00  0.00     0.200 A 
ATOM     70  F   UNL     1       2.584  -6.106  10.943  1.00  0.00    -0.200 F 
ATOM     71  F   UNL     1       1.243  -3.776  10.490  1.00  0.00    -0.200 F 
ENDBRANCH  38  61
ENDBRANCH  12  13
ENDBRANCH   5   7
ENDBRANCH   2   3
ENDBRANCH   1   2
BRANCH   1  72
ATOM     72  C   UNL     1       4.135   3.819  -0.952  1.00  0.00     0.117 C 
BRANCH  72  73
ATOM     73  N   UNL     1       4.817   4.207   0.280  1.00  0.00    -0.354 N 
ATOM     74  C   UNL     1       5.758   5.154   0.558  1.00  0.00     0.244 C 
ATOM     75  H   UNL     1       4.542   3.681   1.066  1.00  0.00     0.163 HD
ATOM     76  O   UNL     1       6.261   5.111   1.688  1.00  0.00    -0.273 OA
BRANCH  74  77
ATOM     77  C   UNL     1       6.319   6.139  -0.485  1.00  0.00     0.197 C 
BRANCH  77  78
ATOM     78  C   UNL     1       7.417   5.461  -1.319  1.00  0.00     0.191 C 
BRANCH  78  79
ATOM     79  O   UNL     1       6.939   4.363  -2.084  1.00  0.00    -0.394 OA
ATOM     80  H   UNL     1       6.592   3.681  -1.489  1.00  0.00     0.210 HD
ENDBRANCH  78  79
ENDBRANCH  77  78
BRANCH  77  81
ATOM     81  N   UNL     1       5.293   6.819  -1.286  1.00  0.00    -0.338 N 
ATOM     82  C   UNL     1       5.030   8.152  -1.428  1.00  0.00     0.252 C 
ATOM     83  H   UNL     1       4.703   6.222  -1.800  1.00  0.00     0.164 HD
ATOM     84  O   UNL     1       3.963   8.515  -1.914  1.00  0.00    -0.269 OA
BRANCH  82  85
ATOM     85  C   UNL     1       6.009   9.159  -0.971  1.00  0.00     0.040 A 
ATOM     86  C   UNL     1       7.380   9.049  -1.379  1.00  0.00     0.016 A 
ATOM     87  C   UNL     1       5.506  10.206  -0.173  1.00  0.00     0.028 A 
ATOM     88  C   UNL     1       8.398   9.925  -0.946  1.00  0.00     0.033 A 
ATOM     89  C   UNL     1       6.531  11.063   0.213  1.00  0.00     0.050 A 
ATOM     90  C   UNL     1       7.928  10.964  -0.127  1.00  0.00     0.114 A 
ATOM     91  C   UNL     1       6.398  12.212   0.940  1.00  0.00     0.174 A 
ATOM     92  N   UNL     1       8.589  11.989   0.435  1.00  0.00    -0.079 NA
ATOM     93  O   UNL     1       7.638  12.767   1.078  1.00  0.00    -0.355 OA
BRANCH  91  94
ATOM     94  C   UNL     1       5.299  12.947   1.530  1.00  0.00     0.021 A 
ATOM     95  C   UNL     1       5.078  14.282   1.171  1.00  0.00     0.012 A 
ATOM     96  C   UNL     1       4.418  12.324   2.423  1.00  0.00     0.012 A 
ATOM     97  C   UNL     1       3.988  14.982   1.690  1.00  0.00     0.001 A 
ATOM     98  C   UNL     1       3.332  13.027   2.947  1.00  0.00     0.001 A 
ATOM     99  C   UNL     1       3.117  14.354   2.578  1.00  0.00     0.000 A 
ENDBRANCH  91  94
ENDBRANCH  82  85
ENDBRANCH  77  81
ENDBRANCH  74  77
ENDBRANCH  72  73
ENDBRANCH   1  72
TORSDOF 15
