REMARK SMILES CCOC(=O)[C@@]1(C)C/C(=N/c2cccc(C(=O)NCCCNC(=O)c3ccc(-c4c5nc(c(-c6c(F)c(F)c(F)c(F)c6F)c6ccc([nH]6)c(-c6c(F)c(F)c(F)c(F)c6F)c6nc(c(-c7c(F)c(F)c(F)c(F)c7F)c7ccc4[nH]7)C=C6)C=C5)cc3)c2)C(=O)N1c1ccccc1
REMARK SMILES IDX 19 1 18 2 16 3 17 4 15 6 11 7 12 8 88 9 13 10 14 11 10 12
REMARK SMILES IDX 6 13 7 14 8 15 91 16 9 17 89 18 90 19 4 20 5 21 3 22 2 23
REMARK SMILES IDX 1 24 92 25 93 26 97 27 94 28 96 29 95 30 20 31 21 32 22 33
REMARK SMILES IDX 23 34 24 36 25 37 26 38 87 39 27 40 86 41 28 42 29 43 30 44
REMARK SMILES IDX 80 45 31 46 85 47 79 48 81 49 32 50 84 51 78 52 77 53 33 55
REMARK SMILES IDX 65 56 45 57 64 58 46 59 49 60 63 61 82 62 47 63 48 64 62 66
REMARK SMILES IDX 83 67 50 68 34 69 35 70 43 71 36 72 37 73 41 74 44 75 38 76
REMARK SMILES IDX 39 77 42 78 40 79 66 80 67 81 75 82 68 83 69 84 73 85 76 86
REMARK SMILES IDX 70 87 71 88 74 89 72 90 51 91 52 92 60 93 53 94 54 95 58 96
REMARK SMILES IDX 61 97 55 98 56 99 59 100 57 101
REMARK H PARENT 18 5 22 35 81 54 49 65
REMARK Flexibility Score: inf
ROOT
ATOM      1  C   UNL     1       6.531   6.360  -4.044  1.00  0.00     0.118 C 
ENDROOT
BRANCH   1   2
ATOM      2  N   UNL     1       6.589   7.669  -4.681  1.00  0.00    -0.352 N 
ATOM      3  C   UNL     1       6.258   8.914  -4.200  1.00  0.00     0.251 C 
ATOM      4  O   UNL     1       6.580   9.907  -4.850  1.00  0.00    -0.269 OA
ATOM      5  H   UNL     1       6.919   7.661  -5.608  1.00  0.00     0.163 HD
BRANCH   3   6
ATOM      6  C   UNL     1       5.549   9.091  -2.911  1.00  0.00     0.041 A 
ATOM      7  C   UNL     1       3.815   8.468  -1.333  1.00  0.00     0.064 A 
ATOM      8  C   UNL     1       4.240   9.479  -0.471  1.00  0.00     0.028 A 
ATOM      9  C   UNL     1       4.436   8.321  -2.577  1.00  0.00     0.042 A 
ATOM     10  C   UNL     1       5.311  10.302  -0.826  1.00  0.00     0.003 A 
ATOM     11  C   UNL     1       5.971  10.104  -2.042  1.00  0.00     0.014 A 
BRANCH   7  12
ATOM     12  N   UNL     1       2.762   7.614  -0.977  1.00  0.00    -0.248 NA
ATOM     13  C   UNL     1       2.743   4.102  -0.767  1.00  0.00     0.148 C 
ATOM     14  C   UNL     1       2.514   3.868  -2.276  1.00  0.00     0.048 C 
ATOM     15  C   UNL     1       1.992   5.388  -0.352  1.00  0.00     0.103 C 
ATOM     16  N   UNL     1       4.172   4.383  -0.500  1.00  0.00    -0.290 N 
ATOM     17  C   UNL     1       3.047   6.408  -0.589  1.00  0.00     0.109 C 
ATOM     18  C   UNL     1       4.399   5.755  -0.409  1.00  0.00     0.273 C 
ATOM     19  O   UNL     1       5.423   6.385  -0.250  1.00  0.00    -0.267 OA
BRANCH  13  20
ATOM     20  C   UNL     1       2.159   3.002   0.146  1.00  0.00     0.332 C 
ATOM     21  O   UNL     1       2.457   2.853   1.324  1.00  0.00    -0.249 OA
BRANCH  20  22
ATOM     22  O   UNL     1       1.197   2.290  -0.504  1.00  0.00    -0.464 OA
BRANCH  22  23
ATOM     23  C   UNL     1       0.527   1.268   0.251  1.00  0.00     0.229 C 
ATOM     24  C   UNL     1       1.168  -0.072  -0.049  1.00  0.00     0.049 C 
ENDBRANCH  22  23
ENDBRANCH  20  22
ENDBRANCH  13  20
BRANCH  16  25
ATOM     25  C   UNL     1       5.199   3.391  -0.407  1.00  0.00     0.045 A 
ATOM     26  C   UNL     1       6.473   3.714   0.089  1.00  0.00     0.026 A 
ATOM     27  C   UNL     1       4.988   2.060  -0.798  1.00  0.00     0.026 A 
ATOM     28  C   UNL     1       7.493   2.760   0.178  1.00  0.00     0.002 A 
ATOM     29  C   UNL     1       6.011   1.105  -0.722  1.00  0.00     0.002 A 
ATOM     30  C   UNL     1       7.263   1.455  -0.233  1.00  0.00     0.000 A 
ENDBRANCH  16  25
ENDBRANCH   7  12
ENDBRANCH   3   6
ENDBRANCH   1   2
BRANCH   1  31
ATOM     31  C   UNL     1       5.416   5.478  -4.611  1.00  0.00     0.042 C 
BRANCH  31  32
ATOM     32  C   UNL     1       5.634   5.037  -6.059  1.00  0.00     0.118 C 
BRANCH  32  33
ATOM     33  N   UNL     1       6.522   3.893  -6.162  1.00  0.00    -0.352 N 
ATOM     34  C   UNL     1       6.414   2.781  -6.963  1.00  0.00     0.251 C 
ATOM     35  H   UNL     1       7.313   3.916  -5.576  1.00  0.00     0.163 HD
ATOM     36  O   UNL     1       7.173   1.831  -6.790  1.00  0.00    -0.269 OA
BRANCH  34  37
ATOM     37  C   UNL     1       5.381   2.698  -8.024  1.00  0.00     0.039 A 
ATOM     38  C   UNL     1       4.685   1.493  -8.178  1.00  0.00     0.014 A 
ATOM     39  C   UNL     1       5.149   3.752  -8.913  1.00  0.00     0.014 A 
ATOM     40  C   UNL     1       3.736   1.353  -9.196  1.00  0.00     0.010 A 
ATOM     41  C   UNL     1       4.185   3.620  -9.918  1.00  0.00     0.010 A 
ATOM     42  C   UNL     1       3.477   2.417 -10.071  1.00  0.00    -0.014 A 
BRANCH  42  43
ATOM     43  C   UNL     1       2.492   2.273 -11.170  1.00  0.00     0.031 A 
ATOM     44  C   UNL     1       2.961   2.059 -12.580  1.00  0.00     0.074 A 
ATOM     45  C   UNL     1       1.175   2.363 -10.910  1.00  0.00     0.049 A 
ATOM     46  N   UNL     1       2.260   2.001 -13.685  1.00  0.00    -0.248 NA
ATOM     47  C   UNL     1       4.410   1.901 -12.776  1.00  0.00     0.031 C 
ATOM     48  C   UNL     1       0.586   2.577  -9.590  1.00  0.00     0.029 A 
ATOM     49  N   UNL     1       0.095   2.292 -11.754  1.00  0.00    -0.354 N 
ATOM     50  C   UNL     1       3.181   1.834 -14.708  1.00  0.00     0.074 A 
ATOM     51  C   UNL     1       4.492   1.786 -14.095  1.00  0.00     0.031 C 
ATOM     52  C   UNL     1      -0.753   2.616  -9.711  1.00  0.00     0.029 A 
ATOM     53  C   UNL     1      -1.110   2.446 -11.117  1.00  0.00     0.049 A 
ATOM     54  H   UNL     1       0.177   2.144 -12.724  1.00  0.00     0.167 HD
ATOM     55  C   UNL     1       2.955   1.736 -16.040  1.00  0.00     0.037 A 
ATOM     56  C   UNL     1      -2.361   2.456 -11.614  1.00  0.00     0.037 A 
ATOM     57  C   UNL     1       1.659   1.747 -16.661  1.00  0.00     0.049 A 
ATOM     58  C   UNL     1      -2.588   2.284 -13.088  1.00  0.00     0.074 A 
ATOM     59  C   UNL     1       1.341   1.645 -18.005  1.00  0.00     0.029 A 
ATOM     60  N   UNL     1       0.461   1.853 -15.974  1.00  0.00    -0.354 N 
ATOM     61  N   UNL     1      -1.707   2.143 -14.045  1.00  0.00    -0.248 NA
ATOM     62  C   UNL     1      -3.985   2.277 -13.548  1.00  0.00     0.031 C 
ATOM     63  C   UNL     1      -0.053   1.690 -18.131  1.00  0.00     0.029 A 
ATOM     64  C   UNL     1      -0.599   1.812 -16.864  1.00  0.00     0.049 A 
ATOM     65  H   UNL     1       0.376   1.944 -14.997  1.00  0.00     0.167 HD
ATOM     66  C   UNL     1      -2.437   2.031 -15.219  1.00  0.00     0.074 A 
ATOM     67  C   UNL     1      -3.837   2.110 -14.855  1.00  0.00     0.031 C 
ATOM     68  C   UNL     1      -1.984   1.884 -16.486  1.00  0.00     0.037 A 
BRANCH  55  69
ATOM     69  C   UNL     1       4.154   1.623 -16.924  1.00  0.00     0.064 A 
ATOM     70  C   UNL     1       4.747   0.382 -17.188  1.00  0.00     0.173 A 
ATOM     71  C   UNL     1       4.692   2.763 -17.537  1.00  0.00     0.173 A 
ATOM     72  F   UNL     1       4.269  -0.731 -16.611  1.00  0.00    -0.203 F 
ATOM     73  C   UNL     1       5.848   0.286 -18.034  1.00  0.00     0.198 A 
ATOM     74  C   UNL     1       5.788   2.663 -18.388  1.00  0.00     0.198 A 
ATOM     75  F   UNL     1       4.155   3.970 -17.307  1.00  0.00    -0.203 F 
ATOM     76  F   UNL     1       6.414  -0.907 -18.264  1.00  0.00    -0.200 F 
ATOM     77  C   UNL     1       6.365   1.425 -18.635  1.00  0.00     0.200 A 
ATOM     78  F   UNL     1       6.289   3.763 -18.966  1.00  0.00    -0.200 F 
ATOM     79  F   UNL     1       7.426   1.332 -19.449  1.00  0.00    -0.200 F 
ENDBRANCH  55  69
BRANCH  56  80
ATOM     80  C   UNL     1      -3.507   2.633 -10.695  1.00  0.00     0.064 A 
ATOM     81  C   UNL     1      -4.217   1.525 -10.218  1.00  0.00     0.173 A 
ATOM     82  C   UNL     1      -3.904   3.908 -10.273  1.00  0.00     0.173 A 
ATOM     83  F   UNL     1      -3.877   0.290 -10.614  1.00  0.00    -0.203 F 
ATOM     84  C   UNL     1      -5.291   1.687  -9.347  1.00  0.00     0.198 A 
ATOM     85  C   UNL     1      -4.974   4.068  -9.396  1.00  0.00     0.198 A 
ATOM     86  F   UNL     1      -3.252   4.994 -10.713  1.00  0.00    -0.203 F 
ATOM     87  F   UNL     1      -5.965   0.614  -8.911  1.00  0.00    -0.200 F 
ATOM     88  C   UNL     1      -5.667   2.957  -8.934  1.00  0.00     0.200 A 
ATOM     89  F   UNL     1      -5.335   5.295  -8.998  1.00  0.00    -0.200 F 
ATOM     90  F   UNL     1      -6.699   3.112  -8.095  1.00  0.00    -0.200 F 
ENDBRANCH  56  80
BRANCH  68  91
ATOM     91  C   UNL     1      -3.010   1.794 -17.569  1.00  0.00     0.064 A 
ATOM     92  C   UNL     1      -3.531   2.950 -18.165  1.00  0.00     0.173 A 
ATOM     93  C   UNL     1      -3.447   0.548 -18.037  1.00  0.00     0.173 A 
ATOM     94  F   UNL     1      -3.147   4.162 -17.736  1.00  0.00    -0.203 F 
ATOM     95  C   UNL     1      -4.463   2.861 -19.195  1.00  0.00     0.198 A 
ATOM     96  C   UNL     1      -4.376   0.462 -19.070  1.00  0.00     0.198 A 
ATOM     97  F   UNL     1      -2.978  -0.583 -17.488  1.00  0.00    -0.203 F 
ATOM     98  F   UNL     1      -4.962   3.977 -19.744  1.00  0.00    -0.200 F 
ATOM     99  C   UNL     1      -4.882   1.618 -19.648  1.00  0.00     0.200 A 
ATOM    100  F   UNL     1      -4.786  -0.738 -19.504  1.00  0.00    -0.200 F 
ATOM    101  F   UNL     1      -5.782   1.534 -20.637  1.00  0.00    -0.200 F 
ENDBRANCH  68  91
ENDBRANCH  42  43
ENDBRANCH  34  37
ENDBRANCH  32  33
ENDBRANCH  31  32
ENDBRANCH   1  31
TORSDOF 15
