REMARK SMILES CCC[C@]1(C(=O)NCCCNC(=O)c2ccc(-c3c4nc(c(-c5c(F)c(F)c(F)c(F)c5F)c5ccc([nH]5)c(-c5c(F)c(F)c(F)c(F)c5F)c5nc(c(-c6c(F)c(F)c(F)c(F)c6F)c6ccc3[nH]6)C=C5)C=C4)cc2)CCCN(C(=O)N[C@H]2CCOC2)C1
REMARK SMILES IDX 9 1 8 2 7 3 5 4 6 5 4 7 77 8 89 9 78 10 80 11 79 12 3 13
REMARK SMILES IDX 2 14 1 15 81 16 82 17 83 18 84 20 85 21 88 22 86 23 87 24
REMARK SMILES IDX 10 25 11 26 12 27 13 29 14 30 15 31 76 32 16 33 75 34 17 35
REMARK SMILES IDX 18 36 19 37 69 38 20 39 74 40 68 41 70 42 21 43 73 44 67 45
REMARK SMILES IDX 66 46 22 48 54 49 34 50 53 51 35 52 38 53 52 54 71 55 36 56
REMARK SMILES IDX 37 57 51 59 72 60 39 61 23 62 24 63 32 64 25 65 26 66 30 67
REMARK SMILES IDX 33 68 27 69 28 70 31 71 29 72 55 73 56 74 64 75 57 76 58 77
REMARK SMILES IDX 62 78 65 79 59 80 60 81 63 82 61 83 40 84 41 85 49 86 42 87
REMARK SMILES IDX 43 88 47 89 50 90 44 91 45 92 48 93 46 94
REMARK H PARENT 7 6 83 19 11 28 70 47 38 58
REMARK Flexibility Score: inf
ROOT
ATOM      1  C   UNL     1       1.089  -6.701  -5.794  1.00  0.00     0.042 C 
ENDROOT
BRANCH   1   2
ATOM      2  C   UNL     1       0.501  -5.313  -5.577  1.00  0.00     0.117 C 
BRANCH   2   3
ATOM      3  N   UNL     1      -0.948  -5.290  -5.559  1.00  0.00    -0.355 N 
ATOM      4  C   UNL     1      -1.848  -5.019  -4.569  1.00  0.00     0.228 C 
ATOM      5  O   UNL     1      -3.025  -4.970  -4.941  1.00  0.00    -0.274 OA
ATOM      6  H   UNL     1      -1.362  -5.511  -6.425  1.00  0.00     0.163 HD
BRANCH   4   7
ATOM      7  C   UNL     1      -1.438  -4.784  -3.077  1.00  0.00     0.067 C 
ATOM      8  C   UNL     1      -0.620  -6.012  -2.594  1.00  0.00     0.020 C 
ATOM      9  C   UNL     1      -0.683  -3.428  -3.028  1.00  0.00     0.138 C 
ATOM     10  C   UNL     1       0.582  -5.731  -1.691  1.00  0.00     0.023 C 
ATOM     11  N   UNL     1       0.326  -3.337  -1.967  1.00  0.00    -0.324 N 
ATOM     12  C   UNL     1       1.285  -4.413  -1.976  1.00  0.00     0.121 C 
BRANCH   7  13
ATOM     13  C   UNL     1      -2.790  -4.668  -2.270  1.00  0.00     0.018 C 
BRANCH  13  14
ATOM     14  C   UNL     1      -2.839  -4.873  -0.750  1.00  0.00    -0.002 C 
ATOM     15  C   UNL     1      -2.220  -3.781   0.093  1.00  0.00     0.004 C 
ENDBRANCH  13  14
ENDBRANCH   7  13
BRANCH  11  16
ATOM     16  C   UNL     1       0.415  -2.175  -1.267  1.00  0.00     0.317 C 
ATOM     17  O   UNL     1      -0.164  -1.151  -1.646  1.00  0.00    -0.249 OA
ATOM     18  N   UNL     1       1.065  -2.043  -0.103  1.00  0.00    -0.333 N 
ATOM     19  H   UNL     1       1.043  -1.093   0.155  1.00  0.00     0.165 HD
BRANCH  18  20
ATOM     20  C   UNL     1       1.797  -2.785   0.930  1.00  0.00     0.112 C 
ATOM     21  C   UNL     1       1.319  -2.317   2.300  1.00  0.00     0.056 C 
ATOM     22  C   UNL     1       1.668  -4.288   1.133  1.00  0.00     0.185 C 
ATOM     23  C   UNL     1       1.870  -3.359   3.247  1.00  0.00     0.162 C 
ATOM     24  O   UNL     1       2.003  -4.570   2.502  1.00  0.00    -0.379 OA
ENDBRANCH  18  20
ENDBRANCH  11  16
ENDBRANCH   4   7
ENDBRANCH   2   3
ENDBRANCH   1   2
BRANCH   1  25
ATOM     25  C   UNL     1       0.857  -7.250  -7.190  1.00  0.00     0.118 C 
BRANCH  25  26
ATOM     26  N   UNL     1       1.547  -6.471  -8.208  1.00  0.00    -0.352 N 
ATOM     27  C   UNL     1       2.575  -6.824  -9.043  1.00  0.00     0.251 C 
ATOM     28  H   UNL     1       1.225  -5.547  -8.314  1.00  0.00     0.163 HD
ATOM     29  O   UNL     1       3.174  -5.950  -9.672  1.00  0.00    -0.269 OA
BRANCH  27  30
ATOM     30  C   UNL     1       2.983  -8.237  -9.181  1.00  0.00     0.039 A 
ATOM     31  C   UNL     1       4.341  -8.542  -9.299  1.00  0.00     0.014 A 
ATOM     32  C   UNL     1       2.033  -9.261  -9.218  1.00  0.00     0.014 A 
ATOM     33  C   UNL     1       4.747  -9.875  -9.389  1.00  0.00     0.010 A 
ATOM     34  C   UNL     1       2.443 -10.589  -9.206  1.00  0.00     0.010 A 
ATOM     35  C   UNL     1       3.804 -10.911  -9.304  1.00  0.00    -0.014 A 
BRANCH  35  36
ATOM     36  C   UNL     1       4.214 -12.338  -9.333  1.00  0.00     0.031 A 
ATOM     37  C   UNL     1       3.734 -13.237 -10.440  1.00  0.00     0.074 A 
ATOM     38  C   UNL     1       4.960 -12.837  -8.327  1.00  0.00     0.049 A 
ATOM     39  N   UNL     1       3.916 -14.524 -10.599  1.00  0.00    -0.248 NA
ATOM     40  C   UNL     1       2.914 -12.616 -11.493  1.00  0.00     0.031 C 
ATOM     41  C   UNL     1       5.447 -12.076  -7.175  1.00  0.00     0.029 A 
ATOM     42  N   UNL     1       5.433 -14.107  -8.107  1.00  0.00    -0.354 N 
ATOM     43  C   UNL     1       3.216 -14.866 -11.749  1.00  0.00     0.074 A 
ATOM     44  C   UNL     1       2.565 -13.665 -12.223  1.00  0.00     0.031 C 
ATOM     45  C   UNL     1       6.172 -12.885  -6.386  1.00  0.00     0.029 A 
ATOM     46  C   UNL     1       6.164 -14.231  -6.950  1.00  0.00     0.049 A 
ATOM     47  H   UNL     1       5.264 -14.858  -8.720  1.00  0.00     0.167 HD
ATOM     48  C   UNL     1       3.142 -16.069 -12.365  1.00  0.00     0.037 A 
ATOM     49  C   UNL     1       6.752 -15.312  -6.404  1.00  0.00     0.037 A 
ATOM     50  C   UNL     1       3.829 -17.250 -11.913  1.00  0.00     0.049 A 
ATOM     51  C   UNL     1       6.648 -16.637  -7.113  1.00  0.00     0.074 A 
ATOM     52  C   UNL     1       3.888 -18.494 -12.515  1.00  0.00     0.029 A 
ATOM     53  N   UNL     1       4.574 -17.332 -10.747  1.00  0.00    -0.354 N 
ATOM     54  N   UNL     1       6.056 -16.927  -8.246  1.00  0.00    -0.248 NA
ATOM     55  C   UNL     1       7.300 -17.785  -6.467  1.00  0.00     0.031 C 
ATOM     56  C   UNL     1       4.621 -19.346 -11.684  1.00  0.00     0.029 A 
ATOM     57  C   UNL     1       5.071 -18.616 -10.595  1.00  0.00     0.049 A 
ATOM     58  H   UNL     1       4.727 -16.588 -10.120  1.00  0.00     0.167 HD
ATOM     59  C   UNL     1       6.297 -18.276  -8.468  1.00  0.00     0.074 A 
ATOM     60  C   UNL     1       7.101 -18.744  -7.359  1.00  0.00     0.031 C 
ATOM     61  C   UNL     1       5.888 -19.059  -9.496  1.00  0.00     0.037 A 
BRANCH  48  62
ATOM     62  C   UNL     1       2.294 -16.179 -13.599  1.00  0.00     0.064 A 
ATOM     63  C   UNL     1       2.669 -15.578 -14.810  1.00  0.00     0.173 A 
ATOM     64  C   UNL     1       1.125 -16.956 -13.587  1.00  0.00     0.173 A 
ATOM     65  F   UNL     1       3.771 -14.816 -14.873  1.00  0.00    -0.203 F 
ATOM     66  C   UNL     1       1.896 -15.736 -15.958  1.00  0.00     0.198 A 
ATOM     67  C   UNL     1       0.372 -17.137 -14.744  1.00  0.00     0.198 A 
ATOM     68  F   UNL     1       0.723 -17.556 -12.456  1.00  0.00    -0.203 F 
ATOM     69  F   UNL     1       2.254 -15.122 -17.094  1.00  0.00    -0.200 F 
ATOM     70  C   UNL     1       0.755 -16.524 -15.927  1.00  0.00     0.200 A 
ATOM     71  F   UNL     1      -0.722 -17.911 -14.715  1.00  0.00    -0.200 F 
ATOM     72  F   UNL     1       0.024 -16.690 -17.037  1.00  0.00    -0.200 F 
ENDBRANCH  48  62
BRANCH  49  73
ATOM     73  C   UNL     1       7.508 -15.197  -5.127  1.00  0.00     0.064 A 
ATOM     74  C   UNL     1       8.896 -15.398  -5.093  1.00  0.00     0.173 A 
ATOM     75  C   UNL     1       6.861 -14.926  -3.913  1.00  0.00     0.173 A 
ATOM     76  F   UNL     1       9.559 -15.679  -6.225  1.00  0.00    -0.203 F 
ATOM     77  C   UNL     1       9.600 -15.372  -3.891  1.00  0.00     0.198 A 
ATOM     78  C   UNL     1       7.571 -14.866  -2.716  1.00  0.00     0.198 A 
ATOM     79  F   UNL     1       5.536 -14.718  -3.889  1.00  0.00    -0.203 F 
ATOM     80  F   UNL     1      10.914 -15.634  -3.882  1.00  0.00    -0.200 F 
ATOM     81  C   UNL     1       8.938 -15.103  -2.704  1.00  0.00     0.200 A 
ATOM     82  F   UNL     1       6.930 -14.590  -1.572  1.00  0.00    -0.200 F 
ATOM     83  F   UNL     1       9.613 -15.084  -1.547  1.00  0.00    -0.200 F 
ENDBRANCH  49  73
BRANCH  61  84
ATOM     84  C   UNL     1       6.348 -20.488  -9.500  1.00  0.00     0.064 A 
ATOM     85  C   UNL     1       5.854 -21.427  -8.582  1.00  0.00     0.173 A 
ATOM     86  C   UNL     1       7.267 -20.932 -10.464  1.00  0.00     0.173 A 
ATOM     87  F   UNL     1       4.985 -21.049  -7.632  1.00  0.00    -0.203 F 
ATOM     88  C   UNL     1       6.286 -22.750  -8.611  1.00  0.00     0.198 A 
ATOM     89  C   UNL     1       7.669 -22.263 -10.512  1.00  0.00     0.198 A 
ATOM     90  F   UNL     1       7.763 -20.076 -11.370  1.00  0.00    -0.203 F 
ATOM     91  F   UNL     1       5.842 -23.617  -7.691  1.00  0.00    -0.200 F 
ATOM     92  C   UNL     1       7.185 -23.169  -9.580  1.00  0.00     0.200 A 
ATOM     93  F   UNL     1       8.524 -22.669 -11.460  1.00  0.00    -0.200 F 
ATOM     94  F   UNL     1       7.592 -24.445  -9.611  1.00  0.00    -0.200 F 
ENDBRANCH  61  84
ENDBRANCH  35  36
ENDBRANCH  27  30
ENDBRANCH  25  26
ENDBRANCH   1  25
TORSDOF 14
