REMARK SMILES NC(=O)[C@@H]1CCC[N@H+]1[C@H](C(=O)NCCCNC(=O)c1ccc(-c2c3nc(c(-c4c(F)c(F)c(F)c(F)c4F)c4ccc([nH]4)c(-c4c(F)c(F)c(F)c(F)c4F)c4nc(c(-c5c(F)c(F)c(F)c(F)c5F)c5ccc2[nH]5)C=C4)C=C3)cc1)c1c[nH]c2cc(NC(=O)c3ccccc3)ccc12
REMARK SMILES IDX 13 1 12 2 10 3 11 4 9 6 8 7 4 8 5 9 6 10 7 11 2 13 1 14 3 17
REMARK SMILES IDX 82 18 83 19 99 20 84 21 85 22 98 23 86 25 97 26 87 27 88 28
REMARK SMILES IDX 89 29 90 31 91 32 92 33 96 34 93 35 95 36 94 37 14 38 15 39
REMARK SMILES IDX 16 40 17 41 18 43 19 44 20 45 81 46 21 47 80 48 22 49 23 50
REMARK SMILES IDX 24 51 74 52 25 53 79 54 73 55 75 56 26 57 78 58 72 59 71 60
REMARK SMILES IDX 27 62 59 63 39 64 58 65 40 66 43 67 57 68 76 69 41 70 42 71
REMARK SMILES IDX 56 73 77 74 44 75 28 76 29 77 37 78 30 79 31 80 35 81 38 82
REMARK SMILES IDX 32 83 33 84 36 85 34 86 60 87 61 88 69 89 62 90 63 91 67 92
REMARK SMILES IDX 70 93 64 94 65 95 68 96 66 97 45 98 46 99 54 100 47 101
REMARK SMILES IDX 48 102 52 103 55 104 49 105 50 106 53 107 51 108
REMARK H PARENT 12 5 8 12 1 15 1 16 84 24 88 30 16 42 75 61 43 72
REMARK Flexibility Score: inf
ROOT
ATOM      1  C   UNL     1       2.446   2.921  -2.535  1.00  0.00     0.118 C 
ENDROOT
BRANCH   1   2
ATOM      2  N   UNL     1       2.240   1.523  -2.878  1.00  0.00    -0.351 N 
ATOM      3  C   UNL     1       2.814   0.346  -2.470  1.00  0.00     0.283 C 
ATOM      4  O   UNL     1       2.273  -0.649  -2.967  1.00  0.00    -0.268 OA
ATOM      5  H   UNL     1       1.532   1.392  -3.550  1.00  0.00     0.163 HD
BRANCH   3   6
ATOM      6  C   UNL     1       4.037   0.260  -1.455  1.00  0.00     0.308 C 
BRANCH   6   7
ATOM      7  N   UNL     1       3.918  -0.995  -0.663  1.00  0.00    -0.311 N 
ATOM      8  C   UNL     1       4.445  -2.282  -1.188  1.00  0.00     0.275 C 
ATOM      9  C   UNL     1       4.839  -3.065   0.064  1.00  0.00     0.081 C 
ATOM     10  C   UNL     1       5.272  -1.978   1.021  1.00  0.00     0.068 C 
ATOM     11  C   UNL     1       4.293  -0.858   0.741  1.00  0.00     0.264 C 
ATOM     12  H   UNL     1       2.910  -1.097  -0.776  1.00  0.00     0.349 HD
BRANCH   8  13
ATOM     13  C   UNL     1       3.455  -3.120  -2.005  1.00  0.00     0.275 C 
ATOM     14  N   UNL     1       2.156  -3.096  -1.594  1.00  0.00    -0.365 N 
ATOM     15  H   UNL     1       1.476  -3.615  -2.080  1.00  0.00     0.159 HD
ATOM     16  H   UNL     1       1.897  -2.559  -0.810  1.00  0.00     0.159 HD
ATOM     17  O   UNL     1       3.805  -3.889  -2.898  1.00  0.00    -0.268 OA
ENDBRANCH   8  13
ENDBRANCH   6   7
BRANCH   6  18
ATOM     18  C   UNL     1       5.486   0.573  -2.097  1.00  0.00     0.044 A 
ATOM     19  C   UNL     1       5.542   1.663  -2.982  1.00  0.00     0.094 A 
ATOM     20  C   UNL     1       6.215  -0.311  -2.961  1.00  0.00     0.009 A 
ATOM     21  N   UNL     1       4.986   1.058  -4.118  1.00  0.00    -0.361 N 
ATOM     22  C   UNL     1       5.381  -0.260  -4.049  1.00  0.00     0.048 A 
ATOM     23  C   UNL     1       7.344  -1.140  -3.082  1.00  0.00     0.013 A 
ATOM     24  H   UNL     1       4.433   1.482  -4.813  1.00  0.00     0.166 HD
ATOM     25  C   UNL     1       5.221  -1.314  -4.899  1.00  0.00     0.052 A 
ATOM     26  C   UNL     1       7.421  -1.966  -4.246  1.00  0.00     0.027 A 
ATOM     27  C   UNL     1       6.333  -2.091  -5.135  1.00  0.00     0.043 A 
BRANCH  27  28
ATOM     28  N   UNL     1       6.411  -2.924  -6.278  1.00  0.00    -0.322 N 
ATOM     29  C   UNL     1       5.515  -3.143  -7.325  1.00  0.00     0.255 C 
ATOM     30  H   UNL     1       7.247  -3.441  -6.345  1.00  0.00     0.170 HD
ATOM     31  O   UNL     1       5.818  -3.890  -8.255  1.00  0.00    -0.269 OA
BRANCH  29  32
ATOM     32  C   UNL     1       4.169  -2.518  -7.354  1.00  0.00     0.040 A 
ATOM     33  C   UNL     1       3.095  -3.246  -6.824  1.00  0.00     0.014 A 
ATOM     34  C   UNL     1       4.017  -1.154  -7.666  1.00  0.00     0.014 A 
ATOM     35  C   UNL     1       1.908  -2.584  -6.494  1.00  0.00     0.001 A 
ATOM     36  C   UNL     1       2.830  -0.495  -7.311  1.00  0.00     0.001 A 
ATOM     37  C   UNL     1       1.790  -1.207  -6.704  1.00  0.00     0.000 A 
ENDBRANCH  29  32
ENDBRANCH  27  28
ENDBRANCH   6  18
ENDBRANCH   3   6
ENDBRANCH   1   2
BRANCH   1  38
ATOM     38  C   UNL     1       3.054   3.783  -3.654  1.00  0.00     0.042 C 
BRANCH  38  39
ATOM     39  C   UNL     1       2.499   3.577  -5.064  1.00  0.00     0.118 C 
BRANCH  39  40
ATOM     40  N   UNL     1       1.371   4.441  -5.367  1.00  0.00    -0.352 N 
ATOM     41  C   UNL     1       1.282   5.510  -6.235  1.00  0.00     0.251 C 
ATOM     42  H   UNL     1       0.543   4.231  -4.878  1.00  0.00     0.163 HD
ATOM     43  O   UNL     1       0.292   6.224  -6.223  1.00  0.00    -0.269 OA
BRANCH  41  44
ATOM     44  C   UNL     1       2.398   5.822  -7.162  1.00  0.00     0.039 A 
ATOM     45  C   UNL     1       2.843   7.144  -7.264  1.00  0.00     0.014 A 
ATOM     46  C   UNL     1       2.995   4.828  -7.941  1.00  0.00     0.014 A 
ATOM     47  C   UNL     1       3.942   7.452  -8.073  1.00  0.00     0.010 A 
ATOM     48  C   UNL     1       4.133   5.123  -8.691  1.00  0.00     0.010 A 
ATOM     49  C   UNL     1       4.629   6.436  -8.756  1.00  0.00    -0.014 A 
BRANCH  49  50
ATOM     50  C   UNL     1       5.875   6.709  -9.524  1.00  0.00     0.031 A 
ATOM     51  C   UNL     1       5.923   6.462 -11.007  1.00  0.00     0.074 A 
ATOM     52  C   UNL     1       6.992   7.092  -8.876  1.00  0.00     0.049 A 
ATOM     53  N   UNL     1       6.944   6.511 -11.826  1.00  0.00    -0.248 NA
ATOM     54  C   UNL     1       4.656   6.082 -11.648  1.00  0.00     0.031 C 
ATOM     55  C   UNL     1       7.091   7.352  -7.440  1.00  0.00     0.029 A 
ATOM     56  N   UNL     1       8.267   7.313  -9.341  1.00  0.00    -0.354 N 
ATOM     57  C   UNL     1       6.448   6.151 -13.072  1.00  0.00     0.074 A 
ATOM     58  C   UNL     1       5.047   5.834 -12.889  1.00  0.00     0.031 C 
ATOM     59  C   UNL     1       8.348   7.720  -7.145  1.00  0.00     0.029 A 
ATOM     60  C   UNL     1       9.158   7.670  -8.358  1.00  0.00     0.049 A 
ATOM     61  H   UNL     1       8.517   7.224 -10.289  1.00  0.00     0.167 HD
ATOM     62  C   UNL     1       7.094   6.105 -14.263  1.00  0.00     0.037 A 
ATOM     63  C   UNL     1      10.481   7.916  -8.424  1.00  0.00     0.037 A 
ATOM     64  C   UNL     1       8.486   6.429 -14.445  1.00  0.00     0.049 A 
ATOM     65  C   UNL     1      11.190   7.801  -9.746  1.00  0.00     0.074 A 
ATOM     66  C   UNL     1       9.222   6.455 -15.617  1.00  0.00     0.029 A 
ATOM     67  N   UNL     1       9.358   6.774 -13.421  1.00  0.00    -0.354 N 
ATOM     68  N   UNL     1      10.701   7.508 -10.926  1.00  0.00    -0.248 NA
ATOM     69  C   UNL     1      12.639   8.048  -9.742  1.00  0.00     0.031 C 
ATOM     70  C   UNL     1      10.549   6.760 -15.296  1.00  0.00     0.029 A 
ATOM     71  C   UNL     1      10.629   6.987 -13.932  1.00  0.00     0.049 A 
ATOM     72  H   UNL     1       9.110   6.855 -12.472  1.00  0.00     0.167 HD
ATOM     73  C   UNL     1      11.770   7.577 -11.811  1.00  0.00     0.074 A 
ATOM     74  C   UNL     1      12.934   7.941 -11.030  1.00  0.00     0.031 C 
ATOM     75  C   UNL     1      11.780   7.365 -13.150  1.00  0.00     0.037 A 
BRANCH  62  76
ATOM     76  C   UNL     1       6.296   5.671 -15.462  1.00  0.00     0.064 A 
ATOM     77  C   UNL     1       5.252   6.455 -15.979  1.00  0.00     0.173 A 
ATOM     78  C   UNL     1       6.579   4.455 -16.104  1.00  0.00     0.173 A 
ATOM     79  F   UNL     1       4.934   7.623 -15.399  1.00  0.00    -0.203 F 
ATOM     80  C   UNL     1       4.489   6.014 -17.057  1.00  0.00     0.198 A 
ATOM     81  C   UNL     1       5.838   4.036 -17.206  1.00  0.00     0.198 A 
ATOM     82  F   UNL     1       7.573   3.671 -15.662  1.00  0.00    -0.203 F 
ATOM     83  F   UNL     1       3.451   6.747 -17.484  1.00  0.00    -0.200 F 
ATOM     84  C   UNL     1       4.785   4.808 -17.673  1.00  0.00     0.200 A 
ATOM     85  F   UNL     1       6.137   2.878 -17.811  1.00  0.00    -0.200 F 
ATOM     86  F   UNL     1       4.048   4.384 -18.708  1.00  0.00    -0.200 F 
ENDBRANCH  62  76
BRANCH  63  87
ATOM     87  C   UNL     1      11.220   8.330  -7.202  1.00  0.00     0.064 A 
ATOM     88  C   UNL     1      11.714   9.636  -7.077  1.00  0.00     0.173 A 
ATOM     89  C   UNL     1      11.446   7.443  -6.139  1.00  0.00     0.173 A 
ATOM     90  F   UNL     1      11.542  10.514  -8.076  1.00  0.00    -0.203 F 
ATOM     91  C   UNL     1      12.418  10.036  -5.943  1.00  0.00     0.198 A 
ATOM     92  C   UNL     1      12.125   7.852  -4.993  1.00  0.00     0.198 A 
ATOM     93  F   UNL     1      10.991   6.184  -6.206  1.00  0.00    -0.203 F 
ATOM     94  F   UNL     1      12.912  11.279  -5.868  1.00  0.00    -0.200 F 
ATOM     95  C   UNL     1      12.617   9.146  -4.899  1.00  0.00     0.200 A 
ATOM     96  F   UNL     1      12.302   6.994  -3.980  1.00  0.00    -0.200 F 
ATOM     97  F   UNL     1      13.286   9.533  -3.805  1.00  0.00    -0.200 F 
ENDBRANCH  63  87
BRANCH  75  98
ATOM     98  C   UNL     1      13.079   7.577 -13.875  1.00  0.00     0.064 A 
ATOM     99  C   UNL     1      14.160   6.694 -13.738  1.00  0.00     0.173 A 
ATOM    100  C   UNL     1      13.225   8.659 -14.758  1.00  0.00     0.173 A 
ATOM    101  F   UNL     1      14.080   5.654 -12.895  1.00  0.00    -0.203 F 
ATOM    102  C   UNL     1      15.346   6.899 -14.441  1.00  0.00     0.198 A 
ATOM    103  C   UNL     1      14.399   8.842 -15.483  1.00  0.00     0.198 A 
ATOM    104  F   UNL     1      12.220   9.532 -14.929  1.00  0.00    -0.203 F 
ATOM    105  F   UNL     1      16.383   6.069 -14.259  1.00  0.00    -0.200 F 
ATOM    106  C   UNL     1      15.461   7.967 -15.319  1.00  0.00     0.200 A 
ATOM    107  F   UNL     1      14.502   9.867 -16.341  1.00  0.00    -0.200 F 
ATOM    108  F   UNL     1      16.598   8.155 -16.003  1.00  0.00    -0.200 F 
ENDBRANCH  75  98
ENDBRANCH  49  50
ENDBRANCH  41  44
ENDBRANCH  39  40
ENDBRANCH  38  39
ENDBRANCH   1  38
TORSDOF 15
