REMARK SMILES C=CCC(=O)N[C@@](C)(CC)C(=O)NCCCNC(=O)c1ccc(-c2c3nc(c(-c4c(F)c(F)c(F)c(F)c4F)c4ccc([nH]4)c(-c4c(F)c(F)c(F)c(F)c4F)c4nc(c(-c5c(F)c(F)c(F)c(F)c5F)c5ccc2[nH]5)C=C4)C=C3)cc1
REMARK SMILES IDX 14 1 13 2 11 3 12 4 7 6 8 7 6 8 4 9 5 10 3 12 2 13 1 14 9 15
REMARK SMILES IDX 10 16 15 17 16 18 17 19 18 20 19 22 20 23 21 24 82 25 22 26
REMARK SMILES IDX 81 27 23 28 24 29 25 30 75 31 26 32 80 33 74 34 76 35 27 36
REMARK SMILES IDX 79 37 73 38 72 39 28 41 60 42 40 43 59 44 41 45 44 46 58 47
REMARK SMILES IDX 77 48 42 49 43 50 57 52 78 53 45 54 29 55 30 56 38 57 31 58
REMARK SMILES IDX 32 59 36 60 39 61 33 62 34 63 37 64 35 65 61 66 62 67 70 68
REMARK SMILES IDX 63 69 64 70 68 71 71 72 65 73 66 74 69 75 67 76 46 77 47 78
REMARK SMILES IDX 55 79 48 80 49 81 53 82 56 83 50 84 51 85 54 86 52 87
REMARK H PARENT 13 5 6 11 17 21 76 40 44 51
REMARK Flexibility Score: inf
ROOT
ATOM      1  C   UNL     1       1.500   3.577   0.311  1.00  0.00     0.117 C 
ENDROOT
BRANCH   1   2
ATOM      2  N   UNL     1       0.923   2.246   0.341  1.00  0.00    -0.354 N 
ATOM      3  C   UNL     1      -0.260   1.814  -0.184  1.00  0.00     0.245 C 
ATOM      4  O   UNL     1      -0.963   1.140   0.574  1.00  0.00    -0.272 OA
ATOM      5  H   UNL     1       1.458   1.561   0.802  1.00  0.00     0.163 HD
BRANCH   3   6
ATOM      6  C   UNL     1      -0.712   2.202  -1.624  1.00  0.00     0.116 C 
ATOM      7  C   UNL     1       0.472   2.326  -2.605  1.00  0.00     0.045 C 
BRANCH   6   8
ATOM      8  N   UNL     1      -1.649   1.211  -2.227  1.00  0.00    -0.342 N 
ATOM      9  C   UNL     1      -1.513  -0.125  -2.459  1.00  0.00     0.224 C 
ATOM     10  O   UNL     1      -2.015  -0.563  -3.499  1.00  0.00    -0.275 OA
ATOM     11  H   UNL     1      -2.515   1.586  -2.505  1.00  0.00     0.164 HD
BRANCH   9  12
ATOM     12  C   UNL     1      -0.875  -1.075  -1.451  1.00  0.00     0.126 C 
BRANCH  12  13
ATOM     13  C   UNL     1       0.624  -1.114  -1.475  1.00  0.00    -0.025 C 
ATOM     14  C   UNL     1       1.381  -1.111  -0.368  1.00  0.00     0.004 C 
ENDBRANCH  12  13
ENDBRANCH   9  12
ENDBRANCH   6   8
BRANCH   6  15
ATOM     15  C   UNL     1      -1.461   3.564  -1.551  1.00  0.00     0.035 C 
ATOM     16  C   UNL     1      -2.760   3.528  -0.745  1.00  0.00     0.007 C 
ENDBRANCH   6  15
ENDBRANCH   3   6
ENDBRANCH   1   2
BRANCH   1  17
ATOM     17  C   UNL     1       0.997   4.413   1.487  1.00  0.00     0.042 C 
BRANCH  17  18
ATOM     18  C   UNL     1       1.250   3.788   2.856  1.00  0.00     0.118 C 
BRANCH  18  19
ATOM     19  N   UNL     1       2.663   3.554   3.116  1.00  0.00    -0.352 N 
ATOM     20  C   UNL     1       3.456   3.998   4.140  1.00  0.00     0.251 C 
ATOM     21  H   UNL     1       3.120   2.989   2.452  1.00  0.00     0.163 HD
ATOM     22  O   UNL     1       4.675   3.832   4.080  1.00  0.00    -0.269 OA
BRANCH  20  23
ATOM     23  C   UNL     1       2.869   4.694   5.303  1.00  0.00     0.039 A 
ATOM     24  C   UNL     1       3.534   5.810   5.819  1.00  0.00     0.014 A 
ATOM     25  C   UNL     1       1.691   4.243   5.905  1.00  0.00     0.014 A 
ATOM     26  C   UNL     1       2.989   6.504   6.899  1.00  0.00     0.010 A 
ATOM     27  C   UNL     1       1.107   4.982   6.932  1.00  0.00     0.010 A 
ATOM     28  C   UNL     1       1.755   6.115   7.445  1.00  0.00    -0.014 A 
BRANCH  28  29
ATOM     29  C   UNL     1       1.139   6.894   8.548  1.00  0.00     0.031 A 
ATOM     30  C   UNL     1       0.956   6.284   9.909  1.00  0.00     0.074 A 
ATOM     31  C   UNL     1       0.711   8.149   8.308  1.00  0.00     0.049 A 
ATOM     32  N   UNL     1       0.468   6.824  10.999  1.00  0.00    -0.248 NA
ATOM     33  C   UNL     1       1.345   4.875  10.062  1.00  0.00     0.031 C 
ATOM     34  C   UNL     1       0.772   8.829   7.014  1.00  0.00     0.029 A 
ATOM     35  N   UNL     1       0.145   9.077   9.145  1.00  0.00    -0.354 N 
ATOM     36  C   UNL     1       0.478   5.818  11.956  1.00  0.00     0.074 A 
ATOM     37  C   UNL     1       0.970   4.622  11.307  1.00  0.00     0.031 C 
ATOM     38  C   UNL     1       0.308  10.081   7.153  1.00  0.00     0.029 A 
ATOM     39  C   UNL     1      -0.107  10.282   8.537  1.00  0.00     0.049 A 
ATOM     40  H   UNL     1      -0.059   8.897  10.091  1.00  0.00     0.167 HD
ATOM     41  C   UNL     1       0.130   5.891  13.264  1.00  0.00     0.037 A 
ATOM     42  C   UNL     1      -0.603  11.426   9.045  1.00  0.00     0.037 A 
ATOM     43  C   UNL     1      -0.330   7.091  13.914  1.00  0.00     0.049 A 
ATOM     44  C   UNL     1      -0.952  11.489  10.506  1.00  0.00     0.074 A 
ATOM     45  C   UNL     1      -0.628   7.291  15.250  1.00  0.00     0.029 A 
ATOM     46  N   UNL     1      -0.564   8.297  13.268  1.00  0.00    -0.354 N 
ATOM     47  N   UNL     1      -0.849  10.560  11.424  1.00  0.00    -0.248 NA
ATOM     48  C   UNL     1      -1.476  12.769  11.001  1.00  0.00     0.031 C 
ATOM     49  C   UNL     1      -1.085   8.605  15.406  1.00  0.00     0.029 A 
ATOM     50  C   UNL     1      -1.026   9.239  14.175  1.00  0.00     0.049 A 
ATOM     51  H   UNL     1      -0.423   8.460  12.308  1.00  0.00     0.167 HD
ATOM     52  C   UNL     1      -1.267  11.148  12.610  1.00  0.00     0.074 A 
ATOM     53  C   UNL     1      -1.607  12.521  12.296  1.00  0.00     0.031 C 
ATOM     54  C   UNL     1      -1.361  10.601  13.847  1.00  0.00     0.037 A 
BRANCH  41  55
ATOM     55  C   UNL     1       0.235   4.634  14.079  1.00  0.00     0.064 A 
ATOM     56  C   UNL     1       1.477   4.071  14.411  1.00  0.00     0.173 A 
ATOM     57  C   UNL     1      -0.921   3.995  14.551  1.00  0.00     0.173 A 
ATOM     58  F   UNL     1       2.613   4.636  13.975  1.00  0.00    -0.203 F 
ATOM     59  C   UNL     1       1.556   2.897  15.156  1.00  0.00     0.198 A 
ATOM     60  C   UNL     1      -0.837   2.838  15.322  1.00  0.00     0.198 A 
ATOM     61  F   UNL     1      -2.134   4.493  14.268  1.00  0.00    -0.203 F 
ATOM     62  F   UNL     1       2.752   2.349  15.414  1.00  0.00    -0.200 F 
ATOM     63  C   UNL     1       0.400   2.285  15.615  1.00  0.00     0.200 A 
ATOM     64  F   UNL     1      -1.955   2.253  15.775  1.00  0.00    -0.200 F 
ATOM     65  F   UNL     1       0.479   1.156  16.334  1.00  0.00    -0.200 F 
ENDBRANCH  41  55
BRANCH  42  66
ATOM     66  C   UNL     1      -0.735  12.624   8.178  1.00  0.00     0.064 A 
ATOM     67  C   UNL     1       0.117  13.725   8.347  1.00  0.00     0.173 A 
ATOM     68  C   UNL     1      -1.704  12.696   7.168  1.00  0.00     0.173 A 
ATOM     69  F   UNL     1       1.046  13.709   9.313  1.00  0.00    -0.203 F 
ATOM     70  C   UNL     1      -0.007  14.860   7.549  1.00  0.00     0.198 A 
ATOM     71  C   UNL     1      -1.810  13.821   6.353  1.00  0.00     0.198 A 
ATOM     72  F   UNL     1      -2.538  11.666   6.962  1.00  0.00    -0.203 F 
ATOM     73  F   UNL     1       0.794  15.914   7.759  1.00  0.00    -0.200 F 
ATOM     74  C   UNL     1      -0.966  14.905   6.549  1.00  0.00     0.200 A 
ATOM     75  F   UNL     1      -2.728  13.856   5.378  1.00  0.00    -0.200 F 
ATOM     76  F   UNL     1      -1.082  15.995   5.778  1.00  0.00    -0.200 F 
ENDBRANCH  42  66
BRANCH  54  77
ATOM     77  C   UNL     1      -1.824  11.502  14.955  1.00  0.00     0.064 A 
ATOM     78  C   UNL     1      -3.152  11.947  15.036  1.00  0.00     0.173 A 
ATOM     79  C   UNL     1      -0.928  11.923  15.949  1.00  0.00     0.173 A 
ATOM     80  F   UNL     1      -4.043  11.586  14.100  1.00  0.00    -0.203 F 
ATOM     81  C   UNL     1      -3.556  12.812  16.049  1.00  0.00     0.198 A 
ATOM     82  C   UNL     1      -1.343  12.763  16.979  1.00  0.00     0.198 A 
ATOM     83  F   UNL     1       0.351  11.521  15.921  1.00  0.00    -0.203 F 
ATOM     84  F   UNL     1      -4.814  13.274  16.071  1.00  0.00    -0.200 F 
ATOM     85  C   UNL     1      -2.653  13.215  17.022  1.00  0.00     0.200 A 
ATOM     86  F   UNL     1      -0.473  13.143  17.924  1.00  0.00    -0.200 F 
ATOM     87  F   UNL     1      -3.043  14.051  17.994  1.00  0.00    -0.200 F 
ENDBRANCH  54  77
ENDBRANCH  28  29
ENDBRANCH  20  23
ENDBRANCH  18  19
ENDBRANCH  17  18
ENDBRANCH   1  17
TORSDOF 14
