REMARK SMILES O=C(NCCCNC(=O)[C@H](CCC(F)(F)F)Cc1ccccc1)c1ccc(-c2c3nc(c(-c4c(F)c(F)c(F)c(F)c4F)c4ccc([nH]4)c(-c4c(F)c(F)c(F)c(F)c4F)c4nc(c(-c5c(F)c(F)c(F)c(F)c5F)c5ccc2[nH]5)C=C4)C=C3)cc1
REMARK SMILES IDX 5 1 4 2 3 3 1 4 2 5 24 7 25 8 86 9 26 10 85 11 27 12 28 13
REMARK SMILES IDX 29 14 79 15 30 16 84 17 78 18 80 19 31 20 83 21 77 22 76 23
REMARK SMILES IDX 32 25 64 26 44 27 63 28 45 29 48 30 62 31 81 32 46 33 47 34
REMARK SMILES IDX 61 36 82 37 49 38 33 39 34 40 42 41 35 42 36 43 40 44 43 45
REMARK SMILES IDX 37 46 38 47 41 48 39 49 65 50 66 51 74 52 67 53 68 54 72 55
REMARK SMILES IDX 75 56 69 57 70 58 73 59 71 60 50 61 51 62 59 63 52 64 53 65
REMARK SMILES IDX 57 66 60 67 54 68 55 69 58 70 56 71 6 72 7 73 8 74 9 76
REMARK SMILES IDX 10 77 17 78 18 79 19 80 23 81 20 82 22 83 21 84 11 85 12 86
REMARK SMILES IDX 13 87 14 88 15 89 16 90
REMARK H PARENT 3 6 80 24 48 35 7 75
REMARK Flexibility Score: inf
ROOT
ATOM      1  C   UNL     1       5.094  -2.679  -0.874  1.00  0.00     0.042 C 
ENDROOT
BRANCH   1   2
ATOM      2  C   UNL     1       5.687  -2.978   0.494  1.00  0.00     0.118 C 
BRANCH   2   3
ATOM      3  N   UNL     1       5.747  -1.787   1.330  1.00  0.00    -0.352 N 
ATOM      4  O   UNL     1       5.016  -0.090   2.597  1.00  0.00    -0.269 OA
ATOM      5  C   UNL     1       4.837  -1.241   2.205  1.00  0.00     0.251 C 
ATOM      6  H   UNL     1       6.589  -1.282   1.254  1.00  0.00     0.163 HD
BRANCH   5   7
ATOM      7  C   UNL     1       3.647  -1.992   2.679  1.00  0.00     0.039 A 
ATOM      8  C   UNL     1       3.679  -3.368   2.892  1.00  0.00     0.014 A 
ATOM      9  C   UNL     1       2.486  -1.283   3.022  1.00  0.00     0.014 A 
ATOM     10  C   UNL     1       2.531  -4.050   3.278  1.00  0.00     0.010 A 
ATOM     11  C   UNL     1       1.370  -1.954   3.541  1.00  0.00     0.010 A 
ATOM     12  C   UNL     1       1.375  -3.351   3.655  1.00  0.00    -0.014 A 
BRANCH  12  13
ATOM     13  C   UNL     1       0.242  -4.109   4.256  1.00  0.00     0.031 A 
ATOM     14  C   UNL     1      -1.120  -4.123   3.623  1.00  0.00     0.074 A 
ATOM     15  C   UNL     1       0.470  -4.827   5.376  1.00  0.00     0.049 A 
ATOM     16  N   UNL     1      -2.198  -4.766   4.001  1.00  0.00    -0.248 NA
ATOM     17  C   UNL     1      -1.306  -3.301   2.419  1.00  0.00     0.031 C 
ATOM     18  C   UNL     1       1.744  -4.875   6.099  1.00  0.00     0.029 A 
ATOM     19  N   UNL     1      -0.340  -5.678   6.084  1.00  0.00    -0.354 N 
ATOM     20  C   UNL     1      -3.193  -4.407   3.101  1.00  0.00     0.074 A 
ATOM     21  C   UNL     1      -2.598  -3.470   2.172  1.00  0.00     0.031 C 
ATOM     22  C   UNL     1       1.656  -5.768   7.093  1.00  0.00     0.029 A 
ATOM     23  C   UNL     1       0.298  -6.297   7.133  1.00  0.00     0.049 A 
ATOM     24  H   UNL     1      -1.287  -5.831   5.863  1.00  0.00     0.167 HD
ATOM     25  C   UNL     1      -4.481  -4.828   3.052  1.00  0.00     0.037 A 
ATOM     26  C   UNL     1      -0.158  -7.184   8.036  1.00  0.00     0.037 A 
ATOM     27  C   UNL     1      -5.059  -5.782   3.966  1.00  0.00     0.049 A 
ATOM     28  C   UNL     1      -1.591  -7.622   7.963  1.00  0.00     0.074 A 
ATOM     29  C   UNL     1      -6.342  -6.304   3.971  1.00  0.00     0.029 A 
ATOM     30  N   UNL     1      -4.392  -6.356   5.039  1.00  0.00    -0.354 N 
ATOM     31  N   UNL     1      -2.510  -7.300   7.086  1.00  0.00    -0.248 NA
ATOM     32  C   UNL     1      -2.053  -8.539   9.012  1.00  0.00     0.031 C 
ATOM     33  C   UNL     1      -6.466  -7.155   5.076  1.00  0.00     0.029 A 
ATOM     34  C   UNL     1      -5.245  -7.206   5.728  1.00  0.00     0.049 A 
ATOM     35  H   UNL     1      -3.452  -6.185   5.276  1.00  0.00     0.167 HD
ATOM     36  C   UNL     1      -3.654  -7.987   7.465  1.00  0.00     0.074 A 
ATOM     37  C   UNL     1      -3.305  -8.762   8.638  1.00  0.00     0.031 C 
ATOM     38  C   UNL     1      -4.883  -7.973   6.894  1.00  0.00     0.037 A 
BRANCH  25  39
ATOM     39  C   UNL     1      -5.366  -4.240   1.990  1.00  0.00     0.064 A 
ATOM     40  C   UNL     1      -5.209  -4.557   0.632  1.00  0.00     0.173 A 
ATOM     41  C   UNL     1      -6.412  -3.371   2.341  1.00  0.00     0.173 A 
ATOM     42  F   UNL     1      -4.221  -5.375   0.240  1.00  0.00    -0.203 F 
ATOM     43  C   UNL     1      -6.044  -4.003  -0.336  1.00  0.00     0.198 A 
ATOM     44  C   UNL     1      -7.263  -2.843   1.374  1.00  0.00     0.198 A 
ATOM     45  F   UNL     1      -6.614  -3.040   3.625  1.00  0.00    -0.203 F 
ATOM     46  F   UNL     1      -5.843  -4.282  -1.631  1.00  0.00    -0.200 F 
ATOM     47  C   UNL     1      -7.074  -3.152   0.036  1.00  0.00     0.200 A 
ATOM     48  F   UNL     1      -8.267  -2.032   1.737  1.00  0.00    -0.200 F 
ATOM     49  F   UNL     1      -7.879  -2.624  -0.896  1.00  0.00    -0.200 F 
ENDBRANCH  25  39
BRANCH  26  50
ATOM     50  C   UNL     1       0.757  -7.715   9.080  1.00  0.00     0.064 A 
ATOM     51  C   UNL     1       1.147  -9.062   9.079  1.00  0.00     0.173 A 
ATOM     52  C   UNL     1       1.268  -6.890  10.093  1.00  0.00     0.173 A 
ATOM     53  F   UNL     1       0.670  -9.896   8.143  1.00  0.00    -0.203 F 
ATOM     54  C   UNL     1       2.003  -9.564  10.057  1.00  0.00     0.198 A 
ATOM     55  C   UNL     1       2.149  -7.385  11.051  1.00  0.00     0.198 A 
ATOM     56  F   UNL     1       0.929  -5.593  10.137  1.00  0.00    -0.203 F 
ATOM     57  F   UNL     1       2.327 -10.864  10.056  1.00  0.00    -0.200 F 
ATOM     58  C   UNL     1       2.509  -8.724  11.037  1.00  0.00     0.200 A 
ATOM     59  F   UNL     1       2.650  -6.565  11.984  1.00  0.00    -0.200 F 
ATOM     60  F   UNL     1       3.340  -9.205  11.971  1.00  0.00    -0.200 F 
ENDBRANCH  26  50
BRANCH  38  61
ATOM     61  C   UNL     1      -5.929  -8.852   7.514  1.00  0.00     0.064 A 
ATOM     62  C   UNL     1      -6.500  -8.551   8.760  1.00  0.00     0.173 A 
ATOM     63  C   UNL     1      -6.374 -10.003   6.848  1.00  0.00     0.173 A 
ATOM     64  F   UNL     1      -6.094  -7.471   9.446  1.00  0.00    -0.203 F 
ATOM     65  C   UNL     1      -7.454  -9.389   9.330  1.00  0.00     0.198 A 
ATOM     66  C   UNL     1      -7.351 -10.822   7.407  1.00  0.00     0.198 A 
ATOM     67  F   UNL     1      -5.863 -10.334   5.653  1.00  0.00    -0.203 F 
ATOM     68  F   UNL     1      -7.944  -9.113  10.547  1.00  0.00    -0.200 F 
ATOM     69  C   UNL     1      -7.883 -10.519   8.651  1.00  0.00     0.200 A 
ATOM     70  F   UNL     1      -7.773 -11.908   6.745  1.00  0.00    -0.200 F 
ATOM     71  F   UNL     1      -8.803 -11.324   9.201  1.00  0.00    -0.200 F 
ENDBRANCH  38  61
ENDBRANCH  12  13
ENDBRANCH   5   7
ENDBRANCH   2   3
ENDBRANCH   1   2
BRANCH   1  72
ATOM     72  C   UNL     1       6.142  -2.163  -1.856  1.00  0.00     0.117 C 
BRANCH  72  73
ATOM     73  N   UNL     1       6.867  -3.252  -2.497  1.00  0.00    -0.356 N 
ATOM     74  C   UNL     1       6.876  -3.851  -3.711  1.00  0.00     0.223 C 
ATOM     75  H   UNL     1       7.523  -3.659  -1.887  1.00  0.00     0.163 HD
ATOM     76  O   UNL     1       7.606  -4.852  -3.774  1.00  0.00    -0.275 OA
BRANCH  74  77
ATOM     77  C   UNL     1       6.168  -3.368  -4.997  1.00  0.00     0.083 C 
BRANCH  77  78
ATOM     78  C   UNL     1       5.716  -4.622  -5.809  1.00  0.00     0.049 C 
BRANCH  78  79
ATOM     79  C   UNL     1       4.718  -4.453  -6.934  1.00  0.00    -0.047 A 
ATOM     80  C   UNL     1       4.758  -3.384  -7.835  1.00  0.00     0.004 A 
ATOM     81  C   UNL     1       3.707  -5.414  -7.093  1.00  0.00     0.004 A 
ATOM     82  C   UNL     1       3.725  -3.186  -8.753  1.00  0.00     0.000 A 
ATOM     83  C   UNL     1       2.693  -5.240  -8.037  1.00  0.00     0.000 A 
ATOM     84  C   UNL     1       2.684  -4.106  -8.843  1.00  0.00     0.000 A 
ENDBRANCH  78  79
ENDBRANCH  77  78
BRANCH  77  85
ATOM     85  C   UNL     1       5.189  -2.191  -4.939  1.00  0.00     0.023 C 
BRANCH  85  86
ATOM     86  C   UNL     1       3.740  -2.320  -4.444  1.00  0.00     0.116 C 
BRANCH  86  87
ATOM     87  C   UNL     1       3.223  -3.597  -3.814  1.00  0.00     0.389 C 
ATOM     88  F   UNL     1       2.350  -3.286  -2.823  1.00  0.00    -0.171 F 
ATOM     89  F   UNL     1       2.555  -4.366  -4.693  1.00  0.00    -0.171 F 
ATOM     90  F   UNL     1       4.191  -4.346  -3.262  1.00  0.00    -0.171 F 
ENDBRANCH  86  87
ENDBRANCH  85  86
ENDBRANCH  77  85
ENDBRANCH  74  77
ENDBRANCH  72  73
ENDBRANCH   1  72
TORSDOF 15
