REMARK SMILES O=C(NCCCNC(=O)c1cc(Cl)cc(S(=O)(=O)N[C@@H]2CONC2=O)c1F)c1ccc(-c2c3nc(c(-c4c(F)c(F)c(F)c(F)c4F)c4ccc([nH]4)c(-c4c(F)c(F)c(F)c(F)c4F)c4nc(c(-c5c(F)c(F)c(F)c(F)c5F)c5ccc2[nH]5)C=C4)C=C3)cc1
REMARK SMILES IDX 5 1 4 2 3 3 1 4 2 5 28 7 29 8 90 9 30 10 89 11 31 12 32 13
REMARK SMILES IDX 33 14 83 15 34 16 88 17 82 18 84 19 35 20 87 21 81 22 80 23
REMARK SMILES IDX 36 25 68 26 48 27 67 28 49 29 52 30 66 31 85 32 50 33 51 34
REMARK SMILES IDX 65 36 86 37 53 38 37 39 38 40 46 41 39 42 40 43 44 44 47 45
REMARK SMILES IDX 41 46 42 47 45 48 43 49 69 50 70 51 78 52 71 53 72 54 76 55
REMARK SMILES IDX 79 56 73 57 74 58 77 59 75 60 54 61 55 62 63 63 56 64 57 65
REMARK SMILES IDX 61 66 64 67 58 68 59 69 62 70 60 71 6 72 7 73 8 74 9 76
REMARK SMILES IDX 10 77 11 78 26 79 12 80 15 81 27 82 13 83 14 84 16 85 17 86
REMARK SMILES IDX 18 87 19 88 20 90 21 91 24 92 22 93 23 94 25 95
REMARK H PARENT 3 6 84 24 52 35 7 75 19 89 23 96
REMARK Flexibility Score: inf
ROOT
ATOM      1  C   UNL     1       5.110  -1.681  -1.156  1.00  0.00     0.042 C 
ENDROOT
BRANCH   1   2
ATOM      2  C   UNL     1       4.547  -0.291  -1.409  1.00  0.00     0.118 C 
BRANCH   2   3
ATOM      3  N   UNL     1       3.105  -0.208  -1.214  1.00  0.00    -0.352 N 
ATOM      4  O   UNL     1       1.141   0.002  -0.131  1.00  0.00    -0.269 OA
ATOM      5  C   UNL     1       2.359   0.154  -0.116  1.00  0.00     0.251 C 
ATOM      6  H   UNL     1       2.572  -0.453  -2.005  1.00  0.00     0.163 HD
BRANCH   5   7
ATOM      7  C   UNL     1       3.018   0.678   1.101  1.00  0.00     0.039 A 
ATOM      8  C   UNL     1       4.098   1.549   1.008  1.00  0.00     0.014 A 
ATOM      9  C   UNL     1       2.549   0.297   2.362  1.00  0.00     0.014 A 
ATOM     10  C   UNL     1       4.860   1.827   2.131  1.00  0.00     0.010 A 
ATOM     11  C   UNL     1       3.226   0.715   3.514  1.00  0.00     0.010 A 
ATOM     12  C   UNL     1       4.423   1.438   3.406  1.00  0.00    -0.014 A 
BRANCH  12  13
ATOM     13  C   UNL     1       5.221   1.856   4.589  1.00  0.00     0.031 A 
ATOM     14  C   UNL     1       5.818   0.846   5.529  1.00  0.00     0.074 A 
ATOM     15  C   UNL     1       5.465   3.171   4.768  1.00  0.00     0.049 A 
ATOM     16  N   UNL     1       6.586   1.045   6.573  1.00  0.00    -0.248 NA
ATOM     17  C   UNL     1       5.508  -0.570   5.281  1.00  0.00     0.031 C 
ATOM     18  C   UNL     1       4.931   4.247   3.927  1.00  0.00     0.029 A 
ATOM     19  N   UNL     1       6.254   3.827   5.677  1.00  0.00    -0.354 N 
ATOM     20  C   UNL     1       6.817  -0.209   7.124  1.00  0.00     0.074 A 
ATOM     21  C   UNL     1       6.095  -1.164   6.311  1.00  0.00     0.031 C 
ATOM     22  C   UNL     1       5.477   5.412   4.299  1.00  0.00     0.029 A 
ATOM     23  C   UNL     1       6.328   5.181   5.459  1.00  0.00     0.049 A 
ATOM     24  H   UNL     1       6.721   3.372   6.414  1.00  0.00     0.167 HD
ATOM     25  C   UNL     1       7.566  -0.531   8.206  1.00  0.00     0.037 A 
ATOM     26  C   UNL     1       6.997   6.139   6.126  1.00  0.00     0.037 A 
ATOM     27  C   UNL     1       8.314   0.421   8.988  1.00  0.00     0.049 A 
ATOM     28  C   UNL     1       7.816   5.752   7.321  1.00  0.00     0.074 A 
ATOM     29  C   UNL     1       9.141   0.189  10.073  1.00  0.00     0.029 A 
ATOM     30  N   UNL     1       8.325   1.792   8.766  1.00  0.00    -0.354 N 
ATOM     31  N   UNL     1       8.043   4.559   7.815  1.00  0.00    -0.248 NA
ATOM     32  C   UNL     1       8.461   6.845   8.057  1.00  0.00     0.031 C 
ATOM     33  C   UNL     1       9.614   1.421  10.537  1.00  0.00     0.029 A 
ATOM     34  C   UNL     1       9.124   2.418   9.710  1.00  0.00     0.049 A 
ATOM     35  H   UNL     1       7.837   2.251   8.045  1.00  0.00     0.167 HD
ATOM     36  C   UNL     1       8.868   4.755   8.912  1.00  0.00     0.074 A 
ATOM     37  C   UNL     1       9.121   6.179   8.995  1.00  0.00     0.031 C 
ATOM     38  C   UNL     1       9.366   3.837   9.776  1.00  0.00     0.037 A 
BRANCH  25  39
ATOM     39  C   UNL     1       7.597  -1.972   8.631  1.00  0.00     0.064 A 
ATOM     40  C   UNL     1       8.274  -2.952   7.890  1.00  0.00     0.173 A 
ATOM     41  C   UNL     1       6.969  -2.370   9.822  1.00  0.00     0.173 A 
ATOM     42  F   UNL     1       8.880  -2.628   6.737  1.00  0.00    -0.203 F 
ATOM     43  C   UNL     1       8.298  -4.280   8.311  1.00  0.00     0.198 A 
ATOM     44  C   UNL     1       7.020  -3.693  10.255  1.00  0.00     0.198 A 
ATOM     45  F   UNL     1       6.313  -1.472  10.573  1.00  0.00    -0.203 F 
ATOM     46  F   UNL     1       8.912  -5.207   7.562  1.00  0.00    -0.200 F 
ATOM     47  C   UNL     1       7.678  -4.648   9.495  1.00  0.00     0.200 A 
ATOM     48  F   UNL     1       6.430  -4.043  11.406  1.00  0.00    -0.200 F 
ATOM     49  F   UNL     1       7.708  -5.925   9.902  1.00  0.00    -0.200 F 
ENDBRANCH  25  39
BRANCH  26  50
ATOM     50  C   UNL     1       6.914   7.551   5.672  1.00  0.00     0.064 A 
ATOM     51  C   UNL     1       8.031   8.200   5.129  1.00  0.00     0.173 A 
ATOM     52  C   UNL     1       5.714   8.274   5.751  1.00  0.00     0.173 A 
ATOM     53  F   UNL     1       9.205   7.556   5.048  1.00  0.00    -0.203 F 
ATOM     54  C   UNL     1       7.954   9.521   4.692  1.00  0.00     0.198 A 
ATOM     55  C   UNL     1       5.629   9.583   5.285  1.00  0.00     0.198 A 
ATOM     56  F   UNL     1       4.614   7.696   6.256  1.00  0.00    -0.203 F 
ATOM     57  F   UNL     1       9.046  10.130   4.211  1.00  0.00    -0.200 F 
ATOM     58  C   UNL     1       6.751  10.208   4.763  1.00  0.00     0.200 A 
ATOM     59  F   UNL     1       4.460  10.236   5.336  1.00  0.00    -0.200 F 
ATOM     60  F   UNL     1       6.675  11.474   4.331  1.00  0.00    -0.200 F 
ENDBRANCH  26  50
BRANCH  38  61
ATOM     61  C   UNL     1      10.260   4.350  10.865  1.00  0.00     0.064 A 
ATOM     62  C   UNL     1       9.754   5.088  11.946  1.00  0.00     0.173 A 
ATOM     63  C   UNL     1      11.639   4.092  10.831  1.00  0.00     0.173 A 
ATOM     64  F   UNL     1       8.446   5.377  12.012  1.00  0.00    -0.203 F 
ATOM     65  C   UNL     1      10.602   5.575  12.937  1.00  0.00     0.198 A 
ATOM     66  C   UNL     1      12.478   4.555  11.839  1.00  0.00     0.198 A 
ATOM     67  F   UNL     1      12.170   3.388   9.820  1.00  0.00    -0.203 F 
ATOM     68  F   UNL     1      10.105   6.326  13.930  1.00  0.00    -0.200 F 
ATOM     69  C   UNL     1      11.961   5.304  12.886  1.00  0.00     0.200 A 
ATOM     70  F   UNL     1      13.790   4.284  11.794  1.00  0.00    -0.200 F 
ATOM     71  F   UNL     1      12.775   5.775  13.840  1.00  0.00    -0.200 F 
ENDBRANCH  38  61
ENDBRANCH  12  13
ENDBRANCH   5   7
ENDBRANCH   2   3
ENDBRANCH   1   2
BRANCH   1  72
ATOM     72  C   UNL     1       4.826  -2.645  -2.292  1.00  0.00     0.118 C 
BRANCH  72  73
ATOM     73  N   UNL     1       5.439  -2.211  -3.542  1.00  0.00    -0.352 N 
ATOM     74  C   UNL     1       6.211  -2.889  -4.443  1.00  0.00     0.254 C 
ATOM     75  H   UNL     1       5.268  -1.270  -3.777  1.00  0.00     0.163 HD
ATOM     76  O   UNL     1       6.747  -2.268  -5.358  1.00  0.00    -0.269 OA
BRANCH  74  77
ATOM     77  C   UNL     1       6.392  -4.349  -4.379  1.00  0.00     0.078 A 
ATOM     78  C   UNL     1       7.619  -4.896  -4.765  1.00  0.00     0.037 A 
ATOM     79  C   UNL     1       5.317  -5.190  -4.105  1.00  0.00     0.156 A 
ATOM     80  C   UNL     1       7.757  -6.281  -4.846  1.00  0.00     0.043 A 
ATOM     81  C   UNL     1       5.442  -6.561  -4.226  1.00  0.00     0.120 A 
ATOM     82  F   UNL     1       4.150  -4.656  -3.746  1.00  0.00    -0.205 F 
ATOM     83  Cl  UNL     1       9.271  -6.956  -5.300  1.00  0.00    -0.084 Cl
ATOM     84  C   UNL     1       6.673  -7.121  -4.587  1.00  0.00     0.045 A 
BRANCH  81  85
ATOM     85  S   UNL     1       4.052  -7.616  -3.996  1.00  0.00     0.244 S 
ATOM     86  O   UNL     1       3.973  -8.469  -5.162  1.00  0.00    -0.207 OA
ATOM     87  O   UNL     1       4.182  -8.149  -2.662  1.00  0.00    -0.207 OA
BRANCH  85  88
ATOM     88  N   UNL     1       2.686  -6.649  -3.977  1.00  0.00    -0.196 NA
ATOM     89  H   UNL     1       2.937  -5.801  -3.469  1.00  0.00     0.142 HD
BRANCH  88  90
ATOM     90  C   UNL     1       2.052  -6.213  -5.236  1.00  0.00     0.189 C 
ATOM     91  C   UNL     1       2.181  -4.717  -5.500  1.00  0.00     0.224 C 
ATOM     92  C   UNL     1       0.552  -6.286  -5.144  1.00  0.00     0.264 C 
ATOM     93  O   UNL     1       1.047  -4.358  -6.301  1.00  0.00    -0.271 OA
ATOM     94  N   UNL     1       0.033  -5.244  -5.873  1.00  0.00    -0.233 N 
ATOM     95  O   UNL     1      -0.093  -7.112  -4.517  1.00  0.00    -0.271 OA
ATOM     96  H   UNL     1      -0.924  -5.129  -6.072  1.00  0.00     0.199 HD
ENDBRANCH  88  90
ENDBRANCH  85  88
ENDBRANCH  81  85
ENDBRANCH  74  77
ENDBRANCH  72  73
ENDBRANCH   1  72
TORSDOF 13
