REMARK SMILES C#CCC1(C(=O)NCCCNC(=O)c2ccc(-c3c4nc(c(-c5c(F)c(F)c(F)c(F)c5F)c5ccc([nH]5)c(-c5c(F)c(F)c(F)c(F)c5F)c5nc(c(-c6c(F)c(F)c(F)c(F)c6F)c6ccc3[nH]6)C=C5)C=C4)cc2)CC[NH2+]CC1
REMARK SMILES IDX 9 1 8 2 7 3 5 4 6 5 4 7 77 8 81 9 78 10 80 11 79 12 3 15
REMARK SMILES IDX 2 16 1 17 10 18 11 19 12 20 13 22 14 23 15 24 76 25 16 26
REMARK SMILES IDX 75 27 17 28 18 29 19 30 69 31 20 32 74 33 68 34 70 35 21 36
REMARK SMILES IDX 73 37 67 38 66 39 22 41 54 42 34 43 53 44 35 45 38 46 52 47
REMARK SMILES IDX 71 48 36 49 37 50 51 52 72 53 39 54 23 55 24 56 32 57 25 58
REMARK SMILES IDX 26 59 30 60 33 61 27 62 28 63 31 64 29 65 55 66 56 67 64 68
REMARK SMILES IDX 57 69 58 70 62 71 65 72 59 73 60 74 63 75 61 76 40 77 41 78
REMARK SMILES IDX 49 79 42 80 43 81 47 82 50 83 44 84 45 85 48 86 46 87
REMARK H PARENT 7 6 79 13 79 14 11 21 70 40 38 51
REMARK Flexibility Score: inf
ROOT
ATOM      1  C   UNL     1      -3.274   2.523  -4.731  1.00  0.00     0.042 C 
ENDROOT
BRANCH   1   2
ATOM      2  C   UNL     1      -3.992   2.380  -3.390  1.00  0.00     0.117 C 
BRANCH   2   3
ATOM      3  N   UNL     1      -3.986   1.006  -2.904  1.00  0.00    -0.356 N 
ATOM      4  C   UNL     1      -3.323   0.368  -1.900  1.00  0.00     0.227 C 
ATOM      5  O   UNL     1      -3.582  -0.836  -1.800  1.00  0.00    -0.274 OA
ATOM      6  H   UNL     1      -4.588   0.414  -3.409  1.00  0.00     0.163 HD
BRANCH   4   7
ATOM      7  C   UNL     1      -2.351   1.081  -0.928  1.00  0.00     0.071 C 
ATOM      8  C   UNL     1      -1.233   1.795  -1.753  1.00  0.00     0.079 C 
ATOM      9  C   UNL     1      -3.171   2.109  -0.100  1.00  0.00     0.079 C 
ATOM     10  C   UNL     1      -0.521   2.935  -1.024  1.00  0.00     0.261 C 
ATOM     11  C   UNL     1      -2.306   3.183   0.553  1.00  0.00     0.261 C 
ATOM     12  N   UNL     1      -1.488   3.865  -0.447  1.00  0.00    -0.346 N 
ATOM     13  H   UNL     1      -2.091   4.227  -1.187  1.00  0.00     0.346 HD
ATOM     14  H   UNL     1      -0.987   4.633  -0.001  1.00  0.00     0.346 HD
BRANCH   7  15
ATOM     15  C   UNL     1      -1.769  -0.000   0.083  1.00  0.00     0.106 C 
BRANCH  15  16
ATOM     16  C   UNL     1      -0.249  -0.000   0.083  1.00  0.00    -0.106 C 
ATOM     17  C   UNL     1       1.055  -0.000   0.083  1.00  0.00     0.004 C 
ENDBRANCH  15  16
ENDBRANCH   7  15
ENDBRANCH   4   7
ENDBRANCH   2   3
ENDBRANCH   1   2
BRANCH   1  18
ATOM     18  C   UNL     1      -3.924   1.746  -5.867  1.00  0.00     0.118 C 
BRANCH  18  19
ATOM     19  N   UNL     1      -5.244   2.258  -6.202  1.00  0.00    -0.352 N 
ATOM     20  C   UNL     1      -5.673   2.935  -7.313  1.00  0.00     0.251 C 
ATOM     21  H   UNL     1      -5.937   2.092  -5.523  1.00  0.00     0.163 HD
ATOM     22  O   UNL     1      -6.777   3.485  -7.299  1.00  0.00    -0.269 OA
BRANCH  20  23
ATOM     23  C   UNL     1      -4.830   3.025  -8.523  1.00  0.00     0.039 A 
ATOM     24  C   UNL     1      -4.794   4.228  -9.234  1.00  0.00     0.014 A 
ATOM     25  C   UNL     1      -4.113   1.920  -8.991  1.00  0.00     0.014 A 
ATOM     26  C   UNL     1      -3.999   4.340 -10.377  1.00  0.00     0.010 A 
ATOM     27  C   UNL     1      -3.257   2.055 -10.081  1.00  0.00     0.010 A 
ATOM     28  C   UNL     1      -3.200   3.263 -10.793  1.00  0.00    -0.014 A 
BRANCH  28  29
ATOM     29  C   UNL     1      -2.313   3.370 -11.978  1.00  0.00     0.031 A 
ATOM     30  C   UNL     1      -2.550   2.494 -13.178  1.00  0.00     0.074 A 
ATOM     31  C   UNL     1      -1.250   4.197 -11.943  1.00  0.00     0.049 A 
ATOM     32  N   UNL     1      -1.832   2.368 -14.266  1.00  0.00    -0.248 NA
ATOM     33  C   UNL     1      -3.733   1.620 -13.137  1.00  0.00     0.031 C 
ATOM     34  C   UNL     1      -0.880   5.052 -10.815  1.00  0.00     0.029 A 
ATOM     35  N   UNL     1      -0.272   4.437 -12.876  1.00  0.00    -0.354 N 
ATOM     36  C   UNL     1      -2.456   1.382 -15.018  1.00  0.00     0.074 A 
ATOM     37  C   UNL     1      -3.589   0.915 -14.250  1.00  0.00     0.031 C 
ATOM     38  C   UNL     1       0.237   5.730 -11.124  1.00  0.00     0.029 A 
ATOM     39  C   UNL     1       0.681   5.333 -12.457  1.00  0.00     0.049 A 
ATOM     40  H   UNL     1      -0.256   4.008 -13.762  1.00  0.00     0.167 HD
ATOM     41  C   UNL     1      -2.124   0.922 -16.248  1.00  0.00     0.037 A 
ATOM     42  C   UNL     1       1.794   5.775 -13.073  1.00  0.00     0.037 A 
ATOM     43  C   UNL     1      -1.030   1.427 -17.033  1.00  0.00     0.049 A 
ATOM     44  C   UNL     1       2.113   5.279 -14.457  1.00  0.00     0.074 A 
ATOM     45  C   UNL     1      -0.672   1.095 -18.328  1.00  0.00     0.029 A 
ATOM     46  N   UNL     1      -0.117   2.375 -16.595  1.00  0.00    -0.354 N 
ATOM     47  N   UNL     1       1.467   4.407 -15.192  1.00  0.00    -0.248 NA
ATOM     48  C   UNL     1       3.311   5.836 -15.101  1.00  0.00     0.031 C 
ATOM     49  C   UNL     1       0.482   1.813 -18.660  1.00  0.00     0.029 A 
ATOM     50  C   UNL     1       0.816   2.624 -17.587  1.00  0.00     0.049 A 
ATOM     51  H   UNL     1      -0.131   2.806 -15.710  1.00  0.00     0.167 HD
ATOM     52  C   UNL     1       2.163   4.328 -16.390  1.00  0.00     0.074 A 
ATOM     53  C   UNL     1       3.272   5.253 -16.291  1.00  0.00     0.031 C 
ATOM     54  C   UNL     1       1.907   3.557 -17.475  1.00  0.00     0.037 A 
BRANCH  41  55
ATOM     55  C   UNL     1      -2.958  -0.180 -16.832  1.00  0.00     0.064 A 
ATOM     56  C   UNL     1      -4.266   0.047 -17.286  1.00  0.00     0.173 A 
ATOM     57  C   UNL     1      -2.421  -1.466 -16.993  1.00  0.00     0.173 A 
ATOM     58  F   UNL     1      -4.829   1.257 -17.146  1.00  0.00    -0.203 F 
ATOM     59  C   UNL     1      -5.013  -0.978 -17.861  1.00  0.00     0.198 A 
ATOM     60  C   UNL     1      -3.161  -2.482 -17.593  1.00  0.00     0.198 A 
ATOM     61  F   UNL     1      -1.173  -1.735 -16.581  1.00  0.00    -0.203 F 
ATOM     62  F   UNL     1      -6.273  -0.748 -18.253  1.00  0.00    -0.200 F 
ATOM     63  C   UNL     1      -4.457  -2.239 -18.022  1.00  0.00     0.200 A 
ATOM     64  F   UNL     1      -2.618  -3.696 -17.759  1.00  0.00    -0.200 F 
ATOM     65  F   UNL     1      -5.173  -3.221 -18.587  1.00  0.00    -0.200 F 
ENDBRANCH  41  55
BRANCH  42  66
ATOM     66  C   UNL     1       2.681   6.752 -12.392  1.00  0.00     0.064 A 
ATOM     67  C   UNL     1       2.769   8.078 -12.838  1.00  0.00     0.173 A 
ATOM     68  C   UNL     1       3.466   6.380 -11.291  1.00  0.00     0.173 A 
ATOM     69  F   UNL     1       2.053   8.476 -13.900  1.00  0.00    -0.203 F 
ATOM     70  C   UNL     1       3.626   8.989 -12.223  1.00  0.00     0.198 A 
ATOM     71  C   UNL     1       4.302   7.299 -10.660  1.00  0.00     0.198 A 
ATOM     72  F   UNL     1       3.413   5.125 -10.822  1.00  0.00    -0.203 F 
ATOM     73  F   UNL     1       3.727  10.237 -12.700  1.00  0.00    -0.200 F 
ATOM     74  C   UNL     1       4.388   8.600 -11.132  1.00  0.00     0.200 A 
ATOM     75  F   UNL     1       5.026   6.923  -9.598  1.00  0.00    -0.200 F 
ATOM     76  F   UNL     1       5.212   9.476 -10.541  1.00  0.00    -0.200 F 
ENDBRANCH  42  66
BRANCH  54  77
ATOM     77  C   UNL     1       2.824   3.702 -18.653  1.00  0.00     0.064 A 
ATOM     78  C   UNL     1       4.128   3.187 -18.636  1.00  0.00     0.173 A 
ATOM     79  C   UNL     1       2.376   4.326 -19.827  1.00  0.00     0.173 A 
ATOM     80  F   UNL     1       4.606   2.596 -17.530  1.00  0.00    -0.203 F 
ATOM     81  C   UNL     1       4.958   3.310 -19.746  1.00  0.00     0.198 A 
ATOM     82  C   UNL     1       3.200   4.423 -20.944  1.00  0.00     0.198 A 
ATOM     83  F   UNL     1       1.134   4.829 -19.895  1.00  0.00    -0.203 F 
ATOM     84  F   UNL     1       6.215   2.849 -19.694  1.00  0.00    -0.200 F 
ATOM     85  C   UNL     1       4.492   3.921 -20.901  1.00  0.00     0.200 A 
ATOM     86  F   UNL     1       2.743   5.002 -22.064  1.00  0.00    -0.200 F 
ATOM     87  F   UNL     1       5.291   4.032 -21.971  1.00  0.00    -0.200 F 
ENDBRANCH  54  77
ENDBRANCH  28  29
ENDBRANCH  20  23
ENDBRANCH  18  19
ENDBRANCH   1  18
TORSDOF 12
