REMARK SMILES CC[C@@H](Oc1ccccc1/C=C1\S/C(=[NH+]\c2cccc(O)c2)N(CC)C1=O)C(=O)NCCCNC(=O)c1ccc(-c2c3nc(c(-c4c(F)c(F)c(F)c(F)c4F)c4ccc([nH]4)c(-c4c(F)c(F)c(F)c(F)c4F)c4nc(c(-c5c(F)c(F)c(F)c(F)c5F)c5ccc2[nH]5)C=C4)C=C3)cc1
REMARK SMILES IDX 28 1 29 2 30 3 3 5 2 6 1 7 4 8 5 9 6 10 10 11 7 12 9 13 8 14
REMARK SMILES IDX 11 15 12 16 13 17 26 18 14 19 23 20 27 21 15 22 24 24 25 25
REMARK SMILES IDX 16 26 17 27 22 28 18 29 20 30 19 31 21 32 31 34 32 35 33 36
REMARK SMILES IDX 34 37 35 38 36 40 37 41 38 42 99 43 39 44 98 45 40 46 41 47
REMARK SMILES IDX 42 48 92 49 43 50 97 51 91 52 93 53 44 54 96 55 90 56 89 57
REMARK SMILES IDX 45 59 77 60 57 61 76 62 58 63 61 64 75 65 94 66 59 67 60 68
REMARK SMILES IDX 74 70 95 71 62 72 46 73 47 74 55 75 48 76 49 77 53 78 56 79
REMARK SMILES IDX 50 80 51 81 54 82 52 83 78 84 79 85 87 86 80 87 81 88 85 89
REMARK SMILES IDX 88 90 82 91 83 92 86 93 84 94 63 95 64 96 72 97 65 98 66 99
REMARK SMILES IDX 70 100 73 101 67 102 68 103 71 104 69 105
REMARK H PARENT 30 4 15 23 21 33 34 39 93 58 61 69
REMARK Flexibility Score: inf
ROOT
ATOM      1  C   UNL     1       0.723   0.709  -4.017  1.00  0.00     0.261 C 
ATOM      2  O   UNL     1       1.646   1.043  -4.774  1.00  0.00    -0.271 OA
ATOM      3  N   UNL     1      -0.533   1.055  -4.424  1.00  0.00    -0.353 N 
ATOM      4  H   UNL     1      -0.550   1.694  -5.173  1.00  0.00     0.163 HD
ENDROOT
BRANCH   1   5
ATOM      5  C   UNL     1       1.064   0.080  -2.636  1.00  0.00     0.261 C 
BRANCH   5   6
ATOM      6  C   UNL     1       1.371   1.265  -1.696  1.00  0.00     0.052 C 
ATOM      7  C   UNL     1       2.527   0.990  -0.740  1.00  0.00     0.008 C 
ENDBRANCH   5   6
BRANCH   5   8
ATOM      8  O   UNL     1       0.039  -0.733  -2.069  1.00  0.00    -0.480 OA
BRANCH   8   9
ATOM      9  C   UNL     1       0.451  -1.833  -1.352  1.00  0.00     0.127 A 
ATOM     10  C   UNL     1       0.777  -3.005  -2.036  1.00  0.00     0.047 A 
ATOM     11  C   UNL     1       0.354  -1.842   0.058  1.00  0.00     0.018 A 
ATOM     12  C   UNL     1       1.021  -4.182  -1.321  1.00  0.00     0.004 A 
ATOM     13  C   UNL     1       0.602  -3.026   0.762  1.00  0.00     0.012 A 
ATOM     14  C   UNL     1       0.926  -4.194   0.071  1.00  0.00     0.001 A 
BRANCH  11  15
ATOM     15  C   UNL     1       0.060  -0.616   0.812  1.00  0.00     0.036 C 
ATOM     16  C   UNL     1      -1.096   0.052   0.745  1.00  0.00     0.110 C 
ATOM     17  S   UNL     1      -2.547  -0.474   0.024  1.00  0.00     0.007 SA
ATOM     18  C   UNL     1      -1.189   1.487   1.110  1.00  0.00     0.348 C 
ATOM     19  C   UNL     1      -3.317   1.089   0.201  1.00  0.00     0.324 C 
ATOM     20  N   UNL     1      -2.404   1.997   0.691  1.00  0.00    -0.186 N 
ATOM     21  O   UNL     1      -0.259   2.123   1.593  1.00  0.00    -0.240 OA
ATOM     22  N   UNL     1      -4.533   1.400  -0.118  1.00  0.00    -0.234 N 
ATOM     23  H   UNL     1      -4.884   2.288   0.124  1.00  0.00     0.313 HD
BRANCH  20  24
ATOM     24  C   UNL     1      -2.555   3.437   0.518  1.00  0.00     0.244 C 
ATOM     25  C   UNL     1      -2.598   4.223   1.815  1.00  0.00     0.055 C 
ENDBRANCH  20  24
BRANCH  22  26
ATOM     26  C   UNL     1      -5.365   0.489  -0.806  1.00  0.00     0.129 A 
ATOM     27  C   UNL     1      -5.913   0.929  -2.011  1.00  0.00     0.052 A 
ATOM     28  C   UNL     1      -5.612  -0.830  -0.418  1.00  0.00     0.097 A 
ATOM     29  C   UNL     1      -6.558   0.052  -2.886  1.00  0.00     0.008 A 
ATOM     30  C   UNL     1      -6.226  -1.713  -1.307  1.00  0.00     0.119 A 
ATOM     31  C   UNL     1      -6.692  -1.284  -2.541  1.00  0.00     0.046 A 
BRANCH  30  32
ATOM     32  O   UNL     1      -6.345  -3.041  -1.019  1.00  0.00    -0.508 OA
ATOM     33  H   UNL     1      -6.760  -3.618  -1.629  1.00  0.00     0.293 HD
ENDBRANCH  30  32
ENDBRANCH  22  26
ENDBRANCH  11  15
ENDBRANCH   8   9
ENDBRANCH   5   8
ENDBRANCH   1   5
BRANCH   3  34
ATOM     34  C   UNL     1      -1.847   0.654  -3.957  1.00  0.00     0.118 C 
BRANCH  34  35
ATOM     35  C   UNL     1      -2.611   1.766  -3.245  1.00  0.00     0.042 C 
BRANCH  35  36
ATOM     36  C   UNL     1      -3.260   2.849  -4.116  1.00  0.00     0.118 C 
BRANCH  36  37
ATOM     37  N   UNL     1      -4.311   2.376  -5.013  1.00  0.00    -0.352 N 
ATOM     38  C   UNL     1      -5.649   2.673  -5.153  1.00  0.00     0.251 C 
ATOM     39  H   UNL     1      -3.996   1.700  -5.655  1.00  0.00     0.163 HD
ATOM     40  O   UNL     1      -6.282   2.076  -6.025  1.00  0.00    -0.269 OA
BRANCH  38  41
ATOM     41  C   UNL     1      -6.392   3.611  -4.265  1.00  0.00     0.039 A 
ATOM     42  C   UNL     1      -7.714   3.271  -3.920  1.00  0.00     0.014 A 
ATOM     43  C   UNL     1      -5.861   4.804  -3.780  1.00  0.00     0.014 A 
ATOM     44  C   UNL     1      -8.464   4.068  -3.048  1.00  0.00     0.010 A 
ATOM     45  C   UNL     1      -6.600   5.593  -2.885  1.00  0.00     0.010 A 
ATOM     46  C   UNL     1      -7.911   5.238  -2.520  1.00  0.00    -0.014 A 
BRANCH  46  47
ATOM     47  C   UNL     1      -8.749   6.172  -1.720  1.00  0.00     0.031 A 
ATOM     48  C   UNL     1      -9.233   7.443  -2.365  1.00  0.00     0.074 A 
ATOM     49  C   UNL     1      -9.089   5.900  -0.446  1.00  0.00     0.049 A 
ATOM     50  N   UNL     1      -9.938   8.422  -1.857  1.00  0.00    -0.248 NA
ATOM     51  C   UNL     1      -8.857   7.641  -3.773  1.00  0.00     0.031 C 
ATOM     52  C   UNL     1      -8.705   4.702   0.297  1.00  0.00     0.029 A 
ATOM     53  N   UNL     1      -9.835   6.627   0.453  1.00  0.00    -0.354 N 
ATOM     54  C   UNL     1     -10.089   9.348  -2.881  1.00  0.00     0.074 A 
ATOM     55  C   UNL     1      -9.354   8.843  -4.020  1.00  0.00     0.031 C 
ATOM     56  C   UNL     1      -9.214   4.777   1.540  1.00  0.00     0.029 A 
ATOM     57  C   UNL     1      -9.937   6.040   1.691  1.00  0.00     0.049 A 
ATOM     58  H   UNL     1     -10.256   7.488   0.230  1.00  0.00     0.167 HD
ATOM     59  C   UNL     1     -10.796  10.504  -2.885  1.00  0.00     0.037 A 
ATOM     60  C   UNL     1     -10.534   6.478   2.818  1.00  0.00     0.037 A 
ATOM     61  C   UNL     1     -11.529  11.012  -1.755  1.00  0.00     0.049 A 
ATOM     62  C   UNL     1     -11.262   7.801   2.808  1.00  0.00     0.074 A 
ATOM     63  C   UNL     1     -12.286  12.168  -1.667  1.00  0.00     0.029 A 
ATOM     64  N   UNL     1     -11.592  10.398  -0.513  1.00  0.00    -0.354 N 
ATOM     65  N   UNL     1     -11.430   8.651   1.824  1.00  0.00    -0.248 NA
ATOM     66  C   UNL     1     -11.893   8.220   4.069  1.00  0.00     0.031 C 
ATOM     67  C   UNL     1     -12.759  12.282  -0.356  1.00  0.00     0.029 A 
ATOM     68  C   UNL     1     -12.353  11.165   0.356  1.00  0.00     0.049 A 
ATOM     69  H   UNL     1     -11.160   9.544  -0.283  1.00  0.00     0.167 HD
ATOM     70  C   UNL     1     -12.206   9.685   2.337  1.00  0.00     0.074 A 
ATOM     71  C   UNL     1     -12.497   9.343   3.713  1.00  0.00     0.031 C 
ATOM     72  C   UNL     1     -12.636  10.817   1.725  1.00  0.00     0.037 A 
BRANCH  59  73
ATOM     73  C   UNL     1     -10.795  11.305  -4.155  1.00  0.00     0.064 A 
ATOM     74  C   UNL     1     -11.450  10.853  -5.311  1.00  0.00     0.173 A 
ATOM     75  C   UNL     1     -10.149  12.549  -4.212  1.00  0.00     0.173 A 
ATOM     76  F   UNL     1     -12.070   9.663  -5.315  1.00  0.00    -0.203 F 
ATOM     77  C   UNL     1     -11.429  11.600  -6.486  1.00  0.00     0.198 A 
ATOM     78  C   UNL     1     -10.159  13.309  -5.378  1.00  0.00     0.198 A 
ATOM     79  F   UNL     1      -9.509  13.029  -3.135  1.00  0.00    -0.203 F 
ATOM     80  F   UNL     1     -12.011  11.121  -7.594  1.00  0.00    -0.200 F 
ATOM     81  C   UNL     1     -10.791  12.831  -6.516  1.00  0.00     0.200 A 
ATOM     82  F   UNL     1      -9.553  14.504  -5.402  1.00  0.00    -0.200 F 
ATOM     83  F   UNL     1     -10.776  13.552  -7.645  1.00  0.00    -0.200 F 
ENDBRANCH  59  73
BRANCH  60  84
ATOM     84  C   UNL     1     -10.470   5.667   4.066  1.00  0.00     0.064 A 
ATOM     85  C   UNL     1     -11.624   5.098   4.624  1.00  0.00     0.173 A 
ATOM     86  C   UNL     1      -9.260   5.484   4.753  1.00  0.00     0.173 A 
ATOM     87  F   UNL     1     -12.812   5.269   4.025  1.00  0.00    -0.203 F 
ATOM     88  C   UNL     1     -11.576   4.403   5.831  1.00  0.00     0.198 A 
ATOM     89  C   UNL     1      -9.207   4.761   5.943  1.00  0.00     0.198 A 
ATOM     90  F   UNL     1      -8.127   6.013   4.270  1.00  0.00    -0.203 F 
ATOM     91  F   UNL     1     -12.705   3.925   6.373  1.00  0.00    -0.200 F 
ATOM     92  C   UNL     1     -10.367   4.230   6.487  1.00  0.00     0.200 A 
ATOM     93  F   UNL     1      -8.035   4.588   6.568  1.00  0.00    -0.200 F 
ATOM     94  F   UNL     1     -10.320   3.564   7.649  1.00  0.00    -0.200 F 
ENDBRANCH  60  84
BRANCH  72  95
ATOM     95  C   UNL     1     -13.494  11.755   2.530  1.00  0.00     0.064 A 
ATOM     96  C   UNL     1     -12.979  12.485   3.613  1.00  0.00     0.173 A 
ATOM     97  C   UNL     1     -14.847  11.943   2.201  1.00  0.00     0.173 A 
ATOM     98  F   UNL     1     -11.697  12.338   3.977  1.00  0.00    -0.203 F 
ATOM     99  C   UNL     1     -13.795  13.333   4.360  1.00  0.00     0.198 A 
ATOM    100  C   UNL     1     -15.649  12.819   2.927  1.00  0.00     0.198 A 
ATOM    101  F   UNL     1     -15.390  11.281   1.169  1.00  0.00    -0.203 F 
ATOM    102  F   UNL     1     -13.295  13.968   5.429  1.00  0.00    -0.200 F 
ATOM    103  C   UNL     1     -15.126  13.504   4.013  1.00  0.00     0.200 A 
ATOM    104  F   UNL     1     -16.931  12.998   2.578  1.00  0.00    -0.200 F 
ATOM    105  F   UNL     1     -15.908  14.320   4.733  1.00  0.00    -0.200 F 
ENDBRANCH  72  95
ENDBRANCH  46  47
ENDBRANCH  38  41
ENDBRANCH  36  37
ENDBRANCH  35  36
ENDBRANCH  34  35
ENDBRANCH   3  34
TORSDOF 17
