REMARK SMILES CCc1c(C)nc(Nc2ccc(Cl)cc2Cl)nc1OCC(=O)NCCCNC(=O)c1ccc(-c2c3nc(c(-c4c(F)c(F)c(F)c(F)c4F)c4ccc([nH]4)c(-c4c(F)c(F)c(F)c(F)c4F)c4nc(c(-c5c(F)c(F)c(F)c(F)c5F)c5ccc2[nH]5)C=C4)C=C3)cc1
REMARK SMILES IDX 24 1 23 2 21 3 22 4 20 6 19 7 18 8 3 9 4 10 5 11 6 12 17 13
REMARK SMILES IDX 7 14 2 15 1 16 8 17 9 19 10 20 15 21 11 22 14 23 16 24 12 25
REMARK SMILES IDX 13 26 25 27 26 28 27 29 28 30 29 32 30 33 31 34 92 35 32 36
REMARK SMILES IDX 91 37 33 38 34 39 35 40 85 41 36 42 90 43 84 44 86 45 37 46
REMARK SMILES IDX 89 47 83 48 82 49 38 51 70 52 50 53 69 54 51 55 54 56 68 57
REMARK SMILES IDX 87 58 52 59 53 60 67 62 88 63 55 64 39 65 40 66 48 67 41 68
REMARK SMILES IDX 42 69 46 70 49 71 43 72 44 73 47 74 45 75 71 76 72 77 80 78
REMARK SMILES IDX 73 79 74 80 78 81 81 82 75 83 76 84 79 85 77 86 56 87 57 88
REMARK SMILES IDX 65 89 58 90 59 91 63 92 66 93 60 94 61 95 64 96 62 97
REMARK H PARENT 23 5 8 18 27 31 86 50 54 61
REMARK Flexibility Score: inf
ROOT
ATOM      1  C   UNL     1       4.986  -0.521  -1.585  1.00  0.00     0.117 C 
ENDROOT
BRANCH   1   2
ATOM      2  N   UNL     1       4.173  -0.446  -0.389  1.00  0.00    -0.353 N 
ATOM      3  C   UNL     1       2.829  -0.277  -0.268  1.00  0.00     0.258 C 
ATOM      4  O   UNL     1       2.391  -0.034   0.857  1.00  0.00    -0.271 OA
ATOM      5  H   UNL     1       4.664  -0.529   0.460  1.00  0.00     0.163 HD
BRANCH   3   6
ATOM      6  C   UNL     1       1.910  -0.481  -1.492  1.00  0.00     0.331 C 
BRANCH   6   7
ATOM      7  O   UNL     1       1.118   0.486  -2.145  1.00  0.00    -0.467 OA
BRANCH   7   8
ATOM      8  C   UNL     1       1.244   1.790  -1.764  1.00  0.00     0.222 A 
ATOM      9  C   UNL     1       0.645   2.290  -0.619  1.00  0.00     0.035 A 
ATOM     10  C   UNL     1       0.795   3.667  -0.471  1.00  0.00     0.050 A 
ATOM     11  C   UNL     1       0.229   4.434   0.691  1.00  0.00     0.067 C 
ATOM     12  N   UNL     1       1.321   4.455  -1.425  1.00  0.00    -0.218 NA
ATOM     13  N   UNL     1       1.739   2.573  -2.756  1.00  0.00    -0.177 NA
ATOM     14  C   UNL     1       1.697   3.900  -2.577  1.00  0.00     0.230 A 
BRANCH   9  15
ATOM     15  C   UNL     1      -0.165   1.543   0.413  1.00  0.00     0.040 C 
ATOM     16  C   UNL     1      -0.763   0.175   0.120  1.00  0.00     0.009 C 
ENDBRANCH   9  15
BRANCH  14  17
ATOM     17  N   UNL     1       1.891   4.738  -3.685  1.00  0.00    -0.323 N 
ATOM     18  H   UNL     1       2.240   4.313  -4.501  1.00  0.00     0.170 HD
BRANCH  17  19
ATOM     19  C   UNL     1       1.637   6.127  -3.753  1.00  0.00     0.060 A 
ATOM     20  C   UNL     1       2.146   6.996  -2.774  1.00  0.00     0.029 A 
ATOM     21  C   UNL     1       0.758   6.672  -4.711  1.00  0.00     0.066 A 
ATOM     22  C   UNL     1       1.797   8.351  -2.747  1.00  0.00     0.023 A 
ATOM     23  C   UNL     1       0.394   8.025  -4.683  1.00  0.00     0.043 A 
ATOM     24  Cl  UNL     1       0.055   5.672  -5.936  1.00  0.00    -0.082 Cl
ATOM     25  C   UNL     1       0.915   8.856  -3.696  1.00  0.00     0.042 A 
ATOM     26  Cl  UNL     1       0.452  10.513  -3.635  1.00  0.00    -0.084 Cl
ENDBRANCH  17  19
ENDBRANCH  14  17
ENDBRANCH   7   8
ENDBRANCH   6   7
ENDBRANCH   3   6
ENDBRANCH   1   2
BRANCH   1  27
ATOM     27  C   UNL     1       5.645   0.818  -1.875  1.00  0.00     0.042 C 
BRANCH  27  28
ATOM     28  C   UNL     1       6.493   1.332  -0.717  1.00  0.00     0.118 C 
BRANCH  28  29
ATOM     29  N   UNL     1       7.529   0.385  -0.316  1.00  0.00    -0.352 N 
ATOM     30  C   UNL     1       8.895   0.476  -0.431  1.00  0.00     0.251 C 
ATOM     31  H   UNL     1       7.198  -0.444   0.100  1.00  0.00     0.163 HD
ATOM     32  O   UNL     1       9.601  -0.503  -0.246  1.00  0.00    -0.269 OA
BRANCH  30  33
ATOM     33  C   UNL     1       9.496   1.772  -0.794  1.00  0.00     0.039 A 
ATOM     34  C   UNL     1      10.489   1.818  -1.775  1.00  0.00     0.014 A 
ATOM     35  C   UNL     1       9.056   2.941  -0.171  1.00  0.00     0.014 A 
ATOM     36  C   UNL     1      10.991   3.055  -2.183  1.00  0.00     0.010 A 
ATOM     37  C   UNL     1       9.481   4.171  -0.648  1.00  0.00     0.010 A 
ATOM     38  C   UNL     1      10.463   4.241  -1.648  1.00  0.00    -0.014 A 
BRANCH  38  39
ATOM     39  C   UNL     1      10.937   5.578  -2.079  1.00  0.00     0.031 A 
ATOM     40  C   UNL     1      11.569   6.494  -1.069  1.00  0.00     0.074 A 
ATOM     41  C   UNL     1      10.711   6.000  -3.337  1.00  0.00     0.049 A 
ATOM     42  N   UNL     1      11.911   7.751  -1.185  1.00  0.00    -0.248 NA
ATOM     43  C   UNL     1      11.811   5.928   0.269  1.00  0.00     0.031 C 
ATOM     44  C   UNL     1      10.070   5.216  -4.393  1.00  0.00     0.029 A 
ATOM     45  N   UNL     1      10.977   7.207  -3.933  1.00  0.00    -0.354 N 
ATOM     46  C   UNL     1      12.377   8.130   0.066  1.00  0.00     0.074 A 
ATOM     47  C   UNL     1      12.218   6.992   0.943  1.00  0.00     0.031 C 
ATOM     48  C   UNL     1      10.007   5.955  -5.512  1.00  0.00     0.029 A 
ATOM     49  C   UNL     1      10.557   7.279  -5.239  1.00  0.00     0.049 A 
ATOM     50  H   UNL     1      11.426   7.950  -3.470  1.00  0.00     0.167 HD
ATOM     51  C   UNL     1      12.915   9.314   0.443  1.00  0.00     0.037 A 
ATOM     52  C   UNL     1      10.598   8.306  -6.109  1.00  0.00     0.037 A 
ATOM     53  C   UNL     1      13.096  10.430  -0.447  1.00  0.00     0.049 A 
ATOM     54  C   UNL     1      11.192   9.616  -5.665  1.00  0.00     0.074 A 
ATOM     55  C   UNL     1      13.682  11.655  -0.186  1.00  0.00     0.029 A 
ATOM     56  N   UNL     1      12.689  10.454  -1.773  1.00  0.00    -0.354 N 
ATOM     57  N   UNL     1      11.686   9.948  -4.497  1.00  0.00    -0.248 NA
ATOM     58  C   UNL     1      11.239  10.694  -6.663  1.00  0.00     0.031 C 
ATOM     59  C   UNL     1      13.581  12.440  -1.338  1.00  0.00     0.029 A 
ATOM     60  C   UNL     1      12.992  11.682  -2.338  1.00  0.00     0.049 A 
ATOM     61  H   UNL     1      12.249   9.709  -2.243  1.00  0.00     0.167 HD
ATOM     62  C   UNL     1      12.137  11.255  -4.630  1.00  0.00     0.074 A 
ATOM     63  C   UNL     1      11.863  11.653  -5.995  1.00  0.00     0.031 C 
ATOM     64  C   UNL     1      12.728  12.052  -3.706  1.00  0.00     0.037 A 
BRANCH  51  65
ATOM     65  C   UNL     1      13.339   9.459   1.876  1.00  0.00     0.064 A 
ATOM     66  C   UNL     1      14.413   8.728   2.408  1.00  0.00     0.173 A 
ATOM     67  C   UNL     1      12.672  10.352   2.728  1.00  0.00     0.173 A 
ATOM     68  F   UNL     1      15.078   7.849   1.641  1.00  0.00    -0.203 F 
ATOM     69  C   UNL     1      14.777   8.856   3.746  1.00  0.00     0.198 A 
ATOM     70  C   UNL     1      13.063  10.506   4.056  1.00  0.00     0.198 A 
ATOM     71  F   UNL     1      11.641  11.081   2.273  1.00  0.00    -0.203 F 
ATOM     72  F   UNL     1      15.764   8.099   4.245  1.00  0.00    -0.200 F 
ATOM     73  C   UNL     1      14.107   9.750   4.566  1.00  0.00     0.200 A 
ATOM     74  F   UNL     1      12.424  11.382   4.844  1.00  0.00    -0.200 F 
ATOM     75  F   UNL     1      14.462   9.876   5.853  1.00  0.00    -0.200 F 
ENDBRANCH  51  65
BRANCH  52  76
ATOM     76  C   UNL     1      10.084   8.128  -7.493  1.00  0.00     0.064 A 
ATOM     77  C   UNL     1      10.958   8.122  -8.589  1.00  0.00     0.173 A 
ATOM     78  C   UNL     1       8.715   7.959  -7.751  1.00  0.00     0.173 A 
ATOM     79  F   UNL     1      12.274   8.298  -8.396  1.00  0.00    -0.203 F 
ATOM     80  C   UNL     1      10.482   7.978  -9.890  1.00  0.00     0.198 A 
ATOM     81  C   UNL     1       8.244   7.783  -9.050  1.00  0.00     0.198 A 
ATOM     82  F   UNL     1       7.837   7.949  -6.738  1.00  0.00    -0.203 F 
ATOM     83  F   UNL     1      11.336   8.024 -10.922  1.00  0.00    -0.200 F 
ATOM     84  C   UNL     1       9.126   7.802 -10.120  1.00  0.00     0.200 A 
ATOM     85  F   UNL     1       6.934   7.597  -9.266  1.00  0.00    -0.200 F 
ATOM     86  F   UNL     1       8.669   7.657 -11.371  1.00  0.00    -0.200 F 
ENDBRANCH  52  76
BRANCH  64  87
ATOM     87  C   UNL     1      13.176  13.415  -4.150  1.00  0.00     0.064 A 
ATOM     88  C   UNL     1      12.264  14.441  -4.433  1.00  0.00     0.173 A 
ATOM     89  C   UNL     1      14.546  13.711  -4.236  1.00  0.00     0.173 A 
ATOM     90  F   UNL     1      10.944  14.205  -4.379  1.00  0.00    -0.203 F 
ATOM     91  C   UNL     1      12.706  15.707  -4.808  1.00  0.00     0.198 A 
ATOM     92  C   UNL     1      14.984  14.987  -4.577  1.00  0.00     0.198 A 
ATOM     93  F   UNL     1      15.461  12.767  -3.967  1.00  0.00    -0.203 F 
ATOM     94  F   UNL     1      11.816  16.660  -5.119  1.00  0.00    -0.200 F 
ATOM     95  C   UNL     1      14.064  15.982  -4.870  1.00  0.00     0.200 A 
ATOM     96  F   UNL     1      16.297  15.254  -4.618  1.00  0.00    -0.200 F 
ATOM     97  F   UNL     1      14.487  17.205  -5.216  1.00  0.00    -0.200 F 
ENDBRANCH  64  87
ENDBRANCH  38  39
ENDBRANCH  30  33
ENDBRANCH  28  29
ENDBRANCH  27  28
ENDBRANCH   1  27
TORSDOF 15
