REMARK SMILES O=C(NCCCNC(=O)c1cc(F)cc(S(=O)(=O)Nc2ccc(F)c(F)c2F)c1)c1ccc(-c2c3nc(c(-c4c(F)c(F)c(F)c(F)c4F)c4ccc([nH]4)c(-c4c(F)c(F)c(F)c(F)c4F)c4nc(c(-c5c(F)c(F)c(F)c(F)c5F)c5ccc2[nH]5)C=C4)C=C3)cc1
REMARK SMILES IDX 5 1 4 2 3 3 1 4 2 5 30 7 31 8 92 9 32 10 91 11 33 12 34 13
REMARK SMILES IDX 35 14 85 15 36 16 90 17 84 18 86 19 37 20 89 21 83 22 82 23
REMARK SMILES IDX 38 25 70 26 50 27 69 28 51 29 54 30 68 31 87 32 52 33 53 34
REMARK SMILES IDX 67 36 88 37 55 38 39 39 40 40 48 41 41 42 42 43 46 44 49 45
REMARK SMILES IDX 43 46 44 47 47 48 45 49 71 50 72 51 80 52 73 53 74 54 78 55
REMARK SMILES IDX 81 56 75 57 76 58 79 59 77 60 56 61 57 62 65 63 58 64 59 65
REMARK SMILES IDX 63 66 66 67 60 68 61 69 64 70 62 71 6 72 7 73 8 74 9 76
REMARK SMILES IDX 10 77 11 78 29 79 12 80 15 81 13 82 14 83 16 84 17 85 18 86
REMARK SMILES IDX 19 87 20 89 21 90 27 91 22 92 25 93 28 94 23 95 26 96 24 97
REMARK H PARENT 3 6 86 24 54 35 7 75 19 88
REMARK Flexibility Score: inf
ROOT
ATOM      1  C   UNL     1       4.865  -2.405  -1.128  1.00  0.00     0.042 C 
ENDROOT
BRANCH   1   2
ATOM      2  C   UNL     1       4.544  -0.936  -1.386  1.00  0.00     0.118 C 
BRANCH   2   3
ATOM      3  N   UNL     1       3.139  -0.606  -1.186  1.00  0.00    -0.352 N 
ATOM      4  O   UNL     1       1.254   0.103  -0.207  1.00  0.00    -0.269 OA
ATOM      5  C   UNL     1       2.484   0.101  -0.207  1.00  0.00     0.251 C 
ATOM      6  H   UNL     1       2.545  -0.957  -1.887  1.00  0.00     0.163 HD
BRANCH   5   7
ATOM      7  C   UNL     1       3.206   0.832   0.863  1.00  0.00     0.039 A 
ATOM      8  C   UNL     1       4.388   1.530   0.621  1.00  0.00     0.014 A 
ATOM      9  C   UNL     1       2.638   0.876   2.144  1.00  0.00     0.014 A 
ATOM     10  C   UNL     1       5.084   2.114   1.678  1.00  0.00     0.010 A 
ATOM     11  C   UNL     1       3.291   1.543   3.188  1.00  0.00     0.010 A 
ATOM     12  C   UNL     1       4.547   2.127   2.976  1.00  0.00    -0.014 A 
BRANCH  12  13
ATOM     13  C   UNL     1       5.315   2.768   4.077  1.00  0.00     0.031 A 
ATOM     14  C   UNL     1       5.851   1.955   5.225  1.00  0.00     0.074 A 
ATOM     15  C   UNL     1       5.590   4.086   4.009  1.00  0.00     0.049 A 
ATOM     16  N   UNL     1       6.616   2.335   6.219  1.00  0.00    -0.248 NA
ATOM     17  C   UNL     1       5.476   0.534   5.271  1.00  0.00     0.031 C 
ATOM     18  C   UNL     1       5.112   4.990   2.962  1.00  0.00     0.029 A 
ATOM     19  N   UNL     1       6.366   4.885   4.811  1.00  0.00    -0.354 N 
ATOM     20  C   UNL     1       6.801   1.210   7.011  1.00  0.00     0.074 A 
ATOM     21  C   UNL     1       6.045   0.137   6.402  1.00  0.00     0.031 C 
ATOM     22  C   UNL     1       5.659   6.201   3.145  1.00  0.00     0.029 A 
ATOM     23  C   UNL     1       6.491   6.171   4.345  1.00  0.00     0.049 A 
ATOM     24  H   UNL     1       6.791   4.568   5.640  1.00  0.00     0.167 HD
ATOM     25  C   UNL     1       7.543   1.079   8.136  1.00  0.00     0.037 A 
ATOM     26  C   UNL     1       7.205   7.209   4.819  1.00  0.00     0.037 A 
ATOM     27  C   UNL     1       8.317   2.135   8.734  1.00  0.00     0.049 A 
ATOM     28  C   UNL     1       8.036   7.033   6.057  1.00  0.00     0.074 A 
ATOM     29  C   UNL     1       9.114   2.088   9.865  1.00  0.00     0.029 A 
ATOM     30  N   UNL     1       8.396   3.430   8.244  1.00  0.00    -0.354 N 
ATOM     31  N   UNL     1       8.212   5.958   6.785  1.00  0.00    -0.248 NA
ATOM     32  C   UNL     1       8.764   8.214   6.541  1.00  0.00     0.031 C 
ATOM     33  C   UNL     1       9.653   3.361  10.076  1.00  0.00     0.029 A 
ATOM     34  C   UNL     1       9.222   4.192   9.056  1.00  0.00     0.049 A 
ATOM     35  H   UNL     1       7.934   3.760   7.440  1.00  0.00     0.167 HD
ATOM     36  C   UNL     1       9.072   6.329   7.808  1.00  0.00     0.074 A 
ATOM     37  C   UNL     1       9.401   7.723   7.596  1.00  0.00     0.031 C 
ATOM     38  C   UNL     1       9.540   5.579   8.835  1.00  0.00     0.037 A 
BRANCH  25  39
ATOM     39  C   UNL     1       7.561  -0.264   8.805  1.00  0.00     0.064 A 
ATOM     40  C   UNL     1       6.894  -0.461  10.023  1.00  0.00     0.173 A 
ATOM     41  C   UNL     1       8.287  -1.338   8.271  1.00  0.00     0.173 A 
ATOM     42  F   UNL     1       6.190   0.537  10.578  1.00  0.00    -0.203 F 
ATOM     43  C   UNL     1       6.960  -1.684  10.686  1.00  0.00     0.198 A 
ATOM     44  C   UNL     1       8.332  -2.566   8.925  1.00  0.00     0.198 A 
ATOM     45  F   UNL     1       8.931  -1.202   7.102  1.00  0.00    -0.203 F 
ATOM     46  F   UNL     1       6.333  -1.844  11.859  1.00  0.00    -0.200 F 
ATOM     47  C   UNL     1       7.675  -2.736  10.134  1.00  0.00     0.200 A 
ATOM     48  F   UNL     1       9.006  -3.589   8.380  1.00  0.00    -0.200 F 
ATOM     49  F   UNL     1       7.729  -3.917  10.767  1.00  0.00    -0.200 F 
ENDBRANCH  25  39
BRANCH  26  50
ATOM     50  C   UNL     1       7.186   8.498   4.085  1.00  0.00     0.064 A 
ATOM     51  C   UNL     1       6.047   9.315   4.077  1.00  0.00     0.173 A 
ATOM     52  C   UNL     1       8.295   8.912   3.334  1.00  0.00     0.173 A 
ATOM     53  F   UNL     1       4.960   8.957   4.776  1.00  0.00    -0.203 F 
ATOM     54  C   UNL     1       6.009  10.486   3.325  1.00  0.00     0.198 A 
ATOM     55  C   UNL     1       8.264  10.095   2.600  1.00  0.00     0.198 A 
ATOM     56  F   UNL     1       9.412   8.170   3.327  1.00  0.00    -0.203 F 
ATOM     57  F   UNL     1       4.895  11.231   3.304  1.00  0.00    -0.200 F 
ATOM     58  C   UNL     1       7.117  10.876   2.588  1.00  0.00     0.200 A 
ATOM     59  F   UNL     1       9.343  10.478   1.904  1.00  0.00    -0.200 F 
ATOM     60  F   UNL     1       7.081  12.005   1.867  1.00  0.00    -0.200 F 
ENDBRANCH  26  50
BRANCH  38  61
ATOM     61  C   UNL     1      10.463   6.244   9.809  1.00  0.00     0.064 A 
ATOM     62  C   UNL     1      11.833   5.944   9.811  1.00  0.00     0.173 A 
ATOM     63  C   UNL     1       9.980   7.135  10.778  1.00  0.00     0.173 A 
ATOM     64  F   UNL     1      12.340   5.093   8.907  1.00  0.00    -0.203 F 
ATOM     65  C   UNL     1      12.686   6.508  10.756  1.00  0.00     0.198 A 
ATOM     66  C   UNL     1      10.840   7.713  11.708  1.00  0.00     0.198 A 
ATOM     67  F   UNL     1       8.679   7.461  10.806  1.00  0.00    -0.203 F 
ATOM     68  F   UNL     1      13.989   6.192  10.753  1.00  0.00    -0.200 F 
ATOM     69  C   UNL     1      12.190   7.394  11.701  1.00  0.00     0.200 A 
ATOM     70  F   UNL     1      10.363   8.584  12.608  1.00  0.00    -0.200 F 
ATOM     71  F   UNL     1      13.014   7.944  12.602  1.00  0.00    -0.200 F 
ENDBRANCH  38  61
ENDBRANCH  12  13
ENDBRANCH   5   7
ENDBRANCH   2   3
ENDBRANCH   1   2
BRANCH   1  72
ATOM     72  C   UNL     1       4.150  -3.397  -2.042  1.00  0.00     0.118 C 
BRANCH  72  73
ATOM     73  N   UNL     1       4.480  -3.226  -3.450  1.00  0.00    -0.352 N 
ATOM     74  C   UNL     1       5.200  -4.010  -4.316  1.00  0.00     0.251 C 
ATOM     75  H   UNL     1       4.123  -2.402  -3.853  1.00  0.00     0.163 HD
ATOM     76  O   UNL     1       5.473  -3.584  -5.435  1.00  0.00    -0.269 OA
BRANCH  74  77
ATOM     77  C   UNL     1       5.742  -5.321  -3.900  1.00  0.00     0.044 A 
ATOM     78  C   UNL     1       4.982  -6.284  -3.243  1.00  0.00     0.053 A 
ATOM     79  C   UNL     1       7.090  -5.568  -4.185  1.00  0.00     0.036 A 
ATOM     80  C   UNL     1       5.609  -7.435  -2.780  1.00  0.00     0.125 A 
ATOM     81  C   UNL     1       7.726  -6.689  -3.654  1.00  0.00     0.091 A 
ATOM     82  F   UNL     1       4.890  -8.344  -2.111  1.00  0.00    -0.207 F 
ATOM     83  C   UNL     1       6.975  -7.638  -2.954  1.00  0.00     0.061 A 
BRANCH  81  84
ATOM     84  S   UNL     1       9.493  -6.914  -3.686  1.00  0.00     0.262 S 
ATOM     85  O   UNL     1       9.956  -6.606  -2.349  1.00  0.00    -0.201 OA
ATOM     86  O   UNL     1       9.723  -8.210  -4.283  1.00  0.00    -0.201 OA
BRANCH  84  87
ATOM     87  N   UNL     1      10.154  -5.809  -4.749  1.00  0.00    -0.277 N 
ATOM     88  H   UNL     1      10.697  -6.171  -5.486  1.00  0.00     0.180 HD
BRANCH  87  89
ATOM     89  C   UNL     1      10.008  -4.392  -4.692  1.00  0.00     0.088 A 
ATOM     90  C   UNL     1       9.709  -3.686  -3.522  1.00  0.00     0.033 A 
ATOM     91  C   UNL     1      10.091  -3.695  -5.907  1.00  0.00     0.185 A 
ATOM     92  C   UNL     1       9.371  -2.330  -3.596  1.00  0.00     0.045 A 
ATOM     93  C   UNL     1       9.774  -2.346  -5.977  1.00  0.00     0.196 A 
ATOM     94  F   UNL     1      10.413  -4.364  -7.026  1.00  0.00    -0.201 F 
ATOM     95  C   UNL     1       9.389  -1.675  -4.826  1.00  0.00     0.162 A 
ATOM     96  F   UNL     1       9.803  -1.708  -7.155  1.00  0.00    -0.200 F 
ATOM     97  F   UNL     1       9.023  -0.388  -4.885  1.00  0.00    -0.204 F 
ENDBRANCH  87  89
ENDBRANCH  84  87
ENDBRANCH  81  84
ENDBRANCH  74  77
ENDBRANCH  72  73
ENDBRANCH   1  72
TORSDOF 13
