REMARK SMILES C=CCNC(=O)C[NH2+][C@](C)(C(=O)NCCCNC(=O)c1ccc(-c2c3nc(c(-c4c(F)c(F)c(F)c(F)c4F)c4ccc([nH]4)c(-c4c(F)c(F)c(F)c(F)c4F)c4nc(c(-c5c(F)c(F)c(F)c(F)c5F)c5ccc2[nH]5)C=C4)C=C3)cc1)C(F)(F)F
REMARK SMILES IDX 11 1 12 2 13 3 9 5 10 6 8 7 7 10 5 11 4 12 6 14 3 15 2 16
REMARK SMILES IDX 1 17 83 18 84 19 85 20 86 21 14 22 15 23 16 24 17 25 18 26
REMARK SMILES IDX 19 28 20 29 21 30 82 31 22 32 81 33 23 34 24 35 25 36 75 37
REMARK SMILES IDX 26 38 80 39 74 40 76 41 27 42 79 43 73 44 72 45 28 47 60 48
REMARK SMILES IDX 40 49 59 50 41 51 44 52 58 53 77 54 42 55 43 56 57 58 78 59
REMARK SMILES IDX 45 60 29 61 30 62 38 63 31 64 32 65 36 66 39 67 33 68 34 69
REMARK SMILES IDX 37 70 35 71 61 72 62 73 70 74 63 75 64 76 68 77 71 78 65 79
REMARK SMILES IDX 66 80 69 81 67 82 46 83 47 84 55 85 48 86 49 87 53 88 56 89
REMARK SMILES IDX 50 90 51 91 54 92 52 93
REMARK H PARENT 13 4 8 8 8 9 4 13 17 27 76 46 44 57
REMARK Flexibility Score: inf
ROOT
ATOM      1  C   UNL     1      -0.790   1.524  -5.562  1.00  0.00     0.290 C 
ATOM      2  O   UNL     1      -0.342   0.475  -6.030  1.00  0.00    -0.267 OA
ATOM      3  N   UNL     1      -0.081   2.648  -5.874  1.00  0.00    -0.350 N 
ATOM      4  H   UNL     1       0.675   2.477  -6.481  1.00  0.00     0.163 HD
ENDROOT
BRANCH   1   5
ATOM      5  C   UNL     1      -2.086   1.575  -4.726  1.00  0.00     0.268 C 
ATOM      6  C   UNL     1      -1.806   2.179  -3.332  1.00  0.00     0.101 C 
BRANCH   5   7
ATOM      7  N   UNL     1      -3.102   2.456  -5.401  1.00  0.00    -0.318 N 
ATOM      8  H   UNL     1      -3.885   2.587  -4.761  1.00  0.00     0.347 HD
ATOM      9  H   UNL     1      -2.623   3.327  -5.630  1.00  0.00     0.347 HD
BRANCH   7  10
ATOM     10  C   UNL     1      -3.628   1.921  -6.670  1.00  0.00     0.362 C 
BRANCH  10  11
ATOM     11  C   UNL     1      -4.636   2.926  -7.243  1.00  0.00     0.275 C 
ATOM     12  N   UNL     1      -5.797   3.161  -6.561  1.00  0.00    -0.348 N 
ATOM     13  H   UNL     1      -6.431   3.780  -6.989  1.00  0.00     0.163 HD
ATOM     14  O   UNL     1      -4.413   3.536  -8.289  1.00  0.00    -0.268 OA
BRANCH  12  15
ATOM     15  C   UNL     1      -6.209   2.614  -5.287  1.00  0.00     0.143 C 
BRANCH  15  16
ATOM     16  C   UNL     1      -6.189   3.729  -4.289  1.00  0.00    -0.014 C 
ATOM     17  C   UNL     1      -7.216   4.045  -3.490  1.00  0.00     0.006 C 
ENDBRANCH  15  16
ENDBRANCH  12  15
ENDBRANCH  10  11
ENDBRANCH   7  10
ENDBRANCH   5   7
BRANCH   5  18
ATOM     18  C   UNL     1      -2.523   0.096  -4.486  1.00  0.00     0.453 C 
ATOM     19  F   UNL     1      -1.625  -0.589  -3.740  1.00  0.00    -0.164 F 
ATOM     20  F   UNL     1      -3.698   0.062  -3.797  1.00  0.00    -0.164 F 
ATOM     21  F   UNL     1      -2.739  -0.597  -5.626  1.00  0.00    -0.164 F 
ENDBRANCH   5  18
ENDBRANCH   1   5
BRANCH   3  22
ATOM     22  C   UNL     1      -0.211   4.045  -5.495  1.00  0.00     0.118 C 
BRANCH  22  23
ATOM     23  C   UNL     1       0.921   4.497  -4.585  1.00  0.00     0.042 C 
BRANCH  23  24
ATOM     24  C   UNL     1       2.296   4.442  -5.237  1.00  0.00     0.118 C 
BRANCH  24  25
ATOM     25  N   UNL     1       2.412   5.334  -6.383  1.00  0.00    -0.352 N 
ATOM     26  C   UNL     1       3.227   6.418  -6.583  1.00  0.00     0.251 C 
ATOM     27  H   UNL     1       1.809   5.125  -7.133  1.00  0.00     0.163 HD
ATOM     28  O   UNL     1       3.034   7.153  -7.553  1.00  0.00    -0.269 OA
BRANCH  26  29
ATOM     29  C   UNL     1       4.319   6.727  -5.637  1.00  0.00     0.039 A 
ATOM     30  C   UNL     1       4.557   8.060  -5.293  1.00  0.00     0.014 A 
ATOM     31  C   UNL     1       5.121   5.715  -5.104  1.00  0.00     0.014 A 
ATOM     32  C   UNL     1       5.550   8.370  -4.362  1.00  0.00     0.010 A 
ATOM     33  C   UNL     1       6.046   6.015  -4.108  1.00  0.00     0.010 A 
ATOM     34  C   UNL     1       6.276   7.346  -3.731  1.00  0.00    -0.014 A 
BRANCH  34  35
ATOM     35  C   UNL     1       7.285   7.647  -2.684  1.00  0.00     0.031 A 
ATOM     36  C   UNL     1       8.729   7.286  -2.903  1.00  0.00     0.074 A 
ATOM     37  C   UNL     1       6.893   8.187  -1.514  1.00  0.00     0.049 A 
ATOM     38  N   UNL     1       9.744   7.396  -2.083  1.00  0.00    -0.248 NA
ATOM     39  C   UNL     1       9.075   6.698  -4.207  1.00  0.00     0.031 C 
ATOM     40  C   UNL     1       5.516   8.541  -1.164  1.00  0.00     0.029 A 
ATOM     41  N   UNL     1       7.616   8.526  -0.397  1.00  0.00    -0.354 N 
ATOM     42  C   UNL     1      10.839   6.881  -2.765  1.00  0.00     0.074 A 
ATOM     43  C   UNL     1      10.356   6.403  -4.042  1.00  0.00     0.031 C 
ATOM     44  C   UNL     1       5.498   9.070   0.070  1.00  0.00     0.029 A 
ATOM     45  C   UNL     1       6.851   9.055   0.614  1.00  0.00     0.049 A 
ATOM     46  H   UNL     1       8.590   8.402  -0.328  1.00  0.00     0.167 HD
ATOM     47  C   UNL     1      12.135   6.837  -2.374  1.00  0.00     0.037 A 
ATOM     48  C   UNL     1       7.203   9.472   1.845  1.00  0.00     0.037 A 
ATOM     49  C   UNL     1      12.617   7.336  -1.113  1.00  0.00     0.049 A 
ATOM     50  C   UNL     1       8.648   9.396   2.260  1.00  0.00     0.074 A 
ATOM     51  C   UNL     1      13.917   7.379  -0.642  1.00  0.00     0.029 A 
ATOM     52  N   UNL     1      11.814   7.879  -0.121  1.00  0.00    -0.354 N 
ATOM     53  N   UNL     1       9.684   8.965   1.581  1.00  0.00    -0.248 NA
ATOM     54  C   UNL     1       8.974   9.872   3.611  1.00  0.00     0.031 C 
ATOM     55  C   UNL     1      13.896   7.907   0.653  1.00  0.00     0.029 A 
ATOM     56  C   UNL     1      12.590   8.244   0.968  1.00  0.00     0.049 A 
ATOM     57  H   UNL     1      10.837   7.989  -0.181  1.00  0.00     0.167 HD
ATOM     58  C   UNL     1      10.785   9.150   2.406  1.00  0.00     0.074 A 
ATOM     59  C   UNL     1      10.293   9.747   3.630  1.00  0.00     0.031 C 
ATOM     60  C   UNL     1      12.086   8.852   2.172  1.00  0.00     0.037 A 
BRANCH  47  61
ATOM     61  C   UNL     1      13.129   6.237  -3.327  1.00  0.00     0.064 A 
ATOM     62  C   UNL     1      13.481   6.881  -4.523  1.00  0.00     0.173 A 
ATOM     63  C   UNL     1      13.772   5.028  -3.021  1.00  0.00     0.173 A 
ATOM     64  F   UNL     1      12.887   8.033  -4.870  1.00  0.00    -0.203 F 
ATOM     65  C   UNL     1      14.418   6.324  -5.390  1.00  0.00     0.198 A 
ATOM     66  C   UNL     1      14.732   4.490  -3.874  1.00  0.00     0.198 A 
ATOM     67  F   UNL     1      13.478   4.373  -1.888  1.00  0.00    -0.203 F 
ATOM     68  F   UNL     1      14.701   6.934  -6.549  1.00  0.00    -0.200 F 
ATOM     69  C   UNL     1      15.049   5.134  -5.061  1.00  0.00     0.200 A 
ATOM     70  F   UNL     1      15.352   3.347  -3.548  1.00  0.00    -0.200 F 
ATOM     71  F   UNL     1      15.959   4.605  -5.890  1.00  0.00    -0.200 F 
ENDBRANCH  47  61
BRANCH  48  72
ATOM     72  C   UNL     1       6.177  10.021   2.772  1.00  0.00     0.064 A 
ATOM     73  C   UNL     1       6.188  11.376   3.135  1.00  0.00     0.173 A 
ATOM     74  C   UNL     1       5.183   9.205   3.331  1.00  0.00     0.173 A 
ATOM     75  F   UNL     1       7.130  12.193   2.643  1.00  0.00    -0.203 F 
ATOM     76  C   UNL     1       5.264  11.886   4.045  1.00  0.00     0.198 A 
ATOM     77  C   UNL     1       4.239   9.723   4.215  1.00  0.00     0.198 A 
ATOM     78  F   UNL     1       5.124   7.904   3.012  1.00  0.00    -0.203 F 
ATOM     79  F   UNL     1       5.333  13.171   4.418  1.00  0.00    -0.200 F 
ATOM     80  C   UNL     1       4.287  11.060   4.581  1.00  0.00     0.200 A 
ATOM     81  F   UNL     1       3.288   8.925   4.719  1.00  0.00    -0.200 F 
ATOM     82  F   UNL     1       3.400  11.550   5.457  1.00  0.00    -0.200 F 
ENDBRANCH  48  72
BRANCH  60  83
ATOM     83  C   UNL     1      13.078   9.212   3.241  1.00  0.00     0.064 A 
ATOM     84  C   UNL     1      13.136   8.519   4.459  1.00  0.00     0.173 A 
ATOM     85  C   UNL     1      14.005  10.243   3.027  1.00  0.00     0.173 A 
ATOM     86  F   UNL     1      12.262   7.535   4.718  1.00  0.00    -0.203 F 
ATOM     87  C   UNL     1      14.067   8.865   5.435  1.00  0.00     0.198 A 
ATOM     88  C   UNL     1      14.956  10.565   3.991  1.00  0.00     0.198 A 
ATOM     89  F   UNL     1      13.998  10.932   1.876  1.00  0.00    -0.203 F 
ATOM     90  F   UNL     1      14.069   8.225   6.612  1.00  0.00    -0.200 F 
ATOM     91  C   UNL     1      14.980   9.882   5.198  1.00  0.00     0.200 A 
ATOM     92  F   UNL     1      15.847  11.537   3.754  1.00  0.00    -0.200 F 
ATOM     93  F   UNL     1      15.879  10.209   6.136  1.00  0.00    -0.200 F 
ENDBRANCH  60  83
ENDBRANCH  34  35
ENDBRANCH  26  29
ENDBRANCH  24  25
ENDBRANCH  23  24
ENDBRANCH  22  23
ENDBRANCH   3  22
TORSDOF 16
