REMARK SMILES CO[C@@]1(C(=O)NCCCNC(=O)c2ccc(-c3c4nc(c(-c5c(F)c(F)c(F)c(F)c5F)c5ccc([nH]5)c(-c5c(F)c(F)c(F)c(F)c5F)c5nc(c(-c6c(F)c(F)c(F)c(F)c6F)c6ccc3[nH]6)C=C5)C=C4)cc2)CC(c2ccccc2)=CC=C1C
REMARK SMILES IDX 8 1 7 2 6 3 4 4 5 5 3 7 76 8 86 9 77 10 85 11 87 12 84 13
REMARK SMILES IDX 2 14 1 15 78 16 79 17 83 18 80 19 82 20 81 21 9 22 10 23
REMARK SMILES IDX 11 24 12 26 13 27 14 28 75 29 15 30 74 31 16 32 17 33 18 34
REMARK SMILES IDX 68 35 19 36 73 37 67 38 69 39 20 40 72 41 66 42 65 43 21 45
REMARK SMILES IDX 53 46 33 47 52 48 34 49 37 50 51 51 70 52 35 53 36 54 50 56
REMARK SMILES IDX 71 57 38 58 22 59 23 60 31 61 24 62 25 63 29 64 32 65 26 66
REMARK SMILES IDX 27 67 30 68 28 69 54 70 55 71 63 72 56 73 57 74 61 75 64 76
REMARK SMILES IDX 58 77 59 78 62 79 60 80 39 81 40 82 48 83 41 84 42 85 46 86
REMARK SMILES IDX 49 87 43 88 44 89 47 90 45 91
REMARK H PARENT 6 6 10 25 69 44 37 55
REMARK Flexibility Score: inf
ROOT
ATOM      1  C   UNL     1       2.854   2.283   1.363  1.00  0.00     0.042 C 
ENDROOT
BRANCH   1   2
ATOM      2  C   UNL     1       1.801   1.736   2.331  1.00  0.00     0.117 C 
BRANCH   2   3
ATOM      3  N   UNL     1       0.603   1.281   1.645  1.00  0.00    -0.353 N 
ATOM      4  C   UNL     1       0.121   0.021   1.406  1.00  0.00     0.256 C 
ATOM      5  O   UNL     1      -0.907  -0.031   0.722  1.00  0.00    -0.271 OA
ATOM      6  H   UNL     1       0.040   2.006   1.289  1.00  0.00     0.163 HD
BRANCH   4   7
ATOM      7  C   UNL     1       0.852  -1.270   1.971  1.00  0.00     0.171 C 
ATOM      8  C   UNL     1       2.260  -1.281   1.270  1.00  0.00     0.086 C 
ATOM      9  C   UNL     1       0.047  -2.551   1.663  1.00  0.00    -0.032 C 
ATOM     10  C   UNL     1       2.747  -2.581   0.681  1.00  0.00    -0.037 C 
ATOM     11  C   UNL     1       0.586  -3.608   1.025  1.00  0.00     0.003 C 
ATOM     12  C   UNL     1      -1.409  -2.639   2.043  1.00  0.00     0.043 C 
ATOM     13  C   UNL     1       1.954  -3.655   0.588  1.00  0.00     0.004 C 
BRANCH   7  14
ATOM     14  O   UNL     1       1.141  -1.208   3.382  1.00  0.00    -0.364 OA
ATOM     15  C   UNL     1       0.052  -0.983   4.262  1.00  0.00     0.197 C 
ENDBRANCH   7  14
BRANCH  10  16
ATOM     16  C   UNL     1       4.124  -2.600   0.159  1.00  0.00    -0.022 A 
ATOM     17  C   UNL     1       4.355  -2.798  -1.208  1.00  0.00     0.008 A 
ATOM     18  C   UNL     1       5.215  -2.361   1.005  1.00  0.00     0.008 A 
ATOM     19  C   UNL     1       5.652  -2.748  -1.723  1.00  0.00     0.001 A 
ATOM     20  C   UNL     1       6.513  -2.314   0.490  1.00  0.00     0.001 A 
ATOM     21  C   UNL     1       6.730  -2.504  -0.874  1.00  0.00     0.000 A 
ENDBRANCH  10  16
ENDBRANCH   4   7
ENDBRANCH   2   3
ENDBRANCH   1   2
BRANCH   1  22
ATOM     22  C   UNL     1       2.416   3.508   0.559  1.00  0.00     0.118 C 
BRANCH  22  23
ATOM     23  N   UNL     1       2.163   4.671   1.394  1.00  0.00    -0.352 N 
ATOM     24  C   UNL     1       2.622   5.961   1.289  1.00  0.00     0.251 C 
ATOM     25  H   UNL     1       1.565   4.508   2.159  1.00  0.00     0.163 HD
ATOM     26  O   UNL     1       2.397   6.753   2.200  1.00  0.00    -0.269 OA
BRANCH  24  27
ATOM     27  C   UNL     1       3.399   6.411   0.110  1.00  0.00     0.039 A 
ATOM     28  C   UNL     1       4.484   7.270   0.320  1.00  0.00     0.014 A 
ATOM     29  C   UNL     1       3.042   6.054  -1.193  1.00  0.00     0.014 A 
ATOM     30  C   UNL     1       5.242   7.722  -0.763  1.00  0.00     0.010 A 
ATOM     31  C   UNL     1       3.833   6.460  -2.270  1.00  0.00     0.010 A 
ATOM     32  C   UNL     1       4.941   7.297  -2.066  1.00  0.00    -0.014 A 
BRANCH  32  33
ATOM     33  C   UNL     1       5.783   7.709  -3.220  1.00  0.00     0.031 A 
ATOM     34  C   UNL     1       5.225   8.599  -4.295  1.00  0.00     0.074 A 
ATOM     35  C   UNL     1       7.037   7.231  -3.329  1.00  0.00     0.049 A 
ATOM     36  N   UNL     1       5.786   9.006  -5.407  1.00  0.00    -0.248 NA
ATOM     37  C   UNL     1       3.849   9.079  -4.105  1.00  0.00     0.031 C 
ATOM     38  C   UNL     1       7.684   6.332  -2.374  1.00  0.00     0.029 A 
ATOM     39  N   UNL     1       7.989   7.426  -4.300  1.00  0.00    -0.354 N 
ATOM     40  C   UNL     1       4.827   9.773  -6.056  1.00  0.00     0.074 A 
ATOM     41  C   UNL     1       3.637   9.743  -5.233  1.00  0.00     0.031 C 
ATOM     42  C   UNL     1       8.930   6.064  -2.797  1.00  0.00     0.029 A 
ATOM     43  C   UNL     1       9.158   6.743  -4.069  1.00  0.00     0.049 A 
ATOM     44  H   UNL     1       7.846   8.000  -5.087  1.00  0.00     0.167 HD
ATOM     45  C   UNL     1       4.936  10.454  -7.223  1.00  0.00     0.037 A 
ATOM     46  C   UNL     1      10.283   6.665  -4.804  1.00  0.00     0.037 A 
ATOM     47  C   UNL     1       6.128  10.504  -8.029  1.00  0.00     0.049 A 
ATOM     48  C   UNL     1      10.377   7.425  -6.098  1.00  0.00     0.074 A 
ATOM     49  C   UNL     1       6.354  11.217  -9.194  1.00  0.00     0.029 A 
ATOM     50  N   UNL     1       7.297   9.809  -7.755  1.00  0.00    -0.354 N 
ATOM     51  N   UNL     1       9.485   8.196  -6.670  1.00  0.00    -0.248 NA
ATOM     52  C   UNL     1      11.637   7.307  -6.845  1.00  0.00     0.031 C 
ATOM     53  C   UNL     1       7.644  10.921  -9.647  1.00  0.00     0.029 A 
ATOM     54  C   UNL     1       8.239  10.059  -8.741  1.00  0.00     0.049 A 
ATOM     55  H   UNL     1       7.437   9.223  -6.976  1.00  0.00     0.167 HD
ATOM     56  C   UNL     1      10.081   8.674  -7.829  1.00  0.00     0.074 A 
ATOM     57  C   UNL     1      11.417   8.116  -7.872  1.00  0.00     0.031 C 
ATOM     58  C   UNL     1       9.567   9.502  -8.771  1.00  0.00     0.037 A 
BRANCH  45  59
ATOM     59  C   UNL     1       3.727  11.203  -7.702  1.00  0.00     0.064 A 
ATOM     60  C   UNL     1       3.283  12.369  -7.060  1.00  0.00     0.173 A 
ATOM     61  C   UNL     1       3.025  10.771  -8.837  1.00  0.00     0.173 A 
ATOM     62  F   UNL     1       3.914  12.819  -5.965  1.00  0.00    -0.203 F 
ATOM     63  C   UNL     1       2.163  13.057  -7.519  1.00  0.00     0.198 A 
ATOM     64  C   UNL     1       1.922  11.477  -9.310  1.00  0.00     0.198 A 
ATOM     65  F   UNL     1       3.413   9.666  -9.492  1.00  0.00    -0.203 F 
ATOM     66  F   UNL     1       1.729  14.142  -6.862  1.00  0.00    -0.200 F 
ATOM     67  C   UNL     1       1.487  12.615  -8.647  1.00  0.00     0.200 A 
ATOM     68  F   UNL     1       1.278  11.056 -10.407  1.00  0.00    -0.200 F 
ATOM     69  F   UNL     1       0.412  13.281  -9.090  1.00  0.00    -0.200 F 
ENDBRANCH  45  59
BRANCH  46  70
ATOM     70  C   UNL     1      11.425   5.851  -4.316  1.00  0.00     0.064 A 
ATOM     71  C   UNL     1      12.594   6.465  -3.846  1.00  0.00     0.173 A 
ATOM     72  C   UNL     1      11.370   4.450  -4.301  1.00  0.00     0.173 A 
ATOM     73  F   UNL     1      12.700   7.802  -3.862  1.00  0.00    -0.203 F 
ATOM     74  C   UNL     1      13.671   5.708  -3.392  1.00  0.00     0.198 A 
ATOM     75  C   UNL     1      12.439   3.694  -3.823  1.00  0.00     0.198 A 
ATOM     76  F   UNL     1      10.272   3.816  -4.738  1.00  0.00    -0.203 F 
ATOM     77  F   UNL     1      14.791   6.319  -2.982  1.00  0.00    -0.200 F 
ATOM     78  C   UNL     1      13.590   4.324  -3.374  1.00  0.00     0.200 A 
ATOM     79  F   UNL     1      12.352   2.357  -3.796  1.00  0.00    -0.200 F 
ATOM     80  F   UNL     1      14.624   3.596  -2.931  1.00  0.00    -0.200 F 
ENDBRANCH  46  70
BRANCH  58  81
ATOM     81  C   UNL     1      10.461   9.880  -9.915  1.00  0.00     0.064 A 
ATOM     82  C   UNL     1      10.775   8.970 -10.934  1.00  0.00     0.173 A 
ATOM     83  C   UNL     1      10.979  11.180 -10.011  1.00  0.00     0.173 A 
ATOM     84  F   UNL     1      10.318   7.710 -10.878  1.00  0.00    -0.203 F 
ATOM     85  C   UNL     1      11.595   9.341 -11.997  1.00  0.00     0.198 A 
ATOM     86  C   UNL     1      11.777  11.556 -11.088  1.00  0.00     0.198 A 
ATOM     87  F   UNL     1      10.704  12.089  -9.063  1.00  0.00    -0.203 F 
ATOM     88  F   UNL     1      11.918   8.443 -12.937  1.00  0.00    -0.200 F 
ATOM     89  C   UNL     1      12.089  10.635 -12.077  1.00  0.00     0.200 A 
ATOM     90  F   UNL     1      12.244  12.809 -11.169  1.00  0.00    -0.200 F 
ATOM     91  F   UNL     1      12.872  10.992 -13.103  1.00  0.00    -0.200 F 
ENDBRANCH  58  81
ENDBRANCH  32  33
ENDBRANCH  24  27
ENDBRANCH  22  23
ENDBRANCH   1  22
TORSDOF 12
