REMARK SMILES C[C@H](CC(=O)NCCCNC(=O)c1ccc(-c2c3nc(c(-c4c(F)c(F)c(F)c(F)c4F)c4ccc([nH]4)c(-c4c(F)c(F)c(F)c(F)c4F)c4nc(c(-c5c(F)c(F)c(F)c(F)c5F)c5ccc2[nH]5)C=C4)C=C3)cc1)[NH2+][C@H](C)c1ccccc1
REMARK SMILES IDX 7 1 6 2 4 3 5 4 3 6 2 7 1 8 76 9 77 12 78 13 79 14 80 15
REMARK SMILES IDX 84 16 81 17 83 18 82 19 8 20 9 21 10 22 11 23 12 25 13 26
REMARK SMILES IDX 14 27 75 28 15 29 74 30 16 31 17 32 18 33 68 34 19 35 73 36
REMARK SMILES IDX 67 37 69 38 20 39 72 40 66 41 65 42 21 44 53 45 33 46 52 47
REMARK SMILES IDX 34 48 37 49 51 50 70 51 35 52 36 53 50 55 71 56 38 57 22 58
REMARK SMILES IDX 23 59 31 60 24 61 25 62 29 63 32 64 26 65 27 66 30 67 28 68
REMARK SMILES IDX 54 69 55 70 63 71 56 72 57 73 61 74 64 75 58 76 59 77 62 78
REMARK SMILES IDX 60 79 39 80 40 81 48 82 41 83 42 84 46 85 49 86 43 87 44 88
REMARK SMILES IDX 47 89 45 90
REMARK H PARENT 6 5 76 10 76 11 10 24 69 43 37 54
REMARK Flexibility Score: inf
ROOT
ATOM      1  C   UNL     1      -3.280  -3.136   7.439  1.00  0.00     0.117 C 
ENDROOT
BRANCH   1   2
ATOM      2  N   UNL     1      -1.852  -3.352   7.327  1.00  0.00    -0.356 N 
ATOM      3  C   UNL     1      -0.892  -2.635   6.679  1.00  0.00     0.225 C 
ATOM      4  O   UNL     1       0.262  -3.068   6.738  1.00  0.00    -0.275 OA
ATOM      5  H   UNL     1      -1.520  -4.150   7.798  1.00  0.00     0.163 HD
BRANCH   3   6
ATOM      6  C   UNL     1      -1.197  -1.315   5.983  1.00  0.00     0.164 C 
BRANCH   6   7
ATOM      7  C   UNL     1      -2.085  -1.409   4.723  1.00  0.00     0.189 C 
ATOM      8  C   UNL     1      -3.393  -0.636   4.972  1.00  0.00     0.075 C 
BRANCH   7   9
ATOM      9  N   UNL     1      -1.405  -0.814   3.550  1.00  0.00    -0.338 N 
ATOM     10  H   UNL     1      -0.405  -0.774   3.748  1.00  0.00     0.347 HD
ATOM     11  H   UNL     1      -1.819   0.107   3.409  1.00  0.00     0.347 HD
BRANCH   9  12
ATOM     12  C   UNL     1      -1.597  -1.562   2.286  1.00  0.00     0.210 C 
ATOM     13  C   UNL     1      -0.758  -0.911   1.174  1.00  0.00     0.081 C 
BRANCH  12  14
ATOM     14  C   UNL     1      -3.064  -1.698   1.892  1.00  0.00     0.009 A 
ATOM     15  C   UNL     1      -3.835  -0.583   1.514  1.00  0.00     0.010 A 
ATOM     16  C   UNL     1      -3.715  -2.934   2.049  1.00  0.00     0.010 A 
ATOM     17  C   UNL     1      -5.220  -0.688   1.368  1.00  0.00     0.001 A 
ATOM     18  C   UNL     1      -5.100  -3.038   1.898  1.00  0.00     0.001 A 
ATOM     19  C   UNL     1      -5.854  -1.911   1.575  1.00  0.00     0.000 A 
ENDBRANCH  12  14
ENDBRANCH   9  12
ENDBRANCH   7   9
ENDBRANCH   6   7
ENDBRANCH   3   6
ENDBRANCH   1   2
BRANCH   1  20
ATOM     20  C   UNL     1      -4.053  -3.926   6.381  1.00  0.00     0.042 C 
BRANCH  20  21
ATOM     21  C   UNL     1      -4.266  -5.389   6.755  1.00  0.00     0.118 C 
BRANCH  21  22
ATOM     22  N   UNL     1      -5.308  -5.548   7.757  1.00  0.00    -0.352 N 
ATOM     23  C   UNL     1      -6.350  -6.441   7.806  1.00  0.00     0.251 C 
ATOM     24  H   UNL     1      -5.259  -4.921   8.514  1.00  0.00     0.163 HD
ATOM     25  O   UNL     1      -7.232  -6.290   8.646  1.00  0.00    -0.269 OA
BRANCH  23  26
ATOM     26  C   UNL     1      -6.435  -7.571   6.851  1.00  0.00     0.039 A 
ATOM     27  C   UNL     1      -7.694  -7.929   6.354  1.00  0.00     0.014 A 
ATOM     28  C   UNL     1      -5.308  -8.312   6.484  1.00  0.00     0.014 A 
ATOM     29  C   UNL     1      -7.817  -8.998   5.463  1.00  0.00     0.010 A 
ATOM     30  C   UNL     1      -5.423  -9.339   5.548  1.00  0.00     0.010 A 
ATOM     31  C   UNL     1      -6.678  -9.697   5.034  1.00  0.00    -0.014 A 
BRANCH  31  32
ATOM     32  C   UNL     1      -6.786 -10.812   4.059  1.00  0.00     0.031 A 
ATOM     33  C   UNL     1      -6.465 -12.219   4.478  1.00  0.00     0.074 A 
ATOM     34  C   UNL     1      -7.128 -10.550   2.784  1.00  0.00     0.049 A 
ATOM     35  N   UNL     1      -6.447 -13.315   3.761  1.00  0.00    -0.248 NA
ATOM     36  C   UNL     1      -6.092 -12.418   5.887  1.00  0.00     0.031 C 
ATOM     37  C   UNL     1      -7.437  -9.224   2.249  1.00  0.00     0.029 A 
ATOM     38  N   UNL     1      -7.266 -11.385   1.704  1.00  0.00    -0.354 N 
ATOM     39  C   UNL     1      -6.053 -14.327   4.626  1.00  0.00     0.074 A 
ATOM     40  C   UNL     1      -5.791 -13.708   5.908  1.00  0.00     0.031 C 
ATOM     41  C   UNL     1      -7.755  -9.338   0.950  1.00  0.00     0.029 A 
ATOM     42  C   UNL     1      -7.635 -10.737   0.551  1.00  0.00     0.049 A 
ATOM     43  H   UNL     1      -7.114 -12.357   1.751  1.00  0.00     0.167 HD
ATOM     44  C   UNL     1      -5.940 -15.655   4.380  1.00  0.00     0.037 A 
ATOM     45  C   UNL     1      -7.849 -11.218  -0.688  1.00  0.00     0.037 A 
ATOM     46  C   UNL     1      -6.216 -16.270   3.108  1.00  0.00     0.049 A 
ATOM     47  C   UNL     1      -7.685 -12.692  -0.943  1.00  0.00     0.074 A 
ATOM     48  C   UNL     1      -6.178 -17.612   2.769  1.00  0.00     0.029 A 
ATOM     49  N   UNL     1      -6.579 -15.579   1.961  1.00  0.00    -0.354 N 
ATOM     50  N   UNL     1      -7.367 -13.647  -0.104  1.00  0.00    -0.248 NA
ATOM     51  C   UNL     1      -7.913 -13.152  -2.320  1.00  0.00     0.031 C 
ATOM     52  C   UNL     1      -6.475 -17.728   1.406  1.00  0.00     0.029 A 
ATOM     53  C   UNL     1      -6.745 -16.464   0.907  1.00  0.00     0.049 A 
ATOM     54  H   UNL     1      -6.700 -14.604   1.904  1.00  0.00     0.167 HD
ATOM     55  C   UNL     1      -7.387 -14.824  -0.841  1.00  0.00     0.074 A 
ATOM     56  C   UNL     1      -7.758 -14.463  -2.194  1.00  0.00     0.031 C 
ATOM     57  C   UNL     1      -7.123 -16.089  -0.432  1.00  0.00     0.037 A 
BRANCH  44  58
ATOM     58  C   UNL     1      -5.494 -16.531   5.517  1.00  0.00     0.064 A 
ATOM     59  C   UNL     1      -6.318 -16.772   6.627  1.00  0.00     0.173 A 
ATOM     60  C   UNL     1      -4.234 -17.148   5.491  1.00  0.00     0.173 A 
ATOM     61  F   UNL     1      -7.528 -16.197   6.706  1.00  0.00    -0.203 F 
ATOM     62  C   UNL     1      -5.883 -17.566   7.685  1.00  0.00     0.198 A 
ATOM     63  C   UNL     1      -3.815 -17.967   6.536  1.00  0.00     0.198 A 
ATOM     64  F   UNL     1      -3.409 -16.959   4.450  1.00  0.00    -0.203 F 
ATOM     65  F   UNL     1      -6.666 -17.733   8.760  1.00  0.00    -0.200 F 
ATOM     66  C   UNL     1      -4.635 -18.167   7.637  1.00  0.00     0.200 A 
ATOM     67  F   UNL     1      -2.613 -18.558   6.483  1.00  0.00    -0.200 F 
ATOM     68  F   UNL     1      -4.217 -18.930   8.656  1.00  0.00    -0.200 F 
ENDBRANCH  44  58
BRANCH  45  69
ATOM     69  C   UNL     1      -8.278 -10.301  -1.774  1.00  0.00     0.064 A 
ATOM     70  C   UNL     1      -9.582 -10.361  -2.285  1.00  0.00     0.173 A 
ATOM     71  C   UNL     1      -7.407  -9.347  -2.318  1.00  0.00     0.173 A 
ATOM     72  F   UNL     1     -10.445 -11.272  -1.810  1.00  0.00    -0.203 F 
ATOM     73  C   UNL     1      -9.995  -9.511  -3.308  1.00  0.00     0.198 A 
ATOM     74  C   UNL     1      -7.828  -8.480  -3.324  1.00  0.00     0.198 A 
ATOM     75  F   UNL     1      -6.150  -9.247  -1.860  1.00  0.00    -0.203 F 
ATOM     76  F   UNL     1     -11.235  -9.616  -3.804  1.00  0.00    -0.200 F 
ATOM     77  C   UNL     1      -9.119  -8.567  -3.823  1.00  0.00     0.200 A 
ATOM     78  F   UNL     1      -6.984  -7.560  -3.810  1.00  0.00    -0.200 F 
ATOM     79  F   UNL     1      -9.518  -7.745  -4.803  1.00  0.00    -0.200 F 
ENDBRANCH  45  69
BRANCH  57  80
ATOM     80  C   UNL     1      -7.263 -17.182  -1.452  1.00  0.00     0.064 A 
ATOM     81  C   UNL     1      -6.333 -17.346  -2.488  1.00  0.00     0.173 A 
ATOM     82  C   UNL     1      -8.325 -18.096  -1.369  1.00  0.00     0.173 A 
ATOM     83  F   UNL     1      -5.310 -16.488  -2.619  1.00  0.00    -0.203 F 
ATOM     84  C   UNL     1      -6.474 -18.372  -3.419  1.00  0.00     0.198 A 
ATOM     85  C   UNL     1      -8.447 -19.137  -2.285  1.00  0.00     0.198 A 
ATOM     86  F   UNL     1      -9.239 -17.984  -0.394  1.00  0.00    -0.203 F 
ATOM     87  F   UNL     1      -5.599 -18.483  -4.428  1.00  0.00    -0.200 F 
ATOM     88  C   UNL     1      -7.525 -19.270  -3.313  1.00  0.00     0.200 A 
ATOM     89  F   UNL     1      -9.457 -20.010  -2.174  1.00  0.00    -0.200 F 
ATOM     90  F   UNL     1      -7.656 -20.260  -4.207  1.00  0.00    -0.200 F 
ENDBRANCH  57  80
ENDBRANCH  31  32
ENDBRANCH  23  26
ENDBRANCH  21  22
ENDBRANCH  20  21
ENDBRANCH   1  20
TORSDOF 14
