REMARK SMILES CC[C@@H]1SC[C@H](C(=O)NCCCNC(=O)c2ccc(-c3c4nc(c(-c5c(F)c(F)c(F)c(F)c5F)c5ccc([nH]5)c(-c5c(F)c(F)c(F)c(F)c5F)c5nc(c(-c6c(F)c(F)c(F)c(F)c6F)c6ccc3[nH]6)C=C5)C=C4)cc2)N1C(=O)c1ccc(C)cc1F
REMARK SMILES IDX 11 1 10 2 9 3 7 4 8 5 6 7 3 8 4 9 79 10 5 11 2 12 1 13 80 14
REMARK SMILES IDX 81 15 82 16 83 17 88 18 84 19 87 20 89 21 85 22 86 23 12 24
REMARK SMILES IDX 13 25 14 26 15 28 16 29 17 30 78 31 18 32 77 33 19 34 20 35
REMARK SMILES IDX 21 36 71 37 22 38 76 39 70 40 72 41 23 42 75 43 69 44 68 45
REMARK SMILES IDX 24 47 56 48 36 49 55 50 37 51 40 52 54 53 73 54 38 55 39 56
REMARK SMILES IDX 53 58 74 59 41 60 25 61 26 62 34 63 27 64 28 65 32 66 35 67
REMARK SMILES IDX 29 68 30 69 33 70 31 71 57 72 58 73 66 74 59 75 60 76 64 77
REMARK SMILES IDX 67 78 61 79 62 80 65 81 63 82 42 83 43 84 51 85 44 86 45 87
REMARK SMILES IDX 49 88 52 89 46 90 47 91 50 92 48 93
REMARK H PARENT 9 6 13 27 72 46 40 57
REMARK Flexibility Score: inf
ROOT
ATOM      1  C   UNL     1      -2.845   2.471  -6.212  1.00  0.00     0.042 C 
ENDROOT
BRANCH   1   2
ATOM      2  C   UNL     1      -3.040   1.062  -5.657  1.00  0.00     0.117 C 
BRANCH   2   3
ATOM      3  N   UNL     1      -2.017   0.136  -6.109  1.00  0.00    -0.354 N 
ATOM      4  C   UNL     1      -0.855  -0.249  -5.492  1.00  0.00     0.243 C 
ATOM      5  O   UNL     1      -0.102  -1.010  -6.103  1.00  0.00    -0.273 OA
ATOM      6  H   UNL     1      -2.182  -0.276  -6.988  1.00  0.00     0.163 HD
BRANCH   4   7
ATOM      7  C   UNL     1      -0.596   0.186  -4.035  1.00  0.00     0.185 C 
ATOM      8  C   UNL     1       1.127   0.336  -2.312  1.00  0.00     0.144 C 
ATOM      9  S   UNL     1       0.021  -0.990  -1.713  1.00  0.00    -0.134 SA
ATOM     10  N   UNL     1       0.800   0.533  -3.732  1.00  0.00    -0.314 N 
ATOM     11  C   UNL     1      -1.047  -0.980  -3.161  1.00  0.00     0.107 C 
BRANCH   8  12
ATOM     12  C   UNL     1       2.577   0.058  -1.892  1.00  0.00     0.033 C 
ATOM     13  C   UNL     1       2.790  -0.071  -0.385  1.00  0.00     0.007 C 
ENDBRANCH   8  12
BRANCH  10  14
ATOM     14  C   UNL     1       1.321   1.565  -4.526  1.00  0.00     0.258 C 
ATOM     15  O   UNL     1       0.639   2.187  -5.341  1.00  0.00    -0.269 OA
BRANCH  14  16
ATOM     16  C   UNL     1       2.715   1.990  -4.380  1.00  0.00     0.075 A 
ATOM     17  C   UNL     1       2.977   3.305  -3.986  1.00  0.00     0.017 A 
ATOM     18  C   UNL     1       3.766   1.111  -4.628  1.00  0.00     0.136 A 
ATOM     19  C   UNL     1       4.291   3.697  -3.730  1.00  0.00     0.004 A 
ATOM     20  C   UNL     1       5.079   1.498  -4.364  1.00  0.00     0.043 A 
ATOM     21  F   UNL     1       3.534  -0.142  -5.042  1.00  0.00    -0.206 F 
ATOM     22  C   UNL     1       5.346   2.782  -3.870  1.00  0.00    -0.048 A 
ATOM     23  C   UNL     1       6.743   3.189  -3.505  1.00  0.00     0.044 C 
ENDBRANCH  14  16
ENDBRANCH  10  14
ENDBRANCH   4   7
ENDBRANCH   2   3
ENDBRANCH   1   2
BRANCH   1  24
ATOM     24  C   UNL     1      -2.971   2.568  -7.731  1.00  0.00     0.118 C 
BRANCH  24  25
ATOM     25  N   UNL     1      -4.301   2.210  -8.209  1.00  0.00    -0.352 N 
ATOM     26  C   UNL     1      -5.196   2.909  -8.980  1.00  0.00     0.251 C 
ATOM     27  H   UNL     1      -4.609   1.317  -7.932  1.00  0.00     0.163 HD
ATOM     28  O   UNL     1      -6.336   2.475  -9.119  1.00  0.00    -0.269 OA
BRANCH  26  29
ATOM     29  C   UNL     1      -4.817   4.182  -9.632  1.00  0.00     0.039 A 
ATOM     30  C   UNL     1      -5.758   5.217  -9.675  1.00  0.00     0.014 A 
ATOM     31  C   UNL     1      -3.573   4.352 -10.243  1.00  0.00     0.014 A 
ATOM     32  C   UNL     1      -5.431   6.436 -10.275  1.00  0.00     0.010 A 
ATOM     33  C   UNL     1      -3.221   5.591 -10.777  1.00  0.00     0.010 A 
ATOM     34  C   UNL     1      -4.147   6.645 -10.801  1.00  0.00    -0.014 A 
BRANCH  34  35
ATOM     35  C   UNL     1      -3.754   7.957 -11.380  1.00  0.00     0.031 A 
ATOM     36  C   UNL     1      -3.399   8.070 -12.836  1.00  0.00     0.074 A 
ATOM     37  C   UNL     1      -3.653   9.036 -10.578  1.00  0.00     0.049 A 
ATOM     38  N   UNL     1      -2.954   9.105 -13.504  1.00  0.00    -0.248 NA
ATOM     39  C   UNL     1      -3.539   6.850 -13.646  1.00  0.00     0.031 C 
ATOM     40  C   UNL     1      -3.930   9.049  -9.141  1.00  0.00     0.029 A 
ATOM     41  N   UNL     1      -3.275  10.326 -10.856  1.00  0.00    -0.354 N 
ATOM     42  C   UNL     1      -2.744   8.658 -14.802  1.00  0.00     0.074 A 
ATOM     43  C   UNL     1      -3.064   7.246 -14.818  1.00  0.00     0.031 C 
ATOM     44  C   UNL     1      -3.729  10.289  -8.666  1.00  0.00     0.029 A 
ATOM     45  C   UNL     1      -3.270  11.147  -9.754  1.00  0.00     0.049 A 
ATOM     46  H   UNL     1      -3.031  10.634 -11.758  1.00  0.00     0.167 HD
ATOM     47  C   UNL     1      -2.341   9.363 -15.886  1.00  0.00     0.037 A 
ATOM     48  C   UNL     1      -2.924  12.443  -9.633  1.00  0.00     0.037 A 
ATOM     49  C   UNL     1      -2.046  10.773 -15.873  1.00  0.00     0.049 A 
ATOM     50  C   UNL     1      -2.472  13.202 -10.851  1.00  0.00     0.074 A 
ATOM     51  C   UNL     1      -1.686  11.589 -16.931  1.00  0.00     0.029 A 
ATOM     52  N   UNL     1      -2.074  11.575 -14.742  1.00  0.00    -0.354 N 
ATOM     53  N   UNL     1      -2.340  12.784 -12.086  1.00  0.00    -0.248 NA
ATOM     54  C   UNL     1      -2.129  14.618 -10.659  1.00  0.00     0.031 C 
ATOM     55  C   UNL     1      -1.449  12.874 -16.433  1.00  0.00     0.029 A 
ATOM     56  C   UNL     1      -1.717  12.873 -15.074  1.00  0.00     0.049 A 
ATOM     57  H   UNL     1      -2.312  11.269 -13.837  1.00  0.00     0.167 HD
ATOM     58  C   UNL     1      -1.932  13.888 -12.822  1.00  0.00     0.074 A 
ATOM     59  C   UNL     1      -1.849  14.999 -11.897  1.00  0.00     0.031 C 
ATOM     60  C   UNL     1      -1.652  13.973 -14.146  1.00  0.00     0.037 A 
BRANCH  47  61
ATOM     61  C   UNL     1      -2.194   8.621 -17.184  1.00  0.00     0.064 A 
ATOM     62  C   UNL     1      -3.309   8.133 -17.883  1.00  0.00     0.173 A 
ATOM     63  C   UNL     1      -0.927   8.430 -17.756  1.00  0.00     0.173 A 
ATOM     64  F   UNL     1      -4.542   8.281 -17.376  1.00  0.00    -0.203 F 
ATOM     65  C   UNL     1      -3.158   7.455 -19.090  1.00  0.00     0.198 A 
ATOM     66  C   UNL     1      -0.783   7.780 -18.979  1.00  0.00     0.198 A 
ATOM     67  F   UNL     1       0.171   8.884 -17.134  1.00  0.00    -0.203 F 
ATOM     68  F   UNL     1      -4.233   6.954 -19.714  1.00  0.00    -0.200 F 
ATOM     69  C   UNL     1      -1.896   7.285 -19.640  1.00  0.00     0.200 A 
ATOM     70  F   UNL     1       0.436   7.631 -19.517  1.00  0.00    -0.200 F 
ATOM     71  F   UNL     1      -1.753   6.640 -20.806  1.00  0.00    -0.200 F 
ENDBRANCH  47  61
BRANCH  48  72
ATOM     72  C   UNL     1      -3.010  13.113  -8.308  1.00  0.00     0.064 A 
ATOM     73  C   UNL     1      -3.972  14.103  -8.065  1.00  0.00     0.173 A 
ATOM     74  C   UNL     1      -2.133  12.785  -7.265  1.00  0.00     0.173 A 
ATOM     75  F   UNL     1      -4.820  14.466  -9.039  1.00  0.00    -0.203 F 
ATOM     76  C   UNL     1      -4.039  14.756  -6.836  1.00  0.00     0.198 A 
ATOM     77  C   UNL     1      -2.220  13.418  -6.026  1.00  0.00     0.198 A 
ATOM     78  F   UNL     1      -1.197  11.842  -7.444  1.00  0.00    -0.203 F 
ATOM     79  F   UNL     1      -4.937  15.732  -6.647  1.00  0.00    -0.200 F 
ATOM     80  C   UNL     1      -3.167  14.408  -5.816  1.00  0.00     0.200 A 
ATOM     81  F   UNL     1      -1.385  13.069  -5.038  1.00  0.00    -0.200 F 
ATOM     82  F   UNL     1      -3.234  15.034  -4.632  1.00  0.00    -0.200 F 
ENDBRANCH  48  72
BRANCH  60  83
ATOM     83  C   UNL     1      -1.275  15.322 -14.686  1.00  0.00     0.064 A 
ATOM     84  C   UNL     1      -0.038  15.917 -14.394  1.00  0.00     0.173 A 
ATOM     85  C   UNL     1      -2.150  16.012 -15.540  1.00  0.00     0.173 A 
ATOM     86  F   UNL     1       0.827  15.306 -13.571  1.00  0.00    -0.203 F 
ATOM     87  C   UNL     1       0.297  17.163 -14.917  1.00  0.00     0.198 A 
ATOM     88  C   UNL     1      -1.798  17.243 -16.085  1.00  0.00     0.198 A 
ATOM     89  F   UNL     1      -3.342  15.485 -15.855  1.00  0.00    -0.203 F 
ATOM     90  F   UNL     1       1.463  17.735 -14.585  1.00  0.00    -0.200 F 
ATOM     91  C   UNL     1      -0.579  17.821 -15.767  1.00  0.00     0.200 A 
ATOM     92  F   UNL     1      -2.640  17.871 -16.918  1.00  0.00    -0.200 F 
ATOM     93  F   UNL     1      -0.251  19.017 -16.275  1.00  0.00    -0.200 F 
ENDBRANCH  60  83
ENDBRANCH  34  35
ENDBRANCH  26  29
ENDBRANCH  24  25
ENDBRANCH   1  24
TORSDOF 13
