REMARK SMILES Cc1nsc(N(C)C(=O)[C@@H](C)CCC[C@H](C)[NH3+])c1C(=O)NCCCNC(=O)c1ccc(-c2c3nc(c(-c4c(F)c(F)c(F)c(F)c4F)c4ccc([nH]4)c(-c4c(F)c(F)c(F)c(F)c4F)c4nc(c(-c5c(F)c(F)c(F)c(F)c5F)c5ccc2[nH]5)C=C4)C=C3)cc1
REMARK SMILES IDX 1 1 2 2 3 3 4 4 5 5 18 6 19 7 20 8 21 9 22 11 23 12 24 13
REMARK SMILES IDX 25 14 26 15 27 17 28 18 29 19 90 20 30 21 89 22 31 23 32 24
REMARK SMILES IDX 33 25 83 26 34 27 88 28 82 29 84 30 35 31 87 32 81 33 80 34
REMARK SMILES IDX 36 36 68 37 48 38 67 39 49 40 52 41 66 42 85 43 50 44 51 45
REMARK SMILES IDX 65 47 86 48 53 49 37 50 38 51 46 52 39 53 40 54 44 55 47 56
REMARK SMILES IDX 41 57 42 58 45 59 43 60 69 61 70 62 78 63 71 64 72 65 76 66
REMARK SMILES IDX 79 67 73 68 74 69 77 70 75 71 54 72 55 73 63 74 56 75 57 76
REMARK SMILES IDX 61 77 64 78 58 79 59 80 62 81 60 82 6 83 7 84 8 85 9 86
REMARK SMILES IDX 10 87 11 88 12 89 13 90 14 91 15 92 16 93 17 94
REMARK H PARENT 21 10 25 16 84 35 52 46 17 95 17 96 17 97
REMARK Flexibility Score: inf
ROOT
ATOM      1  C   UNL     1      10.024   9.440   7.733  1.00  0.00     0.069 C 
ATOM      2  C   UNL     1       9.744   8.253   6.870  1.00  0.00     0.066 A 
ATOM      3  N   UNL     1       9.678   7.134   7.585  1.00  0.00    -0.195 NA
ATOM      4  S   UNL     1       9.150   5.919   6.654  1.00  0.00    -0.017 S 
ATOM      5  C   UNL     1       9.088   6.783   5.173  1.00  0.00     0.131 A 
ATOM      6  C   UNL     1       9.484   8.119   5.421  1.00  0.00     0.097 A 
ENDROOT
BRANCH   6   7
ATOM      7  C   UNL     1       9.422   9.143   4.362  1.00  0.00     0.256 C 
ATOM      8  O   UNL     1       8.475   9.179   3.570  1.00  0.00    -0.269 OA
ATOM      9  N   UNL     1      10.432  10.063   4.131  1.00  0.00    -0.352 N 
ATOM     10  H   UNL     1      10.680  10.199   3.188  1.00  0.00     0.163 HD
BRANCH   9  11
ATOM     11  C   UNL     1      11.168  10.846   5.091  1.00  0.00     0.118 C 
BRANCH  11  12
ATOM     12  C   UNL     1      12.684  10.850   5.008  1.00  0.00     0.042 C 
BRANCH  12  13
ATOM     13  C   UNL     1      13.197  11.916   4.070  1.00  0.00     0.118 C 
BRANCH  13  14
ATOM     14  N   UNL     1      12.847  13.289   4.472  1.00  0.00    -0.352 N 
ATOM     15  C   UNL     1      13.162  14.472   3.811  1.00  0.00     0.251 C 
ATOM     16  H   UNL     1      12.331  13.380   5.305  1.00  0.00     0.163 HD
ATOM     17  O   UNL     1      13.072  15.558   4.347  1.00  0.00    -0.269 OA
BRANCH  15  18
ATOM     18  C   UNL     1      13.619  14.345   2.417  1.00  0.00     0.039 A 
ATOM     19  C   UNL     1      14.802  14.929   1.969  1.00  0.00     0.014 A 
ATOM     20  C   UNL     1      12.918  13.437   1.636  1.00  0.00     0.014 A 
ATOM     21  C   UNL     1      15.333  14.479   0.764  1.00  0.00     0.010 A 
ATOM     22  C   UNL     1      13.580  12.812   0.619  1.00  0.00     0.010 A 
ATOM     23  C   UNL     1      14.740  13.376   0.119  1.00  0.00    -0.014 A 
BRANCH  23  24
ATOM     24  C   UNL     1      15.353  12.750  -1.043  1.00  0.00     0.031 A 
ATOM     25  C   UNL     1      16.808  12.503  -0.912  1.00  0.00     0.074 A 
ATOM     26  C   UNL     1      14.658  12.316  -2.118  1.00  0.00     0.049 A 
ATOM     27  N   UNL     1      17.754  13.237  -1.392  1.00  0.00    -0.248 NA
ATOM     28  C   UNL     1      17.278  11.435  -0.018  1.00  0.00     0.031 C 
ATOM     29  C   UNL     1      13.205  12.191  -2.305  1.00  0.00     0.029 A 
ATOM     30  N   UNL     1      15.146  11.843  -3.296  1.00  0.00    -0.354 N 
ATOM     31  C   UNL     1      18.944  12.610  -1.047  1.00  0.00     0.074 A 
ATOM     32  C   UNL     1      18.601  11.623  -0.056  1.00  0.00     0.031 C 
ATOM     33  C   UNL     1      12.942  11.485  -3.427  1.00  0.00     0.029 A 
ATOM     34  C   UNL     1      14.188  11.297  -4.139  1.00  0.00     0.049 A 
ATOM     35  H   UNL     1      16.101  11.884  -3.531  1.00  0.00     0.167 HD
ATOM     36  C   UNL     1      20.057  12.797  -1.811  1.00  0.00     0.037 A 
ATOM     37  C   UNL     1      14.398  10.761  -5.364  1.00  0.00     0.037 A 
ATOM     38  C   UNL     1      19.869  13.909  -2.714  1.00  0.00     0.049 A 
ATOM     39  C   UNL     1      15.671  11.331  -5.862  1.00  0.00     0.074 A 
ATOM     40  C   UNL     1      19.682  15.270  -2.581  1.00  0.00     0.029 A 
ATOM     41  N   UNL     1      19.444  13.586  -3.978  1.00  0.00    -0.354 N 
ATOM     42  N   UNL     1      15.834  12.589  -6.162  1.00  0.00    -0.248 NA
ATOM     43  C   UNL     1      16.892  10.582  -5.622  1.00  0.00     0.031 C 
ATOM     44  C   UNL     1      18.768  15.627  -3.620  1.00  0.00     0.029 A 
ATOM     45  C   UNL     1      18.494  14.486  -4.378  1.00  0.00     0.049 A 
ATOM     46  H   UNL     1      19.771  12.827  -4.513  1.00  0.00     0.167 HD
ATOM     47  C   UNL     1      17.113  12.892  -5.720  1.00  0.00     0.074 A 
ATOM     48  C   UNL     1      17.756  11.596  -5.522  1.00  0.00     0.031 C 
ATOM     49  C   UNL     1      17.420  14.153  -5.291  1.00  0.00     0.037 A 
BRANCH  36  50
ATOM     50  C   UNL     1      21.110  11.744  -2.078  1.00  0.00     0.064 A 
ATOM     51  C   UNL     1      22.248  12.100  -2.833  1.00  0.00     0.173 A 
ATOM     52  C   UNL     1      20.901  10.358  -1.917  1.00  0.00     0.173 A 
ATOM     53  F   UNL     1      22.539  13.389  -3.064  1.00  0.00    -0.203 F 
ATOM     54  C   UNL     1      23.056  11.142  -3.452  1.00  0.00     0.198 A 
ATOM     55  C   UNL     1      21.739   9.405  -2.494  1.00  0.00     0.198 A 
ATOM     56  F   UNL     1      19.822   9.863  -1.301  1.00  0.00    -0.203 F 
ATOM     57  F   UNL     1      24.044  11.532  -4.269  1.00  0.00    -0.200 F 
ATOM     58  C   UNL     1      22.795   9.795  -3.289  1.00  0.00     0.200 A 
ATOM     59  F   UNL     1      21.456   8.103  -2.342  1.00  0.00    -0.200 F 
ATOM     60  F   UNL     1      23.525   8.876  -3.934  1.00  0.00    -0.200 F 
ENDBRANCH  36  50
BRANCH  37  61
ATOM     61  C   UNL     1      13.777   9.553  -5.951  1.00  0.00     0.064 A 
ATOM     62  C   UNL     1      13.901   9.275  -7.321  1.00  0.00     0.173 A 
ATOM     63  C   UNL     1      13.326   8.500  -5.132  1.00  0.00     0.173 A 
ATOM     64  F   UNL     1      14.363  10.215  -8.159  1.00  0.00    -0.203 F 
ATOM     65  C   UNL     1      13.634   8.003  -7.837  1.00  0.00     0.198 A 
ATOM     66  C   UNL     1      13.058   7.231  -5.649  1.00  0.00     0.198 A 
ATOM     67  F   UNL     1      13.239   8.653  -3.803  1.00  0.00    -0.203 F 
ATOM     68  F   UNL     1      13.836   7.754  -9.138  1.00  0.00    -0.200 F 
ATOM     69  C   UNL     1      13.228   6.979  -6.998  1.00  0.00     0.200 A 
ATOM     70  F   UNL     1      12.705   6.237  -4.821  1.00  0.00    -0.200 F 
ATOM     71  F   UNL     1      13.045   5.741  -7.479  1.00  0.00    -0.200 F 
ENDBRANCH  37  61
BRANCH  49  72
ATOM     72  C   UNL     1      16.464  15.258  -5.654  1.00  0.00     0.064 A 
ATOM     73  C   UNL     1      15.136  15.354  -5.201  1.00  0.00     0.173 A 
ATOM     74  C   UNL     1      16.960  16.326  -6.415  1.00  0.00     0.173 A 
ATOM     75  F   UNL     1      14.610  14.420  -4.400  1.00  0.00    -0.203 F 
ATOM     76  C   UNL     1      14.336  16.448  -5.532  1.00  0.00     0.198 A 
ATOM     77  C   UNL     1      16.171  17.434  -6.712  1.00  0.00     0.198 A 
ATOM     78  F   UNL     1      18.234  16.313  -6.838  1.00  0.00    -0.203 F 
ATOM     79  F   UNL     1      13.066  16.508  -5.102  1.00  0.00    -0.200 F 
ATOM     80  C   UNL     1      14.857  17.490  -6.281  1.00  0.00     0.200 A 
ATOM     81  F   UNL     1      16.696  18.458  -7.399  1.00  0.00    -0.200 F 
ATOM     82  F   UNL     1      14.100  18.558  -6.569  1.00  0.00    -0.200 F 
ENDBRANCH  49  72
ENDBRANCH  23  24
ENDBRANCH  15  18
ENDBRANCH  13  14
ENDBRANCH  12  13
ENDBRANCH  11  12
ENDBRANCH   9  11
ENDBRANCH   6   7
BRANCH   5  83
ATOM     83  N   UNL     1       8.656   6.032   4.036  1.00  0.00    -0.305 N 
ATOM     84  C   UNL     1       7.877   4.798   4.200  1.00  0.00     0.154 C 
BRANCH  83  85
ATOM     85  C   UNL     1       9.074   6.457   2.771  1.00  0.00     0.230 C 
ATOM     86  O   UNL     1      10.132   7.084   2.613  1.00  0.00    -0.274 OA
BRANCH  85  87
ATOM     87  C   UNL     1       8.296   6.050   1.490  1.00  0.00     0.076 C 
ATOM     88  C   UNL     1       8.878   4.768   0.878  1.00  0.00     0.018 C 
BRANCH  87  89
ATOM     89  C   UNL     1       6.759   5.981   1.530  1.00  0.00     0.013 C 
BRANCH  89  90
ATOM     90  C   UNL     1       6.038   7.314   1.732  1.00  0.00     0.007 C 
BRANCH  90  91
ATOM     91  C   UNL     1       6.095   8.293   0.555  1.00  0.00     0.064 C 
BRANCH  91  92
ATOM     92  C   UNL     1       5.378   7.934  -0.771  1.00  0.00     0.177 C 
ATOM     93  C   UNL     1       4.526   6.667  -0.817  1.00  0.00     0.075 C 
BRANCH  92  94
ATOM     94  N   UNL     1       6.345   7.877  -1.875  1.00  0.00    -0.355 N 
ATOM     95  H   UNL     1       6.987   7.099  -1.725  1.00  0.00     0.344 HD
ATOM     96  H   UNL     1       6.872   8.750  -1.909  1.00  0.00     0.344 HD
ATOM     97  H   UNL     1       5.848   7.745  -2.756  1.00  0.00     0.344 HD
ENDBRANCH  92  94
ENDBRANCH  91  92
ENDBRANCH  90  91
ENDBRANCH  89  90
ENDBRANCH  87  89
ENDBRANCH  85  87
ENDBRANCH  83  85
ENDBRANCH   5  83
TORSDOF 18
