REMARK SMILES Cc1nsc(NC[C@@H]2C[C@H]3CC[C@@H]2C3)c1C(=O)NCCCNC(=O)c1ccc(-c2c3nc(c(-c4c(F)c(F)c(F)c(F)c4F)c4ccc([nH]4)c(-c4c(F)c(F)c(F)c(F)c4F)c4nc(c(-c5c(F)c(F)c(F)c(F)c5F)c5ccc2[nH]5)C=C4)C=C3)cc1
REMARK SMILES IDX 19 1 18 2 16 3 17 4 15 6 1 7 2 8 3 9 4 10 5 11 6 12 7 14
REMARK SMILES IDX 8 15 9 16 13 17 10 18 12 19 14 20 11 21 20 22 21 23 22 24
REMARK SMILES IDX 23 25 24 27 25 28 26 29 87 30 27 31 86 32 28 33 29 34 30 35
REMARK SMILES IDX 80 36 31 37 85 38 79 39 81 40 32 41 84 42 78 43 77 44 33 46
REMARK SMILES IDX 65 47 45 48 64 49 46 50 49 51 63 52 82 53 47 54 48 55 62 57
REMARK SMILES IDX 83 58 50 59 34 60 35 61 43 62 36 63 37 64 41 65 44 66 38 67
REMARK SMILES IDX 39 68 42 69 40 70 66 71 67 72 75 73 68 74 69 75 73 76 76 77
REMARK SMILES IDX 70 78 71 79 74 80 72 81 51 82 52 83 60 84 53 85 54 86 58 87
REMARK SMILES IDX 61 88 55 89 56 90 59 91 57 92
REMARK H PARENT 18 5 6 13 22 26 81 45 49 56
REMARK Flexibility Score: inf
ROOT
ATOM      1  C   UNL     1       2.142   0.792  -1.412  1.00  0.00     0.118 C 
ENDROOT
BRANCH   1   2
ATOM      2  N   UNL     1       1.818   2.168  -1.126  1.00  0.00    -0.352 N 
ATOM      3  C   UNL     1       1.220   2.846  -0.100  1.00  0.00     0.256 C 
ATOM      4  O   UNL     1       1.246   4.072  -0.296  1.00  0.00    -0.269 OA
ATOM      5  H   UNL     1       2.097   2.771  -1.852  1.00  0.00     0.163 HD
BRANCH   3   6
ATOM      6  C   UNL     1       0.618   2.285   1.133  1.00  0.00     0.097 A 
ATOM      7  C   UNL     1       0.385  -0.390   0.938  1.00  0.00     0.069 C 
ATOM      8  C   UNL     1       0.277   0.937   1.594  1.00  0.00     0.066 A 
ATOM      9  N   UNL     1      -0.258   0.844   2.813  1.00  0.00    -0.195 NA
ATOM     10  S   UNL     1      -0.419   2.324   3.468  1.00  0.00    -0.018 S 
ATOM     11  C   UNL     1       0.223   3.192   2.142  1.00  0.00     0.122 A 
BRANCH  11  12
ATOM     12  N   UNL     1       0.316   4.551   2.091  1.00  0.00    -0.375 N 
ATOM     13  H   UNL     1       0.587   4.943   1.230  1.00  0.00     0.161 HD
BRANCH  12  14
ATOM     14  C   UNL     1       0.058   5.475   3.171  1.00  0.00     0.117 C 
BRANCH  14  15
ATOM     15  C   UNL     1       1.350   6.032   3.802  1.00  0.00     0.012 C 
ATOM     16  C   UNL     1       1.325   7.582   3.873  1.00  0.00     0.009 C 
ATOM     17  C   UNL     1       2.689   5.769   3.056  1.00  0.00    -0.006 C 
ATOM     18  C   UNL     1       2.660   7.988   3.228  1.00  0.00    -0.011 C 
ATOM     19  C   UNL     1       3.854   6.064   4.022  1.00  0.00     0.004 C 
ATOM     20  C   UNL     1       2.786   6.961   2.104  1.00  0.00     0.007 C 
ATOM     21  C   UNL     1       3.808   7.590   4.167  1.00  0.00     0.004 C 
ENDBRANCH  14  15
ENDBRANCH  12  14
ENDBRANCH  11  12
ENDBRANCH   3   6
ENDBRANCH   1   2
BRANCH   1  22
ATOM     22  C   UNL     1       1.025   0.089  -2.191  1.00  0.00     0.042 C 
BRANCH  22  23
ATOM     23  C   UNL     1       1.236   0.123  -3.693  1.00  0.00     0.118 C 
BRANCH  23  24
ATOM     24  N   UNL     1       2.375  -0.706  -4.099  1.00  0.00    -0.352 N 
ATOM     25  C   UNL     1       3.026  -0.764  -5.319  1.00  0.00     0.251 C 
ATOM     26  H   UNL     1       2.728  -1.307  -3.404  1.00  0.00     0.163 HD
ATOM     27  O   UNL     1       3.724  -1.712  -5.617  1.00  0.00    -0.269 OA
BRANCH  25  28
ATOM     28  C   UNL     1       2.835   0.355  -6.255  1.00  0.00     0.039 A 
ATOM     29  C   UNL     1       2.603   0.133  -7.613  1.00  0.00     0.014 A 
ATOM     30  C   UNL     1       2.791   1.636  -5.719  1.00  0.00     0.014 A 
ATOM     31  C   UNL     1       2.217   1.212  -8.402  1.00  0.00     0.010 A 
ATOM     32  C   UNL     1       2.204   2.638  -6.440  1.00  0.00     0.010 A 
ATOM     33  C   UNL     1       1.979   2.458  -7.796  1.00  0.00    -0.014 A 
BRANCH  33  34
ATOM     34  C   UNL     1       1.403   3.562  -8.554  1.00  0.00     0.031 A 
ATOM     35  C   UNL     1       0.170   3.209  -9.297  1.00  0.00     0.074 A 
ATOM     36  C   UNL     1       1.827   4.842  -8.460  1.00  0.00     0.049 A 
ATOM     37  N   UNL     1       0.065   2.990 -10.564  1.00  0.00    -0.248 NA
ATOM     38  C   UNL     1      -1.056   2.914  -8.540  1.00  0.00     0.031 C 
ATOM     39  C   UNL     1       2.789   5.410  -7.505  1.00  0.00     0.029 A 
ATOM     40  N   UNL     1       1.417   5.941  -9.158  1.00  0.00    -0.354 N 
ATOM     41  C   UNL     1      -1.292   2.788 -10.800  1.00  0.00     0.074 A 
ATOM     42  C   UNL     1      -1.886   2.532  -9.516  1.00  0.00     0.031 C 
ATOM     43  C   UNL     1       2.713   6.757  -7.522  1.00  0.00     0.029 A 
ATOM     44  C   UNL     1       1.870   7.146  -8.634  1.00  0.00     0.049 A 
ATOM     45  H   UNL     1       0.851   5.886  -9.961  1.00  0.00     0.167 HD
ATOM     46  C   UNL     1      -1.835   3.184 -11.985  1.00  0.00     0.037 A 
ATOM     47  C   UNL     1       1.610   8.389  -9.099  1.00  0.00     0.037 A 
ATOM     48  C   UNL     1      -0.794   3.521 -12.926  1.00  0.00     0.049 A 
ATOM     49  C   UNL     1       1.237   8.264 -10.524  1.00  0.00     0.074 A 
ATOM     50  C   UNL     1       0.073   2.851 -13.759  1.00  0.00     0.029 A 
ATOM     51  N   UNL     1      -0.301   4.787 -12.759  1.00  0.00    -0.354 N 
ATOM     52  N   UNL     1       2.069   7.876 -11.450  1.00  0.00    -0.248 NA
ATOM     53  C   UNL     1      -0.173   8.239 -10.895  1.00  0.00     0.031 C 
ATOM     54  C   UNL     1       1.172   3.734 -13.992  1.00  0.00     0.029 A 
ATOM     55  C   UNL     1       0.934   4.933 -13.327  1.00  0.00     0.049 A 
ATOM     56  H   UNL     1      -0.779   5.506 -12.286  1.00  0.00     0.167 HD
ATOM     57  C   UNL     1       1.281   7.165 -12.331  1.00  0.00     0.074 A 
ATOM     58  C   UNL     1      -0.087   7.576 -12.051  1.00  0.00     0.031 C 
ATOM     59  C   UNL     1       1.763   6.058 -12.961  1.00  0.00     0.037 A 
BRANCH  46  60
ATOM     60  C   UNL     1      -3.224   3.766 -12.169  1.00  0.00     0.064 A 
ATOM     61  C   UNL     1      -3.664   4.061 -13.479  1.00  0.00     0.173 A 
ATOM     62  C   UNL     1      -3.991   4.341 -11.134  1.00  0.00     0.173 A 
ATOM     63  F   UNL     1      -3.007   3.580 -14.545  1.00  0.00    -0.203 F 
ATOM     64  C   UNL     1      -4.734   4.927 -13.727  1.00  0.00     0.198 A 
ATOM     65  C   UNL     1      -5.090   5.164 -11.385  1.00  0.00     0.198 A 
ATOM     66  F   UNL     1      -3.651   4.232  -9.846  1.00  0.00    -0.203 F 
ATOM     67  F   UNL     1      -5.034   5.273 -14.986  1.00  0.00    -0.200 F 
ATOM     68  C   UNL     1      -5.442   5.484 -12.679  1.00  0.00     0.200 A 
ATOM     69  F   UNL     1      -5.749   5.712 -10.354  1.00  0.00    -0.200 F 
ATOM     70  F   UNL     1      -6.428   6.360 -12.909  1.00  0.00    -0.200 F 
ENDBRANCH  46  60
BRANCH  47  71
ATOM     71  C   UNL     1       1.475   9.655  -8.352  1.00  0.00     0.064 A 
ATOM     72  C   UNL     1       1.633  10.894  -8.991  1.00  0.00     0.173 A 
ATOM     73  C   UNL     1       0.888   9.668  -7.073  1.00  0.00     0.173 A 
ATOM     74  F   UNL     1       2.159  10.955 -10.222  1.00  0.00    -0.203 F 
ATOM     75  C   UNL     1       1.180  12.078  -8.404  1.00  0.00     0.198 A 
ATOM     76  C   UNL     1       0.437  10.852  -6.488  1.00  0.00     0.198 A 
ATOM     77  F   UNL     1       0.650   8.522  -6.419  1.00  0.00    -0.203 F 
ATOM     78  F   UNL     1       1.280  13.235  -9.073  1.00  0.00    -0.200 F 
ATOM     79  C   UNL     1       0.567  12.054  -7.162  1.00  0.00     0.200 A 
ATOM     80  F   UNL     1      -0.188  10.812  -5.303  1.00  0.00    -0.200 F 
ATOM     81  F   UNL     1       0.061  13.177  -6.635  1.00  0.00    -0.200 F 
ENDBRANCH  47  71
BRANCH  59  82
ATOM     82  C   UNL     1       3.244   5.954 -13.140  1.00  0.00     0.064 A 
ATOM     83  C   UNL     1       4.167   5.784 -12.096  1.00  0.00     0.173 A 
ATOM     84  C   UNL     1       3.743   5.980 -14.449  1.00  0.00     0.173 A 
ATOM     85  F   UNL     1       3.759   5.683 -10.824  1.00  0.00    -0.203 F 
ATOM     86  C   UNL     1       5.534   5.683 -12.355  1.00  0.00     0.198 A 
ATOM     87  C   UNL     1       5.102   5.845 -14.707  1.00  0.00     0.198 A 
ATOM     88  F   UNL     1       2.900   6.108 -15.486  1.00  0.00    -0.203 F 
ATOM     89  F   UNL     1       6.402   5.542 -11.343  1.00  0.00    -0.200 F 
ATOM     90  C   UNL     1       5.998   5.708 -13.661  1.00  0.00     0.200 A 
ATOM     91  F   UNL     1       5.540   5.834 -15.974  1.00  0.00    -0.200 F 
ATOM     92  F   UNL     1       7.309   5.583 -13.913  1.00  0.00    -0.200 F 
ENDBRANCH  59  82
ENDBRANCH  33  34
ENDBRANCH  25  28
ENDBRANCH  23  24
ENDBRANCH  22  23
ENDBRANCH   1  22
TORSDOF 13
