REMARK SMILES CC(C)[C@H](NC(=O)[C@H](C)NC(=O)CNC(=O)OCc1ccccc1)C(=O)NCCCNC(=O)c1ccc(-c2c3nc(c(-c4c(F)c(F)c(F)c(F)c4F)c4ccc([nH]4)c(-c4c(F)c(F)c(F)c(F)c4F)c4nc(c(-c5c(F)c(F)c(F)c(F)c5F)c5ccc2[nH]5)C=C4)C=C3)cc1
REMARK SMILES IDX 4 1 2 2 1 3 3 4 25 5 26 6 27 7 28 9 29 10 30 11 31 12 32 13
REMARK SMILES IDX 33 15 34 16 35 17 96 18 36 19 95 20 37 21 38 22 39 23 89 24
REMARK SMILES IDX 40 25 94 26 88 27 90 28 41 29 93 30 87 31 86 32 42 34 74 35
REMARK SMILES IDX 54 36 73 37 55 38 58 39 72 40 91 41 56 42 57 43 71 45 92 46
REMARK SMILES IDX 59 47 43 48 44 49 52 50 45 51 46 52 50 53 53 54 47 55 48 56
REMARK SMILES IDX 51 57 49 58 75 59 76 60 84 61 77 62 78 63 82 64 85 65 79 66
REMARK SMILES IDX 80 67 83 68 81 69 60 70 61 71 69 72 62 73 63 74 67 75 70 76
REMARK SMILES IDX 64 77 65 78 68 79 66 80 5 81 6 82 7 84 8 85 9 86 10 87 11 88
REMARK SMILES IDX 12 90 13 91 14 92 15 93 16 95 17 96 18 97 19 98 20 99 24 100
REMARK SMILES IDX 21 101 23 102 22 103
REMARK H PARENT 27 8 31 14 90 33 58 44 5 83 10 89 14 94
REMARK Flexibility Score: inf
ROOT
ATOM      1  C   UNL     1      -0.972  -0.404  -2.871  1.00  0.00     0.173 C 
ENDROOT
BRANCH   1   2
ATOM      2  C   UNL     1      -0.260   0.763  -3.612  1.00  0.00     0.015 C 
ATOM      3  C   UNL     1      -1.082   1.552  -4.630  1.00  0.00     0.010 C 
ATOM      4  C   UNL     1       0.319   1.757  -2.595  1.00  0.00     0.010 C 
ENDBRANCH   1   2
BRANCH   1   5
ATOM      5  C   UNL     1      -2.366  -0.059  -2.311  1.00  0.00     0.242 C 
ATOM      6  O   UNL     1      -2.491   0.345  -1.151  1.00  0.00    -0.273 OA
ATOM      7  N   UNL     1      -3.491  -0.097  -3.076  1.00  0.00    -0.354 N 
ATOM      8  H   UNL     1      -4.330  -0.015  -2.567  1.00  0.00     0.163 HD
BRANCH   7   9
ATOM      9  C   UNL     1      -3.674  -0.235  -4.510  1.00  0.00     0.117 C 
BRANCH   9  10
ATOM     10  C   UNL     1      -4.721  -1.272  -4.866  1.00  0.00     0.042 C 
BRANCH  10  11
ATOM     11  C   UNL     1      -6.107  -0.916  -4.356  1.00  0.00     0.118 C 
BRANCH  11  12
ATOM     12  N   UNL     1      -6.585   0.363  -4.871  1.00  0.00    -0.352 N 
ATOM     13  C   UNL     1      -7.610   0.639  -5.743  1.00  0.00     0.251 C 
ATOM     14  H   UNL     1      -6.097   1.152  -4.542  1.00  0.00     0.163 HD
ATOM     15  O   UNL     1      -7.726   1.762  -6.222  1.00  0.00    -0.269 OA
BRANCH  13  16
ATOM     16  C   UNL     1      -8.555  -0.429  -6.117  1.00  0.00     0.039 A 
ATOM     17  C   UNL     1      -8.948  -0.562  -7.450  1.00  0.00     0.014 A 
ATOM     18  C   UNL     1      -9.031  -1.316  -5.150  1.00  0.00     0.014 A 
ATOM     19  C   UNL     1      -9.751  -1.640  -7.824  1.00  0.00     0.010 A 
ATOM     20  C   UNL     1      -9.728  -2.448  -5.541  1.00  0.00     0.010 A 
ATOM     21  C   UNL     1     -10.105  -2.619  -6.880  1.00  0.00    -0.014 A 
BRANCH  21  22
ATOM     22  C   UNL     1     -10.883  -3.824  -7.257  1.00  0.00     0.031 A 
ATOM     23  C   UNL     1     -12.214  -4.084  -6.606  1.00  0.00     0.074 A 
ATOM     24  C   UNL     1     -10.353  -4.724  -8.107  1.00  0.00     0.049 A 
ATOM     25  N   UNL     1     -12.993  -5.131  -6.700  1.00  0.00    -0.248 NA
ATOM     26  C   UNL     1     -12.718  -3.045  -5.691  1.00  0.00     0.031 C 
ATOM     27  C   UNL     1      -9.042  -4.614  -8.752  1.00  0.00     0.029 A 
ATOM     28  N   UNL     1     -10.846  -5.920  -8.565  1.00  0.00    -0.354 N 
ATOM     29  C   UNL     1     -14.055  -4.888  -5.840  1.00  0.00     0.074 A 
ATOM     30  C   UNL     1     -13.795  -3.627  -5.186  1.00  0.00     0.031 C 
ATOM     31  C   UNL     1      -8.847  -5.683  -9.540  1.00  0.00     0.029 A 
ATOM     32  C   UNL     1      -9.997  -6.573  -9.425  1.00  0.00     0.049 A 
ATOM     33  H   UNL     1     -11.725  -6.276  -8.301  1.00  0.00     0.167 HD
ATOM     34  C   UNL     1     -15.165  -5.637  -5.638  1.00  0.00     0.037 A 
ATOM     35  C   UNL     1     -10.132  -7.761 -10.044  1.00  0.00     0.037 A 
ATOM     36  C   UNL     1     -15.441  -6.867  -6.330  1.00  0.00     0.049 A 
ATOM     37  C   UNL     1     -11.386  -8.562  -9.819  1.00  0.00     0.074 A 
ATOM     38  C   UNL     1     -16.569  -7.663  -6.257  1.00  0.00     0.029 A 
ATOM     39  N   UNL     1     -14.576  -7.475  -7.229  1.00  0.00    -0.354 N 
ATOM     40  N   UNL     1     -12.419  -8.287  -9.060  1.00  0.00    -0.248 NA
ATOM     41  C   UNL     1     -11.496  -9.836 -10.543  1.00  0.00     0.031 C 
ATOM     42  C   UNL     1     -16.371  -8.776  -7.081  1.00  0.00     0.029 A 
ATOM     43  C   UNL     1     -15.140  -8.647  -7.705  1.00  0.00     0.049 A 
ATOM     44  H   UNL     1     -13.694  -7.125  -7.490  1.00  0.00     0.167 HD
ATOM     45  C   UNL     1     -13.312  -9.334  -9.237  1.00  0.00     0.074 A 
ATOM     46  C   UNL     1     -12.706 -10.243 -10.187  1.00  0.00     0.031 C 
ATOM     47  C   UNL     1     -14.524  -9.529  -8.662  1.00  0.00     0.037 A 
BRANCH  34  48
ATOM     48  C   UNL     1     -16.170  -5.138  -4.641  1.00  0.00     0.064 A 
ATOM     49  C   UNL     1     -16.948  -3.997  -4.889  1.00  0.00     0.173 A 
ATOM     50  C   UNL     1     -16.385  -5.830  -3.440  1.00  0.00     0.173 A 
ATOM     51  F   UNL     1     -16.771  -3.290  -6.015  1.00  0.00    -0.203 F 
ATOM     52  C   UNL     1     -17.884  -3.551  -3.959  1.00  0.00     0.198 A 
ATOM     53  C   UNL     1     -17.345  -5.400  -2.527  1.00  0.00     0.198 A 
ATOM     54  F   UNL     1     -15.671  -6.930  -3.155  1.00  0.00    -0.203 F 
ATOM     55  F   UNL     1     -18.579  -2.430  -4.196  1.00  0.00    -0.200 F 
ATOM     56  C   UNL     1     -18.087  -4.258  -2.784  1.00  0.00     0.200 A 
ATOM     57  F   UNL     1     -17.549  -6.091  -1.397  1.00  0.00    -0.200 F 
ATOM     58  F   UNL     1     -18.996  -3.833  -1.894  1.00  0.00    -0.200 F 
ENDBRANCH  34  48
BRANCH  35  59
ATOM     59  C   UNL     1      -9.065  -8.255 -10.954  1.00  0.00     0.064 A 
ATOM     60  C   UNL     1      -9.282  -8.338 -12.337  1.00  0.00     0.173 A 
ATOM     61  C   UNL     1      -7.816  -8.665 -10.465  1.00  0.00     0.173 A 
ATOM     62  F   UNL     1     -10.467  -7.975 -12.850  1.00  0.00    -0.203 F 
ATOM     63  C   UNL     1      -8.302  -8.837 -13.192  1.00  0.00     0.198 A 
ATOM     64  C   UNL     1      -6.825  -9.136 -11.325  1.00  0.00     0.198 A 
ATOM     65  F   UNL     1      -7.554  -8.598  -9.152  1.00  0.00    -0.203 F 
ATOM     66  F   UNL     1      -8.556  -8.953 -14.502  1.00  0.00    -0.200 F 
ATOM     67  C   UNL     1      -7.073  -9.231 -12.686  1.00  0.00     0.200 A 
ATOM     68  F   UNL     1      -5.633  -9.501 -10.834  1.00  0.00    -0.200 F 
ATOM     69  F   UNL     1      -6.130  -9.710 -13.509  1.00  0.00    -0.200 F 
ENDBRANCH  35  59
BRANCH  47  70
ATOM     70  C   UNL     1     -15.293 -10.749  -9.075  1.00  0.00     0.064 A 
ATOM     71  C   UNL     1     -14.910 -12.034  -8.662  1.00  0.00     0.173 A 
ATOM     72  C   UNL     1     -16.452 -10.625  -9.855  1.00  0.00     0.173 A 
ATOM     73  F   UNL     1     -13.801 -12.205  -7.928  1.00  0.00    -0.203 F 
ATOM     74  C   UNL     1     -15.649 -13.153  -9.037  1.00  0.00     0.198 A 
ATOM     75  C   UNL     1     -17.205 -11.743 -10.202  1.00  0.00     0.198 A 
ATOM     76  F   UNL     1     -16.864  -9.417 -10.269  1.00  0.00    -0.203 F 
ATOM     77  F   UNL     1     -15.240 -14.375  -8.670  1.00  0.00    -0.200 F 
ATOM     78  C   UNL     1     -16.799 -13.006  -9.798  1.00  0.00     0.200 A 
ATOM     79  F   UNL     1     -18.324 -11.598 -10.925  1.00  0.00    -0.200 F 
ATOM     80  F   UNL     1     -17.513 -14.084 -10.149  1.00  0.00    -0.200 F 
ENDBRANCH  47  70
ENDBRANCH  21  22
ENDBRANCH  13  16
ENDBRANCH  11  12
ENDBRANCH  10  11
ENDBRANCH   9  10
ENDBRANCH   7   9
ENDBRANCH   1   5
BRANCH   1  81
ATOM     81  N   UNL     1      -1.013  -1.660  -3.624  1.00  0.00    -0.342 N 
ATOM     82  C   UNL     1      -0.182  -2.732  -3.632  1.00  0.00     0.242 C 
ATOM     83  H   UNL     1      -1.782  -1.740  -4.233  1.00  0.00     0.164 HD
ATOM     84  O   UNL     1      -0.616  -3.751  -4.184  1.00  0.00    -0.273 OA
BRANCH  82  85
ATOM     85  C   UNL     1       1.143  -2.783  -2.851  1.00  0.00     0.168 C 
ATOM     86  C   UNL     1       0.899  -3.200  -1.406  1.00  0.00     0.041 C 
BRANCH  85  87
ATOM     87  N   UNL     1       1.946  -1.566  -2.912  1.00  0.00    -0.343 N 
ATOM     88  C   UNL     1       3.101  -1.328  -3.598  1.00  0.00     0.240 C 
ATOM     89  H   UNL     1       1.606  -0.808  -2.383  1.00  0.00     0.164 HD
ATOM     90  O   UNL     1       3.432  -0.155  -3.784  1.00  0.00    -0.273 OA
BRANCH  88  91
ATOM     91  C   UNL     1       3.927  -2.489  -4.150  1.00  0.00     0.219 C 
BRANCH  91  92
ATOM     92  N   UNL     1       4.227  -3.405  -3.063  1.00  0.00    -0.312 N 
ATOM     93  C   UNL     1       3.852  -4.710  -2.990  1.00  0.00     0.407 C 
ATOM     94  H   UNL     1       4.751  -3.048  -2.309  1.00  0.00     0.167 HD
ATOM     95  O   UNL     1       3.885  -5.324  -1.935  1.00  0.00    -0.225 OA
BRANCH  93  96
ATOM     96  O   UNL     1       3.432  -5.193  -4.184  1.00  0.00    -0.445 OA
BRANCH  96  97
ATOM     97  C   UNL     1       2.983  -6.554  -4.180  1.00  0.00     0.270 C 
BRANCH  97  98
ATOM     98  C   UNL     1       4.106  -7.565  -4.132  1.00  0.00    -0.011 A 
ATOM     99  C   UNL     1       3.790  -8.923  -3.987  1.00  0.00     0.007 A 
ATOM    100  C   UNL     1       5.457  -7.192  -4.199  1.00  0.00     0.007 A 
ATOM    101  C   UNL     1       4.802  -9.877  -3.866  1.00  0.00     0.000 A 
ATOM    102  C   UNL     1       6.466  -8.143  -4.059  1.00  0.00     0.000 A 
ATOM    103  C   UNL     1       6.139  -9.484  -3.887  1.00  0.00     0.000 A 
ENDBRANCH  97  98
ENDBRANCH  96  97
ENDBRANCH  93  96
ENDBRANCH  91  92
ENDBRANCH  88  91
ENDBRANCH  85  87
ENDBRANCH  82  85
ENDBRANCH   1  81
TORSDOF 19
