REMARK SMILES COCCC(=O)N1[C@@H](C(=O)NCCCNC(=O)c2ccc(-c3c4nc(c(-c5c(F)c(F)c(F)c(F)c5F)c5ccc([nH]5)c(-c5c(F)c(F)c(F)c(F)c5F)c5nc(c(-c6c(F)c(F)c(F)c(F)c6F)c6ccc3[nH]6)C=C5)C=C4)cc2)CC[C@H]2CCCC[C@@H]21
REMARK SMILES IDX 12 1 11 2 9 3 10 4 8 6 7 7 88 8 81 9 83 10 87 11 82 12 84 13
REMARK SMILES IDX 86 14 85 15 5 16 6 17 4 18 3 19 2 20 1 21 13 22 14 23 15 24
REMARK SMILES IDX 16 25 17 27 18 28 19 29 80 30 20 31 79 32 21 33 22 34 23 35
REMARK SMILES IDX 73 36 24 37 78 38 72 39 74 40 25 41 77 42 71 43 70 44 26 46
REMARK SMILES IDX 58 47 38 48 57 49 39 50 42 51 56 52 75 53 40 54 41 55 55 57
REMARK SMILES IDX 76 58 43 59 27 60 28 61 36 62 29 63 30 64 34 65 37 66 31 67
REMARK SMILES IDX 32 68 35 69 33 70 59 71 60 72 68 73 61 74 62 75 66 76 69 77
REMARK SMILES IDX 63 78 64 79 67 80 65 81 44 82 45 83 53 84 46 85 47 86 51 87
REMARK SMILES IDX 54 88 48 89 49 90 52 91 50 92
REMARK H PARENT 11 5 15 26 74 45 42 56
REMARK Flexibility Score: inf
ROOT
ATOM      1  C   UNL     1      -1.104   1.033  -3.392  1.00  0.00     0.117 C 
ENDROOT
BRANCH   1   2
ATOM      2  N   UNL     1      -0.620   2.379  -3.563  1.00  0.00    -0.354 N 
ATOM      3  C   UNL     1       0.168   3.098  -2.706  1.00  0.00     0.242 C 
ATOM      4  O   UNL     1       0.505   4.228  -3.077  1.00  0.00    -0.273 OA
ATOM      5  H   UNL     1      -0.887   2.834  -4.394  1.00  0.00     0.163 HD
BRANCH   3   6
ATOM      6  C   UNL     1       0.381   2.655  -1.232  1.00  0.00     0.174 C 
ATOM      7  N   UNL     1       0.759   1.257  -0.926  1.00  0.00    -0.327 N 
ATOM      8  C   UNL     1       0.848   0.912   0.499  1.00  0.00     0.089 C 
ATOM      9  C   UNL     1      -0.981   2.994  -0.536  1.00  0.00     0.036 C 
ATOM     10  C   UNL     1       0.017   1.838   1.406  1.00  0.00     0.012 C 
ATOM     11  C   UNL     1       2.280   0.907   1.066  1.00  0.00     0.025 C 
ATOM     12  C   UNL     1      -1.290   2.170   0.718  1.00  0.00     0.008 C 
ATOM     13  C   UNL     1      -0.130   1.178   2.776  1.00  0.00     0.006 C 
ATOM     14  C   UNL     1       2.292   0.376   2.505  1.00  0.00     0.002 C 
ATOM     15  C   UNL     1       1.251   1.024   3.423  1.00  0.00     0.000 C 
BRANCH   7  16
ATOM     16  C   UNL     1       1.530   0.508  -1.818  1.00  0.00     0.225 C 
ATOM     17  O   UNL     1       2.408   0.998  -2.521  1.00  0.00    -0.275 OA
BRANCH  16  18
ATOM     18  C   UNL     1       1.024  -0.922  -2.037  1.00  0.00     0.128 C 
BRANCH  18  19
ATOM     19  C   UNL     1       1.948  -2.052  -1.633  1.00  0.00     0.169 C 
BRANCH  19  20
ATOM     20  O   UNL     1       1.252  -3.084  -0.921  1.00  0.00    -0.384 OA
ATOM     21  C   UNL     1       0.866  -2.716   0.393  1.00  0.00     0.194 C 
ENDBRANCH  19  20
ENDBRANCH  18  19
ENDBRANCH  16  18
ENDBRANCH   7  16
ENDBRANCH   3   6
ENDBRANCH   1   2
BRANCH   1  22
ATOM     22  C   UNL     1      -2.453   0.746  -4.005  1.00  0.00     0.042 C 
BRANCH  22  23
ATOM     23  C   UNL     1      -2.447   0.782  -5.521  1.00  0.00     0.118 C 
BRANCH  23  24
ATOM     24  N   UNL     1      -1.571  -0.214  -6.134  1.00  0.00    -0.352 N 
ATOM     25  C   UNL     1      -1.856  -1.269  -6.975  1.00  0.00     0.251 C 
ATOM     26  H   UNL     1      -0.618  -0.116  -5.907  1.00  0.00     0.163 HD
ATOM     27  O   UNL     1      -0.985  -2.065  -7.279  1.00  0.00    -0.269 OA
BRANCH  25  28
ATOM     28  C   UNL     1      -3.237  -1.455  -7.475  1.00  0.00     0.039 A 
ATOM     29  C   UNL     1      -3.775  -2.743  -7.522  1.00  0.00     0.014 A 
ATOM     30  C   UNL     1      -4.011  -0.361  -7.854  1.00  0.00     0.014 A 
ATOM     31  C   UNL     1      -5.123  -2.913  -7.844  1.00  0.00     0.010 A 
ATOM     32  C   UNL     1      -5.377  -0.516  -8.034  1.00  0.00     0.010 A 
ATOM     33  C   UNL     1      -5.950  -1.795  -8.040  1.00  0.00    -0.014 A 
BRANCH  33  34
ATOM     34  C   UNL     1      -7.412  -1.932  -8.252  1.00  0.00     0.031 A 
ATOM     35  C   UNL     1      -8.047  -1.382  -9.501  1.00  0.00     0.074 A 
ATOM     36  C   UNL     1      -8.180  -2.464  -7.281  1.00  0.00     0.049 A 
ATOM     37  N   UNL     1      -9.312  -1.325  -9.832  1.00  0.00    -0.248 NA
ATOM     38  C   UNL     1      -7.143  -0.775 -10.492  1.00  0.00     0.031 C 
ATOM     39  C   UNL     1      -7.694  -2.957  -5.990  1.00  0.00     0.029 A 
ATOM     40  N   UNL     1      -9.536  -2.668  -7.222  1.00  0.00    -0.354 N 
ATOM     41  C   UNL     1      -9.353  -0.655 -11.047  1.00  0.00     0.074 A 
ATOM     42  C   UNL     1      -7.998  -0.264 -11.364  1.00  0.00     0.031 C 
ATOM     43  C   UNL     1      -8.729  -3.433  -5.282  1.00  0.00     0.029 A 
ATOM     44  C   UNL     1      -9.957  -3.242  -6.047  1.00  0.00     0.049 A 
ATOM     45  H   UNL     1     -10.150  -2.425  -7.953  1.00  0.00     0.167 HD
ATOM     46  C   UNL     1     -10.421  -0.414 -11.844  1.00  0.00     0.037 A 
ATOM     47  C   UNL     1     -11.194  -3.571  -5.631  1.00  0.00     0.037 A 
ATOM     48  C   UNL     1     -11.761  -0.843 -11.542  1.00  0.00     0.049 A 
ATOM     49  C   UNL     1     -12.361  -3.322  -6.546  1.00  0.00     0.074 A 
ATOM     50  C   UNL     1     -12.897  -0.736 -12.322  1.00  0.00     0.029 A 
ATOM     51  N   UNL     1     -12.143  -1.460 -10.359  1.00  0.00    -0.354 N 
ATOM     52  N   UNL     1     -12.376  -2.775  -7.738  1.00  0.00    -0.248 NA
ATOM     53  C   UNL     1     -13.683  -3.745  -6.064  1.00  0.00     0.031 C 
ATOM     54  C   UNL     1     -13.978  -1.236 -11.589  1.00  0.00     0.029 A 
ATOM     55  C   UNL     1     -13.505  -1.710 -10.376  1.00  0.00     0.049 A 
ATOM     56  H   UNL     1     -11.536  -1.685  -9.617  1.00  0.00     0.167 HD
ATOM     57  C   UNL     1     -13.699  -2.806  -8.157  1.00  0.00     0.074 A 
ATOM     58  C   UNL     1     -14.454  -3.447  -7.100  1.00  0.00     0.031 C 
ATOM     59  C   UNL     1     -14.241  -2.345  -9.311  1.00  0.00     0.037 A 
BRANCH  46  60
ATOM     60  C   UNL     1     -10.181   0.344 -13.118  1.00  0.00     0.064 A 
ATOM     61  C   UNL     1      -9.441  -0.203 -14.178  1.00  0.00     0.173 A 
ATOM     62  C   UNL     1     -10.717   1.629 -13.291  1.00  0.00     0.173 A 
ATOM     63  F   UNL     1      -8.895  -1.423 -14.062  1.00  0.00    -0.203 F 
ATOM     64  C   UNL     1      -9.214   0.522 -15.345  1.00  0.00     0.198 A 
ATOM     65  C   UNL     1     -10.518   2.337 -14.474  1.00  0.00     0.198 A 
ATOM     66  F   UNL     1     -11.436   2.200 -12.313  1.00  0.00    -0.203 F 
ATOM     67  F   UNL     1      -8.451   0.002 -16.317  1.00  0.00    -0.200 F 
ATOM     68  C   UNL     1      -9.759   1.788 -15.495  1.00  0.00     0.200 A 
ATOM     69  F   UNL     1     -11.057   3.555 -14.622  1.00  0.00    -0.200 F 
ATOM     70  F   UNL     1      -9.544   2.482 -16.621  1.00  0.00    -0.200 F 
ENDBRANCH  46  60
BRANCH  47  71
ATOM     71  C   UNL     1     -11.385  -4.194  -4.295  1.00  0.00     0.064 A 
ATOM     72  C   UNL     1     -11.768  -5.538  -4.173  1.00  0.00     0.173 A 
ATOM     73  C   UNL     1     -11.178  -3.467  -3.114  1.00  0.00     0.173 A 
ATOM     74  F   UNL     1     -11.995  -6.271  -5.273  1.00  0.00    -0.203 F 
ATOM     75  C   UNL     1     -11.956  -6.123  -2.923  1.00  0.00     0.198 A 
ATOM     76  C   UNL     1     -11.336  -4.062  -1.864  1.00  0.00     0.198 A 
ATOM     77  F   UNL     1     -10.802  -2.181  -3.174  1.00  0.00    -0.203 F 
ATOM     78  F   UNL     1     -12.364  -7.396  -2.837  1.00  0.00    -0.200 F 
ATOM     79  C   UNL     1     -11.733  -5.387  -1.769  1.00  0.00     0.200 A 
ATOM     80  F   UNL     1     -11.102  -3.352  -0.752  1.00  0.00    -0.200 F 
ATOM     81  F   UNL     1     -11.905  -5.953  -0.567  1.00  0.00    -0.200 F 
ENDBRANCH  47  71
BRANCH  59  82
ATOM     82  C   UNL     1     -15.718  -2.536  -9.500  1.00  0.00     0.064 A 
ATOM     83  C   UNL     1     -16.656  -1.807  -8.755  1.00  0.00     0.173 A 
ATOM     84  C   UNL     1     -16.200  -3.433 -10.466  1.00  0.00     0.173 A 
ATOM     85  F   UNL     1     -16.247  -0.948  -7.809  1.00  0.00    -0.203 F 
ATOM     86  C   UNL     1     -18.023  -1.992  -8.948  1.00  0.00     0.198 A 
ATOM     87  C   UNL     1     -17.566  -3.590 -10.681  1.00  0.00     0.198 A 
ATOM     88  F   UNL     1     -15.345  -4.149 -11.211  1.00  0.00    -0.203 F 
ATOM     89  F   UNL     1     -18.901  -1.324  -8.188  1.00  0.00    -0.200 F 
ATOM     90  C   UNL     1     -18.476  -2.876  -9.916  1.00  0.00     0.200 A 
ATOM     91  F   UNL     1     -18.002  -4.433 -11.627  1.00  0.00    -0.200 F 
ATOM     92  F   UNL     1     -19.792  -3.046 -10.106  1.00  0.00    -0.200 F 
ENDBRANCH  59  82
ENDBRANCH  33  34
ENDBRANCH  25  28
ENDBRANCH  23  24
ENDBRANCH  22  23
ENDBRANCH   1  22
TORSDOF 14
