REMARK SMILES CC(C)Oc1ccc([C@H](O)[C@H](F)C(=O)NCCCNC(=O)c2ccc(-c3c4nc(c(-c5c(F)c(F)c(F)c(F)c5F)c5ccc([nH]5)c(-c5c(F)c(F)c(F)c(F)c5F)c5nc(c(-c6c(F)c(F)c(F)c(F)c6F)c6ccc3[nH]6)C=C5)C=C4)cc2)cc1
REMARK SMILES IDX 16 1 15 2 13 3 14 4 11 6 12 7 9 8 8 9 5 10 6 11 86 12 7 13
REMARK SMILES IDX 85 14 4 15 2 16 1 17 3 18 10 19 17 21 18 22 19 23 20 24
REMARK SMILES IDX 21 26 22 27 23 28 84 29 24 30 83 31 25 32 26 33 27 34 77 35
REMARK SMILES IDX 28 36 82 37 76 38 78 39 29 40 81 41 75 42 74 43 30 45 62 46
REMARK SMILES IDX 42 47 61 48 43 49 46 50 60 51 79 52 44 53 45 54 59 56 80 57
REMARK SMILES IDX 47 58 31 59 32 60 40 61 33 62 34 63 38 64 41 65 35 66 36 67
REMARK SMILES IDX 39 68 37 69 63 70 64 71 72 72 65 73 66 74 70 75 73 76 67 77
REMARK SMILES IDX 68 78 71 79 69 80 48 81 49 82 57 83 50 84 51 85 55 86 58 87
REMARK SMILES IDX 52 88 53 89 56 90 54 91
REMARK H PARENT 15 5 10 20 19 25 78 44 46 55
REMARK Flexibility Score: inf
ROOT
ATOM      1  C   UNL     1      -2.626  -6.449  -2.850  1.00  0.00     0.117 C 
ENDROOT
BRANCH   1   2
ATOM      2  N   UNL     1      -3.797  -6.281  -3.691  1.00  0.00    -0.353 N 
ATOM      3  C   UNL     1      -4.274  -5.125  -4.237  1.00  0.00     0.257 C 
ATOM      4  O   UNL     1      -5.217  -5.200  -5.029  1.00  0.00    -0.272 OA
ATOM      5  H   UNL     1      -4.308  -7.099  -3.891  1.00  0.00     0.163 HD
BRANCH   3   6
ATOM      6  C   UNL     1      -3.615  -3.792  -3.912  1.00  0.00     0.288 C 
ATOM      7  F   UNL     1      -3.620  -3.559  -2.560  1.00  0.00    -0.234 F 
BRANCH   6   8
ATOM      8  C   UNL     1      -2.158  -3.701  -4.423  1.00  0.00     0.188 C 
BRANCH   8   9
ATOM      9  C   UNL     1      -1.784  -2.348  -4.994  1.00  0.00    -0.016 A 
ATOM     10  C   UNL     1      -1.043   0.153  -6.025  1.00  0.00     0.119 A 
ATOM     11  C   UNL     1      -1.753   0.078  -4.830  1.00  0.00     0.047 A 
ATOM     12  C   UNL     1      -0.624  -1.011  -6.656  1.00  0.00     0.047 A 
ATOM     13  C   UNL     1      -2.120  -1.166  -4.314  1.00  0.00     0.010 A 
ATOM     14  C   UNL     1      -1.005  -2.252  -6.155  1.00  0.00     0.010 A 
BRANCH  10  15
ATOM     15  O   UNL     1      -0.694   1.391  -6.478  1.00  0.00    -0.491 OA
BRANCH  15  16
ATOM     16  C   UNL     1      -1.236   1.788  -7.753  1.00  0.00     0.167 C 
ATOM     17  C   UNL     1      -0.521   1.152  -8.943  1.00  0.00     0.052 C 
ATOM     18  C   UNL     1      -2.756   1.655  -7.849  1.00  0.00     0.052 C 
ENDBRANCH  15  16
ENDBRANCH  10  15
ENDBRANCH   8   9
BRANCH   8  19
ATOM     19  O   UNL     1      -1.816  -4.745  -5.345  1.00  0.00    -0.385 OA
ATOM     20  H   UNL     1      -2.336  -4.642  -6.157  1.00  0.00     0.211 HD
ENDBRANCH   8  19
ENDBRANCH   6   8
ENDBRANCH   3   6
ENDBRANCH   1   2
BRANCH   1  21
ATOM     21  C   UNL     1      -2.949  -7.143  -1.545  1.00  0.00     0.042 C 
BRANCH  21  22
ATOM     22  C   UNL     1      -3.490  -8.548  -1.727  1.00  0.00     0.118 C 
BRANCH  22  23
ATOM     23  N   UNL     1      -2.536  -9.445  -2.364  1.00  0.00    -0.352 N 
ATOM     24  C   UNL     1      -2.006 -10.625  -1.909  1.00  0.00     0.251 C 
ATOM     25  H   UNL     1      -2.225  -9.162  -3.255  1.00  0.00     0.163 HD
ATOM     26  O   UNL     1      -1.080 -11.157  -2.518  1.00  0.00    -0.269 OA
BRANCH  24  27
ATOM     27  C   UNL     1      -2.529 -11.244  -0.675  1.00  0.00     0.039 A 
ATOM     28  C   UNL     1      -1.629 -11.823   0.223  1.00  0.00     0.014 A 
ATOM     29  C   UNL     1      -3.898 -11.257  -0.399  1.00  0.00     0.014 A 
ATOM     30  C   UNL     1      -2.101 -12.364   1.419  1.00  0.00     0.010 A 
ATOM     31  C   UNL     1      -4.352 -11.690   0.841  1.00  0.00     0.010 A 
ATOM     32  C   UNL     1      -3.463 -12.273   1.753  1.00  0.00    -0.014 A 
BRANCH  32  33
ATOM     33  C   UNL     1      -3.976 -12.816   3.035  1.00  0.00     0.031 A 
ATOM     34  C   UNL     1      -4.999 -13.921   3.028  1.00  0.00     0.074 A 
ATOM     35  C   UNL     1      -3.558 -12.285   4.201  1.00  0.00     0.049 A 
ATOM     36  N   UNL     1      -5.591 -14.507   4.038  1.00  0.00    -0.248 NA
ATOM     37  C   UNL     1      -5.441 -14.413   1.712  1.00  0.00     0.031 C 
ATOM     38  C   UNL     1      -2.622 -11.167   4.335  1.00  0.00     0.029 A 
ATOM     39  N   UNL     1      -3.873 -12.611   5.496  1.00  0.00    -0.354 N 
ATOM     40  C   UNL     1      -6.483 -15.414   3.479  1.00  0.00     0.074 A 
ATOM     41  C   UNL     1      -6.401 -15.263   2.044  1.00  0.00     0.031 C 
ATOM     42  C   UNL     1      -2.417 -10.919   5.639  1.00  0.00     0.029 A 
ATOM     43  C   UNL     1      -3.234 -11.833   6.431  1.00  0.00     0.049 A 
ATOM     44  H   UNL     1      -4.497 -13.335   5.733  1.00  0.00     0.167 HD
ATOM     45  C   UNL     1      -7.279 -16.311   4.106  1.00  0.00     0.037 A 
ATOM     46  C   UNL     1      -3.305 -11.853   7.775  1.00  0.00     0.037 A 
ATOM     47  C   UNL     1      -7.328 -16.485   5.534  1.00  0.00     0.049 A 
ATOM     48  C   UNL     1      -4.176 -12.884   8.444  1.00  0.00     0.074 A 
ATOM     49  C   UNL     1      -8.042 -17.419   6.264  1.00  0.00     0.029 A 
ATOM     50  N   UNL     1      -6.635 -15.706   6.448  1.00  0.00    -0.354 N 
ATOM     51  N   UNL     1      -4.947 -13.796   7.904  1.00  0.00    -0.248 NA
ATOM     52  C   UNL     1      -4.172 -12.899   9.913  1.00  0.00     0.031 C 
ATOM     53  C   UNL     1      -7.828 -17.167   7.622  1.00  0.00     0.029 A 
ATOM     54  C   UNL     1      -6.925 -16.122   7.737  1.00  0.00     0.049 A 
ATOM     55  H   UNL     1      -6.028 -14.966   6.215  1.00  0.00     0.167 HD
ATOM     56  C   UNL     1      -5.489 -14.514   8.961  1.00  0.00     0.074 A 
ATOM     57  C   UNL     1      -4.941 -13.944  10.174  1.00  0.00     0.031 C 
ATOM     58  C   UNL     1      -6.362 -15.552   8.934  1.00  0.00     0.037 A 
BRANCH  45  59
ATOM     59  C   UNL     1      -8.163 -17.181   3.258  1.00  0.00     0.064 A 
ATOM     60  C   UNL     1      -7.640 -18.188   2.433  1.00  0.00     0.173 A 
ATOM     61  C   UNL     1      -9.559 -17.044   3.319  1.00  0.00     0.173 A 
ATOM     62  F   UNL     1      -6.313 -18.353   2.326  1.00  0.00    -0.203 F 
ATOM     63  C   UNL     1      -8.479 -19.011   1.685  1.00  0.00     0.198 A 
ATOM     64  C   UNL     1     -10.395 -17.891   2.597  1.00  0.00     0.198 A 
ATOM     65  F   UNL     1     -10.112 -16.099   4.094  1.00  0.00    -0.203 F 
ATOM     66  F   UNL     1      -7.954 -19.937   0.871  1.00  0.00    -0.200 F 
ATOM     67  C   UNL     1      -9.855 -18.869   1.777  1.00  0.00     0.200 A 
ATOM     68  F   UNL     1     -11.725 -17.762   2.698  1.00  0.00    -0.200 F 
ATOM     69  F   UNL     1     -10.661 -19.674   1.071  1.00  0.00    -0.200 F 
ENDBRANCH  45  59
BRANCH  46  70
ATOM     70  C   UNL     1      -2.520 -10.881   8.583  1.00  0.00     0.064 A 
ATOM     71  C   UNL     1      -1.470 -11.305   9.410  1.00  0.00     0.173 A 
ATOM     72  C   UNL     1      -2.825  -9.512   8.570  1.00  0.00     0.173 A 
ATOM     73  F   UNL     1      -1.149 -12.606   9.471  1.00  0.00    -0.203 F 
ATOM     74  C   UNL     1      -0.784 -10.405  10.223  1.00  0.00     0.198 A 
ATOM     75  C   UNL     1      -2.114  -8.608   9.356  1.00  0.00     0.198 A 
ATOM     76  F   UNL     1      -3.813  -9.051   7.790  1.00  0.00    -0.203 F 
ATOM     77  F   UNL     1       0.169 -10.849  11.055  1.00  0.00    -0.200 F 
ATOM     78  C   UNL     1      -1.104  -9.056  10.193  1.00  0.00     0.200 A 
ATOM     79  F   UNL     1      -2.416  -7.303   9.310  1.00  0.00    -0.200 F 
ATOM     80  F   UNL     1      -0.448  -8.192  10.979  1.00  0.00    -0.200 F 
ENDBRANCH  46  70
BRANCH  58  81
ATOM     81  C   UNL     1      -6.732 -16.173  10.251  1.00  0.00     0.064 A 
ATOM     82  C   UNL     1      -7.507 -15.493  11.202  1.00  0.00     0.173 A 
ATOM     83  C   UNL     1      -6.314 -17.478  10.558  1.00  0.00     0.173 A 
ATOM     84  F   UNL     1      -7.924 -14.240  10.963  1.00  0.00    -0.203 F 
ATOM     85  C   UNL     1      -7.809 -16.077  12.429  1.00  0.00     0.198 A 
ATOM     86  C   UNL     1      -6.652 -18.073  11.769  1.00  0.00     0.198 A 
ATOM     87  F   UNL     1      -5.582 -18.179   9.679  1.00  0.00    -0.203 F 
ATOM     88  F   UNL     1      -8.489 -15.381  13.350  1.00  0.00    -0.200 F 
ATOM     89  C   UNL     1      -7.386 -17.368  12.709  1.00  0.00     0.200 A 
ATOM     90  F   UNL     1      -6.259 -19.328  12.029  1.00  0.00    -0.200 F 
ATOM     91  F   UNL     1      -7.678 -17.928  13.891  1.00  0.00    -0.200 F 
ENDBRANCH  58  81
ENDBRANCH  32  33
ENDBRANCH  24  27
ENDBRANCH  22  23
ENDBRANCH  21  22
ENDBRANCH   1  21
TORSDOF 15
