REMARK SMILES [NH3+][C@H](C(=O)NCCCNC(=O)c1ccc(-c2c3nc(c(-c4c(F)c(F)c(F)c(F)c4F)c4ccc([nH]4)c(-c4c(F)c(F)c(F)c(F)c4F)c4nc(c(-c5c(F)c(F)c(F)c(F)c5F)c5ccc2[nH]5)C=C4)C=C3)cc1)c1c(F)cc(I)cc1F
REMARK SMILES IDX 7 1 6 2 5 3 3 4 4 5 2 7 1 8 75 12 76 13 82 14 77 15 78 16
REMARK SMILES IDX 81 17 83 18 79 19 80 20 8 21 9 22 10 23 11 25 12 26 13 27
REMARK SMILES IDX 74 28 14 29 73 30 15 31 16 32 17 33 67 34 18 35 72 36 66 37
REMARK SMILES IDX 68 38 19 39 71 40 65 41 64 42 20 44 52 45 32 46 51 47 33 48
REMARK SMILES IDX 36 49 50 50 69 51 34 52 35 53 49 55 70 56 37 57 21 58 22 59
REMARK SMILES IDX 30 60 23 61 24 62 28 63 31 64 25 65 26 66 29 67 27 68 53 69
REMARK SMILES IDX 54 70 62 71 55 72 56 73 60 74 63 75 57 76 58 77 61 78 59 79
REMARK SMILES IDX 38 80 39 81 47 82 40 83 41 84 45 85 48 86 42 87 43 88 46 89
REMARK SMILES IDX 44 90
REMARK H PARENT 5 6 1 9 1 10 1 11 9 24 68 43 36 54
REMARK Flexibility Score: inf
ROOT
ATOM      1  C   UNL     1      -0.763  -2.933   0.636  1.00  0.00     0.042 C 
ENDROOT
BRANCH   1   2
ATOM      2  C   UNL     1       0.594  -2.264   0.840  1.00  0.00     0.118 C 
BRANCH   2   3
ATOM      3  N   UNL     1       0.822  -1.207  -0.132  1.00  0.00    -0.351 N 
ATOM      4  C   UNL     1       0.631   0.142  -0.027  1.00  0.00     0.283 C 
ATOM      5  O   UNL     1       0.839   0.823  -1.036  1.00  0.00    -0.268 OA
ATOM      6  H   UNL     1       1.169  -1.511  -1.002  1.00  0.00     0.163 HD
BRANCH   4   7
ATOM      7  C   UNL     1       0.213   0.790   1.323  1.00  0.00     0.308 C 
BRANCH   7   8
ATOM      8  N   UNL     1       0.974   2.050   1.505  1.00  0.00    -0.343 N 
ATOM      9  H   UNL     1       0.708   2.484   2.389  1.00  0.00     0.345 HD
ATOM     10  H   UNL     1       0.765   2.687   0.737  1.00  0.00     0.345 HD
ATOM     11  H   UNL     1       1.974   1.845   1.515  1.00  0.00     0.345 HD
ENDBRANCH   7   8
BRANCH   7  12
ATOM     12  C   UNL     1      -1.281   1.006   1.388  1.00  0.00     0.090 A 
ATOM     13  C   UNL     1      -1.924   2.070   0.746  1.00  0.00     0.136 A 
ATOM     14  C   UNL     1      -2.092   0.085   2.055  1.00  0.00     0.136 A 
ATOM     15  F   UNL     1      -1.210   2.989   0.081  1.00  0.00    -0.206 F 
ATOM     16  C   UNL     1      -3.312   2.212   0.767  1.00  0.00     0.054 A 
ATOM     17  C   UNL     1      -3.481   0.188   2.065  1.00  0.00     0.054 A 
ATOM     18  F   UNL     1      -1.534  -0.956   2.691  1.00  0.00    -0.206 F 
ATOM     19  C   UNL     1      -4.089   1.258   1.417  1.00  0.00     0.019 A 
ATOM     20  I   UNL     1      -6.158   1.421   1.409  1.00  0.00    -0.044 I 
ENDBRANCH   7  12
ENDBRANCH   4   7
ENDBRANCH   2   3
ENDBRANCH   1   2
BRANCH   1  21
ATOM     21  C   UNL     1      -0.815  -3.867  -0.568  1.00  0.00     0.118 C 
BRANCH  21  22
ATOM     22  N   UNL     1      -0.156  -5.139  -0.312  1.00  0.00    -0.352 N 
ATOM     23  C   UNL     1      -0.664  -6.415  -0.275  1.00  0.00     0.251 C 
ATOM     24  H   UNL     1       0.811  -5.074  -0.136  1.00  0.00     0.163 HD
ATOM     25  O   UNL     1       0.038  -7.326   0.157  1.00  0.00    -0.269 OA
BRANCH  23  26
ATOM     26  C   UNL     1      -2.043  -6.714  -0.730  1.00  0.00     0.039 A 
ATOM     27  C   UNL     1      -2.785  -7.673  -0.030  1.00  0.00     0.014 A 
ATOM     28  C   UNL     1      -2.593  -6.116  -1.867  1.00  0.00     0.014 A 
ATOM     29  C   UNL     1      -4.085  -7.990  -0.436  1.00  0.00     0.010 A 
ATOM     30  C   UNL     1      -3.916  -6.376  -2.227  1.00  0.00     0.010 A 
ATOM     31  C   UNL     1      -4.673  -7.323  -1.522  1.00  0.00    -0.014 A 
BRANCH  31  32
ATOM     32  C   UNL     1      -6.067  -7.620  -1.947  1.00  0.00     0.031 A 
ATOM     33  C   UNL     1      -6.336  -8.223  -3.299  1.00  0.00     0.074 A 
ATOM     34  C   UNL     1      -7.098  -7.301  -1.140  1.00  0.00     0.049 A 
ATOM     35  N   UNL     1      -7.481  -8.482  -3.880  1.00  0.00    -0.248 NA
ATOM     36  C   UNL     1      -5.161  -8.561  -4.117  1.00  0.00     0.031 C 
ATOM     37  C   UNL     1      -6.977  -6.685   0.181  1.00  0.00     0.029 A 
ATOM     38  N   UNL     1      -8.452  -7.447  -1.316  1.00  0.00    -0.354 N 
ATOM     39  C   UNL     1      -7.165  -8.992  -5.132  1.00  0.00     0.074 A 
ATOM     40  C   UNL     1      -5.723  -8.966  -5.247  1.00  0.00     0.031 C 
ATOM     41  C   UNL     1      -8.203  -6.529   0.707  1.00  0.00     0.029 A 
ATOM     42  C   UNL     1      -9.197  -6.998  -0.254  1.00  0.00     0.049 A 
ATOM     43  H   UNL     1      -8.850  -7.837  -2.128  1.00  0.00     0.167 HD
ATOM     44  C   UNL     1      -7.999  -9.462  -6.091  1.00  0.00     0.037 A 
ATOM     45  C   UNL     1     -10.532  -6.964  -0.076  1.00  0.00     0.037 A 
ATOM     46  C   UNL     1      -9.432  -9.520  -5.967  1.00  0.00     0.049 A 
ATOM     47  C   UNL     1     -11.436  -7.486  -1.159  1.00  0.00     0.074 A 
ATOM     48  C   UNL     1     -10.357 -10.021  -6.867  1.00  0.00     0.029 A 
ATOM     49  N   UNL     1     -10.147  -9.065  -4.870  1.00  0.00    -0.354 N 
ATOM     50  N   UNL     1     -11.121  -8.004  -2.321  1.00  0.00    -0.248 NA
ATOM     51  C   UNL     1     -12.882  -7.422  -0.902  1.00  0.00     0.031 C 
ATOM     52  C   UNL     1     -11.635  -9.838  -6.329  1.00  0.00     0.029 A 
ATOM     53  C   UNL     1     -11.504  -9.262  -5.076  1.00  0.00     0.049 A 
ATOM     54  H   UNL     1      -9.751  -8.661  -4.064  1.00  0.00     0.167 HD
ATOM     55  C   UNL     1     -12.324  -8.352  -2.921  1.00  0.00     0.074 A 
ATOM     56  C   UNL     1     -13.375  -7.997  -1.990  1.00  0.00     0.031 C 
ATOM     57  C   UNL     1     -12.537  -8.915  -4.135  1.00  0.00     0.037 A 
BRANCH  44  58
ATOM     58  C   UNL     1      -7.380  -9.961  -7.365  1.00  0.00     0.064 A 
ATOM     59  C   UNL     1      -6.658 -11.163  -7.406  1.00  0.00     0.173 A 
ATOM     60  C   UNL     1      -7.545  -9.252  -8.564  1.00  0.00     0.173 A 
ATOM     61  F   UNL     1      -6.461 -11.871  -6.284  1.00  0.00    -0.203 F 
ATOM     62  C   UNL     1      -6.102 -11.624  -8.597  1.00  0.00     0.198 A 
ATOM     63  C   UNL     1      -7.012  -9.731  -9.758  1.00  0.00     0.198 A 
ATOM     64  F   UNL     1      -8.232  -8.100  -8.581  1.00  0.00    -0.203 F 
ATOM     65  F   UNL     1      -5.378 -12.752  -8.603  1.00  0.00    -0.200 F 
ATOM     66  C   UNL     1      -6.285 -10.912  -9.772  1.00  0.00     0.200 A 
ATOM     67  F   UNL     1      -7.200  -9.048 -10.896  1.00  0.00    -0.200 F 
ATOM     68  F   UNL     1      -5.755 -11.361 -10.919  1.00  0.00    -0.200 F 
ENDBRANCH  44  58
BRANCH  45  69
ATOM     69  C   UNL     1     -11.096  -6.444   1.196  1.00  0.00     0.064 A 
ATOM     70  C   UNL     1     -11.695  -7.311   2.120  1.00  0.00     0.173 A 
ATOM     71  C   UNL     1     -11.050  -5.079   1.514  1.00  0.00     0.173 A 
ATOM     72  F   UNL     1     -11.782  -8.621   1.849  1.00  0.00    -0.203 F 
ATOM     73  C   UNL     1     -12.241  -6.830   3.308  1.00  0.00     0.198 A 
ATOM     74  C   UNL     1     -11.574  -4.603   2.714  1.00  0.00     0.198 A 
ATOM     75  F   UNL     1     -10.484  -4.210   0.664  1.00  0.00    -0.203 F 
ATOM     76  F   UNL     1     -12.844  -7.675   4.155  1.00  0.00    -0.200 F 
ATOM     77  C   UNL     1     -12.175  -5.478   3.607  1.00  0.00     0.200 A 
ATOM     78  F   UNL     1     -11.497  -3.297   3.005  1.00  0.00    -0.200 F 
ATOM     79  F   UNL     1     -12.697  -5.016   4.752  1.00  0.00    -0.200 F 
ENDBRANCH  45  69
BRANCH  57  80
ATOM     80  C   UNL     1     -13.957  -9.218  -4.514  1.00  0.00     0.064 A 
ATOM     81  C   UNL     1     -14.855  -8.202  -4.870  1.00  0.00     0.173 A 
ATOM     82  C   UNL     1     -14.410 -10.545  -4.560  1.00  0.00     0.173 A 
ATOM     83  F   UNL     1     -14.473  -6.917  -4.826  1.00  0.00    -0.203 F 
ATOM     84  C   UNL     1     -16.164  -8.502  -5.238  1.00  0.00     0.198 A 
ATOM     85  C   UNL     1     -15.711 -10.843  -4.953  1.00  0.00     0.198 A 
ATOM     86  F   UNL     1     -13.587 -11.553  -4.234  1.00  0.00    -0.203 F 
ATOM     87  F   UNL     1     -17.019  -7.513  -5.534  1.00  0.00    -0.200 F 
ATOM     88  C   UNL     1     -16.589  -9.822  -5.286  1.00  0.00     0.200 A 
ATOM     89  F   UNL     1     -16.117 -12.119  -5.010  1.00  0.00    -0.200 F 
ATOM     90  F   UNL     1     -17.847 -10.110  -5.646  1.00  0.00    -0.200 F 
ENDBRANCH  57  80
ENDBRANCH  31  32
ENDBRANCH  23  26
ENDBRANCH  21  22
ENDBRANCH   1  21
TORSDOF 12
