REMARK SMILES CO[C@@H]1C[C@@H](C(=O)NCCCNC(=O)c2ccc(-c3c4nc(c(-c5c(F)c(F)c(F)c(F)c5F)c5ccc([nH]5)c(-c5c(F)c(F)c(F)c(F)c5F)c5nc(c(-c6c(F)c(F)c(F)c(F)c6F)c6ccc3[nH]6)C=C5)C=C4)cc2)N(C(=O)CSc2cccs2)C1
REMARK SMILES IDX 9 1 8 2 6 3 7 4 5 6 3 7 4 8 88 9 78 10 2 11 1 12 79 13 80 14
REMARK SMILES IDX 81 15 82 16 83 17 84 18 87 19 85 20 86 21 10 22 11 23 12 24
REMARK SMILES IDX 13 25 14 27 15 28 16 29 77 30 17 31 76 32 18 33 19 34 20 35
REMARK SMILES IDX 70 36 21 37 75 38 69 39 71 40 22 41 74 42 68 43 67 44 23 46
REMARK SMILES IDX 55 47 35 48 54 49 36 50 39 51 53 52 72 53 37 54 38 55 52 57
REMARK SMILES IDX 73 58 40 59 24 60 25 61 33 62 26 63 27 64 31 65 34 66 28 67
REMARK SMILES IDX 29 68 32 69 30 70 56 71 57 72 65 73 58 74 59 75 63 76 66 77
REMARK SMILES IDX 60 78 61 79 64 80 62 81 41 82 42 83 50 84 43 85 44 86 48 87
REMARK SMILES IDX 51 88 45 89 46 90 49 91 47 92
REMARK H PARENT 8 5 12 26 71 45 39 56
REMARK Flexibility Score: inf
ROOT
ATOM      1  C   UNL     1       4.660   0.575   0.252  1.00  0.00     0.117 C 
ENDROOT
BRANCH   1   2
ATOM      2  N   UNL     1       4.920  -0.688  -0.417  1.00  0.00    -0.354 N 
ATOM      3  C   UNL     1       4.257  -1.872  -0.216  1.00  0.00     0.242 C 
ATOM      4  O   UNL     1       4.931  -2.899  -0.169  1.00  0.00    -0.273 OA
ATOM      5  H   UNL     1       5.646  -0.694  -1.081  1.00  0.00     0.163 HD
BRANCH   3   6
ATOM      6  C   UNL     1       2.722  -1.846  -0.087  1.00  0.00     0.177 C 
ATOM      7  C   UNL     1       0.887  -1.816   1.502  1.00  0.00     0.139 C 
ATOM      8  C   UNL     1       2.336  -1.390   1.333  1.00  0.00     0.069 C 
ATOM      9  C   UNL     1       0.780  -3.080   0.656  1.00  0.00     0.152 C 
ATOM     10  N   UNL     1       1.951  -3.102  -0.222  1.00  0.00    -0.327 N 
BRANCH   7  11
ATOM     11  O   UNL     1      -0.063  -0.791   1.207  1.00  0.00    -0.380 OA
ATOM     12  C   UNL     1       0.025  -0.127  -0.043  1.00  0.00     0.195 C 
ENDBRANCH   7  11
BRANCH  10  13
ATOM     13  C   UNL     1       1.983  -4.096  -1.181  1.00  0.00     0.233 C 
ATOM     14  O   UNL     1       1.130  -4.995  -1.165  1.00  0.00    -0.274 OA
BRANCH  13  15
ATOM     15  C   UNL     1       3.075  -4.160  -2.232  1.00  0.00     0.175 C 
BRANCH  15  16
ATOM     16  S   UNL     1       2.866  -2.890  -3.503  1.00  0.00    -0.105 SA
BRANCH  16  17
ATOM     17  C   UNL     1       1.317  -3.336  -4.202  1.00  0.00     0.060 A 
ATOM     18  C   UNL     1       0.851  -4.603  -4.490  1.00  0.00     0.027 A 
ATOM     19  S   UNL     1       0.177  -2.134  -4.631  1.00  0.00    -0.137 S 
ATOM     20  C   UNL     1      -0.466  -4.584  -5.038  1.00  0.00     0.013 A 
ATOM     21  C   UNL     1      -0.949  -3.302  -5.170  1.00  0.00     0.066 A 
ENDBRANCH  16  17
ENDBRANCH  15  16
ENDBRANCH  13  15
ENDBRANCH  10  13
ENDBRANCH   3   6
ENDBRANCH   1   2
BRANCH   1  22
ATOM     22  C   UNL     1       5.219   0.535   1.681  1.00  0.00     0.042 C 
BRANCH  22  23
ATOM     23  C   UNL     1       6.740   0.392   1.726  1.00  0.00     0.118 C 
BRANCH  23  24
ATOM     24  N   UNL     1       7.405   1.574   1.206  1.00  0.00    -0.352 N 
ATOM     25  C   UNL     1       8.423   2.307   1.748  1.00  0.00     0.251 C 
ATOM     26  H   UNL     1       7.074   1.893   0.335  1.00  0.00     0.163 HD
ATOM     27  O   UNL     1       8.689   3.413   1.274  1.00  0.00    -0.269 OA
BRANCH  25  28
ATOM     28  C   UNL     1       9.201   1.794   2.894  1.00  0.00     0.039 A 
ATOM     29  C   UNL     1       9.586   2.695   3.890  1.00  0.00     0.014 A 
ATOM     30  C   UNL     1       9.608   0.457   2.963  1.00  0.00     0.014 A 
ATOM     31  C   UNL     1      10.359   2.253   4.963  1.00  0.00     0.010 A 
ATOM     32  C   UNL     1      10.325   0.003   4.070  1.00  0.00     0.010 A 
ATOM     33  C   UNL     1      10.721   0.900   5.072  1.00  0.00    -0.014 A 
BRANCH  33  34
ATOM     34  C   UNL     1      11.522   0.433   6.231  1.00  0.00     0.031 A 
ATOM     35  C   UNL     1      12.927  -0.068   6.037  1.00  0.00     0.074 A 
ATOM     36  C   UNL     1      10.972   0.456   7.460  1.00  0.00     0.049 A 
ATOM     37  N   UNL     1      13.785  -0.490   6.933  1.00  0.00    -0.248 NA
ATOM     38  C   UNL     1      13.430  -0.123   4.656  1.00  0.00     0.031 C 
ATOM     39  C   UNL     1       9.600   0.866   7.763  1.00  0.00     0.029 A 
ATOM     40  N   UNL     1      11.500   0.133   8.684  1.00  0.00    -0.354 N 
ATOM     41  C   UNL     1      14.923  -0.854   6.226  1.00  0.00     0.074 A 
ATOM     42  C   UNL     1      14.628  -0.664   4.823  1.00  0.00     0.031 C 
ATOM     43  C   UNL     1       9.403   0.798   9.089  1.00  0.00     0.029 A 
ATOM     44  C   UNL     1      10.625   0.319   9.727  1.00  0.00     0.049 A 
ATOM     45  H   UNL     1      12.419  -0.199   8.805  1.00  0.00     0.167 HD
ATOM     46  C   UNL     1      16.117  -1.278   6.706  1.00  0.00     0.037 A 
ATOM     47  C   UNL     1      10.794   0.128  11.048  1.00  0.00     0.037 A 
ATOM     48  C   UNL     1      16.411  -1.454   8.105  1.00  0.00     0.049 A 
ATOM     49  C   UNL     1      12.137  -0.327  11.552  1.00  0.00     0.074 A 
ATOM     50  C   UNL     1      17.595  -1.860   8.696  1.00  0.00     0.029 A 
ATOM     51  N   UNL     1      15.508  -1.229   9.134  1.00  0.00    -0.354 N 
ATOM     52  N   UNL     1      13.225  -0.607  10.877  1.00  0.00    -0.248 NA
ATOM     53  C   UNL     1      12.280  -0.473  13.007  1.00  0.00     0.031 C 
ATOM     54  C   UNL     1      17.399  -1.910  10.081  1.00  0.00     0.029 A 
ATOM     55  C   UNL     1      16.108  -1.491  10.355  1.00  0.00     0.049 A 
ATOM     56  H   UNL     1      14.579  -0.927   9.014  1.00  0.00     0.167 HD
ATOM     57  C   UNL     1      14.186  -0.937  11.822  1.00  0.00     0.074 A 
ATOM     58  C   UNL     1      13.561  -0.791  13.120  1.00  0.00     0.031 C 
ATOM     59  C   UNL     1      15.469  -1.333  11.636  1.00  0.00     0.037 A 
BRANCH  46  60
ATOM     60  C   UNL     1      17.207  -1.561   5.713  1.00  0.00     0.064 A 
ATOM     61  C   UNL     1      17.844  -0.522   5.015  1.00  0.00     0.173 A 
ATOM     62  C   UNL     1      17.661  -2.870   5.496  1.00  0.00     0.173 A 
ATOM     63  F   UNL     1      17.440   0.747   5.177  1.00  0.00    -0.203 F 
ATOM     64  C   UNL     1      18.882  -0.786   4.125  1.00  0.00     0.198 A 
ATOM     65  C   UNL     1      18.718  -3.127   4.626  1.00  0.00     0.198 A 
ATOM     66  F   UNL     1      17.091  -3.899   6.139  1.00  0.00    -0.203 F 
ATOM     67  F   UNL     1      19.449   0.219   3.443  1.00  0.00    -0.200 F 
ATOM     68  C   UNL     1      19.324  -2.087   3.938  1.00  0.00     0.200 A 
ATOM     69  F   UNL     1      19.154  -4.384   4.455  1.00  0.00    -0.200 F 
ATOM     70  F   UNL     1      20.332  -2.337   3.092  1.00  0.00    -0.200 F 
ENDBRANCH  46  60
BRANCH  47  71
ATOM     71  C   UNL     1       9.678   0.393  11.993  1.00  0.00     0.064 A 
ATOM     72  C   UNL     1       9.742   1.453  12.909  1.00  0.00     0.173 A 
ATOM     73  C   UNL     1       8.539  -0.425  12.022  1.00  0.00     0.173 A 
ATOM     74  F   UNL     1      10.818   2.254  12.933  1.00  0.00    -0.203 F 
ATOM     75  C   UNL     1       8.729   1.661  13.843  1.00  0.00     0.198 A 
ATOM     76  C   UNL     1       7.511  -0.196  12.934  1.00  0.00     0.198 A 
ATOM     77  F   UNL     1       8.423  -1.446  11.160  1.00  0.00    -0.203 F 
ATOM     78  F   UNL     1       8.846   2.641  14.748  1.00  0.00    -0.200 F 
ATOM     79  C   UNL     1       7.612   0.838  13.852  1.00  0.00     0.200 A 
ATOM     80  F   UNL     1       6.427  -0.983  12.929  1.00  0.00    -0.200 F 
ATOM     81  F   UNL     1       6.641   1.034  14.753  1.00  0.00    -0.200 F 
ENDBRANCH  47  71
BRANCH  59  82
ATOM     82  C   UNL     1      16.281  -1.602  12.870  1.00  0.00     0.064 A 
ATOM     83  C   UNL     1      16.026  -2.711  13.692  1.00  0.00     0.173 A 
ATOM     84  C   UNL     1      17.325  -0.739  13.236  1.00  0.00     0.173 A 
ATOM     85  F   UNL     1      15.030  -3.558  13.392  1.00  0.00    -0.203 F 
ATOM     86  C   UNL     1      16.756  -2.919  14.859  1.00  0.00     0.198 A 
ATOM     87  C   UNL     1      18.074  -0.969  14.386  1.00  0.00     0.198 A 
ATOM     88  F   UNL     1      17.615   0.330  12.479  1.00  0.00    -0.203 F 
ATOM     89  F   UNL     1      16.449  -3.945  15.664  1.00  0.00    -0.200 F 
ATOM     90  C   UNL     1      17.781  -2.050  15.203  1.00  0.00     0.200 A 
ATOM     91  F   UNL     1      19.073  -0.136  14.710  1.00  0.00    -0.200 F 
ATOM     92  F   UNL     1      18.478  -2.248  16.330  1.00  0.00    -0.200 F 
ENDBRANCH  59  82
ENDBRANCH  33  34
ENDBRANCH  25  28
ENDBRANCH  23  24
ENDBRANCH  22  23
ENDBRANCH   1  22
TORSDOF 15
