REMARK SMILES C[C@H](Sc1ccccn1)C(=O)N[C@H](C(=O)NCCCNC(=O)c1ccc(-c2c3nc(c(-c4c(F)c(F)c(F)c(F)c4F)c4ccc([nH]4)c(-c4c(F)c(F)c(F)c(F)c4F)c4nc(c(-c5c(F)c(F)c(F)c(F)c5F)c5ccc2[nH]5)C=C4)C=C3)cc1)c1ccc(F)cc1
REMARK SMILES IDX 17 1 16 2 14 3 15 4 13 6 12 7 10 8 11 9 2 11 1 12 3 13 4 14
REMARK SMILES IDX 5 15 9 16 6 17 8 18 7 19 86 20 87 21 92 22 88 23 91 24 89 25
REMARK SMILES IDX 90 26 18 27 19 28 20 29 21 30 22 32 23 33 24 34 85 35 25 36
REMARK SMILES IDX 84 37 26 38 27 39 28 40 78 41 29 42 83 43 77 44 79 45 30 46
REMARK SMILES IDX 82 47 76 48 75 49 31 51 63 52 43 53 62 54 44 55 47 56 61 57
REMARK SMILES IDX 80 58 45 59 46 60 60 62 81 63 48 64 32 65 33 66 41 67 34 68
REMARK SMILES IDX 35 69 39 70 42 71 36 72 37 73 40 74 38 75 64 76 65 77 73 78
REMARK SMILES IDX 66 79 67 80 71 81 74 82 68 83 69 84 72 85 70 86 49 87 50 88
REMARK SMILES IDX 58 89 51 90 52 91 56 92 59 93 53 94 54 95 57 96 55 97
REMARK H PARENT 16 5 12 10 20 31 79 50 47 61
REMARK Flexibility Score: inf
ROOT
ATOM      1  C   UNL     1      -1.193   0.305   2.599  1.00  0.00     0.117 C 
ENDROOT
BRANCH   1   2
ATOM      2  N   UNL     1      -0.698  -0.080   1.283  1.00  0.00    -0.354 N 
ATOM      3  C   UNL     1      -0.648  -1.333   0.710  1.00  0.00     0.247 C 
ATOM      4  O   UNL     1       0.274  -1.556  -0.080  1.00  0.00    -0.272 OA
ATOM      5  H   UNL     1      -0.352   0.656   0.727  1.00  0.00     0.163 HD
BRANCH   3   6
ATOM      6  C   UNL     1      -1.585  -2.455   1.214  1.00  0.00     0.202 C 
BRANCH   6   7
ATOM      7  N   UNL     1      -2.899  -2.048   1.705  1.00  0.00    -0.340 N 
ATOM      8  C   UNL     1      -3.991  -1.407   1.267  1.00  0.00     0.234 C 
ATOM      9  O   UNL     1      -4.834  -1.271   2.173  1.00  0.00    -0.274 OA
ATOM     10  H   UNL     1      -3.018  -2.329   2.640  1.00  0.00     0.164 HD
BRANCH   8  11
ATOM     11  C   UNL     1      -4.357  -0.872  -0.116  1.00  0.00     0.139 C 
ATOM     12  C   UNL     1      -5.352  -1.724  -0.888  1.00  0.00     0.030 C 
BRANCH  11  13
ATOM     13  S   UNL     1      -3.246   0.238  -1.010  1.00  0.00    -0.093 SA
BRANCH  13  14
ATOM     14  C   UNL     1      -2.136  -0.623  -2.075  1.00  0.00     0.097 A 
ATOM     15  C   UNL     1      -2.302  -1.881  -2.628  1.00  0.00     0.035 A 
ATOM     16  N   UNL     1      -1.050   0.135  -2.374  1.00  0.00    -0.250 NA
ATOM     17  C   UNL     1      -1.315  -2.394  -3.473  1.00  0.00     0.004 A 
ATOM     18  C   UNL     1      -0.104  -0.383  -3.188  1.00  0.00     0.112 A 
ATOM     19  C   UNL     1      -0.191  -1.635  -3.758  1.00  0.00     0.020 A 
ENDBRANCH  13  14
ENDBRANCH  11  13
ENDBRANCH   8  11
ENDBRANCH   6   7
BRANCH   6  20
ATOM     20  C   UNL     1      -1.591  -3.789   0.471  1.00  0.00    -0.016 A 
ATOM     21  C   UNL     1      -2.740  -4.295  -0.158  1.00  0.00     0.009 A 
ATOM     22  C   UNL     1      -0.452  -4.619   0.508  1.00  0.00     0.009 A 
ATOM     23  C   UNL     1      -2.758  -5.567  -0.734  1.00  0.00     0.039 A 
ATOM     24  C   UNL     1      -0.475  -5.904  -0.044  1.00  0.00     0.039 A 
ATOM     25  C   UNL     1      -1.628  -6.366  -0.662  1.00  0.00     0.123 A 
ATOM     26  F   UNL     1      -1.661  -7.602  -1.175  1.00  0.00    -0.207 F 
ENDBRANCH   6  20
ENDBRANCH   3   6
ENDBRANCH   1   2
BRANCH   1  27
ATOM     27  C   UNL     1      -1.453   1.798   2.760  1.00  0.00     0.042 C 
BRANCH  27  28
ATOM     28  C   UNL     1      -2.665   2.348   2.014  1.00  0.00     0.118 C 
BRANCH  28  29
ATOM     29  N   UNL     1      -3.965   1.944   2.545  1.00  0.00    -0.352 N 
ATOM     30  C   UNL     1      -5.003   2.704   3.042  1.00  0.00     0.251 C 
ATOM     31  H   UNL     1      -4.126   0.972   2.549  1.00  0.00     0.163 HD
ATOM     32  O   UNL     1      -6.034   2.167   3.439  1.00  0.00    -0.269 OA
BRANCH  30  33
ATOM     33  C   UNL     1      -4.857   4.168   3.189  1.00  0.00     0.039 A 
ATOM     34  C   UNL     1      -5.155   4.739   4.431  1.00  0.00     0.014 A 
ATOM     35  C   UNL     1      -4.375   4.966   2.152  1.00  0.00     0.014 A 
ATOM     36  C   UNL     1      -4.826   6.073   4.677  1.00  0.00     0.010 A 
ATOM     37  C   UNL     1      -3.962   6.269   2.425  1.00  0.00     0.010 A 
ATOM     38  C   UNL     1      -4.148   6.823   3.702  1.00  0.00    -0.014 A 
BRANCH  38  39
ATOM     39  C   UNL     1      -3.557   8.148   4.028  1.00  0.00     0.031 A 
ATOM     40  C   UNL     1      -3.986   9.384   3.293  1.00  0.00     0.074 A 
ATOM     41  C   UNL     1      -2.556   8.218   4.930  1.00  0.00     0.049 A 
ATOM     42  N   UNL     1      -3.517  10.604   3.380  1.00  0.00    -0.248 NA
ATOM     43  C   UNL     1      -5.063   9.224   2.305  1.00  0.00     0.031 C 
ATOM     44  C   UNL     1      -1.997   7.080   5.665  1.00  0.00     0.029 A 
ATOM     45  N   UNL     1      -1.819   9.289   5.375  1.00  0.00    -0.354 N 
ATOM     46  C   UNL     1      -4.225  11.349   2.447  1.00  0.00     0.074 A 
ATOM     47  C   UNL     1      -5.122  10.435   1.771  1.00  0.00     0.031 C 
ATOM     48  C   UNL     1      -1.031   7.516   6.488  1.00  0.00     0.029 A 
ATOM     49  C   UNL     1      -0.870   8.956   6.311  1.00  0.00     0.049 A 
ATOM     50  H   UNL     1      -1.958  10.209   5.053  1.00  0.00     0.167 HD
ATOM     51  C   UNL     1      -4.150  12.677   2.193  1.00  0.00     0.037 A 
ATOM     52  C   UNL     1       0.034   9.721   6.953  1.00  0.00     0.037 A 
ATOM     53  C   UNL     1      -3.280  13.590   2.887  1.00  0.00     0.049 A 
ATOM     54  C   UNL     1       0.081  11.197   6.667  1.00  0.00     0.074 A 
ATOM     55  C   UNL     1      -3.181  14.964   2.747  1.00  0.00     0.029 A 
ATOM     56  N   UNL     1      -2.359  13.220   3.856  1.00  0.00    -0.354 N 
ATOM     57  N   UNL     1      -0.644  11.901   5.834  1.00  0.00    -0.248 NA
ATOM     58  C   UNL     1       1.071  11.985   7.415  1.00  0.00     0.031 C 
ATOM     59  C   UNL     1      -2.174  15.420   3.604  1.00  0.00     0.029 A 
ATOM     60  C   UNL     1      -1.675  14.338   4.310  1.00  0.00     0.049 A 
ATOM     61  H   UNL     1      -2.212  12.300   4.174  1.00  0.00     0.167 HD
ATOM     62  C   UNL     1      -0.220  13.214   5.974  1.00  0.00     0.074 A 
ATOM     63  C   UNL     1       0.818  13.213   6.984  1.00  0.00     0.031 C 
ATOM     64  C   UNL     1      -0.651  14.322   5.323  1.00  0.00     0.037 A 
BRANCH  51  65
ATOM     65  C   UNL     1      -5.042  13.225   1.117  1.00  0.00     0.064 A 
ATOM     66  C   UNL     1      -6.431  13.315   1.291  1.00  0.00     0.173 A 
ATOM     67  C   UNL     1      -4.501  13.691  -0.090  1.00  0.00     0.173 A 
ATOM     68  F   UNL     1      -7.000  12.874   2.424  1.00  0.00    -0.203 F 
ATOM     69  C   UNL     1      -7.249  13.820   0.284  1.00  0.00     0.198 A 
ATOM     70  C   UNL     1      -5.318  14.224  -1.084  1.00  0.00     0.198 A 
ATOM     71  F   UNL     1      -3.178  13.636  -0.305  1.00  0.00    -0.203 F 
ATOM     72  F   UNL     1      -8.578  13.848   0.453  1.00  0.00    -0.200 F 
ATOM     73  C   UNL     1      -6.692  14.279  -0.900  1.00  0.00     0.200 A 
ATOM     74  F   UNL     1      -4.778  14.679  -2.223  1.00  0.00    -0.200 F 
ATOM     75  F   UNL     1      -7.480  14.769  -1.867  1.00  0.00    -0.200 F 
ENDBRANCH  51  65
BRANCH  52  76
ATOM     76  C   UNL     1       0.947   9.111   7.954  1.00  0.00     0.064 A 
ATOM     77  C   UNL     1       0.792   9.377   9.321  1.00  0.00     0.173 A 
ATOM     78  C   UNL     1       1.989   8.255   7.570  1.00  0.00     0.173 A 
ATOM     79  F   UNL     1      -0.178  10.207   9.735  1.00  0.00    -0.203 F 
ATOM     80  C   UNL     1       1.655   8.826  10.265  1.00  0.00     0.198 A 
ATOM     81  C   UNL     1       2.836   7.683   8.517  1.00  0.00     0.198 A 
ATOM     82  F   UNL     1       2.177   7.964   6.274  1.00  0.00    -0.203 F 
ATOM     83  F   UNL     1       1.510   9.131  11.562  1.00  0.00    -0.200 F 
ATOM     84  C   UNL     1       2.673   7.974   9.863  1.00  0.00     0.200 A 
ATOM     85  F   UNL     1       3.810   6.850   8.126  1.00  0.00    -0.200 F 
ATOM     86  F   UNL     1       3.501   7.441  10.771  1.00  0.00    -0.200 F 
ENDBRANCH  52  76
BRANCH  64  87
ATOM     87  C   UNL     1      -0.026  15.630   5.706  1.00  0.00     0.064 A 
ATOM     88  C   UNL     1       1.284  15.957   5.329  1.00  0.00     0.173 A 
ATOM     89  C   UNL     1      -0.762  16.584   6.425  1.00  0.00     0.173 A 
ATOM     90  F   UNL     1       2.034  15.071   4.655  1.00  0.00    -0.203 F 
ATOM     91  C   UNL     1       1.843  17.185   5.675  1.00  0.00     0.198 A 
ATOM     92  C   UNL     1      -0.210  17.821   6.746  1.00  0.00     0.198 A 
ATOM     93  F   UNL     1      -2.021  16.321   6.806  1.00  0.00    -0.203 F 
ATOM     94  F   UNL     1       3.111  17.460   5.341  1.00  0.00    -0.200 F 
ATOM     95  C   UNL     1       1.093  18.118   6.377  1.00  0.00     0.200 A 
ATOM     96  F   UNL     1      -0.939  18.725   7.415  1.00  0.00    -0.200 F 
ATOM     97  F   UNL     1       1.630  19.302   6.703  1.00  0.00    -0.200 F 
ENDBRANCH  64  87
ENDBRANCH  38  39
ENDBRANCH  30  33
ENDBRANCH  28  29
ENDBRANCH  27  28
ENDBRANCH   1  27
TORSDOF 15
