REMARK SMILES Cc1ccc(Cl)c(Nc2ccccc2C(=O)NCC(=O)NCCCNC(=O)c2ccc(-c3c4nc(c(-c5c(F)c(F)c(F)c(F)c5F)c5ccc([nH]5)c(-c5c(F)c(F)c(F)c(F)c5F)c5nc(c(-c6c(F)c(F)c(F)c(F)c6F)c6ccc3[nH]6)C=C5)C=C4)cc2)c1Cl
REMARK SMILES IDX 22 1 21 2 19 3 20 4 18 6 17 7 15 8 16 9 14 11 9 12 10 13
REMARK SMILES IDX 11 14 13 15 12 16 8 17 7 19 1 20 2 21 3 22 91 23 4 24 92 25
REMARK SMILES IDX 5 26 6 27 23 28 24 29 25 30 26 31 27 33 28 34 29 35 90 36
REMARK SMILES IDX 30 37 89 38 31 39 32 40 33 41 83 42 34 43 88 44 82 45 84 46
REMARK SMILES IDX 35 47 87 48 81 49 80 50 36 52 68 53 48 54 67 55 49 56 52 57
REMARK SMILES IDX 66 58 85 59 50 60 51 61 65 63 86 64 53 65 37 66 38 67 46 68
REMARK SMILES IDX 39 69 40 70 44 71 47 72 41 73 42 74 45 75 43 76 69 77 70 78
REMARK SMILES IDX 78 79 71 80 72 81 76 82 79 83 73 84 74 85 77 86 75 87 54 88
REMARK SMILES IDX 55 89 63 90 56 91 57 92 61 93 64 94 58 95 59 96 62 97 60 98
REMARK H PARENT 21 5 17 10 8 18 25 32 84 51 52 62
REMARK Flexibility Score: inf
ROOT
ATOM      1  C   UNL     1      -1.758  -3.593   2.278  1.00  0.00     0.117 C 
ENDROOT
BRANCH   1   2
ATOM      2  N   UNL     1      -2.616  -2.433   2.323  1.00  0.00    -0.355 N 
ATOM      3  C   UNL     1      -2.223  -1.128   2.350  1.00  0.00     0.239 C 
ATOM      4  O   UNL     1      -3.073  -0.263   2.566  1.00  0.00    -0.273 OA
ATOM      5  H   UNL     1      -3.586  -2.602   2.337  1.00  0.00     0.163 HD
BRANCH   3   6
ATOM      6  C   UNL     1      -0.826  -0.773   1.855  1.00  0.00     0.216 C 
BRANCH   6   7
ATOM      7  N   UNL     1       0.402  -1.278   2.427  1.00  0.00    -0.343 N 
ATOM      8  C   UNL     1       1.492  -1.909   1.874  1.00  0.00     0.253 C 
ATOM      9  O   UNL     1       2.541  -1.761   2.513  1.00  0.00    -0.269 OA
ATOM     10  H   UNL     1       0.471  -1.144   3.400  1.00  0.00     0.164 HD
BRANCH   8  11
ATOM     11  C   UNL     1       1.494  -2.903   0.735  1.00  0.00     0.063 A 
ATOM     12  C   UNL     1       0.796  -2.935  -0.497  1.00  0.00     0.051 A 
ATOM     13  C   UNL     1       0.923  -4.096  -1.308  1.00  0.00     0.027 A 
ATOM     14  C   UNL     1       1.763  -5.158  -0.981  1.00  0.00     0.002 A 
ATOM     15  C   UNL     1       2.356  -3.998   1.028  1.00  0.00     0.016 A 
ATOM     16  C   UNL     1       2.503  -5.098   0.182  1.00  0.00     0.001 A 
BRANCH  12  17
ATOM     17  N   UNL     1       0.071  -1.902  -1.129  1.00  0.00    -0.352 N 
ATOM     18  H   UNL     1      -0.695  -2.230  -1.654  1.00  0.00     0.167 HD
BRANCH  17  19
ATOM     19  C   UNL     1       0.213  -0.491  -1.168  1.00  0.00     0.077 A 
ATOM     20  C   UNL     1       2.684   2.238  -0.130  1.00  0.00     0.046 C 
ATOM     21  C   UNL     1       1.421   1.547  -0.563  1.00  0.00    -0.030 A 
ATOM     22  C   UNL     1       0.213   2.261  -0.568  1.00  0.00     0.006 A 
ATOM     23  C   UNL     1       1.421   0.181  -0.909  1.00  0.00     0.069 A 
ATOM     24  C   UNL     1      -0.973   1.644  -0.954  1.00  0.00     0.023 A 
ATOM     25  Cl  UNL     1       2.946  -0.631  -1.110  1.00  0.00    -0.082 Cl
ATOM     26  C   UNL     1      -0.970   0.286  -1.264  1.00  0.00     0.066 A 
ATOM     27  Cl  UNL     1      -2.495  -0.463  -1.622  1.00  0.00    -0.082 Cl
ENDBRANCH  17  19
ENDBRANCH  12  17
ENDBRANCH   8  11
ENDBRANCH   6   7
ENDBRANCH   3   6
ENDBRANCH   1   2
BRANCH   1  28
ATOM     28  C   UNL     1      -1.248  -3.924   3.671  1.00  0.00     0.042 C 
BRANCH  28  29
ATOM     29  C   UNL     1      -2.391  -4.241   4.622  1.00  0.00     0.118 C 
BRANCH  29  30
ATOM     30  N   UNL     1      -3.102  -5.448   4.229  1.00  0.00    -0.352 N 
ATOM     31  C   UNL     1      -3.408  -6.545   4.991  1.00  0.00     0.251 C 
ATOM     32  H   UNL     1      -3.404  -5.481   3.292  1.00  0.00     0.163 HD
ATOM     33  O   UNL     1      -3.813  -7.573   4.468  1.00  0.00    -0.269 OA
BRANCH  31  34
ATOM     34  C   UNL     1      -3.221  -6.467   6.451  1.00  0.00     0.039 A 
ATOM     35  C   UNL     1      -2.599  -7.528   7.108  1.00  0.00     0.014 A 
ATOM     36  C   UNL     1      -3.639  -5.335   7.158  1.00  0.00     0.014 A 
ATOM     37  C   UNL     1      -2.357  -7.435   8.476  1.00  0.00     0.010 A 
ATOM     38  C   UNL     1      -3.311  -5.204   8.500  1.00  0.00     0.010 A 
ATOM     39  C   UNL     1      -2.686  -6.261   9.176  1.00  0.00    -0.014 A 
BRANCH  39  40
ATOM     40  C   UNL     1      -2.407  -6.133  10.625  1.00  0.00     0.031 A 
ATOM     41  C   UNL     1      -3.544  -5.968  11.593  1.00  0.00     0.074 A 
ATOM     42  C   UNL     1      -1.132  -6.116  11.056  1.00  0.00     0.049 A 
ATOM     43  N   UNL     1      -3.508  -5.799  12.890  1.00  0.00    -0.248 NA
ATOM     44  C   UNL     1      -4.902  -5.961  11.026  1.00  0.00     0.031 C 
ATOM     45  C   UNL     1       0.052  -6.213  10.201  1.00  0.00     0.029 A 
ATOM     46  N   UNL     1      -0.619  -6.006  12.323  1.00  0.00    -0.354 N 
ATOM     47  C   UNL     1      -4.831  -5.654  13.287  1.00  0.00     0.074 A 
ATOM     48  C   UNL     1      -5.641  -5.687  12.090  1.00  0.00     0.031 C 
ATOM     49  C   UNL     1       1.152  -6.190  10.969  1.00  0.00     0.029 A 
ATOM     50  C   UNL     1       0.754  -6.036  12.365  1.00  0.00     0.049 A 
ATOM     51  H   UNL     1      -1.181  -5.914  13.126  1.00  0.00     0.167 HD
ATOM     52  C   UNL     1      -5.327  -5.534  14.541  1.00  0.00     0.037 A 
ATOM     53  C   UNL     1       1.592  -5.944  13.413  1.00  0.00     0.037 A 
ATOM     54  C   UNL     1      -4.513  -5.525  15.728  1.00  0.00     0.049 A 
ATOM     55  C   UNL     1       1.015  -5.804  14.796  1.00  0.00     0.074 A 
ATOM     56  C   UNL     1      -4.916  -5.467  17.050  1.00  0.00     0.029 A 
ATOM     57  N   UNL     1      -3.126  -5.571  15.733  1.00  0.00    -0.354 N 
ATOM     58  N   UNL     1      -0.240  -5.745  15.168  1.00  0.00    -0.248 NA
ATOM     59  C   UNL     1       1.974  -5.726  15.907  1.00  0.00     0.031 C 
ATOM     60  C   UNL     1      -3.772  -5.423  17.853  1.00  0.00     0.029 A 
ATOM     61  C   UNL     1      -2.657  -5.517  17.035  1.00  0.00     0.049 A 
ATOM     62  H   UNL     1      -2.560  -5.633  14.930  1.00  0.00     0.167 HD
ATOM     63  C   UNL     1      -0.225  -5.654  16.554  1.00  0.00     0.074 A 
ATOM     64  C   UNL     1       1.166  -5.684  16.956  1.00  0.00     0.031 C 
ATOM     65  C   UNL     1      -1.267  -5.555  17.416  1.00  0.00     0.037 A 
BRANCH  52  66
ATOM     66  C   UNL     1      -6.816  -5.405  14.691  1.00  0.00     0.064 A 
ATOM     67  C   UNL     1      -7.682  -6.470  14.396  1.00  0.00     0.173 A 
ATOM     68  C   UNL     1      -7.383  -4.212  15.163  1.00  0.00     0.173 A 
ATOM     69  F   UNL     1      -7.194  -7.629  13.929  1.00  0.00    -0.203 F 
ATOM     70  C   UNL     1      -9.060  -6.335  14.539  1.00  0.00     0.198 A 
ATOM     71  C   UNL     1      -8.760  -4.092  15.337  1.00  0.00     0.198 A 
ATOM     72  F   UNL     1      -6.603  -3.164  15.464  1.00  0.00    -0.203 F 
ATOM     73  F   UNL     1      -9.870  -7.347  14.198  1.00  0.00    -0.200 F 
ATOM     74  C   UNL     1      -9.597  -5.149  15.016  1.00  0.00     0.200 A 
ATOM     75  F   UNL     1      -9.276  -2.950  15.813  1.00  0.00    -0.200 F 
ATOM     76  F   UNL     1     -10.924  -5.023  15.161  1.00  0.00    -0.200 F 
ENDBRANCH  52  66
BRANCH  53  77
ATOM     77  C   UNL     1       3.062  -6.010  13.199  1.00  0.00     0.064 A 
ATOM     78  C   UNL     1       3.809  -7.106  13.653  1.00  0.00     0.173 A 
ATOM     79  C   UNL     1       3.751  -4.979  12.543  1.00  0.00     0.173 A 
ATOM     80  F   UNL     1       3.198  -8.108  14.302  1.00  0.00    -0.203 F 
ATOM     81  C   UNL     1       5.191  -7.156  13.483  1.00  0.00     0.198 A 
ATOM     82  C   UNL     1       5.128  -5.046  12.345  1.00  0.00     0.198 A 
ATOM     83  F   UNL     1       3.083  -3.911  12.082  1.00  0.00    -0.203 F 
ATOM     84  F   UNL     1       5.886  -8.192  13.973  1.00  0.00    -0.200 F 
ATOM     85  C   UNL     1       5.849  -6.129  12.824  1.00  0.00     0.200 A 
ATOM     86  F   UNL     1       5.758  -4.059  11.693  1.00  0.00    -0.200 F 
ATOM     87  F   UNL     1       7.177  -6.180  12.658  1.00  0.00    -0.200 F 
ENDBRANCH  53  77
BRANCH  65  88
ATOM     88  C   UNL     1      -0.945  -5.511  18.881  1.00  0.00     0.064 A 
ATOM     89  C   UNL     1      -0.336  -4.393  19.471  1.00  0.00     0.173 A 
ATOM     90  C   UNL     1      -1.287  -6.588  19.714  1.00  0.00     0.173 A 
ATOM     91  F   UNL     1       0.024  -3.344  18.717  1.00  0.00    -0.203 F 
ATOM     92  C   UNL     1      -0.053  -4.369  20.834  1.00  0.00     0.198 A 
ATOM     93  C   UNL     1      -1.035  -6.545  21.082  1.00  0.00     0.198 A 
ATOM     94  F   UNL     1      -1.879  -7.677  19.202  1.00  0.00    -0.203 F 
ATOM     95  F   UNL     1       0.580  -3.314  21.366  1.00  0.00    -0.200 F 
ATOM     96  C   UNL     1      -0.410  -5.441  21.639  1.00  0.00     0.200 A 
ATOM     97  F   UNL     1      -1.396  -7.574  21.860  1.00  0.00    -0.200 F 
ATOM     98  F   UNL     1      -0.144  -5.411  22.952  1.00  0.00    -0.200 F 
ENDBRANCH  65  88
ENDBRANCH  39  40
ENDBRANCH  31  34
ENDBRANCH  29  30
ENDBRANCH  28  29
ENDBRANCH   1  28
TORSDOF 14
