REMARK SMILES O=C(NCCCNC(=O)C1(Cc2nccs2)CC1)c1ccc(-c2c3nc(c(-c4c(F)c(F)c(F)c(F)c4F)c4ccc([nH]4)c(-c4c(F)c(F)c(F)c(F)c4F)c4nc(c(-c5c(F)c(F)c(F)c(F)c5F)c5ccc2[nH]5)C=C4)C=C3)cc1
REMARK SMILES IDX 5 1 4 2 3 3 1 4 2 5 19 7 20 8 81 9 21 10 80 11 22 12 23 13
REMARK SMILES IDX 24 14 74 15 25 16 79 17 73 18 75 19 26 20 78 21 72 22 71 23
REMARK SMILES IDX 27 25 59 26 39 27 58 28 40 29 43 30 57 31 76 32 41 33 42 34
REMARK SMILES IDX 56 36 77 37 44 38 28 39 29 40 37 41 30 42 31 43 35 44 38 45
REMARK SMILES IDX 32 46 33 47 36 48 34 49 60 50 61 51 69 52 62 53 63 54 67 55
REMARK SMILES IDX 70 56 64 57 65 58 68 59 66 60 45 61 46 62 54 63 47 64 48 65
REMARK SMILES IDX 52 66 55 67 49 68 50 69 53 70 51 71 6 72 7 73 8 74 9 76
REMARK SMILES IDX 10 77 17 78 18 79 11 80 12 81 13 82 16 83 14 84 15 85
REMARK H PARENT 3 6 75 24 43 35 7 75
REMARK Flexibility Score: inf
ROOT
ATOM      1  C   UNL     1       4.588   0.098   2.656  1.00  0.00     0.042 C 
ENDROOT
BRANCH   1   2
ATOM      2  C   UNL     1       4.428  -0.349   1.206  1.00  0.00     0.118 C 
BRANCH   2   3
ATOM      3  N   UNL     1       3.033  -0.574   0.859  1.00  0.00    -0.352 N 
ATOM      4  O   UNL     1       1.087  -0.172  -0.205  1.00  0.00    -0.269 OA
ATOM      5  C   UNL     1       2.307  -0.047  -0.178  1.00  0.00     0.251 C 
ATOM      6  H   UNL     1       2.542  -1.189   1.450  1.00  0.00     0.163 HD
BRANCH   5   7
ATOM      7  C   UNL     1       2.998   0.680  -1.261  1.00  0.00     0.039 A 
ATOM      8  C   UNL     1       4.150   0.154  -1.856  1.00  0.00     0.014 A 
ATOM      9  C   UNL     1       2.455   1.884  -1.716  1.00  0.00     0.014 A 
ATOM     10  C   UNL     1       4.807   0.874  -2.849  1.00  0.00     0.010 A 
ATOM     11  C   UNL     1       3.082   2.576  -2.752  1.00  0.00     0.010 A 
ATOM     12  C   UNL     1       4.268   2.081  -3.317  1.00  0.00    -0.014 A 
BRANCH  12  13
ATOM     13  C   UNL     1       4.904   2.791  -4.451  1.00  0.00     0.031 A 
ATOM     14  C   UNL     1       5.539   4.134  -4.256  1.00  0.00     0.074 A 
ATOM     15  C   UNL     1       4.857   2.230  -5.673  1.00  0.00     0.049 A 
ATOM     16  N   UNL     1       6.058   4.941  -5.146  1.00  0.00    -0.248 NA
ATOM     17  C   UNL     1       5.586   4.646  -2.878  1.00  0.00     0.031 C 
ATOM     18  C   UNL     1       4.249   0.934  -5.979  1.00  0.00     0.029 A 
ATOM     19  N   UNL     1       5.310   2.683  -6.886  1.00  0.00    -0.354 N 
ATOM     20  C   UNL     1       6.472   6.064  -4.444  1.00  0.00     0.074 A 
ATOM     21  C   UNL     1       6.126   5.844  -3.055  1.00  0.00     0.031 C 
ATOM     22  C   UNL     1       4.364   0.696  -7.293  1.00  0.00     0.029 A 
ATOM     23  C   UNL     1       5.005   1.843  -7.928  1.00  0.00     0.049 A 
ATOM     24  H   UNL     1       5.804   3.526  -6.998  1.00  0.00     0.167 HD
ATOM     25  C   UNL     1       7.088   7.172  -4.921  1.00  0.00     0.037 A 
ATOM     26  C   UNL     1       5.187   1.995  -9.252  1.00  0.00     0.037 A 
ATOM     27  C   UNL     1       7.437   7.371  -6.305  1.00  0.00     0.049 A 
ATOM     28  C   UNL     1       5.852   3.240  -9.760  1.00  0.00     0.074 A 
ATOM     29  C   UNL     1       8.115   8.431  -6.881  1.00  0.00     0.029 A 
ATOM     30  N   UNL     1       7.121   6.492  -7.332  1.00  0.00    -0.354 N 
ATOM     31  N   UNL     1       6.287   4.275  -9.084  1.00  0.00    -0.248 NA
ATOM     32  C   UNL     1       6.054   3.341 -11.211  1.00  0.00     0.031 C 
ATOM     33  C   UNL     1       8.166   8.217  -8.263  1.00  0.00     0.029 A 
ATOM     34  C   UNL     1       7.565   7.000  -8.543  1.00  0.00     0.049 A 
ATOM     35  H   UNL     1       6.652   5.635  -7.218  1.00  0.00     0.167 HD
ATOM     36  C   UNL     1       6.828   5.143 -10.020  1.00  0.00     0.074 A 
ATOM     37  C   UNL     1       6.675   4.509 -11.314  1.00  0.00     0.031 C 
ATOM     38  C   UNL     1       7.403   6.354  -9.822  1.00  0.00     0.037 A 
BRANCH  25  39
ATOM     39  C   UNL     1       7.396   8.268  -3.943  1.00  0.00     0.064 A 
ATOM     40  C   UNL     1       8.393   8.130  -2.966  1.00  0.00     0.173 A 
ATOM     41  C   UNL     1       6.696   9.483  -3.998  1.00  0.00     0.173 A 
ATOM     42  F   UNL     1       9.085   6.985  -2.864  1.00  0.00    -0.203 F 
ATOM     43  C   UNL     1       8.654   9.154  -2.058  1.00  0.00     0.198 A 
ATOM     44  C   UNL     1       6.979  10.515  -3.107  1.00  0.00     0.198 A 
ATOM     45  F   UNL     1       5.738   9.671  -4.917  1.00  0.00    -0.203 F 
ATOM     46  F   UNL     1       9.573   8.979  -1.099  1.00  0.00    -0.200 F 
ATOM     47  C   UNL     1       7.950  10.347  -2.131  1.00  0.00     0.200 A 
ATOM     48  F   UNL     1       6.305  11.671  -3.186  1.00  0.00    -0.200 F 
ATOM     49  F   UNL     1       8.201  11.330  -1.256  1.00  0.00    -0.200 F 
ENDBRANCH  25  39
BRANCH  26  50
ATOM     50  C   UNL     1       4.712   0.930 -10.170  1.00  0.00     0.064 A 
ATOM     51  C   UNL     1       5.615   0.073 -10.811  1.00  0.00     0.173 A 
ATOM     52  C   UNL     1       3.341   0.707 -10.370  1.00  0.00     0.173 A 
ATOM     53  F   UNL     1       6.935   0.258 -10.662  1.00  0.00    -0.203 F 
ATOM     54  C   UNL     1       5.164  -0.971 -11.616  1.00  0.00     0.198 A 
ATOM     55  C   UNL     1       2.892  -0.351 -11.154  1.00  0.00     0.198 A 
ATOM     56  F   UNL     1       2.438   1.497  -9.769  1.00  0.00    -0.203 F 
ATOM     57  F   UNL     1       6.048  -1.767 -12.233  1.00  0.00    -0.200 F 
ATOM     58  C   UNL     1       3.804  -1.188 -11.779  1.00  0.00     0.200 A 
ATOM     59  F   UNL     1       1.577  -0.569 -11.293  1.00  0.00    -0.200 F 
ATOM     60  F   UNL     1       3.372  -2.206 -12.536  1.00  0.00    -0.200 F 
ENDBRANCH  26  50
BRANCH  38  61
ATOM     61  C   UNL     1       7.934   7.068 -11.029  1.00  0.00     0.064 A 
ATOM     62  C   UNL     1       7.079   7.700 -11.942  1.00  0.00     0.173 A 
ATOM     63  C   UNL     1       9.318   7.176 -11.235  1.00  0.00     0.173 A 
ATOM     64  F   UNL     1       5.749   7.611 -11.795  1.00  0.00    -0.203 F 
ATOM     65  C   UNL     1       7.592   8.409 -13.025  1.00  0.00     0.198 A 
ATOM     66  C   UNL     1       9.826   7.905 -12.305  1.00  0.00     0.198 A 
ATOM     67  F   UNL     1      10.175   6.590 -10.386  1.00  0.00    -0.203 F 
ATOM     68  F   UNL     1       6.757   8.983 -13.903  1.00  0.00    -0.200 F 
ATOM     69  C   UNL     1       8.963   8.519 -13.201  1.00  0.00     0.200 A 
ATOM     70  F   UNL     1      11.152   8.020 -12.467  1.00  0.00    -0.200 F 
ATOM     71  F   UNL     1       9.454   9.214 -14.236  1.00  0.00    -0.200 F 
ENDBRANCH  38  61
ENDBRANCH  12  13
ENDBRANCH   5   7
ENDBRANCH   2   3
ENDBRANCH   1   2
BRANCH   1  72
ATOM     72  C   UNL     1       4.303  -1.019   3.656  1.00  0.00     0.117 C 
BRANCH  72  73
ATOM     73  N   UNL     1       5.318  -2.048   3.564  1.00  0.00    -0.356 N 
ATOM     74  C   UNL     1       6.291  -2.395   4.458  1.00  0.00     0.226 C 
ATOM     75  H   UNL     1       5.304  -2.576   2.734  1.00  0.00     0.163 HD
ATOM     76  O   UNL     1       7.102  -3.267   4.179  1.00  0.00    -0.274 OA
BRANCH  74  77
ATOM     77  C   UNL     1       6.346  -1.729   5.801  1.00  0.00     0.056 C 
ATOM     78  C   UNL     1       7.681  -1.049   6.122  1.00  0.00     0.018 C 
ATOM     79  C   UNL     1       6.458  -0.214   5.938  1.00  0.00     0.018 C 
BRANCH  77  80
ATOM     80  C   UNL     1       5.724  -2.528   6.945  1.00  0.00     0.084 C 
BRANCH  80  81
ATOM     81  C   UNL     1       4.274  -2.895   6.770  1.00  0.00     0.094 A 
ATOM     82  N   UNL     1       3.807  -3.638   5.787  1.00  0.00    -0.250 NA
ATOM     83  S   UNL     1       3.094  -2.372   7.910  1.00  0.00    -0.127 S 
ATOM     84  C   UNL     1       2.447  -3.816   5.929  1.00  0.00     0.123 A 
ATOM     85  C   UNL     1       1.885  -3.209   7.029  1.00  0.00     0.087 A 
ENDBRANCH  80  81
ENDBRANCH  77  80
ENDBRANCH  74  77
ENDBRANCH  72  73
ENDBRANCH   1  72
TORSDOF 12
