REMARK SMILES COc1ccc(OC)c(NC(=O)[C@@H]2[C@@H](C(=O)NCCCNC(=O)c3ccc(-c4c5nc(c(-c6c(F)c(F)c(F)c(F)c6F)c6ccc([nH]6)c(-c6c(F)c(F)c(F)c(F)c6F)c6nc(c(-c7c(F)c(F)c(F)c(F)c7F)c7ccc4[nH]7)C=C6)C=C5)cc3)[C@H]3C=C[C@@H]2C3)c1
REMARK SMILES IDX 18 1 17 2 15 3 16 4 14 6 13 7 90 8 87 9 89 10 91 11 88 12
REMARK SMILES IDX 11 13 10 14 12 16 9 17 3 18 4 19 92 20 5 21 6 22 2 23 1 24
REMARK SMILES IDX 7 25 8 26 19 27 20 28 21 29 22 30 23 32 24 33 25 34 86 35
REMARK SMILES IDX 26 36 85 37 27 38 28 39 29 40 79 41 30 42 84 43 78 44 80 45
REMARK SMILES IDX 31 46 83 47 77 48 76 49 32 51 64 52 44 53 63 54 45 55 48 56
REMARK SMILES IDX 62 57 81 58 46 59 47 60 61 62 82 63 49 64 33 65 34 66 42 67
REMARK SMILES IDX 35 68 36 69 40 70 43 71 37 72 38 73 41 74 39 75 65 76 66 77
REMARK SMILES IDX 74 78 67 79 68 80 72 81 75 82 69 83 70 84 73 85 71 86 50 87
REMARK SMILES IDX 51 88 59 89 52 90 53 91 57 92 60 93 54 94 55 95 58 96 56 97
REMARK H PARENT 17 5 10 15 21 31 80 50 48 61
REMARK Flexibility Score: inf
ROOT
ATOM      1  C   UNL     1       2.429   0.254   6.777  1.00  0.00     0.117 C 
ENDROOT
BRANCH   1   2
ATOM      2  N   UNL     1       1.677  -0.964   7.009  1.00  0.00    -0.356 N 
ATOM      3  C   UNL     1       2.061  -2.262   7.132  1.00  0.00     0.224 C 
ATOM      4  O   UNL     1       1.161  -3.083   7.314  1.00  0.00    -0.275 OA
ATOM      5  H   UNL     1       0.706  -0.825   7.094  1.00  0.00     0.163 HD
BRANCH   3   6
ATOM      6  C   UNL     1       3.529  -2.646   7.048  1.00  0.00     0.098 C 
ATOM      7  C   UNL     1       3.795  -3.731   5.961  1.00  0.00     0.099 C 
ATOM      8  C   UNL     1       4.625  -4.792   6.740  1.00  0.00     0.025 C 
ATOM      9  C   UNL     1       4.040  -3.347   8.341  1.00  0.00     0.025 C 
ATOM     10  C   UNL     1       3.653  -5.513   7.645  1.00  0.00    -0.027 C 
ATOM     11  C   UNL     1       5.341  -3.956   7.809  1.00  0.00     0.017 C 
ATOM     12  C   UNL     1       3.298  -4.644   8.603  1.00  0.00    -0.027 C 
BRANCH   7  13
ATOM     13  C   UNL     1       4.571  -3.195   4.772  1.00  0.00     0.229 C 
ATOM     14  N   UNL     1       3.975  -2.671   3.661  1.00  0.00    -0.323 N 
ATOM     15  H   UNL     1       4.620  -2.295   3.019  1.00  0.00     0.170 HD
ATOM     16  O   UNL     1       5.805  -3.117   4.809  1.00  0.00    -0.274 OA
BRANCH  14  17
ATOM     17  C   UNL     1       2.639  -2.553   3.232  1.00  0.00     0.087 A 
ATOM     18  C   UNL     1       1.052  -1.060   2.145  1.00  0.00     0.121 A 
ATOM     19  C   UNL     1      -0.009  -1.805   2.639  1.00  0.00     0.050 A 
ATOM     20  C   UNL     1       2.368  -1.420   2.444  1.00  0.00     0.076 A 
ATOM     21  C   UNL     1       0.255  -2.997   3.307  1.00  0.00     0.052 A 
ATOM     22  C   UNL     1       1.574  -3.412   3.530  1.00  0.00     0.142 A 
BRANCH  18  23
ATOM     23  O   UNL     1       0.764   0.092   1.466  1.00  0.00    -0.497 OA
ATOM     24  C   UNL     1       1.160  -0.012   0.096  1.00  0.00     0.278 C 
ENDBRANCH  18  23
BRANCH  22  25
ATOM     25  O   UNL     1       1.676  -4.699   3.983  1.00  0.00    -0.495 OA
ATOM     26  C   UNL     1       2.554  -5.515   3.208  1.00  0.00     0.278 C 
ENDBRANCH  22  25
ENDBRANCH  14  17
ENDBRANCH   7  13
ENDBRANCH   3   6
ENDBRANCH   1   2
BRANCH   1  27
ATOM     27  C   UNL     1       2.058   0.914   5.453  1.00  0.00     0.042 C 
BRANCH  27  28
ATOM     28  C   UNL     1       0.576   1.250   5.304  1.00  0.00     0.118 C 
BRANCH  28  29
ATOM     29  N   UNL     1       0.119   2.195   6.315  1.00  0.00    -0.352 N 
ATOM     30  C   UNL     1      -0.298   3.497   6.187  1.00  0.00     0.251 C 
ATOM     31  H   UNL     1       0.107   1.845   7.234  1.00  0.00     0.163 HD
ATOM     32  O   UNL     1      -0.428   4.198   7.185  1.00  0.00    -0.269 OA
BRANCH  30  33
ATOM     33  C   UNL     1      -0.574   4.066   4.852  1.00  0.00     0.039 A 
ATOM     34  C   UNL     1      -0.119   5.355   4.559  1.00  0.00     0.014 A 
ATOM     35  C   UNL     1      -1.303   3.348   3.901  1.00  0.00     0.014 A 
ATOM     36  C   UNL     1      -0.328   5.893   3.287  1.00  0.00     0.010 A 
ATOM     37  C   UNL     1      -1.448   3.854   2.612  1.00  0.00     0.010 A 
ATOM     38  C   UNL     1      -0.958   5.129   2.291  1.00  0.00    -0.014 A 
BRANCH  38  39
ATOM     39  C   UNL     1      -1.096   5.631   0.900  1.00  0.00     0.031 A 
ATOM     40  C   UNL     1      -2.458   5.871   0.314  1.00  0.00     0.074 A 
ATOM     41  C   UNL     1       0.005   5.784   0.139  1.00  0.00     0.049 A 
ATOM     42  N   UNL     1      -2.787   6.196  -0.911  1.00  0.00    -0.248 NA
ATOM     43  C   UNL     1      -3.606   5.696   1.217  1.00  0.00     0.031 C 
ATOM     44  C   UNL     1       1.379   5.542   0.582  1.00  0.00     0.029 A 
ATOM     45  N   UNL     1       0.142   6.159  -1.175  1.00  0.00    -0.354 N 
ATOM     46  C   UNL     1      -4.175   6.244  -0.930  1.00  0.00     0.074 A 
ATOM     47  C   UNL     1      -4.629   5.875   0.394  1.00  0.00     0.031 C 
ATOM     48  C   UNL     1       2.219   5.782  -0.437  1.00  0.00     0.029 A 
ATOM     49  C   UNL     1       1.443   6.151  -1.616  1.00  0.00     0.049 A 
ATOM     50  H   UNL     1      -0.620   6.410  -1.746  1.00  0.00     0.167 HD
ATOM     51  C   UNL     1      -4.992   6.580  -1.956  1.00  0.00     0.037 A 
ATOM     52  C   UNL     1       1.951   6.393  -2.840  1.00  0.00     0.037 A 
ATOM     53  C   UNL     1      -4.533   6.976  -3.261  1.00  0.00     0.049 A 
ATOM     54  C   UNL     1       1.017   6.753  -3.965  1.00  0.00     0.074 A 
ATOM     55  C   UNL     1      -5.279   7.416  -4.340  1.00  0.00     0.029 A 
ATOM     56  N   UNL     1      -3.206   6.974  -3.666  1.00  0.00    -0.354 N 
ATOM     57  N   UNL     1      -0.288   6.870  -3.951  1.00  0.00    -0.248 NA
ATOM     58  C   UNL     1       1.628   7.013  -5.276  1.00  0.00     0.031 C 
ATOM     59  C   UNL     1      -4.410   7.627  -5.415  1.00  0.00     0.029 A 
ATOM     60  C   UNL     1      -3.116   7.370  -4.991  1.00  0.00     0.049 A 
ATOM     61  H   UNL     1      -2.442   6.727  -3.097  1.00  0.00     0.167 HD
ATOM     62  C   UNL     1      -0.652   7.240  -5.238  1.00  0.00     0.074 A 
ATOM     63  C   UNL     1       0.571   7.344  -6.005  1.00  0.00     0.031 C 
ATOM     64  C   UNL     1      -1.890   7.473  -5.739  1.00  0.00     0.037 A 
BRANCH  51  65
ATOM     65  C   UNL     1      -6.473   6.534  -1.715  1.00  0.00     0.064 A 
ATOM     66  C   UNL     1      -7.117   7.466  -0.888  1.00  0.00     0.173 A 
ATOM     67  C   UNL     1      -7.268   5.576  -2.364  1.00  0.00     0.173 A 
ATOM     68  F   UNL     1      -6.403   8.397  -0.237  1.00  0.00    -0.203 F 
ATOM     69  C   UNL     1      -8.496   7.426  -0.700  1.00  0.00     0.198 A 
ATOM     70  C   UNL     1      -8.650   5.558  -2.198  1.00  0.00     0.198 A 
ATOM     71  F   UNL     1      -6.704   4.665  -3.172  1.00  0.00    -0.203 F 
ATOM     72  F   UNL     1      -9.083   8.301   0.128  1.00  0.00    -0.200 F 
ATOM     73  C   UNL     1      -9.262   6.478  -1.362  1.00  0.00     0.200 A 
ATOM     74  F   UNL     1      -9.390   4.650  -2.850  1.00  0.00    -0.200 F 
ATOM     75  F   UNL     1     -10.591   6.449  -1.189  1.00  0.00    -0.200 F 
ENDBRANCH  51  65
BRANCH  52  76
ATOM     76  C   UNL     1       3.417   6.301  -3.068  1.00  0.00     0.064 A 
ATOM     77  C   UNL     1       4.176   7.445  -3.347  1.00  0.00     0.173 A 
ATOM     78  C   UNL     1       4.086   5.069  -3.021  1.00  0.00     0.173 A 
ATOM     79  F   UNL     1       3.578   8.643  -3.423  1.00  0.00    -0.203 F 
ATOM     80  C   UNL     1       5.545   7.359  -3.593  1.00  0.00     0.198 A 
ATOM     81  C   UNL     1       5.460   4.988  -3.238  1.00  0.00     0.198 A 
ATOM     82  F   UNL     1       3.407   3.943  -2.753  1.00  0.00    -0.203 F 
ATOM     83  F   UNL     1       6.238   8.462  -3.907  1.00  0.00    -0.200 F 
ATOM     84  C   UNL     1       6.187   6.131  -3.533  1.00  0.00     0.200 A 
ATOM     85  F   UNL     1       6.078   3.801  -3.163  1.00  0.00    -0.200 F 
ATOM     86  F   UNL     1       7.503   6.048  -3.768  1.00  0.00    -0.200 F 
ENDBRANCH  52  76
BRANCH  64  87
ATOM     87  C   UNL     1      -1.985   7.886  -7.179  1.00  0.00     0.064 A 
ATOM     88  C   UNL     1      -1.760   6.976  -8.221  1.00  0.00     0.173 A 
ATOM     89  C   UNL     1      -2.361   9.195  -7.518  1.00  0.00     0.173 A 
ATOM     90  F   UNL     1      -1.381   5.718  -7.948  1.00  0.00    -0.203 F 
ATOM     91  C   UNL     1      -1.890   7.365  -9.551  1.00  0.00     0.198 A 
ATOM     92  C   UNL     1      -2.520   9.572  -8.849  1.00  0.00     0.198 A 
ATOM     93  F   UNL     1      -2.594  10.103  -6.558  1.00  0.00    -0.203 F 
ATOM     94  F   UNL     1      -1.631   6.489 -10.532  1.00  0.00    -0.200 F 
ATOM     95  C   UNL     1      -2.280   8.659  -9.864  1.00  0.00     0.200 A 
ATOM     96  F   UNL     1      -2.910  10.819  -9.148  1.00  0.00    -0.200 F 
ATOM     97  F   UNL     1      -2.418   9.027 -11.145  1.00  0.00    -0.200 F 
ENDBRANCH  64  87
ENDBRANCH  38  39
ENDBRANCH  30  33
ENDBRANCH  28  29
ENDBRANCH  27  28
ENDBRANCH   1  27
TORSDOF 14
