REMARK SMILES C[N@@H+](CC(C)(C)C(=O)NCCCNC(=O)c1ccc(-c2c3nc(c(-c4c(F)c(F)c(F)c(F)c4F)c4ccc([nH]4)c(-c4c(F)c(F)c(F)c(F)c4F)c4nc(c(-c5c(F)c(F)c(F)c(F)c5F)c5ccc2[nH]5)C=C4)C=C3)cc1)[C@@H]1CCCC[C@@H]1C[NH3+]
REMARK SMILES IDX 7 1 8 2 9 3 4 5 5 6 6 7 3 8 2 9 1 10 79 12 80 13 84 14 81 15
REMARK SMILES IDX 83 16 82 17 85 18 86 19 10 23 11 24 12 25 13 26 14 27 15 29
REMARK SMILES IDX 16 30 17 31 78 32 18 33 77 34 19 35 20 36 21 37 71 38 22 39
REMARK SMILES IDX 76 40 70 41 72 42 23 43 75 44 69 45 68 46 24 48 56 49 36 50
REMARK SMILES IDX 55 51 37 52 40 53 54 54 73 55 38 56 39 57 53 59 74 60 41 61
REMARK SMILES IDX 25 62 26 63 34 64 27 65 28 66 32 67 35 68 29 69 30 70 33 71
REMARK SMILES IDX 31 72 57 73 58 74 66 75 59 76 60 77 64 78 67 79 61 80 62 81
REMARK SMILES IDX 65 82 63 83 42 84 43 85 51 86 44 87 45 88 49 89 52 90 46 91
REMARK SMILES IDX 47 92 50 93 48 94
REMARK H PARENT 9 4 2 11 86 20 86 21 86 22 13 28 72 47 40 58
REMARK Flexibility Score: inf
ROOT
ATOM      1  C   UNL     1      -1.430   1.366  -0.544  1.00  0.00     0.231 C 
ATOM      2  O   UNL     1      -1.060   1.120   0.609  1.00  0.00    -0.274 OA
ATOM      3  N   UNL     1      -1.562   2.685  -0.813  1.00  0.00    -0.355 N 
ATOM      4  H   UNL     1      -1.002   3.268  -0.250  1.00  0.00     0.163 HD
ENDROOT
BRANCH   1   5
ATOM      5  C   UNL     1      -1.793   0.250  -1.534  1.00  0.00     0.092 C 
ATOM      6  C   UNL     1      -1.725   0.581  -3.041  1.00  0.00     0.027 C 
ATOM      7  C   UNL     1      -3.262  -0.115  -1.216  1.00  0.00     0.027 C 
BRANCH   5   8
ATOM      8  C   UNL     1      -0.890  -0.997  -1.208  1.00  0.00     0.278 C 
BRANCH   8   9
ATOM      9  N   UNL     1       0.587  -0.954  -1.195  1.00  0.00    -0.334 N 
ATOM     10  C   UNL     1       1.178  -0.790   0.120  1.00  0.00     0.333 C 
ATOM     11  H   UNL     1       0.809  -1.923  -1.425  1.00  0.00     0.348 HD
BRANCH   9  12
ATOM     12  C   UNL     1       1.300  -0.410  -2.350  1.00  0.00     0.192 C 
ATOM     13  C   UNL     1       2.605  -1.187  -2.639  1.00  0.00     0.065 C 
ATOM     14  C   UNL     1       1.573   1.126  -2.423  1.00  0.00     0.102 C 
ATOM     15  C   UNL     1       3.140  -0.835  -4.031  1.00  0.00     0.006 C 
ATOM     16  C   UNL     1       2.050   1.452  -3.855  1.00  0.00     0.015 C 
ATOM     17  C   UNL     1       3.303   0.668  -4.244  1.00  0.00     0.001 C 
BRANCH  14  18
ATOM     18  C   UNL     1       2.560   1.714  -1.383  1.00  0.00     0.268 C 
BRANCH  18  19
ATOM     19  N   UNL     1       1.919   2.677  -0.478  1.00  0.00    -0.357 N 
ATOM     20  H   UNL     1       1.559   3.464  -1.017  1.00  0.00     0.344 HD
ATOM     21  H   UNL     1       2.603   3.013   0.200  1.00  0.00     0.344 HD
ATOM     22  H   UNL     1       1.149   2.221   0.013  1.00  0.00     0.344 HD
ENDBRANCH  18  19
ENDBRANCH  14  18
ENDBRANCH   9  12
ENDBRANCH   8   9
ENDBRANCH   5   8
ENDBRANCH   1   5
BRANCH   3  23
ATOM     23  C   UNL     1      -2.375   3.398  -1.775  1.00  0.00     0.117 C 
BRANCH  23  24
ATOM     24  C   UNL     1      -3.549   4.074  -1.081  1.00  0.00     0.042 C 
BRANCH  24  25
ATOM     25  C   UNL     1      -3.135   5.093  -0.027  1.00  0.00     0.118 C 
BRANCH  25  26
ATOM     26  N   UNL     1      -2.416   6.226  -0.592  1.00  0.00    -0.352 N 
ATOM     27  C   UNL     1      -2.807   7.535  -0.738  1.00  0.00     0.251 C 
ATOM     28  H   UNL     1      -1.510   6.023  -0.921  1.00  0.00     0.163 HD
ATOM     29  O   UNL     1      -2.154   8.298  -1.439  1.00  0.00    -0.269 OA
BRANCH  27  30
ATOM     30  C   UNL     1      -4.034   8.017  -0.069  1.00  0.00     0.039 A 
ATOM     31  C   UNL     1      -4.899   8.862  -0.767  1.00  0.00     0.014 A 
ATOM     32  C   UNL     1      -4.330   7.641   1.243  1.00  0.00     0.014 A 
ATOM     33  C   UNL     1      -6.094   9.270  -0.173  1.00  0.00     0.010 A 
ATOM     34  C   UNL     1      -5.568   7.957   1.790  1.00  0.00     0.010 A 
ATOM     35  C   UNL     1      -6.459   8.785   1.093  1.00  0.00    -0.014 A 
BRANCH  35  36
ATOM     36  C   UNL     1      -7.763   9.137   1.708  1.00  0.00     0.031 A 
ATOM     37  C   UNL     1      -7.810   9.880   3.014  1.00  0.00     0.074 A 
ATOM     38  C   UNL     1      -8.905   8.723   1.126  1.00  0.00     0.049 A 
ATOM     39  N   UNL     1      -8.847  10.229   3.733  1.00  0.00    -0.248 NA
ATOM     40  C   UNL     1      -6.517  10.251   3.610  1.00  0.00     0.031 C 
ATOM     41  C   UNL     1      -8.988   7.938  -0.106  1.00  0.00     0.029 A 
ATOM     42  N   UNL     1     -10.214   8.895   1.500  1.00  0.00    -0.354 N 
ATOM     43  C   UNL     1      -8.330  10.839   4.869  1.00  0.00     0.074 A 
ATOM     44  C   UNL     1      -6.890  10.754   4.775  1.00  0.00     0.031 C 
ATOM     45  C   UNL     1     -10.279   7.718  -0.401  1.00  0.00     0.029 A 
ATOM     46  C   UNL     1     -11.112   8.309   0.641  1.00  0.00     0.049 A 
ATOM     47  H   UNL     1     -10.484   9.390   2.306  1.00  0.00     0.167 HD
ATOM     48  C   UNL     1      -8.997  11.436   5.885  1.00  0.00     0.037 A 
ATOM     49  C   UNL     1     -12.456   8.246   0.694  1.00  0.00     0.037 A 
ATOM     50  C   UNL     1     -10.431  11.533   5.960  1.00  0.00     0.049 A 
ATOM     51  C   UNL     1     -13.177   8.922   1.827  1.00  0.00     0.074 A 
ATOM     52  C   UNL     1     -11.205  12.187   6.902  1.00  0.00     0.029 A 
ATOM     53  N   UNL     1     -11.310  10.946   5.059  1.00  0.00    -0.354 N 
ATOM     54  N   UNL     1     -12.681   9.576   2.850  1.00  0.00    -0.248 NA
ATOM     55  C   UNL     1     -14.644   8.860   1.808  1.00  0.00     0.031 C 
ATOM     56  C   UNL     1     -12.550  11.939   6.611  1.00  0.00     0.029 A 
ATOM     57  C   UNL     1     -12.619  11.191   5.446  1.00  0.00     0.049 A 
ATOM     58  H   UNL     1     -11.044  10.431   4.264  1.00  0.00     0.167 HD
ATOM     59  C   UNL     1     -13.772  10.022   3.584  1.00  0.00     0.074 A 
ATOM     60  C   UNL     1     -14.957   9.578   2.877  1.00  0.00     0.031 C 
ATOM     61  C   UNL     1     -13.790  10.735   4.738  1.00  0.00     0.037 A 
BRANCH  48  62
ATOM     62  C   UNL     1      -8.177  12.018   7.003  1.00  0.00     0.064 A 
ATOM     63  C   UNL     1      -7.330  13.121   6.809  1.00  0.00     0.173 A 
ATOM     64  C   UNL     1      -8.243  11.467   8.293  1.00  0.00     0.173 A 
ATOM     65  F   UNL     1      -7.219  13.682   5.595  1.00  0.00    -0.203 F 
ATOM     66  C   UNL     1      -6.546  13.618   7.847  1.00  0.00     0.198 A 
ATOM     67  C   UNL     1      -7.488  11.992   9.338  1.00  0.00     0.198 A 
ATOM     68  F   UNL     1      -9.041  10.418   8.540  1.00  0.00    -0.203 F 
ATOM     69  F   UNL     1      -5.693  14.626   7.617  1.00  0.00    -0.200 F 
ATOM     70  C   UNL     1      -6.630  13.057   9.112  1.00  0.00     0.200 A 
ATOM     71  F   UNL     1      -7.583  11.459  10.564  1.00  0.00    -0.200 F 
ATOM     72  F   UNL     1      -5.877  13.537  10.111  1.00  0.00    -0.200 F 
ENDBRANCH  48  62
BRANCH  49  73
ATOM     73  C   UNL     1     -13.198   7.535  -0.380  1.00  0.00     0.064 A 
ATOM     74  C   UNL     1     -13.972   8.239  -1.312  1.00  0.00     0.173 A 
ATOM     75  C   UNL     1     -13.122   6.141  -0.515  1.00  0.00     0.173 A 
ATOM     76  F   UNL     1     -14.090   9.572  -1.214  1.00  0.00    -0.203 F 
ATOM     77  C   UNL     1     -14.651   7.575  -2.332  1.00  0.00     0.198 A 
ATOM     78  C   UNL     1     -13.777   5.481  -1.553  1.00  0.00     0.198 A 
ATOM     79  F   UNL     1     -12.388   5.421   0.346  1.00  0.00    -0.203 F 
ATOM     80  F   UNL     1     -15.412   8.269  -3.189  1.00  0.00    -0.200 F 
ATOM     81  C   UNL     1     -14.546   6.198  -2.457  1.00  0.00     0.200 A 
ATOM     82  F   UNL     1     -13.656   4.153  -1.681  1.00  0.00    -0.200 F 
ATOM     83  F   UNL     1     -15.186   5.562  -3.448  1.00  0.00    -0.200 F 
ENDBRANCH  49  73
BRANCH  61  84
ATOM     84  C   UNL     1     -15.135  11.103   5.298  1.00  0.00     0.064 A 
ATOM     85  C   UNL     1     -15.992  10.142   5.854  1.00  0.00     0.173 A 
ATOM     86  C   UNL     1     -15.554  12.442   5.313  1.00  0.00     0.173 A 
ATOM     87  F   UNL     1     -15.646   8.846   5.853  1.00  0.00    -0.203 F 
ATOM     88  C   UNL     1     -17.232  10.504   6.376  1.00  0.00     0.198 A 
ATOM     89  C   UNL     1     -16.778  12.805   5.868  1.00  0.00     0.198 A 
ATOM     90  F   UNL     1     -14.770  13.403   4.801  1.00  0.00    -0.203 F 
ATOM     91  F   UNL     1     -18.058   9.561   6.851  1.00  0.00    -0.200 F 
ATOM     92  C   UNL     1     -17.620  11.835   6.389  1.00  0.00     0.200 A 
ATOM     93  F   UNL     1     -17.144  14.094   5.896  1.00  0.00    -0.200 F 
ATOM     94  F   UNL     1     -18.810  12.183   6.899  1.00  0.00    -0.200 F 
ENDBRANCH  61  84
ENDBRANCH  35  36
ENDBRANCH  27  30
ENDBRANCH  25  26
ENDBRANCH  24  25
ENDBRANCH  23  24
ENDBRANCH   3  23
TORSDOF 15
