REMARK SMILES CCc1c(C(=O)NCCCNC(=O)c2ccc(-c3c4nc(c(-c5c(F)c(F)c(F)c(F)c5F)c5ccc([nH]5)c(-c5c(F)c(F)c(F)c(F)c5F)c5nc(c(-c6c(F)c(F)c(F)c(F)c6F)c6ccc3[nH]6)C=C5)C=C4)cc2)nnn1-c1ccc(OC)cc1
REMARK SMILES IDX 9 1 8 2 7 3 5 4 6 5 4 7 3 8 79 9 77 10 78 11 2 12 1 13 80 14
REMARK SMILES IDX 81 15 87 16 82 17 86 18 83 19 84 20 85 21 10 22 11 23 12 24
REMARK SMILES IDX 13 26 14 27 15 28 76 29 16 30 75 31 17 32 18 33 19 34 69 35
REMARK SMILES IDX 20 36 74 37 68 38 70 39 21 40 73 41 67 42 66 43 22 45 54 46
REMARK SMILES IDX 34 47 53 48 35 49 38 50 52 51 71 52 36 53 37 54 51 56 72 57
REMARK SMILES IDX 39 58 23 59 24 60 32 61 25 62 26 63 30 64 33 65 27 66 28 67
REMARK SMILES IDX 31 68 29 69 55 70 56 71 64 72 57 73 58 74 62 75 65 76 59 77
REMARK SMILES IDX 60 78 63 79 61 80 40 81 41 82 49 83 42 84 43 85 47 86 50 87
REMARK SMILES IDX 44 88 45 89 48 90 46 91
REMARK H PARENT 7 6 11 25 70 44 38 55
REMARK Flexibility Score: inf
ROOT
ATOM      1  C   UNL     1       1.178   1.139   1.175  1.00  0.00     0.042 C 
ENDROOT
BRANCH   1   2
ATOM      2  C   UNL     1       2.414   0.302   0.828  1.00  0.00     0.118 C 
BRANCH   2   3
ATOM      3  N   UNL     1       2.682  -0.649   1.864  1.00  0.00    -0.351 N 
ATOM      4  C   UNL     1       2.283  -1.939   2.051  1.00  0.00     0.273 C 
ATOM      5  O   UNL     1       2.686  -2.410   3.123  1.00  0.00    -0.267 OA
ATOM      6  H   UNL     1       3.265  -0.305   2.578  1.00  0.00     0.163 HD
BRANCH   4   7
ATOM      7  C   UNL     1       1.477  -2.764   1.131  1.00  0.00     0.174 A 
ATOM      8  C   UNL     1       0.850  -2.702  -0.129  1.00  0.00     0.077 A 
ATOM      9  N   UNL     1       0.440  -4.041  -0.318  1.00  0.00    -0.217 N 
ATOM     10  N   UNL     1       1.225  -4.030   1.658  1.00  0.00    -0.124 NA
ATOM     11  N   UNL     1       0.512  -4.738   0.816  1.00  0.00    -0.061 NA
BRANCH   8  12
ATOM     12  C   UNL     1       0.529  -1.769  -1.278  1.00  0.00     0.055 C 
ATOM     13  C   UNL     1      -0.026  -0.387  -1.116  1.00  0.00     0.011 C 
ENDBRANCH   8  12
BRANCH   9  14
ATOM     14  C   UNL     1      -0.172  -4.600  -1.466  1.00  0.00     0.067 A 
ATOM     15  C   UNL     1      -1.417  -5.212  -1.320  1.00  0.00     0.032 A 
ATOM     16  C   UNL     1       0.357  -4.348  -2.740  1.00  0.00     0.032 A 
ATOM     17  C   UNL     1      -2.184  -5.449  -2.460  1.00  0.00     0.048 A 
ATOM     18  C   UNL     1      -0.421  -4.587  -3.872  1.00  0.00     0.048 A 
ATOM     19  C   UNL     1      -1.707  -5.110  -3.733  1.00  0.00     0.119 A 
BRANCH  19  20
ATOM     20  O   UNL     1      -2.592  -5.324  -4.753  1.00  0.00    -0.497 OA
ATOM     21  C   UNL     1      -2.195  -4.880  -6.045  1.00  0.00     0.278 C 
ENDBRANCH  19  20
ENDBRANCH   9  14
ENDBRANCH   4   7
ENDBRANCH   2   3
ENDBRANCH   1   2
BRANCH   1  22
ATOM     22  C   UNL     1       1.556   2.490   1.708  1.00  0.00     0.118 C 
BRANCH  22  23
ATOM     23  N   UNL     1       2.090   3.362   0.642  1.00  0.00    -0.352 N 
ATOM     24  C   UNL     1       2.344   4.729   0.695  1.00  0.00     0.251 C 
ATOM     25  H   UNL     1       2.291   2.920  -0.214  1.00  0.00     0.163 HD
ATOM     26  O   UNL     1       2.492   5.394  -0.305  1.00  0.00    -0.269 OA
BRANCH  24  27
ATOM     27  C   UNL     1       2.412   5.330   2.039  1.00  0.00     0.039 A 
ATOM     28  C   UNL     1       1.795   6.535   2.369  1.00  0.00     0.014 A 
ATOM     29  C   UNL     1       2.956   4.517   3.016  1.00  0.00     0.014 A 
ATOM     30  C   UNL     1       1.647   6.835   3.720  1.00  0.00     0.010 A 
ATOM     31  C   UNL     1       2.445   4.619   4.268  1.00  0.00     0.010 A 
ATOM     32  C   UNL     1       1.941   5.838   4.667  1.00  0.00    -0.014 A 
BRANCH  32  33
ATOM     33  C   UNL     1       1.656   5.972   6.086  1.00  0.00     0.031 A 
ATOM     34  C   UNL     1       0.273   6.412   6.356  1.00  0.00     0.074 A 
ATOM     35  C   UNL     1       2.496   5.528   7.052  1.00  0.00     0.049 A 
ATOM     36  N   UNL     1      -0.107   7.606   6.660  1.00  0.00    -0.248 NA
ATOM     37  C   UNL     1      -0.838   5.496   6.051  1.00  0.00     0.031 C 
ATOM     38  C   UNL     1       3.741   4.755   6.894  1.00  0.00     0.029 A 
ATOM     39  N   UNL     1       2.371   5.597   8.407  1.00  0.00    -0.354 N 
ATOM     40  C   UNL     1      -1.476   7.513   6.875  1.00  0.00     0.074 A 
ATOM     41  C   UNL     1      -1.894   6.293   6.241  1.00  0.00     0.031 C 
ATOM     42  C   UNL     1       4.114   4.227   8.078  1.00  0.00     0.029 A 
ATOM     43  C   UNL     1       3.271   4.796   9.107  1.00  0.00     0.049 A 
ATOM     44  H   UNL     1       1.702   6.164   8.854  1.00  0.00     0.167 HD
ATOM     45  C   UNL     1      -2.046   8.256   7.865  1.00  0.00     0.037 A 
ATOM     46  C   UNL     1       3.341   4.631  10.449  1.00  0.00     0.037 A 
ATOM     47  C   UNL     1      -1.099   9.237   8.346  1.00  0.00     0.049 A 
ATOM     48  C   UNL     1       2.686   5.808  11.062  1.00  0.00     0.074 A 
ATOM     49  C   UNL     1      -0.559  10.418   7.887  1.00  0.00     0.029 A 
ATOM     50  N   UNL     1      -0.255   8.749   9.310  1.00  0.00    -0.354 N 
ATOM     51  N   UNL     1       3.164   7.019  10.969  1.00  0.00    -0.248 NA
ATOM     52  C   UNL     1       1.283   5.718  11.448  1.00  0.00     0.031 C 
ATOM     53  C   UNL     1       0.720  10.540   8.511  1.00  0.00     0.029 A 
ATOM     54  C   UNL     1       0.908   9.466   9.378  1.00  0.00     0.049 A 
ATOM     55  H   UNL     1      -0.462   7.976   9.884  1.00  0.00     0.167 HD
ATOM     56  C   UNL     1       2.044   7.818  10.849  1.00  0.00     0.074 A 
ATOM     57  C   UNL     1       0.935   7.003  11.329  1.00  0.00     0.031 C 
ATOM     58  C   UNL     1       2.067   8.928  10.056  1.00  0.00     0.037 A 
BRANCH  45  59
ATOM     59  C   UNL     1      -3.180   7.803   8.765  1.00  0.00     0.064 A 
ATOM     60  C   UNL     1      -3.677   8.714   9.723  1.00  0.00     0.173 A 
ATOM     61  C   UNL     1      -3.568   6.459   8.957  1.00  0.00     0.173 A 
ATOM     62  F   UNL     1      -3.370  10.018   9.649  1.00  0.00    -0.203 F 
ATOM     63  C   UNL     1      -4.423   8.296  10.829  1.00  0.00     0.198 A 
ATOM     64  C   UNL     1      -4.352   6.053  10.037  1.00  0.00     0.198 A 
ATOM     65  F   UNL     1      -3.122   5.463   8.186  1.00  0.00    -0.203 F 
ATOM     66  F   UNL     1      -4.764   9.181  11.776  1.00  0.00    -0.200 F 
ATOM     67  C   UNL     1      -4.752   6.964  10.990  1.00  0.00     0.200 A 
ATOM     68  F   UNL     1      -4.641   4.753  10.185  1.00  0.00    -0.200 F 
ATOM     69  F   UNL     1      -5.411   6.549  12.079  1.00  0.00    -0.200 F 
ENDBRANCH  45  59
BRANCH  46  70
ATOM     70  C   UNL     1       3.725   3.431  11.223  1.00  0.00     0.064 A 
ATOM     71  C   UNL     1       4.109   3.521  12.570  1.00  0.00     0.173 A 
ATOM     72  C   UNL     1       3.437   2.142  10.736  1.00  0.00     0.173 A 
ATOM     73  F   UNL     1       4.367   4.717  13.119  1.00  0.00    -0.203 F 
ATOM     74  C   UNL     1       4.162   2.391  13.394  1.00  0.00     0.198 A 
ATOM     75  C   UNL     1       3.489   1.015  11.558  1.00  0.00     0.198 A 
ATOM     76  F   UNL     1       3.001   1.969   9.479  1.00  0.00    -0.203 F 
ATOM     77  F   UNL     1       4.466   2.523  14.692  1.00  0.00    -0.200 F 
ATOM     78  C   UNL     1       3.836   1.142  12.891  1.00  0.00     0.200 A 
ATOM     79  F   UNL     1       3.133  -0.181  11.069  1.00  0.00    -0.200 F 
ATOM     80  F   UNL     1       3.814   0.071  13.696  1.00  0.00    -0.200 F 
ENDBRANCH  46  70
BRANCH  58  81
ATOM     81  C   UNL     1       3.403   9.540   9.765  1.00  0.00     0.064 A 
ATOM     82  C   UNL     1       4.411   8.940   8.993  1.00  0.00     0.173 A 
ATOM     83  C   UNL     1       3.638  10.837  10.239  1.00  0.00     0.173 A 
ATOM     84  F   UNL     1       4.233   7.732   8.443  1.00  0.00    -0.203 F 
ATOM     85  C   UNL     1       5.615   9.599   8.743  1.00  0.00     0.198 A 
ATOM     86  C   UNL     1       4.823  11.507   9.957  1.00  0.00     0.198 A 
ATOM     87  F   UNL     1       2.693  11.473  10.949  1.00  0.00    -0.203 F 
ATOM     88  F   UNL     1       6.572   8.999   8.020  1.00  0.00    -0.200 F 
ATOM     89  C   UNL     1       5.816  10.884   9.220  1.00  0.00     0.200 A 
ATOM     90  F   UNL     1       4.994  12.765  10.387  1.00  0.00    -0.200 F 
ATOM     91  F   UNL     1       6.960  11.531   8.953  1.00  0.00    -0.200 F 
ENDBRANCH  58  81
ENDBRANCH  32  33
ENDBRANCH  24  27
ENDBRANCH  22  23
ENDBRANCH   1  22
TORSDOF 13
