REMARK SMILES Cc1cccc(C)c1OCC(=O)N[C@@H](Cc1c[nH]c2ccccc12)C(=O)NCCCNC(=O)c1ccc(-c2c3nc(c(-c4c(F)c(F)c(F)c(F)c4F)c4ccc([nH]4)c(-c4c(F)c(F)c(F)c(F)c4F)c4nc(c(-c5c(F)c(F)c(F)c(F)c5F)c5ccc2[nH]5)C=C4)C=C3)cc1
REMARK SMILES IDX 28 1 27 2 25 3 26 4 14 6 13 7 11 8 12 9 10 11 9 12 8 13 1 14
REMARK SMILES IDX 2 15 3 16 4 17 6 18 5 19 7 20 15 21 16 22 17 23 24 24 18 25
REMARK SMILES IDX 19 26 23 27 20 29 22 30 21 31 29 32 30 33 31 34 32 35 33 37
REMARK SMILES IDX 34 38 35 39 96 40 36 41 95 42 37 43 38 44 39 45 89 46 40 47
REMARK SMILES IDX 94 48 88 49 90 50 41 51 93 52 87 53 86 54 42 56 74 57 54 58
REMARK SMILES IDX 73 59 55 60 58 61 72 62 91 63 56 64 57 65 71 67 92 68 59 69
REMARK SMILES IDX 43 70 44 71 52 72 45 73 46 74 50 75 53 76 47 77 48 78 51 79
REMARK SMILES IDX 49 80 75 81 76 82 84 83 77 84 78 85 82 86 85 87 79 88 80 89
REMARK SMILES IDX 83 90 81 91 60 92 61 93 69 94 62 95 63 96 67 97 70 98 64 99
REMARK SMILES IDX 65 100 68 101 66 102
REMARK H PARENT 27 5 13 10 18 28 31 36 90 55 58 66
REMARK Flexibility Score: inf
ROOT
ATOM      1  C   UNL     1       1.751   4.066   5.253  1.00  0.00     0.117 C 
ENDROOT
BRANCH   1   2
ATOM      2  N   UNL     1       1.197   5.049   4.343  1.00  0.00    -0.354 N 
ATOM      3  C   UNL     1       0.226   4.886   3.393  1.00  0.00     0.242 C 
ATOM      4  O   UNL     1      -0.446   5.883   3.105  1.00  0.00    -0.273 OA
ATOM      5  H   UNL     1       1.571   5.956   4.418  1.00  0.00     0.163 HD
BRANCH   3   6
ATOM      6  C   UNL     1      -0.083   3.518   2.738  1.00  0.00     0.175 C 
BRANCH   6   7
ATOM      7  N   UNL     1       1.166   2.826   2.414  1.00  0.00    -0.341 N 
ATOM      8  C   UNL     1       1.878   3.016   1.262  1.00  0.00     0.258 C 
ATOM      9  O   UNL     1       3.107   3.074   1.328  1.00  0.00    -0.271 OA
ATOM     10  H   UNL     1       1.517   2.180   3.069  1.00  0.00     0.164 HD
BRANCH   8  11
ATOM     11  C   UNL     1       1.129   3.144  -0.064  1.00  0.00     0.329 C 
BRANCH  11  12
ATOM     12  O   UNL     1       0.040   2.273  -0.285  1.00  0.00    -0.483 OA
BRANCH  12  13
ATOM     13  C   UNL     1       0.119   0.910  -0.193  1.00  0.00     0.125 A 
ATOM     14  C   UNL     1       2.689   0.503  -0.343  1.00  0.00     0.048 C 
ATOM     15  C   UNL     1       1.254   0.076  -0.213  1.00  0.00    -0.009 A 
ATOM     16  C   UNL     1       1.072  -1.319  -0.076  1.00  0.00     0.007 A 
ATOM     17  C   UNL     1      -0.190  -1.892   0.030  1.00  0.00     0.001 A 
ATOM     18  C   UNL     1      -1.168   0.314  -0.097  1.00  0.00    -0.009 A 
ATOM     19  C   UNL     1      -1.309  -1.077   0.013  1.00  0.00     0.007 A 
ATOM     20  C   UNL     1      -2.417   1.161  -0.109  1.00  0.00     0.048 C 
ENDBRANCH  12  13
ENDBRANCH  11  12
ENDBRANCH   8  11
ENDBRANCH   6   7
BRANCH   6  21
ATOM     21  C   UNL     1      -1.156   2.683   3.460  1.00  0.00     0.072 C 
BRANCH  21  22
ATOM     22  C   UNL     1      -0.919   2.305   4.891  1.00  0.00    -0.020 A 
ATOM     23  C   UNL     1      -1.172   3.095   6.000  1.00  0.00     0.087 A 
ATOM     24  C   UNL     1      -0.453   1.044   5.392  1.00  0.00     0.003 A 
ATOM     25  N   UNL     1      -0.745   2.427   7.117  1.00  0.00    -0.361 N 
ATOM     26  C   UNL     1      -0.300   1.173   6.774  1.00  0.00     0.046 A 
ATOM     27  C   UNL     1      -0.138  -0.195   4.798  1.00  0.00     0.010 A 
ATOM     28  H   UNL     1      -0.754   2.792   8.031  1.00  0.00     0.166 HD
ATOM     29  C   UNL     1       0.207   0.149   7.582  1.00  0.00     0.026 A 
ATOM     30  C   UNL     1       0.320  -1.247   5.600  1.00  0.00     0.001 A 
ATOM     31  C   UNL     1       0.506  -1.070   6.969  1.00  0.00     0.002 A 
ENDBRANCH  21  22
ENDBRANCH   6  21
ENDBRANCH   3   6
ENDBRANCH   1   2
BRANCH   1  32
ATOM     32  C   UNL     1       3.202   4.291   5.616  1.00  0.00     0.042 C 
BRANCH  32  33
ATOM     33  C   UNL     1       3.387   5.451   6.583  1.00  0.00     0.118 C 
BRANCH  33  34
ATOM     34  N   UNL     1       2.641   5.283   7.834  1.00  0.00    -0.352 N 
ATOM     35  C   UNL     1       3.070   5.041   9.116  1.00  0.00     0.251 C 
ATOM     36  H   UNL     1       1.664   5.356   7.739  1.00  0.00     0.163 HD
ATOM     37  O   UNL     1       2.264   4.702   9.979  1.00  0.00    -0.269 OA
BRANCH  35  38
ATOM     38  C   UNL     1       4.502   5.176   9.446  1.00  0.00     0.039 A 
ATOM     39  C   UNL     1       5.108   4.258  10.307  1.00  0.00     0.014 A 
ATOM     40  C   UNL     1       5.252   6.205   8.879  1.00  0.00     0.014 A 
ATOM     41  C   UNL     1       6.489   4.314  10.508  1.00  0.00     0.010 A 
ATOM     42  C   UNL     1       6.633   6.179   8.973  1.00  0.00     0.010 A 
ATOM     43  C   UNL     1       7.269   5.238   9.794  1.00  0.00    -0.014 A 
BRANCH  43  44
ATOM     44  C   UNL     1       8.751   5.259   9.877  1.00  0.00     0.031 A 
ATOM     45  C   UNL     1       9.454   6.516  10.313  1.00  0.00     0.074 A 
ATOM     46  C   UNL     1       9.459   4.198   9.445  1.00  0.00     0.049 A 
ATOM     47  N   UNL     1      10.732   6.796  10.306  1.00  0.00    -0.248 NA
ATOM     48  C   UNL     1       8.601   7.626  10.770  1.00  0.00     0.031 C 
ATOM     49  C   UNL     1       8.892   2.950   8.929  1.00  0.00     0.029 A 
ATOM     50  N   UNL     1      10.815   4.006   9.355  1.00  0.00    -0.354 N 
ATOM     51  C   UNL     1      10.828   8.121  10.711  1.00  0.00     0.074 A 
ATOM     52  C   UNL     1       9.480   8.607  10.900  1.00  0.00     0.031 C 
ATOM     53  C   UNL     1       9.890   2.110   8.612  1.00  0.00     0.029 A 
ATOM     54  C   UNL     1      11.165   2.774   8.858  1.00  0.00     0.049 A 
ATOM     55  H   UNL     1      11.474   4.687   9.622  1.00  0.00     0.167 HD
ATOM     56  C   UNL     1      11.942   8.857  10.934  1.00  0.00     0.037 A 
ATOM     57  C   UNL     1      12.381   2.246   8.624  1.00  0.00     0.037 A 
ATOM     58  C   UNL     1      13.279   8.345  10.808  1.00  0.00     0.049 A 
ATOM     59  C   UNL     1      13.604   3.070   8.921  1.00  0.00     0.074 A 
ATOM     60  C   UNL     1      14.476   8.972  11.107  1.00  0.00     0.029 A 
ATOM     61  N   UNL     1      13.595   7.074  10.349  1.00  0.00    -0.354 N 
ATOM     62  N   UNL     1      13.685   4.294   9.382  1.00  0.00    -0.248 NA
ATOM     63  C   UNL     1      14.905   2.436   8.668  1.00  0.00     0.031 C 
ATOM     64  C   UNL     1      15.518   8.093  10.793  1.00  0.00     0.029 A 
ATOM     65  C   UNL     1      14.969   6.904  10.340  1.00  0.00     0.049 A 
ATOM     66  H   UNL     1      12.938   6.395  10.071  1.00  0.00     0.167 HD
ATOM     67  C   UNL     1      15.040   4.567   9.504  1.00  0.00     0.074 A 
ATOM     68  C   UNL     1      15.745   3.375   9.079  1.00  0.00     0.031 C 
ATOM     69  C   UNL     1      15.648   5.702   9.928  1.00  0.00     0.037 A 
BRANCH  56  70
ATOM     70  C   UNL     1      11.758  10.288  11.352  1.00  0.00     0.064 A 
ATOM     71  C   UNL     1      11.228  10.629  12.607  1.00  0.00     0.173 A 
ATOM     72  C   UNL     1      12.134  11.332  10.495  1.00  0.00     0.173 A 
ATOM     73  F   UNL     1      10.839   9.668  13.459  1.00  0.00    -0.203 F 
ATOM     74  C   UNL     1      11.047  11.960  12.971  1.00  0.00     0.198 A 
ATOM     75  C   UNL     1      11.984  12.663  10.877  1.00  0.00     0.198 A 
ATOM     76  F   UNL     1      12.650  11.064   9.286  1.00  0.00    -0.203 F 
ATOM     77  F   UNL     1      10.484  12.259  14.150  1.00  0.00    -0.200 F 
ATOM     78  C   UNL     1      11.431  12.976  12.110  1.00  0.00     0.200 A 
ATOM     79  F   UNL     1      12.367  13.644  10.048  1.00  0.00    -0.200 F 
ATOM     80  F   UNL     1      11.261  14.257  12.464  1.00  0.00    -0.200 F 
ENDBRANCH  56  70
BRANCH  57  81
ATOM     81  C   UNL     1      12.503   0.851   8.127  1.00  0.00     0.064 A 
ATOM     82  C   UNL     1      12.993  -0.162   8.964  1.00  0.00     0.173 A 
ATOM     83  C   UNL     1      12.139   0.498   6.820  1.00  0.00     0.173 A 
ATOM     84  F   UNL     1      13.371   0.131  10.217  1.00  0.00    -0.203 F 
ATOM     85  C   UNL     1      13.133  -1.470   8.507  1.00  0.00     0.198 A 
ATOM     86  C   UNL     1      12.255  -0.817   6.372  1.00  0.00     0.198 A 
ATOM     87  F   UNL     1      11.658   1.428   5.982  1.00  0.00    -0.203 F 
ATOM     88  F   UNL     1      13.645  -2.409   9.315  1.00  0.00    -0.200 F 
ATOM     89  C   UNL     1      12.759  -1.798   7.213  1.00  0.00     0.200 A 
ATOM     90  F   UNL     1      11.880  -1.133   5.125  1.00  0.00    -0.200 F 
ATOM     91  F   UNL     1      12.892  -3.057   6.774  1.00  0.00    -0.200 F 
ENDBRANCH  57  81
BRANCH  69  92
ATOM     92  C   UNL     1      17.145   5.694   9.995  1.00  0.00     0.064 A 
ATOM     93  C   UNL     1      17.934   5.738   8.837  1.00  0.00     0.173 A 
ATOM     94  C   UNL     1      17.798   5.687  11.238  1.00  0.00     0.173 A 
ATOM     95  F   UNL     1      17.356   5.729   7.626  1.00  0.00    -0.203 F 
ATOM     96  C   UNL     1      19.323   5.752   8.920  1.00  0.00     0.198 A 
ATOM     97  C   UNL     1      19.186   5.732  11.317  1.00  0.00     0.198 A 
ATOM     98  F   UNL     1      17.087   5.653  12.375  1.00  0.00    -0.203 F 
ATOM     99  F   UNL     1      20.059   5.749   7.799  1.00  0.00    -0.200 F 
ATOM    100  C   UNL     1      19.948   5.757  10.158  1.00  0.00     0.200 A 
ATOM    101  F   UNL     1      19.787   5.751  12.514  1.00  0.00    -0.200 F 
ATOM    102  F   UNL     1      21.285   5.781  10.236  1.00  0.00    -0.200 F 
ENDBRANCH  69  92
ENDBRANCH  43  44
ENDBRANCH  35  38
ENDBRANCH  33  34
ENDBRANCH  32  33
ENDBRANCH   1  32
TORSDOF 16
