REMARK SMILES CC(C)CCNC(=O)[C@@H](C)Oc1ccc(N)cc1C(=O)NCCCNC(=O)c1ccc(-c2c3nc(c(-c4c(F)c(F)c(F)c(F)c4F)c4ccc([nH]4)c(-c4c(F)c(F)c(F)c(F)c4F)c4nc(c(-c5c(F)c(F)c(F)c(F)c5F)c5ccc2[nH]5)C=C4)C=C3)cc1
REMARK SMILES IDX 19 1 20 2 21 3 18 5 12 6 13 7 14 8 17 9 15 10 11 11 9 12
REMARK SMILES IDX 10 13 7 14 6 15 8 17 5 18 4 19 2 20 1 21 3 22 16 23 22 26
REMARK SMILES IDX 23 27 24 28 25 29 26 30 27 32 28 33 29 34 90 35 30 36 89 37
REMARK SMILES IDX 31 38 32 39 33 40 83 41 34 42 88 43 82 44 84 45 35 46 87 47
REMARK SMILES IDX 81 48 80 49 36 51 68 52 48 53 67 54 49 55 52 56 66 57 85 58
REMARK SMILES IDX 50 59 51 60 65 62 86 63 53 64 37 65 38 66 46 67 39 68 40 69
REMARK SMILES IDX 44 70 47 71 41 72 42 73 45 74 43 75 69 76 70 77 78 78 71 79
REMARK SMILES IDX 72 80 76 81 79 82 73 83 74 84 77 85 75 86 54 87 55 88 63 89
REMARK SMILES IDX 56 90 57 91 61 92 64 93 58 94 59 95 62 96 60 97
REMARK H PARENT 21 4 6 16 16 24 16 25 25 31 84 50 52 61
REMARK Flexibility Score: inf
ROOT
ATOM      1  C   UNL     1      -5.599  -1.297   1.078  1.00  0.00     0.255 C 
ATOM      2  O   UNL     1      -6.181  -0.993   0.033  1.00  0.00    -0.269 OA
ATOM      3  N   UNL     1      -6.391  -1.500   2.180  1.00  0.00    -0.352 N 
ATOM      4  H   UNL     1      -7.353  -1.543   1.975  1.00  0.00     0.163 HD
ENDROOT
BRANCH   1   5
ATOM      5  C   UNL     1      -4.128  -1.539   1.029  1.00  0.00     0.083 A 
ATOM      6  C   UNL     1      -3.179  -1.282   2.021  1.00  0.00     0.133 A 
ATOM      7  C   UNL     1      -1.905  -1.845   1.906  1.00  0.00     0.049 A 
ATOM      8  C   UNL     1      -1.491  -2.421   0.702  1.00  0.00     0.029 A 
ATOM      9  C   UNL     1      -3.675  -2.084  -0.193  1.00  0.00     0.043 A 
ATOM     10  C   UNL     1      -2.343  -2.443  -0.395  1.00  0.00     0.032 A 
BRANCH   6  11
ATOM     11  O   UNL     1      -3.458  -0.577   3.147  1.00  0.00    -0.480 OA
BRANCH  11  12
ATOM     12  C   UNL     1      -2.961   0.762   3.254  1.00  0.00     0.258 C 
ATOM     13  C   UNL     1      -3.651   1.774   2.330  1.00  0.00     0.064 C 
BRANCH  12  14
ATOM     14  C   UNL     1      -1.454   1.054   3.494  1.00  0.00     0.260 C 
ATOM     15  N   UNL     1      -0.562   1.229   2.479  1.00  0.00    -0.353 N 
ATOM     16  H   UNL     1       0.288   1.657   2.734  1.00  0.00     0.163 HD
ATOM     17  O   UNL     1      -1.017   1.161   4.646  1.00  0.00    -0.271 OA
BRANCH  15  18
ATOM     18  C   UNL     1      -0.683   0.878   1.081  1.00  0.00     0.116 C 
BRANCH  18  19
ATOM     19  C   UNL     1      -0.110   1.919   0.132  1.00  0.00     0.024 C 
BRANCH  19  20
ATOM     20  C   UNL     1       1.422   1.872  -0.019  1.00  0.00    -0.016 C 
ATOM     21  C   UNL     1       1.937   0.491  -0.441  1.00  0.00     0.007 C 
ATOM     22  C   UNL     1       1.849   2.911  -1.058  1.00  0.00     0.007 C 
ENDBRANCH  19  20
ENDBRANCH  18  19
ENDBRANCH  15  18
ENDBRANCH  12  14
ENDBRANCH  11  12
ENDBRANCH   6  11
BRANCH  10  23
ATOM     23  N   UNL     1      -1.922  -2.943  -1.615  1.00  0.00    -0.399 N 
ATOM     24  H   UNL     1      -0.979  -3.193  -1.746  1.00  0.00     0.156 HD
ATOM     25  H   UNL     1      -2.566  -3.049  -2.352  1.00  0.00     0.156 HD
ENDBRANCH  10  23
ENDBRANCH   1   5
BRANCH   3  26
ATOM     26  C   UNL     1      -6.085  -1.664   3.590  1.00  0.00     0.118 C 
BRANCH  26  27
ATOM     27  C   UNL     1      -6.123  -0.299   4.277  1.00  0.00     0.042 C 
BRANCH  27  28
ATOM     28  C   UNL     1      -7.527   0.154   4.648  1.00  0.00     0.118 C 
BRANCH  28  29
ATOM     29  N   UNL     1      -7.906  -0.336   5.962  1.00  0.00    -0.352 N 
ATOM     30  C   UNL     1      -8.157   0.363   7.114  1.00  0.00     0.251 C 
ATOM     31  H   UNL     1      -7.995  -1.313   6.036  1.00  0.00     0.163 HD
ATOM     32  O   UNL     1      -8.182  -0.240   8.189  1.00  0.00    -0.269 OA
BRANCH  30  33
ATOM     33  C   UNL     1      -8.403   1.826   7.096  1.00  0.00     0.039 A 
ATOM     34  C   UNL     1      -7.965   2.595   8.180  1.00  0.00     0.014 A 
ATOM     35  C   UNL     1      -9.129   2.437   6.069  1.00  0.00     0.014 A 
ATOM     36  C   UNL     1      -8.233   3.966   8.223  1.00  0.00     0.010 A 
ATOM     37  C   UNL     1      -9.323   3.817   6.071  1.00  0.00     0.010 A 
ATOM     38  C   UNL     1      -8.903   4.593   7.161  1.00  0.00    -0.014 A 
BRANCH  38  39
ATOM     39  C   UNL     1      -9.223   6.045   7.197  1.00  0.00     0.031 A 
ATOM     40  C   UNL     1     -10.659   6.497   7.208  1.00  0.00     0.074 A 
ATOM     41  C   UNL     1      -8.231   6.956   7.164  1.00  0.00     0.049 A 
ATOM     42  N   UNL     1     -11.150   7.710   7.147  1.00  0.00    -0.248 NA
ATOM     43  C   UNL     1     -11.684   5.442   7.265  1.00  0.00     0.031 C 
ATOM     44  C   UNL     1      -6.802   6.648   7.112  1.00  0.00     0.029 A 
ATOM     45  N   UNL     1      -8.277   8.328   7.159  1.00  0.00    -0.354 N 
ATOM     46  C   UNL     1     -12.531   7.560   7.128  1.00  0.00     0.074 A 
ATOM     47  C   UNL     1     -12.802   6.139   7.136  1.00  0.00     0.031 C 
ATOM     48  C   UNL     1      -6.106   7.796   7.102  1.00  0.00     0.029 A 
ATOM     49  C   UNL     1      -7.038   8.920   7.110  1.00  0.00     0.049 A 
ATOM     50  H   UNL     1      -9.118   8.840   7.188  1.00  0.00     0.167 HD
ATOM     51  C   UNL     1     -13.488   8.519   7.128  1.00  0.00     0.037 A 
ATOM     52  C   UNL     1      -6.695  10.222   7.069  1.00  0.00     0.037 A 
ATOM     53  C   UNL     1     -13.217   9.931   7.168  1.00  0.00     0.049 A 
ATOM     54  C   UNL     1      -7.776  11.268   7.092  1.00  0.00     0.074 A 
ATOM     55  C   UNL     1     -14.115  10.982   7.236  1.00  0.00     0.029 A 
ATOM     56  N   UNL     1     -11.947  10.490   7.152  1.00  0.00    -0.354 N 
ATOM     57  N   UNL     1      -9.077  11.114   7.128  1.00  0.00    -0.248 NA
ATOM     58  C   UNL     1      -7.340  12.672   7.077  1.00  0.00     0.031 C 
ATOM     59  C   UNL     1     -13.389  12.178   7.225  1.00  0.00     0.029 A 
ATOM     60  C   UNL     1     -12.038  11.871   7.195  1.00  0.00     0.049 A 
ATOM     61  H   UNL     1     -11.106   9.980   7.115  1.00  0.00     0.167 HD
ATOM     62  C   UNL     1      -9.613  12.393   7.168  1.00  0.00     0.074 A 
ATOM     63  C   UNL     1      -8.496  13.315   7.164  1.00  0.00     0.031 C 
ATOM     64  C   UNL     1     -10.914  12.771   7.205  1.00  0.00     0.037 A 
BRANCH  51  65
ATOM     65  C   UNL     1     -14.921   8.072   7.090  1.00  0.00     0.064 A 
ATOM     66  C   UNL     1     -15.527   7.444   8.190  1.00  0.00     0.173 A 
ATOM     67  C   UNL     1     -15.709   8.302   5.952  1.00  0.00     0.173 A 
ATOM     68  F   UNL     1     -14.815   7.191   9.298  1.00  0.00    -0.203 F 
ATOM     69  C   UNL     1     -16.857   7.035   8.140  1.00  0.00     0.198 A 
ATOM     70  C   UNL     1     -17.048   7.920   5.917  1.00  0.00     0.198 A 
ATOM     71  F   UNL     1     -15.184   8.905   4.875  1.00  0.00    -0.203 F 
ATOM     72  F   UNL     1     -17.398   6.392   9.184  1.00  0.00    -0.200 F 
ATOM     73  C   UNL     1     -17.618   7.279   7.007  1.00  0.00     0.200 A 
ATOM     74  F   UNL     1     -17.786   8.168   4.826  1.00  0.00    -0.200 F 
ATOM     75  F   UNL     1     -18.900   6.891   6.963  1.00  0.00    -0.200 F 
ENDBRANCH  51  65
BRANCH  52  76
ATOM     76  C   UNL     1      -5.261  10.608   7.035  1.00  0.00     0.064 A 
ATOM     77  C   UNL     1      -4.651  11.204   8.147  1.00  0.00     0.173 A 
ATOM     78  C   UNL     1      -4.471  10.387   5.897  1.00  0.00     0.173 A 
ATOM     79  F   UNL     1      -5.372  11.456   9.250  1.00  0.00    -0.203 F 
ATOM     80  C   UNL     1      -3.310  11.581   8.117  1.00  0.00     0.198 A 
ATOM     81  C   UNL     1      -3.123  10.740   5.878  1.00  0.00     0.198 A 
ATOM     82  F   UNL     1      -5.006   9.815   4.808  1.00  0.00    -0.203 F 
ATOM     83  F   UNL     1      -2.764  12.188   9.180  1.00  0.00    -0.200 F 
ATOM     84  C   UNL     1      -2.546  11.343   6.985  1.00  0.00     0.200 A 
ATOM     85  F   UNL     1      -2.384  10.497   4.787  1.00  0.00    -0.200 F 
ATOM     86  F   UNL     1      -1.255  11.702   6.959  1.00  0.00    -0.200 F 
ENDBRANCH  52  76
BRANCH  64  87
ATOM     87  C   UNL     1     -11.202  14.241   7.283  1.00  0.00     0.064 A 
ATOM     88  C   UNL     1     -11.029  15.084   6.176  1.00  0.00     0.173 A 
ATOM     89  C   UNL     1     -11.702  14.803   8.468  1.00  0.00     0.173 A 
ATOM     90  F   UNL     1     -10.539  14.596   5.026  1.00  0.00    -0.203 F 
ATOM     91  C   UNL     1     -11.327  16.442   6.258  1.00  0.00     0.198 A 
ATOM     92  C   UNL     1     -12.024  16.155   8.538  1.00  0.00     0.198 A 
ATOM     93  F   UNL     1     -11.890  14.036   9.552  1.00  0.00    -0.203 F 
ATOM     94  F   UNL     1     -11.116  17.237   5.201  1.00  0.00    -0.200 F 
ATOM     95  C   UNL     1     -11.831  16.974   7.436  1.00  0.00     0.200 A 
ATOM     96  F   UNL     1     -12.522  16.665   9.673  1.00  0.00    -0.200 F 
ATOM     97  F   UNL     1     -12.125  18.279   7.511  1.00  0.00    -0.200 F 
ENDBRANCH  64  87
ENDBRANCH  38  39
ENDBRANCH  30  33
ENDBRANCH  28  29
ENDBRANCH  27  28
ENDBRANCH  26  27
ENDBRANCH   3  26
TORSDOF 17
