REMARK SMILES O=C(CCCCc1nc(-c2ccccc2)no1)NCCCNC(=O)c1ccc(-c2c3nc(c(-c4c(F)c(F)c(F)c(F)c4F)c4ccc([nH]4)c(-c4c(F)c(F)c(F)c(F)c4F)c4nc(c(-c5c(F)c(F)c(F)c(F)c5F)c5ccc2[nH]5)C=C4)C=C3)cc1
REMARK SMILES IDX 1 1 2 2 18 3 3 5 4 6 5 7 6 8 7 9 8 10 17 11 9 12 16 13 10 14
REMARK SMILES IDX 11 15 15 16 12 17 14 18 13 19 19 20 20 21 21 22 22 23 23 24
REMARK SMILES IDX 24 26 25 27 26 28 87 29 27 30 86 31 28 32 29 33 30 34 80 35
REMARK SMILES IDX 31 36 85 37 79 38 81 39 32 40 84 41 78 42 77 43 33 45 65 46
REMARK SMILES IDX 45 47 64 48 46 49 49 50 63 51 82 52 47 53 48 54 62 56 83 57
REMARK SMILES IDX 50 58 34 59 35 60 43 61 36 62 37 63 41 64 44 65 38 66 39 67
REMARK SMILES IDX 42 68 40 69 66 70 67 71 75 72 68 73 69 74 73 75 76 76 70 77
REMARK SMILES IDX 71 78 74 79 72 80 51 81 52 82 60 83 53 84 54 85 58 86 61 87
REMARK SMILES IDX 55 88 56 89 59 90 57 91
REMARK H PARENT 18 4 22 25 81 44 49 55
REMARK Flexibility Score: inf
ROOT
ATOM      1  O   UNL     1       0.878   0.485  -0.185  1.00  0.00    -0.275 OA
ATOM      2  C   UNL     1       2.035   0.090  -0.093  1.00  0.00     0.219 C 
ATOM      3  N   UNL     1       2.655  -0.192   1.103  1.00  0.00    -0.356 N 
ATOM      4  H   UNL     1       3.561  -0.577   1.089  1.00  0.00     0.163 HD
ENDROOT
BRANCH   2   5
ATOM      5  C   UNL     1       2.924  -0.101  -1.306  1.00  0.00     0.100 C 
BRANCH   5   6
ATOM      6  C   UNL     1       3.819   1.112  -1.568  1.00  0.00     0.010 C 
BRANCH   6   7
ATOM      7  C   UNL     1       4.991   1.313  -0.596  1.00  0.00     0.010 C 
BRANCH   7   8
ATOM      8  C   UNL     1       5.978   0.148  -0.501  1.00  0.00     0.100 C 
BRANCH   8   9
ATOM      9  C   UNL     1       6.718  -0.103  -1.757  1.00  0.00     0.226 A 
ATOM     10  N   UNL     1       6.762  -1.183  -2.503  1.00  0.00    -0.191 NA
ATOM     11  O   UNL     1       7.554   0.885  -2.180  1.00  0.00    -0.339 OA
ATOM     12  C   UNL     1       7.736  -0.860  -3.426  1.00  0.00     0.202 A 
ATOM     13  N   UNL     1       8.229   0.382  -3.286  1.00  0.00    -0.057 NA
BRANCH  12  14
ATOM     14  C   UNL     1       8.234  -1.809  -4.409  1.00  0.00     0.023 A 
ATOM     15  C   UNL     1       9.595  -1.817  -4.750  1.00  0.00     0.012 A 
ATOM     16  C   UNL     1       7.376  -2.737  -5.011  1.00  0.00     0.012 A 
ATOM     17  C   UNL     1      10.090  -2.736  -5.676  1.00  0.00     0.001 A 
ATOM     18  C   UNL     1       7.870  -3.647  -5.950  1.00  0.00     0.001 A 
ATOM     19  C   UNL     1       9.226  -3.648  -6.279  1.00  0.00     0.000 A 
ENDBRANCH  12  14
ENDBRANCH   8   9
ENDBRANCH   7   8
ENDBRANCH   6   7
ENDBRANCH   5   6
ENDBRANCH   2   5
BRANCH   3  20
ATOM     20  C   UNL     1       2.022   0.058   2.382  1.00  0.00     0.117 C 
BRANCH  20  21
ATOM     21  C   UNL     1       2.324  -1.027   3.409  1.00  0.00     0.042 C 
BRANCH  21  22
ATOM     22  C   UNL     1       3.799  -1.201   3.761  1.00  0.00     0.118 C 
BRANCH  22  23
ATOM     23  N   UNL     1       4.392  -0.036   4.397  1.00  0.00    -0.352 N 
ATOM     24  C   UNL     1       5.199   0.046   5.505  1.00  0.00     0.251 C 
ATOM     25  H   UNL     1       4.184   0.826   3.969  1.00  0.00     0.163 HD
ATOM     26  O   UNL     1       5.512   1.153   5.943  1.00  0.00    -0.269 OA
BRANCH  24  27
ATOM     27  C   UNL     1       5.670  -1.172   6.205  1.00  0.00     0.039 A 
ATOM     28  C   UNL     1       5.663  -1.179   7.603  1.00  0.00     0.014 A 
ATOM     29  C   UNL     1       6.135  -2.293   5.511  1.00  0.00     0.014 A 
ATOM     30  C   UNL     1       6.053  -2.326   8.300  1.00  0.00     0.010 A 
ATOM     31  C   UNL     1       6.458  -3.462   6.204  1.00  0.00     0.010 A 
ATOM     32  C   UNL     1       6.417  -3.492   7.606  1.00  0.00    -0.014 A 
BRANCH  32  33
ATOM     33  C   UNL     1       6.721  -4.747   8.344  1.00  0.00     0.031 A 
ATOM     34  C   UNL     1       8.098  -5.352   8.311  1.00  0.00     0.074 A 
ATOM     35  C   UNL     1       5.735  -5.370   9.019  1.00  0.00     0.049 A 
ATOM     36  N   UNL     1       8.540  -6.435   8.902  1.00  0.00    -0.248 NA
ATOM     37  C   UNL     1       9.104  -4.666   7.487  1.00  0.00     0.031 C 
ATOM     38  C   UNL     1       4.342  -4.926   9.078  1.00  0.00     0.029 A 
ATOM     39  N   UNL     1       5.752  -6.510   9.784  1.00  0.00    -0.354 N 
ATOM     40  C   UNL     1       9.868  -6.563   8.517  1.00  0.00     0.074 A 
ATOM     41  C   UNL     1      10.146  -5.478   7.600  1.00  0.00     0.031 C 
ATOM     42  C   UNL     1       3.646  -5.763   9.863  1.00  0.00     0.029 A 
ATOM     43  C   UNL     1       4.535  -6.818  10.341  1.00  0.00     0.049 A 
ATOM     44  H   UNL     1       6.560  -7.056   9.920  1.00  0.00     0.167 HD
ATOM     45  C   UNL     1      10.780  -7.486   8.910  1.00  0.00     0.037 A 
ATOM     46  C   UNL     1       4.175  -7.831  11.152  1.00  0.00     0.037 A 
ATOM     47  C   UNL     1      10.511  -8.555   9.838  1.00  0.00     0.049 A 
ATOM     48  C   UNL     1       5.213  -8.826  11.594  1.00  0.00     0.074 A 
ATOM     49  C   UNL     1      11.384  -9.505  10.340  1.00  0.00     0.029 A 
ATOM     50  N   UNL     1       9.271  -8.818  10.403  1.00  0.00    -0.354 N 
ATOM     51  N   UNL     1       6.484  -8.889  11.285  1.00  0.00    -0.248 NA
ATOM     52  C   UNL     1       4.765  -9.882  12.512  1.00  0.00     0.031 C 
ATOM     53  C   UNL     1      10.665 -10.366  11.176  1.00  0.00     0.029 A 
ATOM     54  C   UNL     1       9.354  -9.924  11.236  1.00  0.00     0.049 A 
ATOM     55  H   UNL     1       8.453  -8.296  10.238  1.00  0.00     0.167 HD
ATOM     56  C   UNL     1       6.995  -9.970  11.989  1.00  0.00     0.074 A 
ATOM     57  C   UNL     1       5.898 -10.522  12.758  1.00  0.00     0.031 C 
ATOM     58  C   UNL     1       8.258 -10.463  11.998  1.00  0.00     0.037 A 
BRANCH  45  59
ATOM     59  C   UNL     1      12.166  -7.377   8.342  1.00  0.00     0.064 A 
ATOM     60  C   UNL     1      13.032  -6.336   8.713  1.00  0.00     0.173 A 
ATOM     61  C   UNL     1      12.650  -8.345   7.449  1.00  0.00     0.173 A 
ATOM     62  F   UNL     1      12.614  -5.379   9.555  1.00  0.00    -0.203 F 
ATOM     63  C   UNL     1      14.320  -6.254   8.191  1.00  0.00     0.198 A 
ATOM     64  C   UNL     1      13.950  -8.276   6.952  1.00  0.00     0.198 A 
ATOM     65  F   UNL     1      11.867  -9.364   7.066  1.00  0.00    -0.203 F 
ATOM     66  F   UNL     1      15.112  -5.225   8.524  1.00  0.00    -0.200 F 
ATOM     67  C   UNL     1      14.780  -7.227   7.317  1.00  0.00     0.200 A 
ATOM     68  F   UNL     1      14.398  -9.224   6.117  1.00  0.00    -0.200 F 
ATOM     69  F   UNL     1      16.023  -7.151   6.821  1.00  0.00    -0.200 F 
ENDBRANCH  45  59
BRANCH  46  70
ATOM     70  C   UNL     1       2.775  -7.929  11.637  1.00  0.00     0.064 A 
ATOM     71  C   UNL     1       2.460  -7.675  12.980  1.00  0.00     0.173 A 
ATOM     72  C   UNL     1       1.726  -8.280  10.776  1.00  0.00     0.173 A 
ATOM     73  F   UNL     1       3.433  -7.356  13.846  1.00  0.00    -0.203 F 
ATOM     74  C   UNL     1       1.153  -7.791  13.448  1.00  0.00     0.198 A 
ATOM     75  C   UNL     1       0.415  -8.368  11.239  1.00  0.00     0.198 A 
ATOM     76  F   UNL     1       1.974  -8.526   9.481  1.00  0.00    -0.203 F 
ATOM     77  F   UNL     1       0.888  -7.589  14.745  1.00  0.00    -0.200 F 
ATOM     78  C   UNL     1       0.131  -8.132  12.575  1.00  0.00     0.200 A 
ATOM     79  F   UNL     1      -0.573  -8.684  10.390  1.00  0.00    -0.200 F 
ATOM     80  F   UNL     1      -1.127  -8.241  13.024  1.00  0.00    -0.200 F 
ENDBRANCH  46  70
BRANCH  58  81
ATOM     81  C   UNL     1       8.526 -11.638  12.894  1.00  0.00     0.064 A 
ATOM     82  C   UNL     1       8.016 -12.914  12.611  1.00  0.00     0.173 A 
ATOM     83  C   UNL     1       9.309 -11.486  14.048  1.00  0.00     0.173 A 
ATOM     84  F   UNL     1       7.249 -13.109  11.527  1.00  0.00    -0.203 F 
ATOM     85  C   UNL     1       8.248 -13.984  13.470  1.00  0.00     0.198 A 
ATOM     86  C   UNL     1       9.565 -12.566  14.889  1.00  0.00     0.198 A 
ATOM     87  F   UNL     1       9.828 -10.289  14.361  1.00  0.00    -0.203 F 
ATOM     88  F   UNL     1       7.699 -15.180  13.212  1.00  0.00    -0.200 F 
ATOM     89  C   UNL     1       9.025 -13.811  14.606  1.00  0.00     0.200 A 
ATOM     90  F   UNL     1      10.326 -12.399  15.979  1.00  0.00    -0.200 F 
ATOM     91  F   UNL     1       9.243 -14.841  15.434  1.00  0.00    -0.200 F 
ENDBRANCH  58  81
ENDBRANCH  32  33
ENDBRANCH  24  27
ENDBRANCH  22  23
ENDBRANCH  21  22
ENDBRANCH  20  21
ENDBRANCH   3  20
TORSDOF 15
