REMARK SMILES C[C@@H](C(=O)NCCCNC(=O)c1ccc(-c2c3nc(c(-c4c(F)c(F)c(F)c(F)c4F)c4ccc([nH]4)c(-c4c(F)c(F)c(F)c(F)c4F)c4nc(c(-c5c(F)c(F)c(F)c(F)c5F)c5ccc2[nH]5)C=C4)C=C3)cc1)N1C(=O)c2nccnc2C1=O
REMARK SMILES IDX 7 1 6 2 5 3 3 4 4 5 2 7 1 8 75 9 76 10 84 11 77 12 78 13
REMARK SMILES IDX 83 14 85 15 79 16 82 17 80 18 81 19 8 20 9 21 10 22 11 24
REMARK SMILES IDX 12 25 13 26 74 27 14 28 73 29 15 30 16 31 17 32 67 33 18 34
REMARK SMILES IDX 72 35 66 36 68 37 19 38 71 39 65 40 64 41 20 43 52 44 32 45
REMARK SMILES IDX 51 46 33 47 36 48 50 49 69 50 34 51 35 52 49 54 70 55 37 56
REMARK SMILES IDX 21 57 22 58 30 59 23 60 24 61 28 62 31 63 25 64 26 65 29 66
REMARK SMILES IDX 27 67 53 68 54 69 62 70 55 71 56 72 60 73 63 74 57 75 58 76
REMARK SMILES IDX 61 77 59 78 38 79 39 80 47 81 40 82 41 83 45 84 48 85 42 86
REMARK SMILES IDX 43 87 46 88 44 89
REMARK H PARENT 5 6 9 23 68 42 36 53
REMARK Flexibility Score: inf
ROOT
ATOM      1  C   UNL     1       4.094  -0.992   0.690  1.00  0.00     0.042 C 
ENDROOT
BRANCH   1   2
ATOM      2  C   UNL     1       3.186  -1.980  -0.035  1.00  0.00     0.117 C 
BRANCH   2   3
ATOM      3  N   UNL     1       2.103  -2.450   0.810  1.00  0.00    -0.354 N 
ATOM      4  C   UNL     1       0.765  -2.176   0.745  1.00  0.00     0.243 C 
ATOM      5  O   UNL     1       0.027  -2.762   1.541  1.00  0.00    -0.273 OA
ATOM      6  H   UNL     1       2.372  -3.055   1.538  1.00  0.00     0.163 HD
BRANCH   4   7
ATOM      7  C   UNL     1       0.232  -1.176  -0.299  1.00  0.00     0.180 C 
ATOM      8  C   UNL     1       0.646   0.263  -0.012  1.00  0.00     0.042 C 
BRANCH   7   9
ATOM      9  N   UNL     1      -1.218  -1.336  -0.397  1.00  0.00    -0.259 N 
ATOM     10  C   UNL     1      -2.142  -0.788   0.461  1.00  0.00     0.282 C 
ATOM     11  C   UNL     1      -1.812  -2.157  -1.320  1.00  0.00     0.282 C 
ATOM     12  O   UNL     1      -1.956  -0.036   1.396  1.00  0.00    -0.267 OA
ATOM     13  C   UNL     1      -3.451  -1.256   0.001  1.00  0.00     0.160 A 
ATOM     14  C   UNL     1      -3.252  -2.079  -1.076  1.00  0.00     0.160 A 
ATOM     15  O   UNL     1      -1.268  -2.812  -2.192  1.00  0.00    -0.267 OA
ATOM     16  N   UNL     1      -4.663  -0.885   0.458  1.00  0.00    -0.247 NA
ATOM     17  N   UNL     1      -4.242  -2.620  -1.812  1.00  0.00    -0.247 NA
ATOM     18  C   UNL     1      -5.681  -1.427  -0.261  1.00  0.00     0.132 A 
ATOM     19  C   UNL     1      -5.477  -2.269  -1.364  1.00  0.00     0.132 A 
ENDBRANCH   7   9
ENDBRANCH   4   7
ENDBRANCH   2   3
ENDBRANCH   1   2
BRANCH   1  20
ATOM     20  C   UNL     1       4.907  -1.607   1.824  1.00  0.00     0.118 C 
BRANCH  20  21
ATOM     21  N   UNL     1       5.888  -2.572   1.353  1.00  0.00    -0.352 N 
ATOM     22  C   UNL     1       7.240  -2.646   1.568  1.00  0.00     0.251 C 
ATOM     23  H   UNL     1       5.521  -3.289   0.787  1.00  0.00     0.163 HD
ATOM     24  O   UNL     1       7.903  -3.458   0.927  1.00  0.00    -0.269 OA
BRANCH  22  25
ATOM     25  C   UNL     1       7.918  -1.762   2.545  1.00  0.00     0.039 A 
ATOM     26  C   UNL     1       9.213  -1.321   2.255  1.00  0.00     0.014 A 
ATOM     27  C   UNL     1       7.331  -1.419   3.766  1.00  0.00     0.014 A 
ATOM     28  C   UNL     1       9.903  -0.521   3.170  1.00  0.00     0.010 A 
ATOM     29  C   UNL     1       7.982  -0.546   4.636  1.00  0.00     0.010 A 
ATOM     30  C   UNL     1       9.287  -0.111   4.363  1.00  0.00    -0.014 A 
BRANCH  30  31
ATOM     31  C   UNL     1      10.019   0.725   5.351  1.00  0.00     0.031 A 
ATOM     32  C   UNL     1      10.317   0.187   6.726  1.00  0.00     0.074 A 
ATOM     33  C   UNL     1      10.394   1.976   5.026  1.00  0.00     0.049 A 
ATOM     34  N   UNL     1      10.926   0.766   7.731  1.00  0.00    -0.248 NA
ATOM     35  C   UNL     1       9.842  -1.174   7.020  1.00  0.00     0.031 C 
ATOM     36  C   UNL     1      10.123   2.634   3.748  1.00  0.00     0.029 A 
ATOM     37  N   UNL     1      11.081   2.921   5.748  1.00  0.00    -0.354 N 
ATOM     38  C   UNL     1      10.901  -0.155   8.771  1.00  0.00     0.074 A 
ATOM     39  C   UNL     1      10.151  -1.300   8.302  1.00  0.00     0.031 C 
ATOM     40  C   UNL     1      10.658   3.865   3.765  1.00  0.00     0.029 A 
ATOM     41  C   UNL     1      11.278   4.097   5.067  1.00  0.00     0.049 A 
ATOM     42  H   UNL     1      11.401   2.770   6.667  1.00  0.00     0.167 HD
ATOM     43  C   UNL     1      11.478  -0.072   9.994  1.00  0.00     0.037 A 
ATOM     44  C   UNL     1      11.889   5.235   5.449  1.00  0.00     0.037 A 
ATOM     45  C   UNL     1      12.231   1.064  10.457  1.00  0.00     0.049 A 
ATOM     46  C   UNL     1      12.517   5.309   6.815  1.00  0.00     0.074 A 
ATOM     47  C   UNL     1      12.882   1.237  11.666  1.00  0.00     0.029 A 
ATOM     48  N   UNL     1      12.429   2.229   9.728  1.00  0.00    -0.354 N 
ATOM     49  N   UNL     1      12.542   4.407   7.766  1.00  0.00    -0.248 NA
ATOM     50  C   UNL     1      13.220   6.554   7.152  1.00  0.00     0.031 C 
ATOM     51  C   UNL     1      13.429   2.524  11.690  1.00  0.00     0.029 A 
ATOM     52  C   UNL     1      13.179   3.130  10.469  1.00  0.00     0.049 A 
ATOM     53  H   UNL     1      12.086   2.392   8.820  1.00  0.00     0.167 HD
ATOM     54  C   UNL     1      13.290   4.960   8.798  1.00  0.00     0.074 A 
ATOM     55  C   UNL     1      13.713   6.270   8.348  1.00  0.00     0.031 C 
ATOM     56  C   UNL     1      13.601   4.429  10.007  1.00  0.00     0.037 A 
BRANCH  43  57
ATOM     57  C   UNL     1      11.315  -1.251  10.915  1.00  0.00     0.064 A 
ATOM     58  C   UNL     1      11.907  -2.493  10.633  1.00  0.00     0.173 A 
ATOM     59  C   UNL     1      10.570  -1.137  12.098  1.00  0.00     0.173 A 
ATOM     60  F   UNL     1      12.621  -2.662   9.510  1.00  0.00    -0.203 F 
ATOM     61  C   UNL     1      11.722  -3.586  11.477  1.00  0.00     0.198 A 
ATOM     62  C   UNL     1      10.419  -2.222  12.959  1.00  0.00     0.198 A 
ATOM     63  F   UNL     1       9.989   0.027  12.424  1.00  0.00    -0.203 F 
ATOM     64  F   UNL     1      12.240  -4.778  11.150  1.00  0.00    -0.200 F 
ATOM     65  C   UNL     1      10.984  -3.448  12.642  1.00  0.00     0.200 A 
ATOM     66  F   UNL     1       9.720  -2.082  14.094  1.00  0.00    -0.200 F 
ATOM     67  F   UNL     1      10.808  -4.499  13.454  1.00  0.00    -0.200 F 
ENDBRANCH  43  57
BRANCH  44  68
ATOM     68  C   UNL     1      11.958   6.387   4.511  1.00  0.00     0.064 A 
ATOM     69  C   UNL     1      13.176   6.791   3.947  1.00  0.00     0.173 A 
ATOM     70  C   UNL     1      10.806   7.106   4.157  1.00  0.00     0.173 A 
ATOM     71  F   UNL     1      14.309   6.148   4.268  1.00  0.00    -0.203 F 
ATOM     72  C   UNL     1      13.244   7.884   3.085  1.00  0.00     0.198 A 
ATOM     73  C   UNL     1      10.870   8.177   3.269  1.00  0.00     0.198 A 
ATOM     74  F   UNL     1       9.614   6.755   4.661  1.00  0.00    -0.203 F 
ATOM     75  F   UNL     1      14.429   8.279   2.600  1.00  0.00    -0.200 F 
ATOM     76  C   UNL     1      12.090   8.572   2.741  1.00  0.00     0.200 A 
ATOM     77  F   UNL     1       9.750   8.827   2.925  1.00  0.00    -0.200 F 
ATOM     78  F   UNL     1      12.155   9.617   1.906  1.00  0.00    -0.200 F 
ENDBRANCH  44  68
BRANCH  56  79
ATOM     79  C   UNL     1      14.487   5.242  10.910  1.00  0.00     0.064 A 
ATOM     80  C   UNL     1      14.049   6.432  11.509  1.00  0.00     0.173 A 
ATOM     81  C   UNL     1      15.791   4.807  11.196  1.00  0.00     0.173 A 
ATOM     82  F   UNL     1      12.816   6.899  11.262  1.00  0.00    -0.203 F 
ATOM     83  C   UNL     1      14.896   7.177  12.326  1.00  0.00     0.198 A 
ATOM     84  C   UNL     1      16.622   5.534  12.043  1.00  0.00     0.198 A 
ATOM     85  F   UNL     1      16.259   3.670  10.658  1.00  0.00    -0.203 F 
ATOM     86  F   UNL     1      14.478   8.344  12.835  1.00  0.00    -0.200 F 
ATOM     87  C   UNL     1      16.179   6.724  12.598  1.00  0.00     0.200 A 
ATOM     88  F   UNL     1      17.855   5.085  12.318  1.00  0.00    -0.200 F 
ATOM     89  F   UNL     1      16.992   7.441  13.386  1.00  0.00    -0.200 F 
ENDBRANCH  56  79
ENDBRANCH  30  31
ENDBRANCH  22  25
ENDBRANCH  20  21
ENDBRANCH   1  20
TORSDOF 11
