REMARK SMILES C[NH2+][C@]1(C(=O)NCCCNC(=O)c2ccc(-c3c4nc(c(-c5c(F)c(F)c(F)c(F)c5F)c5ccc([nH]5)c(-c5c(F)c(F)c(F)c(F)c5F)c5nc(c(-c6c(F)c(F)c(F)c(F)c6F)c6ccc3[nH]6)C=C5)C=C4)cc2)CC[C@@H](Sc2cc(F)ccc2F)C1
REMARK SMILES IDX 8 1 7 2 6 3 4 4 5 5 3 7 76 8 88 9 77 10 78 11 2 12 1 13
REMARK SMILES IDX 79 16 80 17 81 18 86 19 82 20 85 21 87 22 83 23 84 24 9 25
REMARK SMILES IDX 10 26 11 27 12 29 13 30 14 31 75 32 15 33 74 34 16 35 17 36
REMARK SMILES IDX 18 37 68 38 19 39 73 40 67 41 69 42 20 43 72 44 66 45 65 46
REMARK SMILES IDX 21 48 53 49 33 50 52 51 34 52 37 53 51 54 70 55 35 56 36 57
REMARK SMILES IDX 50 59 71 60 38 61 22 62 23 63 31 64 24 65 25 66 29 67 32 68
REMARK SMILES IDX 26 69 27 70 30 71 28 72 54 73 55 74 63 75 56 76 57 77 61 78
REMARK SMILES IDX 64 79 58 80 59 81 62 82 60 83 39 84 40 85 48 86 41 87 42 88
REMARK SMILES IDX 46 89 49 90 43 91 44 92 47 93 45 94
REMARK H PARENT 6 6 2 14 2 15 10 28 69 47 37 58
REMARK Flexibility Score: inf
ROOT
ATOM      1  C   UNL     1       1.169   2.254  -4.128  1.00  0.00     0.042 C 
ENDROOT
BRANCH   1   2
ATOM      2  C   UNL     1       0.824   0.957  -3.425  1.00  0.00     0.118 C 
BRANCH   2   3
ATOM      3  N   UNL     1       1.272   0.911  -2.055  1.00  0.00    -0.351 N 
ATOM      4  C   UNL     1       0.552   0.704  -0.918  1.00  0.00     0.281 C 
ATOM      5  O   UNL     1       1.210   0.347   0.066  1.00  0.00    -0.268 OA
ATOM      6  H   UNL     1       2.237   1.049  -1.923  1.00  0.00     0.163 HD
BRANCH   4   7
ATOM      7  C   UNL     1      -1.011   0.826  -0.876  1.00  0.00     0.176 C 
ATOM      8  C   UNL     1      -1.631   2.028  -1.619  1.00  0.00     0.080 C 
ATOM      9  C   UNL     1      -1.616  -0.407  -1.600  1.00  0.00     0.094 C 
ATOM     10  C   UNL     1      -2.979   1.568  -2.171  1.00  0.00     0.022 C 
ATOM     11  C   UNL     1      -2.959   0.042  -2.173  1.00  0.00     0.059 C 
BRANCH   7  12
ATOM     12  N   UNL     1      -1.497   0.816   0.539  1.00  0.00    -0.336 N 
ATOM     13  C   UNL     1      -0.945   1.884   1.380  1.00  0.00     0.331 C 
ATOM     14  H   UNL     1      -2.513   0.913   0.528  1.00  0.00     0.346 HD
ATOM     15  H   UNL     1      -1.185  -0.065   0.946  1.00  0.00     0.346 HD
ENDBRANCH   7  12
BRANCH  11  16
ATOM     16  S   UNL     1      -3.493  -0.774  -3.745  1.00  0.00    -0.119 SA
BRANCH  16  17
ATOM     17  C   UNL     1      -2.354  -0.222  -5.010  1.00  0.00     0.046 A 
ATOM     18  C   UNL     1      -2.719   0.824  -5.866  1.00  0.00     0.057 A 
ATOM     19  C   UNL     1      -1.159  -0.906  -5.282  1.00  0.00     0.136 A 
ATOM     20  C   UNL     1      -1.879   1.197  -6.918  1.00  0.00     0.124 A 
ATOM     21  C   UNL     1      -0.314  -0.521  -6.329  1.00  0.00     0.043 A 
ATOM     22  F   UNL     1      -0.768  -1.927  -4.506  1.00  0.00    -0.206 F 
ATOM     23  F   UNL     1      -2.241   2.202  -7.726  1.00  0.00    -0.207 F 
ATOM     24  C   UNL     1      -0.674   0.543  -7.150  1.00  0.00     0.042 A 
ENDBRANCH  16  17
ENDBRANCH  11  16
ENDBRANCH   4   7
ENDBRANCH   2   3
ENDBRANCH   1   2
BRANCH   1  25
ATOM     25  C   UNL     1       2.645   2.371  -4.454  1.00  0.00     0.118 C 
BRANCH  25  26
ATOM     26  N   UNL     1       3.099   1.322  -5.361  1.00  0.00    -0.352 N 
ATOM     27  C   UNL     1       3.560   1.403  -6.650  1.00  0.00     0.251 C 
ATOM     28  H   UNL     1       3.069   0.411  -4.989  1.00  0.00     0.163 HD
ATOM     29  O   UNL     1       3.646   0.382  -7.329  1.00  0.00    -0.269 OA
BRANCH  27  30
ATOM     30  C   UNL     1       3.929   2.712  -7.226  1.00  0.00     0.039 A 
ATOM     31  C   UNL     1       3.654   2.968  -8.571  1.00  0.00     0.014 A 
ATOM     32  C   UNL     1       4.545   3.688  -6.441  1.00  0.00     0.014 A 
ATOM     33  C   UNL     1       3.925   4.230  -9.102  1.00  0.00     0.010 A 
ATOM     34  C   UNL     1       4.700   4.975  -6.934  1.00  0.00     0.010 A 
ATOM     35  C   UNL     1       4.407   5.257  -8.275  1.00  0.00    -0.014 A 
BRANCH  35  36
ATOM     36  C   UNL     1       4.631   6.631  -8.788  1.00  0.00     0.031 A 
ATOM     37  C   UNL     1       6.008   7.235  -8.734  1.00  0.00     0.074 A 
ATOM     38  C   UNL     1       3.586   7.359  -9.223  1.00  0.00     0.049 A 
ATOM     39  N   UNL     1       6.395   8.446  -9.045  1.00  0.00    -0.248 NA
ATOM     40  C   UNL     1       7.090   6.374  -8.227  1.00  0.00     0.031 C 
ATOM     41  C   UNL     1       2.196   6.902  -9.269  1.00  0.00     0.029 A 
ATOM     42  N   UNL     1       3.527   8.644  -9.700  1.00  0.00    -0.354 N 
ATOM     43  C   UNL     1       7.752   8.494  -8.753  1.00  0.00     0.074 A 
ATOM     44  C   UNL     1       8.109   7.217  -8.177  1.00  0.00     0.031 C 
ATOM     45  C   UNL     1       1.428   7.879  -9.777  1.00  0.00     0.029 A 
ATOM     46  C   UNL     1       2.261   9.046 -10.047  1.00  0.00     0.049 A 
ATOM     47  H   UNL     1       4.319   9.224  -9.784  1.00  0.00     0.167 HD
ATOM     48  C   UNL     1       8.628   9.503  -8.973  1.00  0.00     0.037 A 
ATOM     49  C   UNL     1       1.822  10.226 -10.522  1.00  0.00     0.037 A 
ATOM     50  C   UNL     1       8.269  10.761  -9.572  1.00  0.00     0.049 A 
ATOM     51  C   UNL     1       2.814  11.335 -10.749  1.00  0.00     0.074 A 
ATOM     52  C   UNL     1       9.090  11.825  -9.902  1.00  0.00     0.029 A 
ATOM     53  N   UNL     1       6.978  11.125  -9.929  1.00  0.00    -0.354 N 
ATOM     54  N   UNL     1       4.109  11.344 -10.543  1.00  0.00    -0.248 NA
ATOM     55  C   UNL     1       2.284  12.597 -11.282  1.00  0.00     0.031 C 
ATOM     56  C   UNL     1       8.288  12.855 -10.402  1.00  0.00     0.029 A 
ATOM     57  C   UNL     1       6.976  12.410 -10.448  1.00  0.00     0.049 A 
ATOM     58  H   UNL     1       6.182  10.555  -9.828  1.00  0.00     0.167 HD
ATOM     59  C   UNL     1       4.553  12.595 -10.950  1.00  0.00     0.074 A 
ATOM     60  C   UNL     1       3.389  13.313 -11.430  1.00  0.00     0.031 C 
ATOM     61  C   UNL     1       5.809  13.104 -10.930  1.00  0.00     0.037 A 
BRANCH  48  62
ATOM     62  C   UNL     1      10.057   9.286  -8.561  1.00  0.00     0.064 A 
ATOM     63  C   UNL     1      10.879   8.351  -9.209  1.00  0.00     0.173 A 
ATOM     64  C   UNL     1      10.620  10.042  -7.522  1.00  0.00     0.173 A 
ATOM     65  F   UNL     1      10.389   7.592 -10.201  1.00  0.00    -0.203 F 
ATOM     66  C   UNL     1      12.198   8.154  -8.807  1.00  0.00     0.198 A 
ATOM     67  C   UNL     1      11.950   9.869  -7.148  1.00  0.00     0.198 A 
ATOM     68  F   UNL     1       9.883  10.954  -6.871  1.00  0.00    -0.203 F 
ATOM     69  F   UNL     1      12.944   7.212  -9.400  1.00  0.00    -0.200 F 
ATOM     70  C   UNL     1      12.735   8.919  -7.783  1.00  0.00     0.200 A 
ATOM     71  F   UNL     1      12.472  10.620  -6.167  1.00  0.00    -0.200 F 
ATOM     72  F   UNL     1      14.006   8.733  -7.402  1.00  0.00    -0.200 F 
ENDBRANCH  48  62
BRANCH  49  73
ATOM     73  C   UNL     1       0.381  10.412 -10.841  1.00  0.00     0.064 A 
ATOM     74  C   UNL     1      -0.048  10.569 -12.166  1.00  0.00     0.173 A 
ATOM     75  C   UNL     1      -0.594  10.443  -9.833  1.00  0.00     0.173 A 
ATOM     76  F   UNL     1       0.849  10.564 -13.164  1.00  0.00    -0.203 F 
ATOM     77  C   UNL     1      -1.392  10.774 -12.470  1.00  0.00     0.198 A 
ATOM     78  C   UNL     1      -1.942  10.617 -10.141  1.00  0.00     0.198 A 
ATOM     79  F   UNL     1      -0.239  10.291  -8.549  1.00  0.00    -0.203 F 
ATOM     80  F   UNL     1      -1.766  10.973 -13.741  1.00  0.00    -0.200 F 
ATOM     81  C   UNL     1      -2.339  10.792 -11.458  1.00  0.00     0.200 A 
ATOM     82  F   UNL     1      -2.856  10.616  -9.161  1.00  0.00    -0.200 F 
ATOM     83  F   UNL     1      -3.632  10.987 -11.750  1.00  0.00    -0.200 F 
ENDBRANCH  49  73
BRANCH  61  84
ATOM     84  C   UNL     1       6.001  14.488 -11.482  1.00  0.00     0.064 A 
ATOM     85  C   UNL     1       5.517  15.624 -10.817  1.00  0.00     0.173 A 
ATOM     86  C   UNL     1       6.718  14.680 -12.673  1.00  0.00     0.173 A 
ATOM     87  F   UNL     1       4.814  15.494  -9.681  1.00  0.00    -0.203 F 
ATOM     88  C   UNL     1       5.718  16.899 -11.340  1.00  0.00     0.198 A 
ATOM     89  C   UNL     1       6.948  15.958 -13.174  1.00  0.00     0.198 A 
ATOM     90  F   UNL     1       7.209  13.628 -13.345  1.00  0.00    -0.203 F 
ATOM     91  F   UNL     1       5.200  17.966 -10.716  1.00  0.00    -0.200 F 
ATOM     92  C   UNL     1       6.440  17.065 -12.512  1.00  0.00     0.200 A 
ATOM     93  F   UNL     1       7.661  16.117 -14.297  1.00  0.00    -0.200 F 
ATOM     94  F   UNL     1       6.641  18.294 -13.008  1.00  0.00    -0.200 F 
ENDBRANCH  61  84
ENDBRANCH  35  36
ENDBRANCH  27  30
ENDBRANCH  25  26
ENDBRANCH   1  25
TORSDOF 13
