REMARK SMILES N#Cc1ccc2c(c1)C=C(C(=O)NCCCNC(=O)c1ccc(-c3c4nc(c(-c5c(F)c(F)c(F)c(F)c5F)c5ccc([nH]5)c(-c5c(F)c(F)c(F)c(F)c5F)c5nc(c(-c6c(F)c(F)c(F)c(F)c6F)c6ccc3[nH]6)C=C5)C=C4)cc1)[C@@H](C(F)(F)F)O2
REMARK SMILES IDX 15 1 14 2 13 3 11 4 12 5 10 7 3 8 4 9 8 10 5 11 7 12 6 13
REMARK SMILES IDX 9 14 88 15 83 16 2 17 1 18 84 19 85 20 86 21 87 22 16 23
REMARK SMILES IDX 17 24 18 25 19 27 20 28 21 29 82 30 22 31 81 32 23 33 24 34
REMARK SMILES IDX 25 35 75 36 26 37 80 38 74 39 76 40 27 41 79 42 73 43 72 44
REMARK SMILES IDX 28 46 60 47 40 48 59 49 41 50 44 51 58 52 77 53 42 54 43 55
REMARK SMILES IDX 57 57 78 58 45 59 29 60 30 61 38 62 31 63 32 64 36 65 39 66
REMARK SMILES IDX 33 67 34 68 37 69 35 70 61 71 62 72 70 73 63 74 64 75 68 76
REMARK SMILES IDX 71 77 65 78 66 79 69 80 67 81 46 82 47 83 55 84 48 85 49 86
REMARK SMILES IDX 53 87 56 88 50 89 51 90 54 91 52 92
REMARK H PARENT 13 6 17 26 76 45 44 56
REMARK Flexibility Score: inf
ROOT
ATOM      1  C   UNL     1      11.818  -2.468   1.104  1.00  0.00     0.042 C 
ENDROOT
BRANCH   1   2
ATOM      2  C   UNL     1      11.024  -2.590  -0.182  1.00  0.00     0.118 C 
BRANCH   2   3
ATOM      3  N   UNL     1       9.914  -3.521  -0.048  1.00  0.00    -0.352 N 
ATOM      4  C   UNL     1       8.562  -3.454  -0.015  1.00  0.00     0.251 C 
ATOM      5  O   UNL     1       7.980  -4.537   0.099  1.00  0.00    -0.270 OA
ATOM      6  H   UNL     1      10.231  -4.449   0.044  1.00  0.00     0.163 HD
BRANCH   4   7
ATOM      7  C   UNL     1       7.772  -2.192  -0.101  1.00  0.00     0.067 C 
ATOM      8  C   UNL     1       3.474   0.024  -0.081  1.00  0.00     0.053 A 
ATOM      9  C   UNL     1       4.119   1.266  -0.071  1.00  0.00     0.023 A 
ATOM     10  C   UNL     1       4.226  -1.159  -0.058  1.00  0.00     0.031 A 
ATOM     11  C   UNL     1       5.509   1.326  -0.036  1.00  0.00     0.048 A 
ATOM     12  C   UNL     1       5.623  -1.100  -0.029  1.00  0.00     0.018 A 
ATOM     13  C   UNL     1       6.250   0.148  -0.022  1.00  0.00     0.128 A 
ATOM     14  C   UNL     1       6.439  -2.307   0.042  1.00  0.00     0.025 C 
ATOM     15  O   UNL     1       7.602   0.297   0.045  1.00  0.00    -0.475 OA
ATOM     16  C   UNL     1       8.393  -0.849  -0.356  1.00  0.00     0.314 C 
BRANCH   8  17
ATOM     17  C   UNL     1       2.043  -0.029  -0.102  1.00  0.00     0.099 C 
ATOM     18  N   UNL     1       0.881  -0.061  -0.114  1.00  0.00    -0.192 NA
ENDBRANCH   8  17
BRANCH  16  19
ATOM     19  C   UNL     1       8.834  -0.673  -1.823  1.00  0.00     0.429 C 
ATOM     20  F   UNL     1       9.756   0.319  -1.920  1.00  0.00    -0.167 F 
ATOM     21  F   UNL     1       9.415  -1.784  -2.335  1.00  0.00    -0.167 F 
ATOM     22  F   UNL     1       7.808  -0.358  -2.643  1.00  0.00    -0.167 F 
ENDBRANCH  16  19
ENDBRANCH   4   7
ENDBRANCH   2   3
ENDBRANCH   1   2
BRANCH   1  23
ATOM     23  C   UNL     1      12.777  -3.632   1.277  1.00  0.00     0.118 C 
BRANCH  23  24
ATOM     24  N   UNL     1      13.805  -3.662   0.234  1.00  0.00    -0.352 N 
ATOM     25  C   UNL     1      15.161  -3.446   0.307  1.00  0.00     0.251 C 
ATOM     26  H   UNL     1      13.470  -3.871  -0.668  1.00  0.00     0.163 HD
ATOM     27  O   UNL     1      15.819  -3.291  -0.715  1.00  0.00    -0.269 OA
BRANCH  25  28
ATOM     28  C   UNL     1      15.806  -3.370   1.630  1.00  0.00     0.039 A 
ATOM     29  C   UNL     1      15.393  -4.228   2.645  1.00  0.00     0.014 A 
ATOM     30  C   UNL     1      16.778  -2.399   1.878  1.00  0.00     0.014 A 
ATOM     31  C   UNL     1      15.734  -3.939   3.953  1.00  0.00     0.010 A 
ATOM     32  C   UNL     1      17.244  -2.215   3.181  1.00  0.00     0.010 A 
ATOM     33  C   UNL     1      16.669  -2.933   4.241  1.00  0.00    -0.014 A 
BRANCH  33  34
ATOM     34  C   UNL     1      17.006  -2.658   5.661  1.00  0.00     0.031 A 
ATOM     35  C   UNL     1      16.763  -1.300   6.264  1.00  0.00     0.074 A 
ATOM     36  C   UNL     1      17.459  -3.669   6.428  1.00  0.00     0.049 A 
ATOM     37  N   UNL     1      16.973  -0.897   7.492  1.00  0.00    -0.248 NA
ATOM     38  C   UNL     1      16.221  -0.255   5.380  1.00  0.00     0.031 C 
ATOM     39  C   UNL     1      17.714  -5.033   5.957  1.00  0.00     0.029 A 
ATOM     40  N   UNL     1      17.753  -3.723   7.766  1.00  0.00    -0.354 N 
ATOM     41  C   UNL     1      16.611   0.444   7.521  1.00  0.00     0.074 A 
ATOM     42  C   UNL     1      16.207   0.802   6.180  1.00  0.00     0.031 C 
ATOM     43  C   UNL     1      18.056  -5.803   6.997  1.00  0.00     0.029 A 
ATOM     44  C   UNL     1      18.139  -4.971   8.191  1.00  0.00     0.049 A 
ATOM     45  H   UNL     1      17.692  -2.944   8.365  1.00  0.00     0.167 HD
ATOM     46  C   UNL     1      16.599   1.291   8.577  1.00  0.00     0.037 A 
ATOM     47  C   UNL     1      18.542  -5.399   9.402  1.00  0.00     0.037 A 
ATOM     48  C   UNL     1      16.980   0.917   9.915  1.00  0.00     0.049 A 
ATOM     49  C   UNL     1      18.585  -4.419  10.539  1.00  0.00     0.074 A 
ATOM     50  C   UNL     1      16.978   1.697  11.057  1.00  0.00     0.029 A 
ATOM     51  N   UNL     1      17.431  -0.341  10.289  1.00  0.00    -0.354 N 
ATOM     52  N   UNL     1      18.216  -3.161  10.557  1.00  0.00    -0.248 NA
ATOM     53  C   UNL     1      19.106  -4.912  11.819  1.00  0.00     0.031 C 
ATOM     54  C   UNL     1      17.492   0.934  12.107  1.00  0.00     0.029 A 
ATOM     55  C   UNL     1      17.747  -0.345  11.639  1.00  0.00     0.049 A 
ATOM     56  H   UNL     1      17.514  -1.114   9.686  1.00  0.00     0.167 HD
ATOM     57  C   UNL     1      18.445  -2.716  11.851  1.00  0.00     0.074 A 
ATOM     58  C   UNL     1      18.961  -3.847  12.595  1.00  0.00     0.031 C 
ATOM     59  C   UNL     1      18.253  -1.480  12.370  1.00  0.00     0.037 A 
BRANCH  46  60
ATOM     60  C   UNL     1      16.170   2.712   8.343  1.00  0.00     0.064 A 
ATOM     61  C   UNL     1      14.838   3.043   8.052  1.00  0.00     0.173 A 
ATOM     62  C   UNL     1      17.087   3.765   8.495  1.00  0.00     0.173 A 
ATOM     63  F   UNL     1      13.922   2.077   7.886  1.00  0.00    -0.203 F 
ATOM     64  C   UNL     1      14.444   4.372   7.908  1.00  0.00     0.198 A 
ATOM     65  C   UNL     1      16.683   5.093   8.384  1.00  0.00     0.198 A 
ATOM     66  F   UNL     1      18.372   3.506   8.780  1.00  0.00    -0.203 F 
ATOM     67  F   UNL     1      13.174   4.661   7.593  1.00  0.00    -0.200 F 
ATOM     68  C   UNL     1      15.363   5.395   8.086  1.00  0.00     0.200 A 
ATOM     69  F   UNL     1      17.568   6.080   8.577  1.00  0.00    -0.200 F 
ATOM     70  F   UNL     1      14.976   6.673   7.970  1.00  0.00    -0.200 F 
ENDBRANCH  46  60
BRANCH  47  71
ATOM     71  C   UNL     1      18.940  -6.819   9.582  1.00  0.00     0.064 A 
ATOM     72  C   UNL     1      18.185  -7.683  10.385  1.00  0.00     0.173 A 
ATOM     73  C   UNL     1      20.059  -7.353   8.923  1.00  0.00     0.173 A 
ATOM     74  F   UNL     1      17.116  -7.218  11.048  1.00  0.00    -0.203 F 
ATOM     75  C   UNL     1      18.538  -9.024  10.529  1.00  0.00     0.198 A 
ATOM     76  C   UNL     1      20.389  -8.700   9.037  1.00  0.00     0.198 A 
ATOM     77  F   UNL     1      20.812  -6.570   8.135  1.00  0.00    -0.203 F 
ATOM     78  F   UNL     1      17.820  -9.820  11.332  1.00  0.00    -0.200 F 
ATOM     79  C   UNL     1      19.633  -9.534   9.846  1.00  0.00     0.200 A 
ATOM     80  F   UNL     1      21.432  -9.193   8.355  1.00  0.00    -0.200 F 
ATOM     81  F   UNL     1      19.959 -10.827   9.969  1.00  0.00    -0.200 F 
ENDBRANCH  47  71
BRANCH  59  82
ATOM     82  C   UNL     1      18.584  -1.271  13.819  1.00  0.00     0.064 A 
ATOM     83  C   UNL     1      19.912  -1.245  14.269  1.00  0.00     0.173 A 
ATOM     84  C   UNL     1      17.569  -0.992  14.748  1.00  0.00     0.173 A 
ATOM     85  F   UNL     1      20.917  -1.518  13.424  1.00  0.00    -0.203 F 
ATOM     86  C   UNL     1      20.211  -0.955  15.597  1.00  0.00     0.198 A 
ATOM     87  C   UNL     1      17.874  -0.667  16.066  1.00  0.00     0.198 A 
ATOM     88  F   UNL     1      16.283  -0.996  14.366  1.00  0.00    -0.203 F 
ATOM     89  F   UNL     1      21.485  -0.966  16.012  1.00  0.00    -0.200 F 
ATOM     90  C   UNL     1      19.194  -0.651  16.490  1.00  0.00     0.200 A 
ATOM     91  F   UNL     1      16.891  -0.353  16.921  1.00  0.00    -0.200 F 
ATOM     92  F   UNL     1      19.486  -0.343  17.761  1.00  0.00    -0.200 F 
ENDBRANCH  59  82
ENDBRANCH  33  34
ENDBRANCH  25  28
ENDBRANCH  23  24
ENDBRANCH   1  23
TORSDOF 12
