REMARK SMILES O=C(NCCCNC(=O)c1cnc2sc(N3CCCCCC3)nn2c1=O)c1ccc(-c2c3nc(c(-c4c(F)c(F)c(F)c(F)c4F)c4ccc([nH]4)c(-c4c(F)c(F)c(F)c(F)c4F)c4nc(c(-c5c(F)c(F)c(F)c(F)c5F)c5ccc2[nH]5)C=C4)C=C3)cc1
REMARK SMILES IDX 6 1 5 2 4 3 3 4 1 5 2 6 27 8 28 9 89 10 29 11 88 12 30 13
REMARK SMILES IDX 31 14 32 15 82 16 33 17 87 18 81 19 83 20 34 21 86 22 80 23
REMARK SMILES IDX 79 24 35 26 67 27 47 28 66 29 48 30 51 31 65 32 84 33 49 34
REMARK SMILES IDX 50 35 64 37 85 38 52 39 36 40 37 41 45 42 38 43 39 44 43 45
REMARK SMILES IDX 46 46 40 47 41 48 44 49 42 50 68 51 69 52 77 53 70 54 71 55
REMARK SMILES IDX 75 56 78 57 72 58 73 59 76 60 74 61 53 62 54 63 62 64 55 65
REMARK SMILES IDX 56 66 60 67 63 68 57 69 58 70 61 71 59 72 7 73 8 74 9 76
REMARK SMILES IDX 10 77 11 78 25 79 12 80 24 81 26 82 13 83 23 84 14 85 15 86
REMARK SMILES IDX 16 87 17 88 18 89 19 90 22 92 21 93 20 94
REMARK H PARENT 3 7 83 25 51 36 7 75
REMARK Flexibility Score: 90.00
ROOT
ATOM      1  C   UNL     1       4.419   2.936   2.266  1.00  0.00     0.118 C 
ENDROOT
BRANCH   1   2
ATOM      2  C   UNL     1       4.911   2.148   1.062  1.00  0.00     0.042 C 
BRANCH   2   3
ATOM      3  C   UNL     1       4.500   0.685   1.082  1.00  0.00     0.118 C 
BRANCH   3   4
ATOM      4  N   UNL     1       3.063   0.504   0.931  1.00  0.00    -0.352 N 
ATOM      5  O   UNL     1       1.131   0.014  -0.124  1.00  0.00    -0.269 OA
ATOM      6  C   UNL     1       2.356  -0.085  -0.086  1.00  0.00     0.251 C 
ATOM      7  H   UNL     1       2.517   0.857   1.671  1.00  0.00     0.163 HD
BRANCH   6   8
ATOM      8  C   UNL     1       3.064  -0.830  -1.148  1.00  0.00     0.039 A 
ATOM      9  C   UNL     1       4.116  -1.692  -0.832  1.00  0.00     0.014 A 
ATOM     10  C   UNL     1       2.646  -0.693  -2.475  1.00  0.00     0.014 A 
ATOM     11  C   UNL     1       4.838  -2.308  -1.845  1.00  0.00     0.010 A 
ATOM     12  C   UNL     1       3.305  -1.397  -3.486  1.00  0.00     0.010 A 
ATOM     13  C   UNL     1       4.413  -2.201  -3.178  1.00  0.00    -0.014 A 
BRANCH  13  14
ATOM     14  C   UNL     1       5.056  -3.051  -4.210  1.00  0.00     0.031 A 
ATOM     15  C   UNL     1       5.809  -2.454  -5.360  1.00  0.00     0.074 A 
ATOM     16  C   UNL     1       4.930  -4.389  -4.092  1.00  0.00     0.049 A 
ATOM     17  N   UNL     1       6.386  -3.062  -6.367  1.00  0.00    -0.248 NA
ATOM     18  C   UNL     1       5.929  -0.989  -5.397  1.00  0.00     0.031 C 
ATOM     19  C   UNL     1       4.202  -5.073  -3.018  1.00  0.00     0.029 A 
ATOM     20  N   UNL     1       5.400  -5.412  -4.874  1.00  0.00    -0.354 N 
ATOM     21  C   UNL     1       6.915  -2.058  -7.166  1.00  0.00     0.074 A 
ATOM     22  C   UNL     1       6.583  -0.798  -6.537  1.00  0.00     0.031 C 
ATOM     23  C   UNL     1       4.293  -6.397  -3.196  1.00  0.00     0.029 A 
ATOM     24  C   UNL     1       5.013  -6.655  -4.436  1.00  0.00     0.049 A 
ATOM     25  H   UNL     1       5.959  -5.270  -5.672  1.00  0.00     0.167 HD
ATOM     26  C   UNL     1       7.611  -2.189  -8.321  1.00  0.00     0.037 A 
ATOM     27  C   UNL     1       5.178  -7.869  -4.993  1.00  0.00     0.037 A 
ATOM     28  C   UNL     1       7.952  -3.454  -8.921  1.00  0.00     0.049 A 
ATOM     29  C   UNL     1       5.918  -7.970  -6.295  1.00  0.00     0.074 A 
ATOM     30  C   UNL     1       8.728  -3.692 -10.043  1.00  0.00     0.029 A 
ATOM     31  N   UNL     1       7.524  -4.691  -8.462  1.00  0.00    -0.354 N 
ATOM     32  N   UNL     1       6.481  -7.020  -7.000  1.00  0.00    -0.248 NA
ATOM     33  C   UNL     1       6.037  -9.309  -6.886  1.00  0.00     0.031 C 
ATOM     34  C   UNL     1       8.709  -5.065 -10.305  1.00  0.00     0.029 A 
ATOM     35  C   UNL     1       7.974  -5.691  -9.310  1.00  0.00     0.049 A 
ATOM     36  H   UNL     1       6.981  -4.837  -7.654  1.00  0.00     0.167 HD
ATOM     37  C   UNL     1       7.031  -7.645  -8.109  1.00  0.00     0.074 A 
ATOM     38  C   UNL     1       6.761  -9.060  -7.968  1.00  0.00     0.031 C 
ATOM     39  C   UNL     1       7.692  -7.095  -9.156  1.00  0.00     0.037 A 
BRANCH  26  40
ATOM     40  C   UNL     1       8.040  -0.945  -9.043  1.00  0.00     0.064 A 
ATOM     41  C   UNL     1       9.080  -0.132  -8.570  1.00  0.00     0.173 A 
ATOM     42  C   UNL     1       7.470  -0.623 -10.285  1.00  0.00     0.173 A 
ATOM     43  F   UNL     1       9.656  -0.392  -7.386  1.00  0.00    -0.203 F 
ATOM     44  C   UNL     1       9.528   0.961  -9.310  1.00  0.00     0.198 A 
ATOM     45  C   UNL     1       7.937   0.454 -11.034  1.00  0.00     0.198 A 
ATOM     46  F   UNL     1       6.477  -1.373 -10.787  1.00  0.00    -0.203 F 
ATOM     47  F   UNL     1      10.509   1.737  -8.829  1.00  0.00    -0.200 F 
ATOM     48  C   UNL     1       8.965   1.245 -10.545  1.00  0.00     0.200 A 
ATOM     49  F   UNL     1       7.402   0.716 -12.235  1.00  0.00    -0.200 F 
ATOM     50  F   UNL     1       9.413   2.282 -11.266  1.00  0.00    -0.200 F 
ENDBRANCH  26  40
BRANCH  27  51
ATOM     51  C   UNL     1       4.582  -9.070  -4.351  1.00  0.00     0.064 A 
ATOM     52  C   UNL     1       5.387 -10.098  -3.845  1.00  0.00     0.173 A 
ATOM     53  C   UNL     1       3.189  -9.222  -4.250  1.00  0.00     0.173 A 
ATOM     54  F   UNL     1       6.722 -10.008  -3.933  1.00  0.00    -0.203 F 
ATOM     55  C   UNL     1       4.824 -11.246  -3.292  1.00  0.00     0.198 A 
ATOM     56  C   UNL     1       2.628 -10.352  -3.661  1.00  0.00     0.198 A 
ATOM     57  F   UNL     1       2.372  -8.265  -4.712  1.00  0.00    -0.203 F 
ATOM     58  F   UNL     1       5.616 -12.242  -2.873  1.00  0.00    -0.200 F 
ATOM     59  C   UNL     1       3.445 -11.370  -3.196  1.00  0.00     0.200 A 
ATOM     60  F   UNL     1       1.297 -10.457  -3.553  1.00  0.00    -0.200 F 
ATOM     61  F   UNL     1       2.905 -12.475  -2.665  1.00  0.00    -0.200 F 
ENDBRANCH  27  51
BRANCH  39  62
ATOM     62  C   UNL     1       8.178  -8.028 -10.225  1.00  0.00     0.064 A 
ATOM     63  C   UNL     1       7.287  -8.648 -11.114  1.00  0.00     0.173 A 
ATOM     64  C   UNL     1       9.550  -8.268 -10.394  1.00  0.00     0.173 A 
ATOM     65  F   UNL     1       5.964  -8.466 -10.981  1.00  0.00    -0.203 F 
ATOM     66  C   UNL     1       7.751  -9.488 -12.121  1.00  0.00     0.198 A 
ATOM     67  C   UNL     1      10.012  -9.082 -11.423  1.00  0.00     0.198 A 
ATOM     68  F   UNL     1      10.443  -7.696  -9.572  1.00  0.00    -0.203 F 
ATOM     69  F   UNL     1       6.880 -10.105 -12.931  1.00  0.00    -0.200 F 
ATOM     70  C   UNL     1       9.113  -9.696 -12.281  1.00  0.00     0.200 A 
ATOM     71  F   UNL     1      11.329  -9.270 -11.586  1.00  0.00    -0.200 F 
ATOM     72  F   UNL     1       9.559 -10.494 -13.261  1.00  0.00    -0.200 F 
ENDBRANCH  39  62
ENDBRANCH  13  14
ENDBRANCH   6   8
ENDBRANCH   3   4
ENDBRANCH   2   3
ENDBRANCH   1   2
BRANCH   1  73
ATOM     73  N   UNL     1       5.003   2.457   3.513  1.00  0.00    -0.352 N 
ATOM     74  C   UNL     1       5.775   3.124   4.423  1.00  0.00     0.258 C 
ATOM     75  H   UNL     1       4.814   1.516   3.732  1.00  0.00     0.163 HD
ATOM     76  O   UNL     1       6.266   2.519   5.372  1.00  0.00    -0.269 OA
BRANCH  74  77
ATOM     77  C   UNL     1       6.076   4.543   4.179  1.00  0.00     0.125 A 
ATOM     78  C   UNL     1       7.362   4.898   4.032  1.00  0.00     0.134 A 
ATOM     79  C   UNL     1       5.026   5.569   3.987  1.00  0.00     0.288 A 
ATOM     80  N   UNL     1       7.800   6.131   3.601  1.00  0.00    -0.226 NA
ATOM     81  N   UNL     1       5.521   6.766   3.514  1.00  0.00    -0.165 N 
ATOM     82  O   UNL     1       3.840   5.313   4.183  1.00  0.00    -0.266 OA
ATOM     83  C   UNL     1       6.862   6.977   3.332  1.00  0.00     0.217 A 
ATOM     84  N   UNL     1       4.683   7.782   3.143  1.00  0.00    -0.133 NA
ATOM     85  S   UNL     1       7.120   8.534   2.628  1.00  0.00    -0.057 S 
ATOM     86  C   UNL     1       5.374   8.751   2.626  1.00  0.00     0.208 A 
BRANCH  86  87
ATOM     87  N   UNL     1       4.843   9.909   2.109  1.00  0.00    -0.347 N 
BRANCH  87  88
ATOM     88  C   UNL     1       5.077  10.258   0.710  1.00  0.00     0.119 C 
BRANCH  88  89
ATOM     89  C   UNL     1       5.972  11.485   0.599  1.00  0.00     0.021 C 
BRANCH  89  90
ATOM     90  C   UNL     1       5.274  12.797   0.948  1.00  0.00     0.002 CG0
ATOM     91  G   UNL     1       4.610  12.830   2.325  1.00  0.00     0.000 G0
ENDBRANCH  89  90
ENDBRANCH  88  89
ENDBRANCH  87  88
BRANCH  87  92
ATOM     92  C   UNL     1       3.672  10.476   2.775  1.00  0.00     0.119 C 
BRANCH  92  93
ATOM     93  C   UNL     1       3.377  11.929   2.409  1.00  0.00     0.021 C 
BRANCH  93  94
ATOM     94  C   UNL     1       4.610  12.830   2.325  1.00  0.00     0.002 CG0
ATOM     95  G   UNL     1       5.274  12.797   0.948  1.00  0.00     0.000 G0
ENDBRANCH  93  94
ENDBRANCH  92  93
ENDBRANCH  87  92
ENDBRANCH  86  87
ENDBRANCH  74  77
ENDBRANCH   1  73
TORSDOF 11
