REMARK SMILES O=C(C[C@H]1CN(C(=O)NCc2ccc(Br)cc2)CCO1)NCCCNC(=O)c1ccc(-c2c3nc(c(-c4c(F)c(F)c(F)c(F)c4F)c4ccc([nH]4)c(-c4c(F)c(F)c(F)c(F)c4F)c4nc(c(-c5c(F)c(F)c(F)c(F)c5F)c5ccc2[nH]5)C=C4)C=C3)cc1
REMARK SMILES IDX 22 1 21 2 1 3 2 4 3 6 4 7 5 8 20 9 6 10 19 11 18 12 7 13
REMARK SMILES IDX 8 14 9 15 10 17 11 18 12 19 17 20 13 21 16 22 14 23 15 24
REMARK SMILES IDX 23 25 24 26 25 27 26 28 27 30 28 31 29 32 90 33 30 34 89 35
REMARK SMILES IDX 31 36 32 37 33 38 83 39 34 40 88 41 82 42 84 43 35 44 87 45
REMARK SMILES IDX 81 46 80 47 36 49 68 50 48 51 67 52 49 53 52 54 66 55 85 56
REMARK SMILES IDX 50 57 51 58 65 60 86 61 53 62 37 63 38 64 46 65 39 66 40 67
REMARK SMILES IDX 44 68 47 69 41 70 42 71 45 72 43 73 69 74 70 75 78 76 71 77
REMARK SMILES IDX 72 78 76 79 79 80 73 81 74 82 77 83 75 84 54 85 55 86 63 87
REMARK SMILES IDX 56 88 57 89 61 90 64 91 58 92 59 93 62 94 60 95
REMARK H PARENT 21 5 9 16 25 29 84 48 52 59
REMARK Flexibility Score: inf
ROOT
ATOM      1  C   UNL     1       2.409   0.902  -2.092  1.00  0.00     0.117 C 
ENDROOT
BRANCH   1   2
ATOM      2  N   UNL     1       3.021   0.178  -0.984  1.00  0.00    -0.356 N 
ATOM      3  O   UNL     1       5.063   1.155  -1.219  1.00  0.00    -0.275 OA
ATOM      4  C   UNL     1       4.315   0.419  -0.576  1.00  0.00     0.222 C 
ATOM      5  H   UNL     1       2.492  -0.505  -0.512  1.00  0.00     0.163 HD
BRANCH   4   6
ATOM      6  C   UNL     1       4.845  -0.322   0.652  1.00  0.00     0.133 C 
BRANCH   6   7
ATOM      7  C   UNL     1       3.820  -0.864   1.652  1.00  0.00     0.147 C 
ATOM      8  C   UNL     1       3.287  -2.283   1.299  1.00  0.00     0.154 C 
ATOM      9  O   UNL     1       4.343  -0.811   2.994  1.00  0.00    -0.374 OA
ATOM     10  N   UNL     1       4.189  -3.370   1.682  1.00  0.00    -0.320 N 
ATOM     11  C   UNL     1       5.315  -1.834   3.250  1.00  0.00     0.182 C 
ATOM     12  C   UNL     1       4.695  -3.212   3.055  1.00  0.00     0.150 C 
BRANCH  10  13
ATOM     13  C   UNL     1       4.480  -4.547   1.062  1.00  0.00     0.317 C 
ATOM     14  O   UNL     1       5.193  -5.398   1.607  1.00  0.00    -0.249 OA
ATOM     15  N   UNL     1       4.057  -4.913  -0.150  1.00  0.00    -0.334 N 
ATOM     16  H   UNL     1       4.403  -5.809  -0.368  1.00  0.00     0.165 HD
BRANCH  15  17
ATOM     17  C   UNL     1       3.256  -4.418  -1.243  1.00  0.00     0.153 C 
BRANCH  17  18
ATOM     18  C   UNL     1       4.117  -3.922  -2.380  1.00  0.00    -0.029 A 
ATOM     19  C   UNL     1       4.779  -2.694  -2.280  1.00  0.00     0.007 A 
ATOM     20  C   UNL     1       4.271  -4.657  -3.562  1.00  0.00     0.007 A 
ATOM     21  C   UNL     1       5.509  -2.164  -3.344  1.00  0.00     0.016 A 
ATOM     22  C   UNL     1       5.007  -4.137  -4.635  1.00  0.00     0.016 A 
ATOM     23  C   UNL     1       5.605  -2.883  -4.527  1.00  0.00     0.017 A 
ATOM     24  Br  UNL     1       6.535  -2.149  -5.997  1.00  0.00    -0.051 Br
ENDBRANCH  17  18
ENDBRANCH  15  17
ENDBRANCH  10  13
ENDBRANCH   6   7
ENDBRANCH   4   6
ENDBRANCH   1   2
BRANCH   1  25
ATOM     25  C   UNL     1       2.604   0.254  -3.465  1.00  0.00     0.042 C 
BRANCH  25  26
ATOM     26  C   UNL     1       1.958  -1.122  -3.640  1.00  0.00     0.118 C 
BRANCH  26  27
ATOM     27  N   UNL     1       0.508  -1.081  -3.751  1.00  0.00    -0.352 N 
ATOM     28  C   UNL     1      -0.332  -1.778  -4.584  1.00  0.00     0.251 C 
ATOM     29  H   UNL     1       0.060  -0.459  -3.134  1.00  0.00     0.163 HD
ATOM     30  O   UNL     1      -1.541  -1.544  -4.546  1.00  0.00    -0.269 OA
BRANCH  28  31
ATOM     31  C   UNL     1       0.171  -2.787  -5.549  1.00  0.00     0.039 A 
ATOM     32  C   UNL     1      -0.331  -2.763  -6.856  1.00  0.00     0.014 A 
ATOM     33  C   UNL     1       1.060  -3.797  -5.176  1.00  0.00     0.014 A 
ATOM     34  C   UNL     1       0.095  -3.708  -7.797  1.00  0.00     0.010 A 
ATOM     35  C   UNL     1       1.508  -4.726  -6.126  1.00  0.00     0.010 A 
ATOM     36  C   UNL     1       1.037  -4.687  -7.448  1.00  0.00    -0.014 A 
BRANCH  36  37
ATOM     37  C   UNL     1       1.551  -5.655  -8.458  1.00  0.00     0.031 A 
ATOM     38  C   UNL     1       1.192  -7.113  -8.384  1.00  0.00     0.074 A 
ATOM     39  C   UNL     1       2.384  -5.230  -9.428  1.00  0.00     0.049 A 
ATOM     40  N   UNL     1       1.605  -8.108  -9.130  1.00  0.00    -0.248 NA
ATOM     41  C   UNL     1       0.252  -7.508  -7.324  1.00  0.00     0.031 C 
ATOM     42  C   UNL     1       2.825  -3.848  -9.614  1.00  0.00     0.029 A 
ATOM     43  N   UNL     1       3.020  -5.921 -10.432  1.00  0.00    -0.354 N 
ATOM     44  C   UNL     1       0.985  -9.245  -8.629  1.00  0.00     0.074 A 
ATOM     45  C   UNL     1       0.192  -8.822  -7.493  1.00  0.00     0.031 C 
ATOM     46  C   UNL     1       3.654  -3.791 -10.670  1.00  0.00     0.029 A 
ATOM     47  C   UNL     1       3.835  -5.136 -11.211  1.00  0.00     0.049 A 
ATOM     48  H   UNL     1       2.903  -6.888 -10.578  1.00  0.00     0.167 HD
ATOM     49  C   UNL     1       1.059 -10.521  -9.081  1.00  0.00     0.037 A 
ATOM     50  C   UNL     1       4.649  -5.461 -12.235  1.00  0.00     0.037 A 
ATOM     51  C   UNL     1       1.832 -10.948 -10.220  1.00  0.00     0.049 A 
ATOM     52  C   UNL     1       4.742  -6.892 -12.693  1.00  0.00     0.074 A 
ATOM     53  C   UNL     1       1.932 -12.216 -10.769  1.00  0.00     0.029 A 
ATOM     54  N   UNL     1       2.640 -10.120 -10.985  1.00  0.00    -0.354 N 
ATOM     55  N   UNL     1       4.117  -7.949 -12.237  1.00  0.00    -0.248 NA
ATOM     56  C   UNL     1       5.655  -7.174 -13.812  1.00  0.00     0.031 C 
ATOM     57  C   UNL     1       2.835 -12.165 -11.836  1.00  0.00     0.029 A 
ATOM     58  C   UNL     1       3.258 -10.856 -11.985  1.00  0.00     0.049 A 
ATOM     59  H   UNL     1       2.758  -9.154 -10.839  1.00  0.00     0.167 HD
ATOM     60  C   UNL     1       4.529  -9.010 -13.033  1.00  0.00     0.074 A 
ATOM     61  C   UNL     1       5.458  -8.471 -14.003  1.00  0.00     0.031 C 
ATOM     62  C   UNL     1       4.164 -10.312 -12.964  1.00  0.00     0.037 A 
BRANCH  49  63
ATOM     63  C   UNL     1       0.285 -11.570  -8.335  1.00  0.00     0.064 A 
ATOM     64  C   UNL     1      -1.113 -11.647  -8.416  1.00  0.00     0.173 A 
ATOM     65  C   UNL     1       0.954 -12.546  -7.582  1.00  0.00     0.173 A 
ATOM     66  F   UNL     1      -1.800 -10.734  -9.118  1.00  0.00    -0.203 F 
ATOM     67  C   UNL     1      -1.815 -12.649  -7.750  1.00  0.00     0.198 A 
ATOM     68  C   UNL     1       0.252 -13.563  -6.940  1.00  0.00     0.198 A 
ATOM     69  F   UNL     1       2.292 -12.524  -7.481  1.00  0.00    -0.203 F 
ATOM     70  F   UNL     1      -3.153 -12.680  -7.808  1.00  0.00    -0.200 F 
ATOM     71  C   UNL     1      -1.131 -13.610  -7.019  1.00  0.00     0.200 A 
ATOM     72  F   UNL     1       0.915 -14.499  -6.246  1.00  0.00    -0.200 F 
ATOM     73  F   UNL     1      -1.807 -14.579  -6.386  1.00  0.00    -0.200 F 
ENDBRANCH  49  63
BRANCH  50  74
ATOM     74  C   UNL     1       5.446  -4.402 -12.908  1.00  0.00     0.064 A 
ATOM     75  C   UNL     1       5.151  -4.003 -14.219  1.00  0.00     0.173 A 
ATOM     76  C   UNL     1       6.523  -3.779 -12.261  1.00  0.00     0.173 A 
ATOM     77  F   UNL     1       4.147  -4.589 -14.887  1.00  0.00    -0.203 F 
ATOM     78  C   UNL     1       5.913  -3.031 -14.863  1.00  0.00     0.198 A 
ATOM     79  C   UNL     1       7.267  -2.788 -12.897  1.00  0.00     0.198 A 
ATOM     80  F   UNL     1       6.846  -4.129 -11.007  1.00  0.00    -0.203 F 
ATOM     81  F   UNL     1       5.639  -2.700 -16.132  1.00  0.00    -0.200 F 
ATOM     82  C   UNL     1       6.967  -2.420 -14.200  1.00  0.00     0.200 A 
ATOM     83  F   UNL     1       8.278  -2.193 -12.249  1.00  0.00    -0.200 F 
ATOM     84  F   UNL     1       7.698  -1.484 -14.819  1.00  0.00    -0.200 F 
ENDBRANCH  50  74
BRANCH  62  85
ATOM     85  C   UNL     1       4.721 -11.249 -13.997  1.00  0.00     0.064 A 
ATOM     86  C   UNL     1       6.057 -11.675 -13.965  1.00  0.00     0.173 A 
ATOM     87  C   UNL     1       3.889 -11.772 -14.999  1.00  0.00     0.173 A 
ATOM     88  F   UNL     1       6.897 -11.194 -13.037  1.00  0.00    -0.203 F 
ATOM     89  C   UNL     1       6.543 -12.578 -14.909  1.00  0.00     0.198 A 
ATOM     90  C   UNL     1       4.371 -12.694 -15.924  1.00  0.00     0.198 A 
ATOM     91  F   UNL     1       2.602 -11.400 -15.070  1.00  0.00    -0.203 F 
ATOM     92  F   UNL     1       7.831 -12.945 -14.881  1.00  0.00    -0.200 F 
ATOM     93  C   UNL     1       5.698 -13.093 -15.881  1.00  0.00     0.200 A 
ATOM     94  F   UNL     1       3.550 -13.199 -16.855  1.00  0.00    -0.200 F 
ATOM     95  F   UNL     1       6.164 -13.971 -16.780  1.00  0.00    -0.200 F 
ENDBRANCH  62  85
ENDBRANCH  36  37
ENDBRANCH  28  31
ENDBRANCH  26  27
ENDBRANCH  25  26
ENDBRANCH   1  25
TORSDOF 14
