REMARK SMILES CC(=O)Nc1ccc(/C=N/c2ccccc2C(=O)NCCCNC(=O)c2ccc(-c3c4nc(c(-c5c(F)c(F)c(F)c(F)c5F)c5ccc([nH]5)c(-c5c(F)c(F)c(F)c(F)c5F)c5nc(c(-c6c(F)c(F)c(F)c(F)c6F)c6ccc3[nH]6)C=C5)C=C4)cc2)cc1
REMARK SMILES IDX 20 1 19 2 17 3 18 4 16 6 11 7 12 8 13 9 15 10 14 11 10 12
REMARK SMILES IDX 9 13 8 14 5 15 6 16 90 17 7 18 89 19 4 20 1 21 2 22 3 23
REMARK SMILES IDX 21 25 22 26 23 27 24 28 25 30 26 31 27 32 88 33 28 34 87 35
REMARK SMILES IDX 29 36 30 37 31 38 81 39 32 40 86 41 80 42 82 43 33 44 85 45
REMARK SMILES IDX 79 46 78 47 34 49 66 50 46 51 65 52 47 53 50 54 64 55 83 56
REMARK SMILES IDX 48 57 49 58 63 60 84 61 51 62 35 63 36 64 44 65 37 66 38 67
REMARK SMILES IDX 42 68 45 69 39 70 40 71 43 72 41 73 67 74 68 75 76 76 69 77
REMARK SMILES IDX 70 78 74 79 77 80 71 81 72 82 75 83 73 84 52 85 53 86 61 87
REMARK SMILES IDX 54 88 55 89 59 90 62 91 56 92 57 93 60 94 58 95
REMARK H PARENT 19 5 4 24 23 29 82 48 50 59
REMARK Flexibility Score: inf
ROOT
ATOM      1  C   UNL     1       4.859  -4.818  -3.136  1.00  0.00     0.118 C 
ENDROOT
BRANCH   1   2
ATOM      2  N   UNL     1       6.198  -4.456  -3.530  1.00  0.00    -0.352 N 
ATOM      3  C   UNL     1       6.668  -4.118  -4.777  1.00  0.00     0.253 C 
ATOM      4  O   UNL     1       7.793  -3.610  -4.822  1.00  0.00    -0.269 OA
ATOM      5  H   UNL     1       6.866  -4.450  -2.808  1.00  0.00     0.163 HD
BRANCH   3   6
ATOM      6  C   UNL     1       5.971  -4.415  -6.066  1.00  0.00     0.065 A 
ATOM      7  C   UNL     1       4.602  -4.268  -6.378  1.00  0.00     0.076 A 
ATOM      8  C   UNL     1       4.157  -4.663  -7.653  1.00  0.00     0.029 A 
ATOM      9  C   UNL     1       5.033  -5.149  -8.624  1.00  0.00     0.002 A 
ATOM     10  C   UNL     1       6.848  -4.880  -7.074  1.00  0.00     0.016 A 
ATOM     11  C   UNL     1       6.386  -5.246  -8.338  1.00  0.00     0.001 A 
BRANCH   7  12
ATOM     12  N   UNL     1       3.586  -3.873  -5.493  1.00  0.00    -0.255 NA
ATOM     13  C   UNL     1       3.533  -2.651  -5.078  1.00  0.00     0.119 C 
BRANCH  13  14
ATOM     14  C   UNL     1       2.584  -2.292  -3.995  1.00  0.00    -0.007 A 
ATOM     15  C   UNL     1       1.039  -1.755  -1.701  1.00  0.00     0.041 A 
ATOM     16  C   UNL     1       0.785  -2.888  -2.487  1.00  0.00     0.027 A 
ATOM     17  C   UNL     1       2.097  -0.920  -2.065  1.00  0.00     0.027 A 
ATOM     18  C   UNL     1       1.552  -3.160  -3.625  1.00  0.00     0.012 A 
ATOM     19  C   UNL     1       2.859  -1.174  -3.213  1.00  0.00     0.012 A 
BRANCH  15  20
ATOM     20  N   UNL     1       0.230  -1.593  -0.562  1.00  0.00    -0.326 N 
ATOM     21  C   UNL     1       0.779   0.715   0.235  1.00  0.00     0.114 C 
ATOM     22  C   UNL     1       0.115  -0.621   0.386  1.00  0.00     0.221 C 
ATOM     23  O   UNL     1      -0.596  -0.859   1.368  1.00  0.00    -0.275 OA
ATOM     24  H   UNL     1      -0.389  -2.346  -0.419  1.00  0.00     0.169 HD
ENDBRANCH  15  20
ENDBRANCH  13  14
ENDBRANCH   7  12
ENDBRANCH   3   6
ENDBRANCH   1   2
BRANCH   1  25
ATOM     25  C   UNL     1       4.705  -5.571  -1.833  1.00  0.00     0.042 C 
BRANCH  25  26
ATOM     26  C   UNL     1       5.236  -4.846  -0.607  1.00  0.00     0.118 C 
BRANCH  26  27
ATOM     27  N   UNL     1       4.598  -3.566  -0.303  1.00  0.00    -0.352 N 
ATOM     28  C   UNL     1       3.640  -3.209   0.624  1.00  0.00     0.251 C 
ATOM     29  H   UNL     1       4.910  -2.820  -0.865  1.00  0.00     0.163 HD
ATOM     30  O   UNL     1       3.289  -2.045   0.732  1.00  0.00    -0.269 OA
BRANCH  28  31
ATOM     31  C   UNL     1       3.000  -4.247   1.458  1.00  0.00     0.039 A 
ATOM     32  C   UNL     1       1.606  -4.280   1.574  1.00  0.00     0.014 A 
ATOM     33  C   UNL     1       3.772  -5.198   2.113  1.00  0.00     0.014 A 
ATOM     34  C   UNL     1       0.985  -5.337   2.242  1.00  0.00     0.010 A 
ATOM     35  C   UNL     1       3.160  -6.307   2.672  1.00  0.00     0.010 A 
ATOM     36  C   UNL     1       1.760  -6.385   2.749  1.00  0.00    -0.014 A 
BRANCH  36  37
ATOM     37  C   UNL     1       1.179  -7.548   3.460  1.00  0.00     0.031 A 
ATOM     38  C   UNL     1       1.613  -7.790   4.877  1.00  0.00     0.074 A 
ATOM     39  C   UNL     1       0.400  -8.432   2.811  1.00  0.00     0.049 A 
ATOM     40  N   UNL     1       1.535  -8.874   5.601  1.00  0.00    -0.248 NA
ATOM     41  C   UNL     1       2.296  -6.667   5.543  1.00  0.00     0.031 C 
ATOM     42  C   UNL     1      -0.087  -8.293   1.439  1.00  0.00     0.029 A 
ATOM     43  N   UNL     1      -0.096  -9.644   3.218  1.00  0.00    -0.354 N 
ATOM     44  C   UNL     1       2.221  -8.584   6.774  1.00  0.00     0.074 A 
ATOM     45  C   UNL     1       2.746  -7.244   6.645  1.00  0.00     0.031 C 
ATOM     46  C   UNL     1      -0.828  -9.368   1.123  1.00  0.00     0.029 A 
ATOM     47  C   UNL     1      -0.807 -10.302   2.244  1.00  0.00     0.049 A 
ATOM     48  H   UNL     1       0.045 -10.008   4.122  1.00  0.00     0.167 HD
ATOM     49  C   UNL     1       2.386  -9.371   7.863  1.00  0.00     0.037 A 
ATOM     50  C   UNL     1      -1.351 -11.534   2.256  1.00  0.00     0.037 A 
ATOM     51  C   UNL     1       1.796 -10.676   7.987  1.00  0.00     0.049 A 
ATOM     52  C   UNL     1      -1.166 -12.388   3.484  1.00  0.00     0.074 A 
ATOM     53  C   UNL     1       1.832 -11.546   9.060  1.00  0.00     0.029 A 
ATOM     54  N   UNL     1       1.043 -11.291   6.994  1.00  0.00    -0.354 N 
ATOM     55  N   UNL     1      -0.523 -12.114   4.594  1.00  0.00    -0.248 NA
ATOM     56  C   UNL     1      -1.772 -13.725   3.456  1.00  0.00     0.031 C 
ATOM     57  C   UNL     1       1.137 -12.706   8.700  1.00  0.00     0.029 A 
ATOM     58  C   UNL     1       0.619 -12.536   7.424  1.00  0.00     0.049 A 
ATOM     59  H   UNL     1       0.840 -10.899   6.114  1.00  0.00     0.167 HD
ATOM     60  C   UNL     1      -0.677 -13.226   5.411  1.00  0.00     0.074 A 
ATOM     61  C   UNL     1      -1.481 -14.176   4.668  1.00  0.00     0.031 C 
ATOM     62  C   UNL     1      -0.201 -13.445   6.662  1.00  0.00     0.037 A 
BRANCH  49  63
ATOM     63  C   UNL     1       3.248  -8.844   8.977  1.00  0.00     0.064 A 
ATOM     64  C   UNL     1       2.882  -7.722   9.738  1.00  0.00     0.173 A 
ATOM     65  C   UNL     1       4.474  -9.460   9.274  1.00  0.00     0.173 A 
ATOM     66  F   UNL     1       1.729  -7.084   9.490  1.00  0.00    -0.203 F 
ATOM     67  C   UNL     1       3.732  -7.207  10.714  1.00  0.00     0.198 A 
ATOM     68  C   UNL     1       5.303  -8.966  10.278  1.00  0.00     0.198 A 
ATOM     69  F   UNL     1       4.876 -10.537   8.583  1.00  0.00    -0.203 F 
ATOM     70  F   UNL     1       3.396  -6.087  11.370  1.00  0.00    -0.200 F 
ATOM     71  C   UNL     1       4.939  -7.832  10.987  1.00  0.00     0.200 A 
ATOM     72  F   UNL     1       6.463  -9.580  10.550  1.00  0.00    -0.200 F 
ATOM     73  F   UNL     1       5.758  -7.333  11.924  1.00  0.00    -0.200 F 
ENDBRANCH  49  63
BRANCH  50  74
ATOM     74  C   UNL     1      -2.133 -12.021   1.088  1.00  0.00     0.064 A 
ATOM     75  C   UNL     1      -3.519 -12.213   1.189  1.00  0.00     0.173 A 
ATOM     76  C   UNL     1      -1.530 -12.296  -0.148  1.00  0.00     0.173 A 
ATOM     77  F   UNL     1      -4.142 -11.985   2.355  1.00  0.00    -0.203 F 
ATOM     78  C   UNL     1      -4.267 -12.674   0.107  1.00  0.00     0.198 A 
ATOM     79  C   UNL     1      -2.283 -12.728  -1.239  1.00  0.00     0.198 A 
ATOM     80  F   UNL     1      -0.208 -12.126  -0.304  1.00  0.00    -0.203 F 
ATOM     81  F   UNL     1      -5.582 -12.887   0.246  1.00  0.00    -0.200 F 
ATOM     82  C   UNL     1      -3.650 -12.924  -1.109  1.00  0.00     0.200 A 
ATOM     83  F   UNL     1      -1.685 -12.953  -2.417  1.00  0.00    -0.200 F 
ATOM     84  F   UNL     1      -4.370 -13.358  -2.152  1.00  0.00    -0.200 F 
ENDBRANCH  50  74
BRANCH  62  85
ATOM     85  C   UNL     1      -0.588 -14.733   7.326  1.00  0.00     0.064 A 
ATOM     86  C   UNL     1      -0.039 -15.961   6.934  1.00  0.00     0.173 A 
ATOM     87  C   UNL     1      -1.480 -14.724   8.409  1.00  0.00     0.173 A 
ATOM     88  F   UNL     1       0.807 -16.022   5.894  1.00  0.00    -0.203 F 
ATOM     89  C   UNL     1      -0.385 -17.139   7.591  1.00  0.00     0.198 A 
ATOM     90  C   UNL     1      -1.799 -15.898   9.084  1.00  0.00     0.198 A 
ATOM     91  F   UNL     1      -2.026 -13.571   8.826  1.00  0.00    -0.203 F 
ATOM     92  F   UNL     1       0.117 -18.309   7.172  1.00  0.00    -0.200 F 
ATOM     93  C   UNL     1      -1.256 -17.105   8.670  1.00  0.00     0.200 A 
ATOM     94  F   UNL     1      -2.627 -15.860  10.137  1.00  0.00    -0.200 F 
ATOM     95  F   UNL     1      -1.578 -18.238   9.309  1.00  0.00    -0.200 F 
ENDBRANCH  62  85
ENDBRANCH  36  37
ENDBRANCH  28  31
ENDBRANCH  26  27
ENDBRANCH  25  26
ENDBRANCH   1  25
TORSDOF 13
