REMARK SMILES C[C@@H](CCC(=O)NCCCNC(=O)c1ccc(-c2c3nc(c(-c4c(F)c(F)c(F)c(F)c4F)c4ccc([nH]4)c(-c4c(F)c(F)c(F)c(F)c4F)c4nc(c(-c5c(F)c(F)c(F)c(F)c5F)c5ccc2[nH]5)C=C4)C=C3)cc1)NC(=O)Nc1ccc(Cl)c(Br)c1
REMARK SMILES IDX 8 1 7 2 5 3 6 4 4 6 3 7 2 8 1 9 77 10 78 11 79 13 80 14
REMARK SMILES IDX 81 16 82 17 88 18 83 19 86 20 84 21 87 22 85 23 9 24 10 25
REMARK SMILES IDX 11 26 12 27 13 29 14 30 15 31 76 32 16 33 75 34 17 35 18 36
REMARK SMILES IDX 19 37 69 38 20 39 74 40 68 41 70 42 21 43 73 44 67 45 66 46
REMARK SMILES IDX 22 48 54 49 34 50 53 51 35 52 38 53 52 54 71 55 36 56 37 57
REMARK SMILES IDX 51 59 72 60 39 61 23 62 24 63 32 64 25 65 26 66 30 67 33 68
REMARK SMILES IDX 27 69 28 70 31 71 29 72 55 73 56 74 64 75 57 76 58 77 62 78
REMARK SMILES IDX 65 79 59 80 60 81 63 82 61 83 40 84 41 85 49 86 42 87 43 88
REMARK SMILES IDX 47 89 50 90 44 91 45 92 48 93 46 94
REMARK H PARENT 7 5 77 12 80 15 11 28 70 47 38 58
REMARK Flexibility Score: inf
ROOT
ATOM      1  C   UNL     1      -1.881  -1.071   0.762  1.00  0.00     0.117 C 
ENDROOT
BRANCH   1   2
ATOM      2  N   UNL     1      -2.126  -1.687  -0.532  1.00  0.00    -0.356 N 
ATOM      3  C   UNL     1      -1.285  -2.272  -1.423  1.00  0.00     0.220 C 
ATOM      4  O   UNL     1      -1.759  -2.672  -2.488  1.00  0.00    -0.275 OA
ATOM      5  H   UNL     1      -3.070  -1.677  -0.813  1.00  0.00     0.163 HD
BRANCH   3   6
ATOM      6  C   UNL     1       0.199  -2.382  -1.155  1.00  0.00     0.102 C 
BRANCH   6   7
ATOM      7  C   UNL     1       1.026  -1.634  -2.209  1.00  0.00     0.034 C 
BRANCH   7   8
ATOM      8  C   UNL     1       0.967  -0.091  -2.167  1.00  0.00     0.081 C 
ATOM      9  C   UNL     1       1.442   0.451  -0.815  1.00  0.00     0.031 C 
BRANCH   8  10
ATOM     10  N   UNL     1      -0.345   0.406  -2.605  1.00  0.00    -0.335 N 
ATOM     11  C   UNL     1      -0.899   1.626  -2.759  1.00  0.00     0.319 C 
ATOM     12  H   UNL     1      -0.964  -0.322  -2.841  1.00  0.00     0.165 HD
ATOM     13  O   UNL     1      -2.129   1.688  -2.847  1.00  0.00    -0.248 OA
ATOM     14  N   UNL     1      -0.203   2.777  -2.677  1.00  0.00    -0.308 N 
ATOM     15  H   UNL     1      -0.737   3.546  -2.371  1.00  0.00     0.171 HD
BRANCH  14  16
ATOM     16  C   UNL     1       1.134   3.087  -2.944  1.00  0.00     0.044 A 
ATOM     17  C   UNL     1       1.712   4.133  -2.224  1.00  0.00     0.028 A 
ATOM     18  C   UNL     1       1.893   2.400  -3.889  1.00  0.00     0.043 A 
ATOM     19  C   UNL     1       3.081   4.380  -2.333  1.00  0.00     0.024 A 
ATOM     20  C   UNL     1       3.267   2.638  -3.996  1.00  0.00     0.038 A 
ATOM     21  C   UNL     1       3.869   3.613  -3.195  1.00  0.00     0.055 A 
ATOM     22  Br  UNL     1       4.247   1.554  -5.209  1.00  0.00    -0.049 Br
ATOM     23  Cl  UNL     1       5.569   3.909  -3.199  1.00  0.00    -0.083 Cl
ENDBRANCH  14  16
ENDBRANCH   8  10
ENDBRANCH   7   8
ENDBRANCH   6   7
ENDBRANCH   3   6
ENDBRANCH   1   2
BRANCH   1  24
ATOM     24  C   UNL     1      -1.827   0.455   0.695  1.00  0.00     0.042 C 
BRANCH  24  25
ATOM     25  C   UNL     1      -3.135   1.129   0.289  1.00  0.00     0.118 C 
BRANCH  25  26
ATOM     26  N   UNL     1      -4.015   1.317   1.431  1.00  0.00    -0.352 N 
ATOM     27  C   UNL     1      -4.536   2.477   1.942  1.00  0.00     0.251 C 
ATOM     28  H   UNL     1      -4.274   0.493   1.905  1.00  0.00     0.163 HD
ATOM     29  O   UNL     1      -5.056   2.460   3.062  1.00  0.00    -0.269 OA
BRANCH  27  30
ATOM     30  C   UNL     1      -4.489   3.753   1.187  1.00  0.00     0.039 A 
ATOM     31  C   UNL     1      -4.246   4.937   1.893  1.00  0.00     0.014 A 
ATOM     32  C   UNL     1      -4.779   3.813  -0.180  1.00  0.00     0.014 A 
ATOM     33  C   UNL     1      -4.274   6.171   1.234  1.00  0.00     0.010 A 
ATOM     34  C   UNL     1      -4.769   5.042  -0.847  1.00  0.00     0.010 A 
ATOM     35  C   UNL     1      -4.533   6.234  -0.143  1.00  0.00    -0.014 A 
BRANCH  35  36
ATOM     36  C   UNL     1      -4.592   7.541  -0.847  1.00  0.00     0.031 A 
ATOM     37  C   UNL     1      -5.909   8.090  -1.322  1.00  0.00     0.074 A 
ATOM     38  C   UNL     1      -3.458   8.226  -1.086  1.00  0.00     0.049 A 
ATOM     39  N   UNL     1      -6.156   9.194  -1.984  1.00  0.00    -0.248 NA
ATOM     40  C   UNL     1      -7.105   7.289  -1.021  1.00  0.00     0.031 C 
ATOM     41  C   UNL     1      -2.116   7.801  -0.690  1.00  0.00     0.029 A 
ATOM     42  N   UNL     1      -3.254   9.422  -1.730  1.00  0.00    -0.354 N 
ATOM     43  C   UNL     1      -7.530   9.216  -2.184  1.00  0.00     0.074 A 
ATOM     44  C   UNL     1      -8.060   8.000  -1.604  1.00  0.00     0.031 C 
ATOM     45  C   UNL     1      -1.228   8.723  -1.096  1.00  0.00     0.029 A 
ATOM     46  C   UNL     1      -1.934   9.789  -1.804  1.00  0.00     0.049 A 
ATOM     47  H   UNL     1      -3.986   9.965  -2.102  1.00  0.00     0.167 HD
ATOM     48  C   UNL     1      -8.283  10.170  -2.782  1.00  0.00     0.037 A 
ATOM     49  C   UNL     1      -1.356  10.858  -2.386  1.00  0.00     0.037 A 
ATOM     50  C   UNL     1      -7.765  11.390  -3.344  1.00  0.00     0.049 A 
ATOM     51  C   UNL     1      -2.212  11.886  -3.074  1.00  0.00     0.074 A 
ATOM     52  C   UNL     1      -8.461  12.444  -3.912  1.00  0.00     0.029 A 
ATOM     53  N   UNL     1      -6.420  11.717  -3.415  1.00  0.00    -0.354 N 
ATOM     54  N   UNL     1      -3.515  11.924  -3.203  1.00  0.00    -0.248 NA
ATOM     55  C   UNL     1      -1.514  13.021  -3.695  1.00  0.00     0.031 C 
ATOM     56  C   UNL     1      -7.535  13.390  -4.363  1.00  0.00     0.029 A 
ATOM     57  C   UNL     1      -6.263  12.943  -4.043  1.00  0.00     0.049 A 
ATOM     58  H   UNL     1      -5.684  11.161  -3.071  1.00  0.00     0.167 HD
ATOM     59  C   UNL     1      -3.795  13.091  -3.901  1.00  0.00     0.074 A 
ATOM     60  C   UNL     1      -2.527  13.742  -4.156  1.00  0.00     0.031 C 
ATOM     61  C   UNL     1      -4.997  13.578  -4.296  1.00  0.00     0.037 A 
BRANCH  48  62
ATOM     62  C   UNL     1      -9.762   9.935  -2.863  1.00  0.00     0.064 A 
ATOM     63  C   UNL     1     -10.585  10.055  -1.733  1.00  0.00     0.173 A 
ATOM     64  C   UNL     1     -10.370   9.639  -4.092  1.00  0.00     0.173 A 
ATOM     65  F   UNL     1     -10.050  10.329  -0.534  1.00  0.00    -0.203 F 
ATOM     66  C   UNL     1     -11.961   9.865  -1.828  1.00  0.00     0.198 A 
ATOM     67  C   UNL     1     -11.749   9.473  -4.187  1.00  0.00     0.198 A 
ATOM     68  F   UNL     1      -9.627   9.523  -5.203  1.00  0.00    -0.203 F 
ATOM     69  F   UNL     1     -12.725   9.950  -0.729  1.00  0.00    -0.200 F 
ATOM     70  C   UNL     1     -12.543   9.581  -3.054  1.00  0.00     0.200 A 
ATOM     71  F   UNL     1     -12.311   9.210  -5.375  1.00  0.00    -0.200 F 
ATOM     72  F   UNL     1     -13.868   9.407  -3.145  1.00  0.00    -0.200 F 
ENDBRANCH  48  62
BRANCH  49  73
ATOM     73  C   UNL     1       0.119  11.014  -2.337  1.00  0.00     0.064 A 
ATOM     74  C   UNL     1       0.712  12.002  -1.539  1.00  0.00     0.173 A 
ATOM     75  C   UNL     1       0.964  10.181  -3.085  1.00  0.00     0.173 A 
ATOM     76  F   UNL     1      -0.057  12.834  -0.824  1.00  0.00    -0.203 F 
ATOM     77  C   UNL     1       2.096  12.159  -1.501  1.00  0.00     0.198 A 
ATOM     78  C   UNL     1       2.348  10.324  -3.028  1.00  0.00     0.198 A 
ATOM     79  F   UNL     1       0.443   9.218  -3.860  1.00  0.00    -0.203 F 
ATOM     80  F   UNL     1       2.637  13.133  -0.756  1.00  0.00    -0.200 F 
ATOM     81  C   UNL     1       2.913  11.317  -2.241  1.00  0.00     0.200 A 
ATOM     82  F   UNL     1       3.134   9.498  -3.732  1.00  0.00    -0.200 F 
ATOM     83  F   UNL     1       4.244  11.463  -2.198  1.00  0.00    -0.200 F 
ENDBRANCH  49  73
BRANCH  61  84
ATOM     84  C   UNL     1      -5.000  14.884  -5.034  1.00  0.00     0.064 A 
ATOM     85  C   UNL     1      -4.584  14.968  -6.370  1.00  0.00     0.173 A 
ATOM     86  C   UNL     1      -5.456  16.055  -4.411  1.00  0.00     0.173 A 
ATOM     87  F   UNL     1      -4.123  13.879  -7.003  1.00  0.00    -0.203 F 
ATOM     88  C   UNL     1      -4.606  16.183  -7.051  1.00  0.00     0.198 A 
ATOM     89  C   UNL     1      -5.499  17.263  -5.101  1.00  0.00     0.198 A 
ATOM     90  F   UNL     1      -5.868  16.026  -3.135  1.00  0.00    -0.203 F 
ATOM     91  F   UNL     1      -4.166  16.249  -8.315  1.00  0.00    -0.200 F 
ATOM     92  C   UNL     1      -5.069  17.327  -6.418  1.00  0.00     0.200 A 
ATOM     93  F   UNL     1      -5.954  18.366  -4.492  1.00  0.00    -0.200 F 
ATOM     94  F   UNL     1      -5.093  18.495  -7.076  1.00  0.00    -0.200 F 
ENDBRANCH  61  84
ENDBRANCH  35  36
ENDBRANCH  27  30
ENDBRANCH  25  26
ENDBRANCH  24  25
ENDBRANCH   1  24
TORSDOF 14
