REMARK SMILES COc1ccc(COc2cncc(C(=O)NCCCNC(=O)c3ccc(-c4c5nc(c(-c6c(F)c(F)c(F)c(F)c6F)c6ccc([nH]6)c(-c6c(F)c(F)c(F)c(F)c6F)c6nc(c(-c7c(F)c(F)c(F)c(F)c7F)c7ccc4[nH]7)C=C6)C=C5)cc3)n2)cc1
REMARK SMILES IDX 17 1 16 2 14 3 15 4 13 6 9 7 10 8 86 9 11 10 12 11 8 12 7 13
REMARK SMILES IDX 6 14 3 15 4 16 88 17 5 18 87 19 2 20 1 21 18 22 19 23 20 24
REMARK SMILES IDX 21 25 22 27 23 28 24 29 85 30 25 31 84 32 26 33 27 34 28 35
REMARK SMILES IDX 78 36 29 37 83 38 77 39 79 40 30 41 82 42 76 43 75 44 31 46
REMARK SMILES IDX 63 47 43 48 62 49 44 50 47 51 61 52 80 53 45 54 46 55 60 57
REMARK SMILES IDX 81 58 48 59 32 60 33 61 41 62 34 63 35 64 39 65 42 66 36 67
REMARK SMILES IDX 37 68 40 69 38 70 64 71 65 72 73 73 66 74 67 75 71 76 74 77
REMARK SMILES IDX 68 78 69 79 72 80 70 81 49 82 50 83 58 84 51 85 52 86 56 87
REMARK SMILES IDX 59 88 53 89 54 90 57 91 55 92
REMARK H PARENT 16 5 20 26 79 45 47 56
REMARK Flexibility Score: inf
ROOT
ATOM      1  C   UNL     1       3.693  -4.716  10.039  1.00  0.00     0.118 C 
ENDROOT
BRANCH   1   2
ATOM      2  N   UNL     1       4.590  -3.590  10.242  1.00  0.00    -0.351 N 
ATOM      3  C   UNL     1       4.878  -2.505   9.447  1.00  0.00     0.271 C 
ATOM      4  O   UNL     1       5.711  -1.698   9.864  1.00  0.00    -0.267 OA
ATOM      5  H   UNL     1       5.077  -3.608  11.097  1.00  0.00     0.163 HD
BRANCH   3   6
ATOM      6  C   UNL     1       4.200  -2.247   8.147  1.00  0.00     0.150 A 
ATOM      7  C   UNL     1       2.753  -2.845   6.476  1.00  0.00     0.233 A 
ATOM      8  C   UNL     1       2.822  -1.553   5.962  1.00  0.00     0.179 A 
ATOM      9  N   UNL     1       3.446  -3.218   7.571  1.00  0.00    -0.205 NA
ATOM     10  N   UNL     1       3.629  -0.599   6.485  1.00  0.00    -0.257 NA
ATOM     11  C   UNL     1       4.308  -0.974   7.596  1.00  0.00     0.145 A 
BRANCH   7  12
ATOM     12  O   UNL     1       1.854  -3.772   6.021  1.00  0.00    -0.472 OA
BRANCH  12  13
ATOM     13  C   UNL     1       2.209  -4.296   4.735  1.00  0.00     0.267 C 
BRANCH  13  14
ATOM     14  C   UNL     1       1.692  -3.402   3.634  1.00  0.00    -0.010 A 
ATOM     15  C   UNL     1       0.797  -1.488   1.781  1.00  0.00     0.118 A 
ATOM     16  C   UNL     1      -0.080  -2.019   2.727  1.00  0.00     0.047 A 
ATOM     17  C   UNL     1       2.115  -1.945   1.737  1.00  0.00     0.047 A 
ATOM     18  C   UNL     1       0.355  -2.981   3.639  1.00  0.00     0.011 A 
ATOM     19  C   UNL     1       2.559  -2.902   2.656  1.00  0.00     0.011 A 
BRANCH  15  20
ATOM     20  O   UNL     1       0.257  -0.515   0.988  1.00  0.00    -0.497 OA
ATOM     21  C   UNL     1       1.034  -0.089  -0.124  1.00  0.00     0.278 C 
ENDBRANCH  15  20
ENDBRANCH  13  14
ENDBRANCH  12  13
ENDBRANCH   7  12
ENDBRANCH   3   6
ENDBRANCH   1   2
BRANCH   1  22
ATOM     22  C   UNL     1       4.455  -5.960   9.594  1.00  0.00     0.042 C 
BRANCH  22  23
ATOM     23  C   UNL     1       5.367  -6.530  10.681  1.00  0.00     0.118 C 
BRANCH  23  24
ATOM     24  N   UNL     1       4.620  -6.995  11.845  1.00  0.00    -0.352 N 
ATOM     25  C   UNL     1       4.567  -8.230  12.433  1.00  0.00     0.251 C 
ATOM     26  H   UNL     1       4.064  -6.308  12.278  1.00  0.00     0.163 HD
ATOM     27  O   UNL     1       3.712  -8.460  13.289  1.00  0.00    -0.269 OA
BRANCH  25  28
ATOM     28  C   UNL     1       5.514  -9.295  12.048  1.00  0.00     0.039 A 
ATOM     29  C   UNL     1       5.036 -10.602  11.912  1.00  0.00     0.014 A 
ATOM     30  C   UNL     1       6.872  -9.024  11.862  1.00  0.00     0.014 A 
ATOM     31  C   UNL     1       5.904 -11.623  11.525  1.00  0.00     0.010 A 
ATOM     32  C   UNL     1       7.725 -10.030  11.413  1.00  0.00     0.010 A 
ATOM     33  C   UNL     1       7.248 -11.338  11.236  1.00  0.00    -0.014 A 
BRANCH  33  34
ATOM     34  C   UNL     1       8.162 -12.388  10.723  1.00  0.00     0.031 A 
ATOM     35  C   UNL     1       9.345 -12.833  11.534  1.00  0.00     0.074 A 
ATOM     36  C   UNL     1       7.963 -12.887   9.488  1.00  0.00     0.049 A 
ATOM     37  N   UNL     1      10.295 -13.676  11.218  1.00  0.00    -0.248 NA
ATOM     38  C   UNL     1       9.493 -12.234  12.869  1.00  0.00     0.031 C 
ATOM     39  C   UNL     1       6.876 -12.500   8.586  1.00  0.00     0.029 A 
ATOM     40  N   UNL     1       8.674 -13.817   8.771  1.00  0.00    -0.354 N 
ATOM     41  C   UNL     1      11.160 -13.697  12.304  1.00  0.00     0.074 A 
ATOM     42  C   UNL     1      10.647 -12.749  13.270  1.00  0.00     0.031 C 
ATOM     43  C   UNL     1       6.983 -13.198   7.444  1.00  0.00     0.029 A 
ATOM     44  C   UNL     1       8.165 -14.051   7.518  1.00  0.00     0.049 A 
ATOM     45  H   UNL     1       9.472 -14.273   9.123  1.00  0.00     0.167 HD
ATOM     46  C   UNL     1      12.269 -14.453  12.485  1.00  0.00     0.037 A 
ATOM     47  C   UNL     1       8.608 -14.854   6.532  1.00  0.00     0.037 A 
ATOM     48  C   UNL     1      12.762 -15.412  11.531  1.00  0.00     0.049 A 
ATOM     49  C   UNL     1       9.847 -15.676   6.757  1.00  0.00     0.074 A 
ATOM     50  C   UNL     1      13.835 -16.277  11.652  1.00  0.00     0.029 A 
ATOM     51  N   UNL     1      12.213 -15.630  10.275  1.00  0.00    -0.354 N 
ATOM     52  N   UNL     1      10.617 -15.739   7.815  1.00  0.00    -0.248 NA
ATOM     53  C   UNL     1      10.276 -16.541   5.649  1.00  0.00     0.031 C 
ATOM     54  C   UNL     1      13.964 -16.986  10.453  1.00  0.00     0.029 A 
ATOM     55  C   UNL     1      12.943 -16.597   9.601  1.00  0.00     0.049 A 
ATOM     56  H   UNL     1      11.423 -15.166   9.916  1.00  0.00     0.167 HD
ATOM     57  C   UNL     1      11.608 -16.661   7.511  1.00  0.00     0.074 A 
ATOM     58  C   UNL     1      11.332 -17.147   6.175  1.00  0.00     0.031 C 
ATOM     59  C   UNL     1      12.656 -17.066   8.270  1.00  0.00     0.037 A 
BRANCH  46  60
ATOM     60  C   UNL     1      13.029 -14.275  13.767  1.00  0.00     0.064 A 
ATOM     61  C   UNL     1      12.516 -14.723  14.993  1.00  0.00     0.173 A 
ATOM     62  C   UNL     1      14.304 -13.689  13.764  1.00  0.00     0.173 A 
ATOM     63  F   UNL     1      11.297 -15.282  15.051  1.00  0.00    -0.203 F 
ATOM     64  C   UNL     1      13.239 -14.567  16.173  1.00  0.00     0.198 A 
ATOM     65  C   UNL     1      15.036 -13.559  14.942  1.00  0.00     0.198 A 
ATOM     66  F   UNL     1      14.844 -13.249  12.618  1.00  0.00    -0.203 F 
ATOM     67  F   UNL     1      12.709 -14.962  17.339  1.00  0.00    -0.200 F 
ATOM     68  C   UNL     1      14.500 -13.991  16.146  1.00  0.00     0.200 A 
ATOM     69  F   UNL     1      16.260 -13.014  14.912  1.00  0.00    -0.200 F 
ATOM     70  F   UNL     1      15.197 -13.848  17.281  1.00  0.00    -0.200 F 
ENDBRANCH  46  60
BRANCH  47  71
ATOM     71  C   UNL     1       7.863 -14.932   5.250  1.00  0.00     0.064 A 
ATOM     72  C   UNL     1       7.147 -16.086   4.904  1.00  0.00     0.173 A 
ATOM     73  C   UNL     1       7.847 -13.858   4.348  1.00  0.00     0.173 A 
ATOM     74  F   UNL     1       7.150 -17.146   5.726  1.00  0.00    -0.203 F 
ATOM     75  C   UNL     1       6.456 -16.169   3.697  1.00  0.00     0.198 A 
ATOM     76  C   UNL     1       7.134 -13.932   3.154  1.00  0.00     0.198 A 
ATOM     77  F   UNL     1       8.513 -12.729   4.635  1.00  0.00    -0.203 F 
ATOM     78  F   UNL     1       5.813 -17.299   3.373  1.00  0.00    -0.200 F 
ATOM     79  C   UNL     1       6.445 -15.091   2.826  1.00  0.00     0.200 A 
ATOM     80  F   UNL     1       7.114 -12.883   2.321  1.00  0.00    -0.200 F 
ATOM     81  F   UNL     1       5.776 -15.169   1.668  1.00  0.00    -0.200 F 
ENDBRANCH  47  71
BRANCH  59  82
ATOM     82  C   UNL     1      13.570 -18.099   7.679  1.00  0.00     0.064 A 
ATOM     83  C   UNL     1      14.467 -17.779   6.649  1.00  0.00     0.173 A 
ATOM     84  C   UNL     1      13.574 -19.412   8.171  1.00  0.00     0.173 A 
ATOM     85  F   UNL     1      14.489 -16.540   6.134  1.00  0.00    -0.203 F 
ATOM     86  C   UNL     1      15.319 -18.743   6.118  1.00  0.00     0.198 A 
ATOM     87  C   UNL     1      14.446 -20.367   7.656  1.00  0.00     0.198 A 
ATOM     88  F   UNL     1      12.738 -19.767   9.158  1.00  0.00    -0.203 F 
ATOM     89  F   UNL     1      16.136 -18.427   5.104  1.00  0.00    -0.200 F 
ATOM     90  C   UNL     1      15.313 -20.034   6.627  1.00  0.00     0.200 A 
ATOM     91  F   UNL     1      14.448 -21.610   8.156  1.00  0.00    -0.200 F 
ATOM     92  F   UNL     1      16.139 -20.959   6.118  1.00  0.00    -0.200 F 
ENDBRANCH  59  82
ENDBRANCH  33  34
ENDBRANCH  25  28
ENDBRANCH  23  24
ENDBRANCH  22  23
ENDBRANCH   1  22
TORSDOF 14
