REMARK SMILES CCOc1cnc(C(=O)c2[nH]c3cc(Cl)ccc3c2CC(=O)NCCCNC(=O)c2ccc(-c3c4nc(c(-c5c(F)c(F)c(F)c(F)c5F)c5ccc([nH]5)c(-c5c(F)c(F)c(F)c(F)c5F)c5nc(c(-c6c(F)c(F)c(F)c(F)c6F)c6ccc3[nH]6)C=C5)C=C4)cc2)cc1CC
REMARK SMILES IDX 21 1 22 2 23 3 20 5 19 6 10 7 11 8 12 9 18 11 13 12 17 13
REMARK SMILES IDX 14 14 16 15 15 16 8 17 9 18 7 19 4 20 5 21 94 22 6 23 93 24
REMARK SMILES IDX 3 25 2 26 1 27 95 28 96 29 24 30 25 31 26 32 27 33 28 34
REMARK SMILES IDX 29 36 30 37 31 38 92 39 32 40 91 41 33 42 34 43 35 44 85 45
REMARK SMILES IDX 36 46 90 47 84 48 86 49 37 50 89 51 83 52 82 53 38 55 70 56
REMARK SMILES IDX 50 57 69 58 51 59 54 60 68 61 87 62 52 63 53 64 67 66 88 67
REMARK SMILES IDX 55 68 39 69 40 70 48 71 41 72 42 73 46 74 49 75 43 76 44 77
REMARK SMILES IDX 47 78 45 79 71 80 72 81 80 82 73 83 74 84 78 85 81 86 75 87
REMARK SMILES IDX 76 88 79 89 77 90 56 91 57 92 65 93 58 94 59 95 63 96 66 97
REMARK SMILES IDX 60 98 61 99 64 100 62 101
REMARK H PARENT 23 4 11 10 27 35 86 54 54 65
REMARK Flexibility Score: inf
ROOT
ATOM      1  C   UNL     1       9.506  -3.720  -0.891  1.00  0.00     0.224 C 
ATOM      2  O   UNL     1       9.030  -4.563  -1.656  1.00  0.00    -0.275 OA
ATOM      3  N   UNL     1      10.588  -4.088  -0.143  1.00  0.00    -0.356 N 
ATOM      4  H   UNL     1      10.796  -5.051  -0.153  1.00  0.00     0.163 HD
ENDROOT
BRANCH   1   5
ATOM      5  C   UNL     1       8.986  -2.290  -0.878  1.00  0.00     0.138 C 
BRANCH   5   6
ATOM      6  C   UNL     1       8.485  -1.811   0.455  1.00  0.00    -0.002 A 
ATOM      7  C   UNL     1       7.378  -2.277   1.159  1.00  0.00     0.093 A 
ATOM      8  N   UNL     1       7.381  -1.647   2.384  1.00  0.00    -0.351 N 
ATOM      9  C   UNL     1       8.292  -0.622   2.395  1.00  0.00     0.048 A 
ATOM     10  H   UNL     1       6.808  -1.898   3.144  1.00  0.00     0.167 HD
ATOM     11  C   UNL     1       9.000  -0.693   1.197  1.00  0.00     0.004 A 
ATOM     12  C   UNL     1       8.541   0.349   3.373  1.00  0.00     0.047 A 
ATOM     13  C   UNL     1      10.010   0.265   0.960  1.00  0.00     0.012 A 
ATOM     14  C   UNL     1       9.542   1.286   3.106  1.00  0.00     0.043 A 
ATOM     15  C   UNL     1      10.268   1.251   1.920  1.00  0.00     0.021 A 
ATOM     16  Cl  UNL     1       9.878   2.510   4.270  1.00  0.00    -0.084 Cl
BRANCH   7  17
ATOM     17  C   UNL     1       6.385  -3.269   0.771  1.00  0.00     0.227 C 
ATOM     18  O   UNL     1       6.702  -4.428   0.537  1.00  0.00    -0.285 OA
BRANCH  17  19
ATOM     19  C   UNL     1       4.936  -2.826   0.686  1.00  0.00     0.113 A 
ATOM     20  C   UNL     1       2.274  -2.135   0.595  1.00  0.00     0.140 A 
ATOM     21  C   UNL     1       2.730  -3.422   0.330  1.00  0.00     0.158 A 
ATOM     22  C   UNL     1       3.197  -1.160   0.970  1.00  0.00    -0.002 A 
ATOM     23  N   UNL     1       4.032  -3.791   0.382  1.00  0.00    -0.249 NA
ATOM     24  C   UNL     1       4.555  -1.507   0.946  1.00  0.00     0.040 A 
BRANCH  20  25
ATOM     25  O   UNL     1       0.940  -1.852   0.564  1.00  0.00    -0.492 OA
BRANCH  25  26
ATOM     26  C   UNL     1       0.464  -1.665  -0.777  1.00  0.00     0.226 C 
ATOM     27  C   UNL     1       0.084  -0.207  -0.975  1.00  0.00     0.049 C 
ENDBRANCH  25  26
ENDBRANCH  20  25
BRANCH  22  28
ATOM     28  C   UNL     1       2.783   0.231   1.389  1.00  0.00     0.036 C 
ATOM     29  C   UNL     1       3.308   0.613   2.770  1.00  0.00     0.009 C 
ENDBRANCH  22  28
ENDBRANCH  17  19
ENDBRANCH   7  17
ENDBRANCH   5   6
ENDBRANCH   1   5
BRANCH   3  30
ATOM     30  C   UNL     1      11.475  -3.275   0.664  1.00  0.00     0.117 C 
BRANCH  30  31
ATOM     31  C   UNL     1      11.190  -3.367   2.161  1.00  0.00     0.042 C 
BRANCH  31  32
ATOM     32  C   UNL     1      11.437  -4.740   2.780  1.00  0.00     0.118 C 
BRANCH  32  33
ATOM     33  N   UNL     1      12.841  -5.120   2.771  1.00  0.00    -0.352 N 
ATOM     34  C   UNL     1      13.689  -5.462   3.793  1.00  0.00     0.251 C 
ATOM     35  H   UNL     1      13.253  -5.135   1.877  1.00  0.00     0.163 HD
ATOM     36  O   UNL     1      14.888  -5.591   3.553  1.00  0.00    -0.269 OA
BRANCH  34  37
ATOM     37  C   UNL     1      13.206  -5.666   5.181  1.00  0.00     0.039 A 
ATOM     38  C   UNL     1      14.028  -5.244   6.234  1.00  0.00     0.014 A 
ATOM     39  C   UNL     1      12.012  -6.333   5.467  1.00  0.00     0.014 A 
ATOM     40  C   UNL     1      13.636  -5.446   7.560  1.00  0.00     0.010 A 
ATOM     41  C   UNL     1      11.594  -6.487   6.791  1.00  0.00     0.010 A 
ATOM     42  C   UNL     1      12.404  -6.051   7.850  1.00  0.00    -0.014 A 
BRANCH  42  43
ATOM     43  C   UNL     1      11.960  -6.244   9.254  1.00  0.00     0.031 A 
ATOM     44  C   UNL     1      11.865  -7.625   9.839  1.00  0.00     0.074 A 
ATOM     45  C   UNL     1      11.595  -5.178   9.992  1.00  0.00     0.049 A 
ATOM     46  N   UNL     1      11.428  -7.997  11.017  1.00  0.00    -0.248 NA
ATOM     47  C   UNL     1      12.300  -8.736   8.980  1.00  0.00     0.031 C 
ATOM     48  C   UNL     1      11.610  -3.789   9.535  1.00  0.00     0.029 A 
ATOM     49  N   UNL     1      11.129  -5.101  11.281  1.00  0.00    -0.354 N 
ATOM     50  C   UNL     1      11.511  -9.383  11.030  1.00  0.00     0.074 A 
ATOM     51  C   UNL     1      12.019  -9.789   9.736  1.00  0.00     0.031 C 
ATOM     52  C   UNL     1      11.185  -2.995  10.531  1.00  0.00     0.029 A 
ATOM     53  C   UNL     1      10.844  -3.821  11.686  1.00  0.00     0.049 A 
ATOM     54  H   UNL     1      11.011  -5.888  11.859  1.00  0.00     0.167 HD
ATOM     55  C   UNL     1      11.201 -10.239  12.033  1.00  0.00     0.037 A 
ATOM     56  C   UNL     1      10.359  -3.364  12.856  1.00  0.00     0.037 A 
ATOM     57  C   UNL     1      10.734  -9.841  13.334  1.00  0.00     0.049 A 
ATOM     58  C   UNL     1      10.059  -4.332  13.966  1.00  0.00     0.074 A 
ATOM     59  C   UNL     1      10.444 -10.637  14.430  1.00  0.00     0.029 A 
ATOM     60  N   UNL     1      10.495  -8.531  13.718  1.00  0.00    -0.354 N 
ATOM     61  N   UNL     1      10.175  -5.636  13.977  1.00  0.00    -0.248 NA
ATOM     62  C   UNL     1       9.565  -3.761  15.227  1.00  0.00     0.031 C 
ATOM     63  C   UNL     1      10.012  -9.809  15.472  1.00  0.00     0.029 A 
ATOM     64  C   UNL     1      10.056  -8.496  15.032  1.00  0.00     0.049 A 
ATOM     65  H   UNL     1      10.619  -7.742  13.142  1.00  0.00     0.167 HD
ATOM     66  C   UNL     1       9.787  -6.042  15.245  1.00  0.00     0.074 A 
ATOM     67  C   UNL     1       9.441  -4.845  15.982  1.00  0.00     0.031 C 
ATOM     68  C   UNL     1       9.723  -7.296  15.753  1.00  0.00     0.037 A 
BRANCH  55  69
ATOM     69  C   UNL     1      11.358 -11.704  11.760  1.00  0.00     0.064 A 
ATOM     70  C   UNL     1      12.621 -12.311  11.731  1.00  0.00     0.173 A 
ATOM     71  C   UNL     1      10.231 -12.514  11.560  1.00  0.00     0.173 A 
ATOM     72  F   UNL     1      13.728 -11.573  11.905  1.00  0.00    -0.203 F 
ATOM     73  C   UNL     1      12.752 -13.676  11.493  1.00  0.00     0.198 A 
ATOM     74  C   UNL     1      10.364 -13.883  11.342  1.00  0.00     0.198 A 
ATOM     75  F   UNL     1       9.001 -11.979  11.583  1.00  0.00    -0.203 F 
ATOM     76  F   UNL     1      13.971 -14.231  11.436  1.00  0.00    -0.200 F 
ATOM     77  C   UNL     1      11.624 -14.461  11.304  1.00  0.00     0.200 A 
ATOM     78  F   UNL     1       9.274 -14.642  11.167  1.00  0.00    -0.200 F 
ATOM     79  F   UNL     1      11.752 -15.777  11.079  1.00  0.00    -0.200 F 
ENDBRANCH  55  69
BRANCH  56  80
ATOM     80  C   UNL     1      10.151  -1.909  13.045  1.00  0.00     0.064 A 
ATOM     81  C   UNL     1      11.033  -1.156  13.831  1.00  0.00     0.173 A 
ATOM     82  C   UNL     1       9.076  -1.242  12.440  1.00  0.00     0.173 A 
ATOM     83  F   UNL     1      12.062  -1.759  14.445  1.00  0.00    -0.203 F 
ATOM     84  C   UNL     1      10.843   0.211  14.014  1.00  0.00     0.198 A 
ATOM     85  C   UNL     1       8.897   0.128  12.609  1.00  0.00     0.198 A 
ATOM     86  F   UNL     1       8.207  -1.923  11.678  1.00  0.00    -0.203 F 
ATOM     87  F   UNL     1      11.683   0.904  14.794  1.00  0.00    -0.200 F 
ATOM     88  C   UNL     1       9.778   0.853  13.399  1.00  0.00     0.200 A 
ATOM     89  F   UNL     1       7.872   0.747  12.008  1.00  0.00    -0.200 F 
ATOM     90  F   UNL     1       9.597   2.169  13.572  1.00  0.00    -0.200 F 
ENDBRANCH  56  80
BRANCH  68  91
ATOM     91  C   UNL     1       9.286  -7.435  17.178  1.00  0.00     0.064 A 
ATOM     92  C   UNL     1       7.936  -7.332  17.540  1.00  0.00     0.173 A 
ATOM     93  C   UNL     1      10.223  -7.706  18.186  1.00  0.00     0.173 A 
ATOM     94  F   UNL     1       7.008  -7.056  16.611  1.00  0.00    -0.203 F 
ATOM     95  C   UNL     1       7.540  -7.480  18.866  1.00  0.00     0.198 A 
ATOM     96  C   UNL     1       9.821  -7.871  19.508  1.00  0.00     0.198 A 
ATOM     97  F   UNL     1      11.526  -7.814  17.886  1.00  0.00    -0.203 F 
ATOM     98  F   UNL     1       6.248  -7.346  19.197  1.00  0.00    -0.200 F 
ATOM     99  C   UNL     1       8.481  -7.754  19.848  1.00  0.00     0.200 A 
ATOM    100  F   UNL     1      10.730  -8.139  20.455  1.00  0.00    -0.200 F 
ATOM    101  F   UNL     1       8.098  -7.897  21.124  1.00  0.00    -0.200 F 
ENDBRANCH  68  91
ENDBRANCH  42  43
ENDBRANCH  34  37
ENDBRANCH  32  33
ENDBRANCH  31  32
ENDBRANCH  30  31
ENDBRANCH   3  30
TORSDOF 16
