REMARK SMILES Cc1c(NC(=O)C(F)(F)F)cccc1C(=O)NCCCNC(=O)c1ccc(-c2c3nc(c(-c4c(F)c(F)c(F)c(F)c4F)c4ccc([nH]4)c(-c4c(F)c(F)c(F)c(F)c4F)c4nc(c(-c5c(F)c(F)c(F)c(F)c5F)c5ccc2[nH]5)C=C4)C=C3)cc1
REMARK SMILES IDX 19 1 18 2 17 3 15 4 16 5 14 7 1 8 2 9 3 10 11 11 13 12 12 13
REMARK SMILES IDX 4 14 5 15 6 17 7 18 8 19 9 20 10 21 20 22 21 23 22 24 23 26
REMARK SMILES IDX 24 27 25 28 86 29 26 30 85 31 27 32 28 33 29 34 79 35 30 36
REMARK SMILES IDX 84 37 78 38 80 39 31 40 83 41 77 42 76 43 32 45 64 46 44 47
REMARK SMILES IDX 63 48 45 49 48 50 62 51 81 52 46 53 47 54 61 56 82 57 49 58
REMARK SMILES IDX 33 59 34 60 42 61 35 62 36 63 40 64 43 65 37 66 38 67 41 68
REMARK SMILES IDX 39 69 65 70 66 71 74 72 67 73 68 74 72 75 75 76 69 77 70 78
REMARK SMILES IDX 73 79 71 80 50 81 51 82 59 83 52 84 53 85 57 86 60 87 54 88
REMARK SMILES IDX 55 89 58 90 56 91
REMARK H PARENT 17 6 4 16 21 25 80 44 48 55
REMARK Flexibility Score: inf
ROOT
ATOM      1  C   UNL     1       4.226   0.676  -0.783  1.00  0.00     0.042 C 
ENDROOT
BRANCH   1   2
ATOM      2  C   UNL     1       3.384   1.267   0.353  1.00  0.00     0.118 C 
BRANCH   2   3
ATOM      3  N   UNL     1       2.359   2.162  -0.163  1.00  0.00    -0.352 N 
ATOM      4  C   UNL     1       1.015   2.038  -0.426  1.00  0.00     0.251 C 
ATOM      5  O   UNL     1       0.460   3.049  -0.865  1.00  0.00    -0.269 OA
ATOM      6  H   UNL     1       2.706   3.060  -0.371  1.00  0.00     0.163 HD
BRANCH   4   7
ATOM      7  C   UNL     1       0.166   0.833  -0.143  1.00  0.00     0.044 A 
ATOM      8  C   UNL     1       1.655  -0.945  -1.192  1.00  0.00     0.047 C 
ATOM      9  C   UNL     1       0.484  -0.525  -0.354  1.00  0.00    -0.015 A 
ATOM     10  C   UNL     1      -0.402  -1.552   0.079  1.00  0.00     0.045 A 
ATOM     11  C   UNL     1      -1.691  -1.214   0.475  1.00  0.00     0.026 A 
ATOM     12  C   UNL     1      -1.144   1.132   0.271  1.00  0.00     0.014 A 
ATOM     13  C   UNL     1      -2.073   0.125   0.532  1.00  0.00     0.003 A 
BRANCH  10  14
ATOM     14  N   UNL     1       0.125  -2.859   0.140  1.00  0.00    -0.318 N 
ATOM     15  C   UNL     1      -0.405  -4.116   0.245  1.00  0.00     0.330 C 
ATOM     16  H   UNL     1       1.109  -2.869   0.098  1.00  0.00     0.170 HD
ATOM     17  O   UNL     1       0.419  -5.021   0.451  1.00  0.00    -0.264 OA
BRANCH  15  18
ATOM     18  C   UNL     1      -1.898  -4.407   0.073  1.00  0.00     0.471 C 
ATOM     19  F   UNL     1      -2.621  -4.103   1.187  1.00  0.00    -0.162 F 
ATOM     20  F   UNL     1      -2.457  -3.716  -0.959  1.00  0.00    -0.162 F 
ATOM     21  F   UNL     1      -2.144  -5.723  -0.185  1.00  0.00    -0.162 F 
ENDBRANCH  15  18
ENDBRANCH  10  14
ENDBRANCH   4   7
ENDBRANCH   2   3
ENDBRANCH   1   2
BRANCH   1  22
ATOM     22  C   UNL     1       5.548   1.362  -1.073  1.00  0.00     0.118 C 
BRANCH  22  23
ATOM     23  N   UNL     1       6.686   0.440  -0.997  1.00  0.00    -0.352 N 
ATOM     24  C   UNL     1       7.980   0.617  -1.468  1.00  0.00     0.251 C 
ATOM     25  H   UNL     1       6.508  -0.420  -0.552  1.00  0.00     0.163 HD
ATOM     26  O   UNL     1       8.856  -0.196  -1.267  1.00  0.00    -0.269 OA
BRANCH  24  27
ATOM     27  C   UNL     1       8.271   1.911  -2.121  1.00  0.00     0.039 A 
ATOM     28  C   UNL     1       9.006   2.830  -1.370  1.00  0.00     0.014 A 
ATOM     29  C   UNL     1       7.463   2.313  -3.180  1.00  0.00     0.014 A 
ATOM     30  C   UNL     1       8.701   4.179  -1.488  1.00  0.00     0.010 A 
ATOM     31  C   UNL     1       7.094   3.644  -3.230  1.00  0.00     0.010 A 
ATOM     32  C   UNL     1       7.651   4.559  -2.326  1.00  0.00    -0.014 A 
BRANCH  32  33
ATOM     33  C   UNL     1       7.037   5.880  -2.257  1.00  0.00     0.031 A 
ATOM     34  C   UNL     1       7.360   6.877  -3.294  1.00  0.00     0.074 A 
ATOM     35  C   UNL     1       6.189   6.219  -1.259  1.00  0.00     0.049 A 
ATOM     36  N   UNL     1       7.346   8.152  -3.099  1.00  0.00    -0.248 NA
ATOM     37  C   UNL     1       7.780   6.499  -4.636  1.00  0.00     0.031 C 
ATOM     38  C   UNL     1       5.379   7.433  -1.174  1.00  0.00     0.029 A 
ATOM     39  N   UNL     1       6.042   5.619   0.003  1.00  0.00    -0.354 N 
ATOM     40  C   UNL     1       7.500   8.764  -4.319  1.00  0.00     0.074 A 
ATOM     41  C   UNL     1       7.824   7.692  -5.234  1.00  0.00     0.031 C 
ATOM     42  C   UNL     1       5.093   7.675   0.113  1.00  0.00     0.029 A 
ATOM     43  C   UNL     1       5.790   6.684   0.908  1.00  0.00     0.049 A 
ATOM     44  H   UNL     1       6.102   4.659   0.215  1.00  0.00     0.167 HD
ATOM     45  C   UNL     1       7.225  10.095  -4.439  1.00  0.00     0.037 A 
ATOM     46  C   UNL     1       6.628   6.942   1.953  1.00  0.00     0.037 A 
ATOM     47  C   UNL     1       6.852  10.690  -3.154  1.00  0.00     0.049 A 
ATOM     48  C   UNL     1       7.305   8.293   1.894  1.00  0.00     0.074 A 
ATOM     49  C   UNL     1       5.647  11.016  -2.552  1.00  0.00     0.029 A 
ATOM     50  N   UNL     1       7.804  10.766  -2.153  1.00  0.00    -0.354 N 
ATOM     51  N   UNL     1       7.100   9.185   0.966  1.00  0.00    -0.248 NA
ATOM     52  C   UNL     1       8.369   8.684   2.820  1.00  0.00     0.031 C 
ATOM     53  C   UNL     1       5.896  11.308  -1.180  1.00  0.00     0.029 A 
ATOM     54  C   UNL     1       7.250  11.159  -0.948  1.00  0.00     0.049 A 
ATOM     55  H   UNL     1       8.759  10.565  -2.282  1.00  0.00     0.167 HD
ATOM     56  C   UNL     1       8.012  10.199   1.105  1.00  0.00     0.074 A 
ATOM     57  C   UNL     1       8.788   9.837   2.276  1.00  0.00     0.031 C 
ATOM     58  C   UNL     1       8.105  11.239   0.225  1.00  0.00     0.037 A 
BRANCH  45  59
ATOM     59  C   UNL     1       7.051  10.793  -5.768  1.00  0.00     0.064 A 
ATOM     60  C   UNL     1       6.179  11.895  -5.897  1.00  0.00     0.173 A 
ATOM     61  C   UNL     1       7.672  10.394  -6.967  1.00  0.00     0.173 A 
ATOM     62  F   UNL     1       5.618  12.473  -4.828  1.00  0.00    -0.203 F 
ATOM     63  C   UNL     1       5.847  12.448  -7.137  1.00  0.00     0.198 A 
ATOM     64  C   UNL     1       7.291  10.899  -8.214  1.00  0.00     0.198 A 
ATOM     65  F   UNL     1       8.711   9.550  -6.965  1.00  0.00    -0.203 F 
ATOM     66  F   UNL     1       5.006  13.490  -7.195  1.00  0.00    -0.200 F 
ATOM     67  C   UNL     1       6.365  11.918  -8.300  1.00  0.00     0.200 A 
ATOM     68  F   UNL     1       7.832  10.391  -9.331  1.00  0.00    -0.200 F 
ATOM     69  F   UNL     1       6.001  12.407  -9.492  1.00  0.00    -0.200 F 
ENDBRANCH  45  59
BRANCH  46  70
ATOM     70  C   UNL     1       7.229   5.697   2.498  1.00  0.00     0.064 A 
ATOM     71  C   UNL     1       6.349   4.731   3.024  1.00  0.00     0.173 A 
ATOM     72  C   UNL     1       8.501   5.275   2.098  1.00  0.00     0.173 A 
ATOM     73  F   UNL     1       5.126   5.094   3.445  1.00  0.00    -0.203 F 
ATOM     74  C   UNL     1       6.654   3.376   2.958  1.00  0.00     0.198 A 
ATOM     75  C   UNL     1       8.817   3.919   2.075  1.00  0.00     0.198 A 
ATOM     76  F   UNL     1       9.383   6.151   1.596  1.00  0.00    -0.203 F 
ATOM     77  F   UNL     1       5.727   2.466   3.287  1.00  0.00    -0.200 F 
ATOM     78  C   UNL     1       7.874   2.970   2.445  1.00  0.00     0.200 A 
ATOM     79  F   UNL     1      10.003   3.525   1.590  1.00  0.00    -0.200 F 
ATOM     80  F   UNL     1       8.117   1.666   2.255  1.00  0.00    -0.200 F 
ENDBRANCH  46  70
BRANCH  58  81
ATOM     81  C   UNL     1       9.054  12.396   0.403  1.00  0.00     0.064 A 
ATOM     82  C   UNL     1       9.318  12.969   1.659  1.00  0.00     0.173 A 
ATOM     83  C   UNL     1       9.660  13.039  -0.699  1.00  0.00     0.173 A 
ATOM     84  F   UNL     1       8.703  12.522   2.764  1.00  0.00    -0.203 F 
ATOM     85  C   UNL     1      10.207  14.035   1.814  1.00  0.00     0.198 A 
ATOM     86  C   UNL     1      10.502  14.140  -0.548  1.00  0.00     0.198 A 
ATOM     87  F   UNL     1       9.475  12.609  -1.954  1.00  0.00    -0.203 F 
ATOM     88  F   UNL     1      10.487  14.493   3.042  1.00  0.00    -0.200 F 
ATOM     89  C   UNL     1      10.796  14.622   0.710  1.00  0.00     0.200 A 
ATOM     90  F   UNL     1      11.033  14.723  -1.632  1.00  0.00    -0.200 F 
ATOM     91  F   UNL     1      11.640  15.652   0.858  1.00  0.00    -0.200 F 
ENDBRANCH  58  81
ENDBRANCH  32  33
ENDBRANCH  24  27
ENDBRANCH  22  23
ENDBRANCH   1  22
TORSDOF 12
