REMARK SMILES CCCC[C@@H](C(=O)NCCCNC(=O)c1ccc(-c2c3nc(c(-c4c(F)c(F)c(F)c(F)c4F)c4ccc([nH]4)c(-c4c(F)c(F)c(F)c(F)c4F)c4nc(c(-c5c(F)c(F)c(F)c(F)c5F)c5ccc2[nH]5)C=C4)C=C3)cc1)[C@H](O)c1ccc(Br)cc1F
REMARK SMILES IDX 9 1 8 2 6 3 7 4 5 6 4 7 3 8 2 9 1 10 78 11 80 12 81 13 86 14
REMARK SMILES IDX 82 15 85 16 87 17 83 18 84 19 79 20 10 22 11 23 12 24 13 25
REMARK SMILES IDX 14 27 15 28 16 29 77 30 17 31 76 32 18 33 19 34 20 35 70 36
REMARK SMILES IDX 21 37 75 38 69 39 71 40 22 41 74 42 68 43 67 44 23 46 55 47
REMARK SMILES IDX 35 48 54 49 36 50 39 51 53 52 72 53 37 54 38 55 52 57 73 58
REMARK SMILES IDX 40 59 24 60 25 61 33 62 26 63 27 64 31 65 34 66 28 67 29 68
REMARK SMILES IDX 32 69 30 70 56 71 57 72 65 73 58 74 59 75 63 76 66 77 60 78
REMARK SMILES IDX 61 79 64 80 62 81 41 82 42 83 50 84 43 85 44 86 48 87 51 88
REMARK SMILES IDX 45 89 46 90 49 91 47 92
REMARK H PARENT 8 5 79 21 12 26 71 45 39 56
REMARK Flexibility Score: inf
ROOT
ATOM      1  C   UNL     1       0.666   0.686  -5.822  1.00  0.00     0.117 C 
ENDROOT
BRANCH   1   2
ATOM      2  N   UNL     1      -0.392   1.675  -5.770  1.00  0.00    -0.356 N 
ATOM      3  C   UNL     1      -1.222   2.057  -4.760  1.00  0.00     0.226 C 
ATOM      4  O   UNL     1      -2.088   2.879  -5.071  1.00  0.00    -0.275 OA
ATOM      5  H   UNL     1      -0.537   2.157  -6.616  1.00  0.00     0.163 HD
BRANCH   3   6
ATOM      6  C   UNL     1      -1.057   1.546  -3.320  1.00  0.00     0.112 C 
BRANCH   6   7
ATOM      7  C   UNL     1      -1.669   0.163  -3.014  1.00  0.00     0.016 C 
BRANCH   7   8
ATOM      8  C   UNL     1      -0.952  -1.136  -3.370  1.00  0.00     0.001 C 
BRANCH   8   9
ATOM      9  C   UNL     1       0.429  -1.349  -2.754  1.00  0.00    -0.003 C 
ATOM     10  C   UNL     1       0.364  -1.737  -1.287  1.00  0.00     0.004 C 
ENDBRANCH   8   9
ENDBRANCH   7   8
ENDBRANCH   6   7
BRANCH   6  11
ATOM     11  C   UNL     1      -1.653   2.636  -2.346  1.00  0.00     0.160 C 
BRANCH  11  12
ATOM     12  C   UNL     1      -3.167   2.852  -2.281  1.00  0.00     0.017 A 
ATOM     13  C   UNL     1      -3.709   4.085  -2.692  1.00  0.00     0.010 A 
ATOM     14  C   UNL     1      -4.077   1.897  -1.803  1.00  0.00     0.130 A 
ATOM     15  C   UNL     1      -5.092   4.315  -2.678  1.00  0.00     0.016 A 
ATOM     16  C   UNL     1      -5.456   2.096  -1.824  1.00  0.00     0.055 A 
ATOM     17  F   UNL     1      -3.646   0.760  -1.247  1.00  0.00    -0.207 F 
ATOM     18  C   UNL     1      -5.960   3.309  -2.267  1.00  0.00     0.020 A 
ATOM     19  Br  UNL     1      -7.827   3.595  -2.283  1.00  0.00    -0.051 Br
ENDBRANCH  11  12
BRANCH  11  20
ATOM     20  O   UNL     1      -1.132   2.393  -1.029  1.00  0.00    -0.387 OA
ATOM     21  H   UNL     1      -1.464   1.543  -0.702  1.00  0.00     0.211 HD
ENDBRANCH  11  20
ENDBRANCH   6  11
ENDBRANCH   3   6
ENDBRANCH   1   2
BRANCH   1  22
ATOM     22  C   UNL     1       0.182  -0.575  -6.531  1.00  0.00     0.042 C 
BRANCH  22  23
ATOM     23  C   UNL     1       0.323  -0.543  -8.040  1.00  0.00     0.118 C 
BRANCH  23  24
ATOM     24  N   UNL     1       1.681  -0.821  -8.476  1.00  0.00    -0.352 N 
ATOM     25  C   UNL     1       2.189  -1.881  -9.190  1.00  0.00     0.251 C 
ATOM     26  H   UNL     1       2.344  -0.141  -8.219  1.00  0.00     0.163 HD
ATOM     27  O   UNL     1       3.406  -2.012  -9.278  1.00  0.00    -0.269 OA
BRANCH  25  28
ATOM     28  C   UNL     1       1.298  -2.877  -9.836  1.00  0.00     0.039 A 
ATOM     29  C   UNL     1       1.714  -4.212  -9.895  1.00  0.00     0.014 A 
ATOM     30  C   UNL     1       0.085  -2.512 -10.424  1.00  0.00     0.014 A 
ATOM     31  C   UNL     1       0.896  -5.177 -10.493  1.00  0.00     0.010 A 
ATOM     32  C   UNL     1      -0.777  -3.488 -10.918  1.00  0.00     0.010 A 
ATOM     33  C   UNL     1      -0.372  -4.828 -10.982  1.00  0.00    -0.014 A 
BRANCH  33  34
ATOM     34  C   UNL     1      -1.270  -5.834 -11.610  1.00  0.00     0.031 A 
ATOM     35  C   UNL     1      -1.682  -5.679 -13.050  1.00  0.00     0.074 A 
ATOM     36  C   UNL     1      -1.756  -6.854 -10.877  1.00  0.00     0.049 A 
ATOM     37  N   UNL     1      -2.510  -6.404 -13.761  1.00  0.00    -0.248 NA
ATOM     38  C   UNL     1      -1.113  -4.535 -13.780  1.00  0.00     0.031 C 
ATOM     39  C   UNL     1      -1.466  -7.094  -9.463  1.00  0.00     0.029 A 
ATOM     40  N   UNL     1      -2.603  -7.878 -11.220  1.00  0.00    -0.354 N 
ATOM     41  C   UNL     1      -2.571  -5.793 -15.008  1.00  0.00     0.074 A 
ATOM     42  C   UNL     1      -1.755  -4.601 -14.935  1.00  0.00     0.031 C 
ATOM     43  C   UNL     1      -2.091  -8.215  -9.070  1.00  0.00     0.029 A 
ATOM     44  C   UNL     1      -2.861  -8.749 -10.190  1.00  0.00     0.049 A 
ATOM     45  H   UNL     1      -2.989  -7.979 -12.120  1.00  0.00     0.167 HD
ATOM     46  C   UNL     1      -3.220  -6.204 -16.124  1.00  0.00     0.037 A 
ATOM     47  C   UNL     1      -3.632  -9.852 -10.154  1.00  0.00     0.037 A 
ATOM     48  C   UNL     1      -4.010  -7.404 -16.201  1.00  0.00     0.049 A 
ATOM     49  C   UNL     1      -4.364 -10.276 -11.399  1.00  0.00     0.074 A 
ATOM     50  C   UNL     1      -4.671  -7.936 -17.293  1.00  0.00     0.029 A 
ATOM     51  N   UNL     1      -4.246  -8.260 -15.134  1.00  0.00    -0.354 N 
ATOM     52  N   UNL     1      -4.367  -9.724 -12.588  1.00  0.00    -0.248 NA
ATOM     53  C   UNL     1      -5.199 -11.481 -11.295  1.00  0.00     0.031 C 
ATOM     54  C   UNL     1      -5.346  -9.089 -16.877  1.00  0.00     0.029 A 
ATOM     55  C   UNL     1      -5.061  -9.306 -15.538  1.00  0.00     0.049 A 
ATOM     56  H   UNL     1      -3.888  -8.142 -14.225  1.00  0.00     0.167 HD
ATOM     57  C   UNL     1      -5.171 -10.531 -13.382  1.00  0.00     0.074 A 
ATOM     58  C   UNL     1      -5.630 -11.617 -12.541  1.00  0.00     0.031 C 
ATOM     59  C   UNL     1      -5.498 -10.386 -14.690  1.00  0.00     0.037 A 
BRANCH  46  60
ATOM     60  C   UNL     1      -3.095  -5.344 -17.351  1.00  0.00     0.064 A 
ATOM     61  C   UNL     1      -1.874  -5.204 -18.031  1.00  0.00     0.173 A 
ATOM     62  C   UNL     1      -4.206  -4.654 -17.857  1.00  0.00     0.173 A 
ATOM     63  F   UNL     1      -0.776  -5.832 -17.584  1.00  0.00    -0.203 F 
ATOM     64  C   UNL     1      -1.761  -4.372 -19.142  1.00  0.00     0.198 A 
ATOM     65  C   UNL     1      -4.098  -3.851 -18.991  1.00  0.00     0.198 A 
ATOM     66  F   UNL     1      -5.399  -4.756 -17.253  1.00  0.00    -0.203 F 
ATOM     67  F   UNL     1      -0.569  -4.201 -19.730  1.00  0.00    -0.200 F 
ATOM     68  C   UNL     1      -2.873  -3.700 -19.624  1.00  0.00     0.200 A 
ATOM     69  F   UNL     1      -5.178  -3.213 -19.464  1.00  0.00    -0.200 F 
ATOM     70  F   UNL     1      -2.764  -2.899 -20.692  1.00  0.00    -0.200 F 
ENDBRANCH  46  60
BRANCH  47  71
ATOM     71  C   UNL     1      -3.718 -10.659  -8.908  1.00  0.00     0.064 A 
ATOM     72  C   UNL     1      -3.144 -11.937  -8.844  1.00  0.00     0.173 A 
ATOM     73  C   UNL     1      -4.369 -10.178  -7.763  1.00  0.00     0.173 A 
ATOM     74  F   UNL     1      -2.528 -12.448  -9.920  1.00  0.00    -0.203 F 
ATOM     75  C   UNL     1      -3.232 -12.710  -7.688  1.00  0.00     0.198 A 
ATOM     76  C   UNL     1      -4.432 -10.941  -6.598  1.00  0.00     0.198 A 
ATOM     77  F   UNL     1      -4.931  -8.961  -7.770  1.00  0.00    -0.203 F 
ATOM     78  F   UNL     1      -2.712 -13.944  -7.669  1.00  0.00    -0.200 F 
ATOM     79  C   UNL     1      -3.871 -12.209  -6.564  1.00  0.00     0.200 A 
ATOM     80  F   UNL     1      -5.037 -10.448  -5.509  1.00  0.00    -0.200 F 
ATOM     81  F   UNL     1      -3.951 -12.950  -5.451  1.00  0.00    -0.200 F 
ENDBRANCH  47  71
BRANCH  59  82
ATOM     82  C   UNL     1      -6.359 -11.451 -15.305  1.00  0.00     0.064 A 
ATOM     83  C   UNL     1      -7.719 -11.580 -14.984  1.00  0.00     0.173 A 
ATOM     84  C   UNL     1      -5.824 -12.330 -16.259  1.00  0.00     0.173 A 
ATOM     85  F   UNL     1      -8.275 -10.774 -14.067  1.00  0.00    -0.203 F 
ATOM     86  C   UNL     1      -8.503 -12.567 -15.575  1.00  0.00     0.198 A 
ATOM     87  C   UNL     1      -6.618 -13.295 -16.872  1.00  0.00     0.198 A 
ATOM     88  F   UNL     1      -4.531 -12.245 -16.607  1.00  0.00    -0.203 F 
ATOM     89  F   UNL     1      -9.786 -12.705 -15.216  1.00  0.00    -0.200 F 
ATOM     90  C   UNL     1      -7.954 -13.418 -16.523  1.00  0.00     0.200 A 
ATOM     91  F   UNL     1      -6.090 -14.106 -17.799  1.00  0.00    -0.200 F 
ATOM     92  F   UNL     1      -8.713 -14.362 -17.097  1.00  0.00    -0.200 F 
ENDBRANCH  59  82
ENDBRANCH  33  34
ENDBRANCH  25  28
ENDBRANCH  23  24
ENDBRANCH  22  23
ENDBRANCH   1  22
TORSDOF 16
