REMARK SMILES O=C(COc1ccc2c(=O)c(-c3ccc4c(c3)OCCO4)coc2c1)NCCCNC(=O)c1ccc(-c2c3nc(c(-c4c(F)c(F)c(F)c(F)c4F)c4ccc([nH]4)c(-c4c(F)c(F)c(F)c(F)c4F)c4nc(c(-c5c(F)c(F)c(F)c(F)c5F)c5ccc2[nH]5)C=C4)C=C3)cc1
REMARK SMILES IDX 27 1 26 2 1 3 2 4 3 6 4 7 5 8 6 9 25 10 7 11 24 12 8 13
REMARK SMILES IDX 23 14 9 15 22 16 10 17 11 18 12 19 13 20 17 21 14 22 16 23
REMARK SMILES IDX 15 24 18 25 21 26 19 27 20 28 28 29 29 30 30 31 31 32 32 34
REMARK SMILES IDX 33 35 34 36 95 37 35 38 94 39 36 40 37 41 38 42 88 43 39 44
REMARK SMILES IDX 93 45 87 46 89 47 40 48 92 49 86 50 85 51 41 53 73 54 53 55
REMARK SMILES IDX 72 56 54 57 57 58 71 59 90 60 55 61 56 62 70 64 91 65 58 66
REMARK SMILES IDX 42 67 43 68 51 69 44 70 45 71 49 72 52 73 46 74 47 75 50 76
REMARK SMILES IDX 48 77 74 78 75 79 83 80 76 81 77 82 81 83 84 84 78 85 79 86
REMARK SMILES IDX 82 87 80 88 59 89 60 90 68 91 61 92 62 93 66 94 69 95 63 96
REMARK SMILES IDX 64 97 67 98 65 99
REMARK H PARENT 26 5 30 33 89 52 57 63
REMARK Flexibility Score: inf
ROOT
ATOM      1  C   UNL     1       2.194   0.882  -2.289  1.00  0.00     0.117 C 
ENDROOT
BRANCH   1   2
ATOM      2  N   UNL     1       2.858   0.434  -1.083  1.00  0.00    -0.353 N 
ATOM      3  O   UNL     1       1.103   0.854   0.341  1.00  0.00    -0.271 OA
ATOM      4  C   UNL     1       2.199   0.343   0.127  1.00  0.00     0.257 C 
ATOM      5  H   UNL     1       3.810   0.185  -1.127  1.00  0.00     0.163 HD
BRANCH   4   6
ATOM      6  C   UNL     1       2.940  -0.488   1.181  1.00  0.00     0.329 C 
BRANCH   6   7
ATOM      7  O   UNL     1       3.823  -1.495   0.685  1.00  0.00    -0.484 OA
BRANCH   7   8
ATOM      8  C   UNL     1       3.216  -2.663   0.302  1.00  0.00     0.123 A 
ATOM      9  C   UNL     1       2.163  -2.712  -0.616  1.00  0.00     0.047 A 
ATOM     10  C   UNL     1       3.778  -3.854   0.774  1.00  0.00     0.094 A 
ATOM     11  C   UNL     1       1.675  -3.935  -1.066  1.00  0.00     0.020 A 
ATOM     12  C   UNL     1       3.276  -5.084   0.337  1.00  0.00     0.141 A 
ATOM     13  C   UNL     1       2.239  -5.117  -0.590  1.00  0.00     0.066 A 
ATOM     14  O   UNL     1       3.848  -6.227   0.839  1.00  0.00    -0.463 OA
ATOM     15  C   UNL     1       1.753  -6.408  -1.090  1.00  0.00     0.200 A 
ATOM     16  C   UNL     1       3.384  -7.436   0.365  1.00  0.00     0.208 A 
ATOM     17  O   UNL     1       0.852  -6.457  -1.920  1.00  0.00    -0.288 OA
ATOM     18  C   UNL     1       2.412  -7.620  -0.542  1.00  0.00     0.065 A 
BRANCH  18  19
ATOM     19  C   UNL     1       2.022  -8.957  -1.009  1.00  0.00    -0.007 A 
ATOM     20  C   UNL     1       1.450  -9.892  -0.134  1.00  0.00     0.013 A 
ATOM     21  C   UNL     1       2.157  -9.283  -2.367  1.00  0.00     0.059 A 
ATOM     22  C   UNL     1       1.014 -11.131  -0.613  1.00  0.00     0.051 A 
ATOM     23  C   UNL     1       1.711 -10.513  -2.843  1.00  0.00     0.161 A 
ATOM     24  C   UNL     1       1.152 -11.444  -1.964  1.00  0.00     0.161 A 
ATOM     25  O   UNL     1       1.847 -10.737  -4.189  1.00  0.00    -0.486 OA
ATOM     26  O   UNL     1       0.699 -12.676  -2.361  1.00  0.00    -0.486 OA
ATOM     27  C   UNL     1       1.015 -11.820  -4.618  1.00  0.00     0.271 C 
ATOM     28  C   UNL     1       1.158 -13.005  -3.678  1.00  0.00     0.271 C 
ENDBRANCH  18  19
ENDBRANCH   7   8
ENDBRANCH   6   7
ENDBRANCH   4   6
ENDBRANCH   1   2
BRANCH   1  29
ATOM     29  C   UNL     1       2.522   2.318  -2.659  1.00  0.00     0.042 C 
BRANCH  29  30
ATOM     30  C   UNL     1       4.001   2.569  -2.924  1.00  0.00     0.118 C 
BRANCH  30  31
ATOM     31  N   UNL     1       4.518   1.831  -4.069  1.00  0.00    -0.352 N 
ATOM     32  C   UNL     1       5.157   2.275  -5.200  1.00  0.00     0.251 C 
ATOM     33  H   UNL     1       4.389   0.856  -4.024  1.00  0.00     0.163 HD
ATOM     34  O   UNL     1       5.400   1.486  -6.111  1.00  0.00    -0.269 OA
BRANCH  32  35
ATOM     35  C   UNL     1       5.530   3.699  -5.350  1.00  0.00     0.039 A 
ATOM     36  C   UNL     1       5.327   4.318  -6.587  1.00  0.00     0.014 A 
ATOM     37  C   UNL     1       6.088   4.423  -4.294  1.00  0.00     0.014 A 
ATOM     38  C   UNL     1       5.610   5.677  -6.741  1.00  0.00     0.010 A 
ATOM     39  C   UNL     1       6.290   5.795  -4.423  1.00  0.00     0.010 A 
ATOM     40  C   UNL     1       6.052   6.438  -5.647  1.00  0.00    -0.014 A 
BRANCH  40  41
ATOM     41  C   UNL     1       6.259   7.906  -5.763  1.00  0.00     0.031 A 
ATOM     42  C   UNL     1       7.625   8.500  -5.560  1.00  0.00     0.074 A 
ATOM     43  C   UNL     1       5.203   8.711  -5.988  1.00  0.00     0.049 A 
ATOM     44  N   UNL     1       7.989   9.758  -5.552  1.00  0.00    -0.248 NA
ATOM     45  C   UNL     1       8.726   7.557  -5.306  1.00  0.00     0.031 C 
ATOM     46  C   UNL     1       3.820   8.264  -6.159  1.00  0.00     0.029 A 
ATOM     47  N   UNL     1       5.125  10.078  -6.102  1.00  0.00    -0.354 N 
ATOM     48  C   UNL     1       9.352   9.757  -5.283  1.00  0.00     0.074 A 
ATOM     49  C   UNL     1       9.740   8.379  -5.078  1.00  0.00     0.031 C 
ATOM     50  C   UNL     1       3.035   9.331  -6.378  1.00  0.00     0.029 A 
ATOM     51  C   UNL     1       3.849  10.541  -6.319  1.00  0.00     0.049 A 
ATOM     52  H   UNL     1       5.909  10.670  -6.034  1.00  0.00     0.167 HD
ATOM     53  C   UNL     1      10.206  10.808  -5.235  1.00  0.00     0.037 A 
ATOM     54  C   UNL     1       3.386  11.800  -6.443  1.00  0.00     0.037 A 
ATOM     55  C   UNL     1       9.820  12.177  -5.457  1.00  0.00     0.049 A 
ATOM     56  C   UNL     1       4.353  12.950  -6.360  1.00  0.00     0.074 A 
ATOM     57  C   UNL     1      10.621  13.305  -5.487  1.00  0.00     0.029 A 
ATOM     58  N   UNL     1       8.519  12.607  -5.679  1.00  0.00    -0.354 N 
ATOM     59  N   UNL     1       5.651  12.931  -6.177  1.00  0.00    -0.248 NA
ATOM     60  C   UNL     1       3.788  14.300  -6.506  1.00  0.00     0.031 C 
ATOM     61  C   UNL     1       9.800  14.422  -5.670  1.00  0.00     0.029 A 
ATOM     62  C   UNL     1       8.493  13.986  -5.816  1.00  0.00     0.049 A 
ATOM     63  H   UNL     1       7.731  12.019  -5.731  1.00  0.00     0.167 HD
ATOM     64  C   UNL     1       6.061  14.257  -6.215  1.00  0.00     0.074 A 
ATOM     65  C   UNL     1       4.877  15.054  -6.457  1.00  0.00     0.031 C 
ATOM     66  C   UNL     1       7.308  14.768  -6.061  1.00  0.00     0.037 A 
BRANCH  53  67
ATOM     67  C   UNL     1      11.648  10.518  -4.928  1.00  0.00     0.064 A 
ATOM     68  C   UNL     1      12.473   9.837  -5.836  1.00  0.00     0.173 A 
ATOM     69  C   UNL     1      12.224  10.963  -3.728  1.00  0.00     0.173 A 
ATOM     70  F   UNL     1      11.972   9.382  -6.995  1.00  0.00    -0.203 F 
ATOM     71  C   UNL     1      13.810   9.584  -5.540  1.00  0.00     0.198 A 
ATOM     72  C   UNL     1      13.569  10.737  -3.450  1.00  0.00     0.198 A 
ATOM     73  F   UNL     1      11.483  11.625  -2.826  1.00  0.00    -0.203 F 
ATOM     74  F   UNL     1      14.564   8.885  -6.400  1.00  0.00    -0.200 F 
ATOM     75  C   UNL     1      14.359  10.041  -4.352  1.00  0.00     0.200 A 
ATOM     76  F   UNL     1      14.102  11.193  -2.308  1.00  0.00    -0.200 F 
ATOM     77  F   UNL     1      15.648   9.803  -4.072  1.00  0.00    -0.200 F 
ENDBRANCH  53  67
BRANCH  54  78
ATOM     78  C   UNL     1       1.936  12.040  -6.673  1.00  0.00     0.064 A 
ATOM     79  C   UNL     1       1.476  12.555  -7.892  1.00  0.00     0.173 A 
ATOM     80  C   UNL     1       0.985  11.773  -5.677  1.00  0.00     0.173 A 
ATOM     81  F   UNL     1       2.349  12.847  -8.868  1.00  0.00    -0.203 F 
ATOM     82  C   UNL     1       0.123  12.818  -8.099  1.00  0.00     0.198 A 
ATOM     83  C   UNL     1      -0.372  12.006  -5.897  1.00  0.00     0.198 A 
ATOM     84  F   UNL     1       1.371  11.276  -4.493  1.00  0.00    -0.203 F 
ATOM     85  F   UNL     1      -0.282  13.361  -9.255  1.00  0.00    -0.200 F 
ATOM     86  C   UNL     1      -0.800  12.537  -7.103  1.00  0.00     0.200 A 
ATOM     87  F   UNL     1      -1.262  11.719  -4.937  1.00  0.00    -0.200 F 
ATOM     88  F   UNL     1      -2.101  12.788  -7.303  1.00  0.00    -0.200 F 
ENDBRANCH  54  78
BRANCH  66  89
ATOM     89  C   UNL     1       7.463  16.258  -6.184  1.00  0.00     0.064 A 
ATOM     90  C   UNL     1       6.968  17.135  -5.208  1.00  0.00     0.173 A 
ATOM     91  C   UNL     1       8.149  16.812  -7.276  1.00  0.00     0.173 A 
ATOM     92  F   UNL     1       6.291  16.658  -4.152  1.00  0.00    -0.203 F 
ATOM     93  C   UNL     1       7.128  18.513  -5.335  1.00  0.00     0.198 A 
ATOM     94  C   UNL     1       8.337  18.187  -7.383  1.00  0.00     0.198 A 
ATOM     95  F   UNL     1       8.649  16.018  -8.235  1.00  0.00    -0.203 F 
ATOM     96  F   UNL     1       6.600  19.334  -4.418  1.00  0.00    -0.200 F 
ATOM     97  C   UNL     1       7.819  19.037  -6.417  1.00  0.00     0.200 A 
ATOM     98  F   UNL     1       9.020  18.690  -8.420  1.00  0.00    -0.200 F 
ATOM     99  F   UNL     1       7.980  20.362  -6.534  1.00  0.00    -0.200 F 
ENDBRANCH  66  89
ENDBRANCH  40  41
ENDBRANCH  32  35
ENDBRANCH  30  31
ENDBRANCH  29  30
ENDBRANCH   1  29
TORSDOF 13
