REMARK SMILES Cc1nsc(NC(=O)c2ccc(N)cc2)c1C(=O)NCCCNC(=O)c1ccc(-c2c3nc(c(-c4c(F)c(F)c(F)c(F)c4F)c4ccc([nH]4)c(-c4c(F)c(F)c(F)c(F)c4F)c4nc(c(-c5c(F)c(F)c(F)c(F)c5F)c5ccc2[nH]5)C=C4)C=C3)cc1
REMARK SMILES IDX 20 1 19 2 17 3 18 4 16 6 1 7 2 8 3 9 4 10 5 11 6 12 7 13
REMARK SMILES IDX 8 15 9 16 10 17 15 18 11 19 14 20 12 21 13 22 21 25 22 26
REMARK SMILES IDX 23 27 24 28 25 30 26 31 27 32 88 33 28 34 87 35 29 36 30 37
REMARK SMILES IDX 31 38 81 39 32 40 86 41 80 42 82 43 33 44 85 45 79 46 78 47
REMARK SMILES IDX 34 49 66 50 46 51 65 52 47 53 50 54 64 55 83 56 48 57 49 58
REMARK SMILES IDX 63 60 84 61 51 62 35 63 36 64 44 65 37 66 38 67 42 68 45 69
REMARK SMILES IDX 39 70 40 71 43 72 41 73 67 74 68 75 76 76 69 77 70 78 74 79
REMARK SMILES IDX 77 80 71 81 72 82 75 83 73 84 52 85 53 86 61 87 54 88 55 89
REMARK SMILES IDX 59 90 62 91 56 92 57 93 60 94 58 95
REMARK H PARENT 19 5 6 14 13 23 13 24 23 29 82 48 50 59
REMARK Flexibility Score: inf
ROOT
ATOM      1  C   UNL     1       1.249   2.171  -0.054  1.00  0.00     0.118 C 
ENDROOT
BRANCH   1   2
ATOM      2  N   UNL     1       0.478   2.451   1.131  1.00  0.00    -0.352 N 
ATOM      3  C   UNL     1      -0.010   1.701   2.163  1.00  0.00     0.256 C 
ATOM      4  O   UNL     1      -0.452   2.397   3.088  1.00  0.00    -0.269 OA
ATOM      5  H   UNL     1       0.249   3.405   1.216  1.00  0.00     0.163 HD
BRANCH   3   6
ATOM      6  C   UNL     1      -0.102   0.232   2.242  1.00  0.00     0.097 A 
ATOM      7  C   UNL     1       0.948  -0.989   0.069  1.00  0.00     0.069 C 
ATOM      8  C   UNL     1       0.217  -0.894   1.358  1.00  0.00     0.066 A 
ATOM      9  N   UNL     1      -0.238  -2.088   1.747  1.00  0.00    -0.195 NA
ATOM     10  S   UNL     1      -1.014  -1.944   3.170  1.00  0.00    -0.017 S 
ATOM     11  C   UNL     1      -0.592  -0.326   3.438  1.00  0.00     0.129 A 
BRANCH  11  12
ATOM     12  N   UNL     1      -0.856   0.314   4.643  1.00  0.00    -0.312 N 
ATOM     13  C   UNL     1      -1.104  -0.183   5.907  1.00  0.00     0.256 C 
ATOM     14  H   UNL     1      -0.869   1.296   4.585  1.00  0.00     0.171 HD
ATOM     15  O   UNL     1      -1.503   0.562   6.801  1.00  0.00    -0.269 OA
BRANCH  13  16
ATOM     16  C   UNL     1      -0.858  -1.598   6.246  1.00  0.00     0.040 A 
ATOM     17  C   UNL     1       0.394  -2.184   6.034  1.00  0.00     0.016 A 
ATOM     18  C   UNL     1      -1.926  -2.363   6.716  1.00  0.00     0.016 A 
ATOM     19  C   UNL     1       0.534  -3.568   6.169  1.00  0.00     0.026 A 
ATOM     20  C   UNL     1      -1.768  -3.743   6.865  1.00  0.00     0.026 A 
ATOM     21  C   UNL     1      -0.550  -4.360   6.561  1.00  0.00     0.031 A 
BRANCH  21  22
ATOM     22  N   UNL     1      -0.434  -5.736   6.604  1.00  0.00    -0.399 N 
ATOM     23  H   UNL     1       0.426  -6.164   6.389  1.00  0.00     0.156 HD
ATOM     24  H   UNL     1      -1.211  -6.288   6.849  1.00  0.00     0.156 HD
ENDBRANCH  21  22
ENDBRANCH  13  16
ENDBRANCH  11  12
ENDBRANCH   3   6
ENDBRANCH   1   2
BRANCH   1  25
ATOM     25  C   UNL     1       0.382   1.821  -1.264  1.00  0.00     0.042 C 
BRANCH  25  26
ATOM     26  C   UNL     1       0.042   3.030  -2.108  1.00  0.00     0.118 C 
BRANCH  26  27
ATOM     27  N   UNL     1       1.222   3.552  -2.808  1.00  0.00    -0.352 N 
ATOM     28  C   UNL     1       1.331   4.676  -3.608  1.00  0.00     0.251 C 
ATOM     29  H   UNL     1       2.049   3.031  -2.692  1.00  0.00     0.163 HD
ATOM     30  O   UNL     1       2.251   4.804  -4.393  1.00  0.00    -0.269 OA
BRANCH  28  31
ATOM     31  C   UNL     1       0.294   5.713  -3.483  1.00  0.00     0.039 A 
ATOM     32  C   UNL     1      -0.215   6.388  -4.595  1.00  0.00     0.014 A 
ATOM     33  C   UNL     1      -0.212   5.945  -2.211  1.00  0.00     0.014 A 
ATOM     34  C   UNL     1      -1.299   7.240  -4.409  1.00  0.00     0.010 A 
ATOM     35  C   UNL     1      -1.415   6.570  -2.077  1.00  0.00     0.010 A 
ATOM     36  C   UNL     1      -1.906   7.303  -3.144  1.00  0.00    -0.014 A 
BRANCH  36  37
ATOM     37  C   UNL     1      -3.133   8.048  -2.913  1.00  0.00     0.031 A 
ATOM     38  C   UNL     1      -4.245   7.638  -3.805  1.00  0.00     0.074 A 
ATOM     39  C   UNL     1      -3.295   8.853  -1.839  1.00  0.00     0.049 A 
ATOM     40  N   UNL     1      -4.753   8.312  -4.780  1.00  0.00    -0.248 NA
ATOM     41  C   UNL     1      -4.727   6.248  -3.730  1.00  0.00     0.031 C 
ATOM     42  C   UNL     1      -2.371   9.067  -0.716  1.00  0.00     0.029 A 
ATOM     43  N   UNL     1      -4.379   9.587  -1.467  1.00  0.00    -0.354 N 
ATOM     44  C   UNL     1      -5.779   7.523  -5.292  1.00  0.00     0.074 A 
ATOM     45  C   UNL     1      -5.566   6.202  -4.768  1.00  0.00     0.031 C 
ATOM     46  C   UNL     1      -3.016   9.675   0.303  1.00  0.00     0.029 A 
ATOM     47  C   UNL     1      -4.334  10.061  -0.158  1.00  0.00     0.049 A 
ATOM     48  H   UNL     1      -5.133   9.768  -2.074  1.00  0.00     0.167 HD
ATOM     49  C   UNL     1      -6.873   8.108  -5.854  1.00  0.00     0.037 A 
ATOM     50  C   UNL     1      -5.321  10.717   0.499  1.00  0.00     0.037 A 
ATOM     51  C   UNL     1      -6.607   9.502  -6.123  1.00  0.00     0.049 A 
ATOM     52  C   UNL     1      -6.241  11.250  -0.531  1.00  0.00     0.074 A 
ATOM     53  C   UNL     1      -5.750  10.203  -6.945  1.00  0.00     0.029 A 
ATOM     54  N   UNL     1      -7.024  10.379  -5.154  1.00  0.00    -0.354 N 
ATOM     55  N   UNL     1      -5.913  12.184  -1.381  1.00  0.00    -0.248 NA
ATOM     56  C   UNL     1      -7.387  10.438  -0.907  1.00  0.00     0.031 C 
ATOM     57  C   UNL     1      -5.393  11.373  -6.208  1.00  0.00     0.029 A 
ATOM     58  C   UNL     1      -6.101  11.376  -5.004  1.00  0.00     0.049 A 
ATOM     59  H   UNL     1      -7.862  10.302  -4.643  1.00  0.00     0.167 HD
ATOM     60  C   UNL     1      -6.507  11.796  -2.572  1.00  0.00     0.074 A 
ATOM     61  C   UNL     1      -7.505  10.802  -2.187  1.00  0.00     0.031 C 
ATOM     62  C   UNL     1      -5.916  12.102  -3.765  1.00  0.00     0.037 A 
BRANCH  49  63
ATOM     63  C   UNL     1      -8.295   7.593  -5.726  1.00  0.00     0.064 A 
ATOM     64  C   UNL     1      -9.328   8.304  -6.375  1.00  0.00     0.173 A 
ATOM     65  C   UNL     1      -8.727   6.654  -4.764  1.00  0.00     0.173 A 
ATOM     66  F   UNL     1      -9.042   9.229  -7.305  1.00  0.00    -0.203 F 
ATOM     67  C   UNL     1     -10.671   8.159  -6.015  1.00  0.00     0.198 A 
ATOM     68  C   UNL     1     -10.073   6.476  -4.444  1.00  0.00     0.198 A 
ATOM     69  F   UNL     1      -7.879   5.948  -4.012  1.00  0.00    -0.203 F 
ATOM     70  F   UNL     1     -11.597   8.957  -6.564  1.00  0.00    -0.200 F 
ATOM     71  C   UNL     1     -11.041   7.251  -5.042  1.00  0.00     0.200 A 
ATOM     72  F   UNL     1     -10.409   5.602  -3.484  1.00  0.00    -0.200 F 
ATOM     73  F   UNL     1     -12.317   7.157  -4.646  1.00  0.00    -0.200 F 
ENDBRANCH  49  63
BRANCH  50  74
ATOM     74  C   UNL     1      -5.676  10.673   1.937  1.00  0.00     0.064 A 
ATOM     75  C   UNL     1      -6.486  11.661   2.520  1.00  0.00     0.173 A 
ATOM     76  C   UNL     1      -5.471   9.504   2.695  1.00  0.00     0.173 A 
ATOM     77  F   UNL     1      -6.771  12.784   1.844  1.00  0.00    -0.203 F 
ATOM     78  C   UNL     1      -7.076  11.480   3.777  1.00  0.00     0.198 A 
ATOM     79  C   UNL     1      -6.058   9.325   3.949  1.00  0.00     0.198 A 
ATOM     80  F   UNL     1      -4.778   8.474   2.189  1.00  0.00    -0.203 F 
ATOM     81  F   UNL     1      -7.894  12.419   4.274  1.00  0.00    -0.200 F 
ATOM     82  C   UNL     1      -6.871  10.307   4.484  1.00  0.00     0.200 A 
ATOM     83  F   UNL     1      -5.888   8.168   4.604  1.00  0.00    -0.200 F 
ATOM     84  F   UNL     1      -7.489  10.105   5.657  1.00  0.00    -0.200 F 
ENDBRANCH  50  74
BRANCH  62  85
ATOM     85  C   UNL     1      -4.850  13.165  -3.755  1.00  0.00     0.064 A 
ATOM     86  C   UNL     1      -3.610  13.053  -3.102  1.00  0.00     0.173 A 
ATOM     87  C   UNL     1      -5.058  14.302  -4.547  1.00  0.00     0.173 A 
ATOM     88  F   UNL     1      -3.296  11.960  -2.397  1.00  0.00    -0.203 F 
ATOM     89  C   UNL     1      -2.643  14.053  -3.209  1.00  0.00     0.198 A 
ATOM     90  C   UNL     1      -4.077  15.279  -4.684  1.00  0.00     0.198 A 
ATOM     91  F   UNL     1      -6.204  14.441  -5.232  1.00  0.00    -0.203 F 
ATOM     92  F   UNL     1      -1.473  13.929  -2.564  1.00  0.00    -0.200 F 
ATOM     93  C   UNL     1      -2.875  15.161  -4.006  1.00  0.00     0.200 A 
ATOM     94  F   UNL     1      -4.289  16.324  -5.495  1.00  0.00    -0.200 F 
ATOM     95  F   UNL     1      -1.931  16.103  -4.143  1.00  0.00    -0.200 F 
ENDBRANCH  62  85
ENDBRANCH  36  37
ENDBRANCH  28  31
ENDBRANCH  26  27
ENDBRANCH  25  26
ENDBRANCH   1  25
TORSDOF 13
