REMARK SMILES C[N@H+]1CCO[C@H](c2noc(-c3ccccc3C(=O)NCCCNC(=O)c3ccc(-c4c5nc(c(-c6c(F)c(F)c(F)c(F)c6F)c6ccc([nH]6)c(-c6c(F)c(F)c(F)c(F)c6F)c6nc(c(-c7c(F)c(F)c(F)c(F)c7F)c7ccc4[nH]7)C=C6)C=C5)cc3)n2)C1
REMARK SMILES IDX 21 1 20 2 19 3 17 4 18 5 16 7 11 8 12 9 13 10 15 11 14 12
REMARK SMILES IDX 10 13 7 14 8 15 89 16 9 17 6 18 1 19 2 20 3 21 90 22 4 24
REMARK SMILES IDX 5 25 22 26 23 27 24 28 25 30 26 31 27 32 88 33 28 34 87 35
REMARK SMILES IDX 29 36 30 37 31 38 81 39 32 40 86 41 80 42 82 43 33 44 85 45
REMARK SMILES IDX 79 46 78 47 34 49 66 50 46 51 65 52 47 53 50 54 64 55 83 56
REMARK SMILES IDX 48 57 49 58 63 60 84 61 51 62 35 63 36 64 44 65 37 66 38 67
REMARK SMILES IDX 42 68 45 69 39 70 40 71 43 72 41 73 67 74 68 75 76 76 69 77
REMARK SMILES IDX 70 78 74 79 77 80 71 81 72 82 75 83 73 84 52 85 53 86 61 87
REMARK SMILES IDX 54 88 55 89 59 90 62 91 56 92 57 93 60 94 58 95
REMARK H PARENT 19 6 2 23 23 29 82 48 50 59
REMARK Flexibility Score: inf
ROOT
ATOM      1  C   UNL     1      -2.643  -3.223  -3.647  1.00  0.00     0.042 C 
ENDROOT
BRANCH   1   2
ATOM      2  C   UNL     1      -1.487  -4.033  -3.068  1.00  0.00     0.118 C 
BRANCH   2   3
ATOM      3  N   UNL     1      -1.855  -5.232  -2.340  1.00  0.00    -0.352 N 
ATOM      4  C   UNL     1      -1.287  -6.478  -2.263  1.00  0.00     0.252 C 
ATOM      5  O   UNL     1      -1.690  -7.224  -1.367  1.00  0.00    -0.269 OA
ATOM      6  H   UNL     1      -2.669  -5.132  -1.795  1.00  0.00     0.163 HD
BRANCH   4   7
ATOM      7  C   UNL     1      -0.342  -7.052  -3.261  1.00  0.00     0.052 A 
ATOM      8  C   UNL     1       0.884  -6.518  -3.694  1.00  0.00     0.053 A 
ATOM      9  C   UNL     1       1.652  -7.262  -4.623  1.00  0.00     0.015 A 
ATOM     10  C   UNL     1       1.244  -8.515  -5.082  1.00  0.00     0.001 A 
ATOM     11  C   UNL     1      -0.728  -8.332  -3.724  1.00  0.00     0.014 A 
ATOM     12  C   UNL     1       0.054  -9.057  -4.623  1.00  0.00     0.001 A 
BRANCH   8  13
ATOM     13  C   UNL     1       1.436  -5.258  -3.223  1.00  0.00     0.258 A 
ATOM     14  C   UNL     1       1.933  -3.425  -2.330  1.00  0.00     0.206 A 
ATOM     15  N   UNL     1       2.450  -3.310  -3.562  1.00  0.00    -0.059 NA
ATOM     16  N   UNL     1       1.324  -4.636  -2.074  1.00  0.00    -0.189 NA
ATOM     17  O   UNL     1       2.124  -4.527  -4.157  1.00  0.00    -0.334 OA
BRANCH  14  18
ATOM     18  C   UNL     1       1.890  -2.275  -1.370  1.00  0.00     0.245 C 
ATOM     19  C   UNL     1       3.160  -0.678   1.043  1.00  0.00     0.332 C 
ATOM     20  N   UNL     1       2.130  -1.711   1.119  1.00  0.00    -0.333 N 
ATOM     21  C   UNL     1       0.774  -1.140   1.004  1.00  0.00     0.290 C 
ATOM     22  C   UNL     1       2.288  -2.736   0.058  1.00  0.00     0.303 C 
ATOM     23  H   UNL     1       2.246  -2.149   2.033  1.00  0.00     0.348 HD
ATOM     24  C   UNL     1       0.459  -0.636  -0.408  1.00  0.00     0.222 C 
ATOM     25  O   UNL     1       0.573  -1.677  -1.379  1.00  0.00    -0.358 OA
ENDBRANCH  14  18
ENDBRANCH   8  13
ENDBRANCH   4   7
ENDBRANCH   2   3
ENDBRANCH   1   2
BRANCH   1  26
ATOM     26  C   UNL     1      -3.752  -2.834  -2.676  1.00  0.00     0.118 C 
BRANCH  26  27
ATOM     27  N   UNL     1      -3.354  -1.982  -1.569  1.00  0.00    -0.352 N 
ATOM     28  C   UNL     1      -3.154  -0.629  -1.468  1.00  0.00     0.251 C 
ATOM     29  H   UNL     1      -3.198  -2.470  -0.728  1.00  0.00     0.163 HD
ATOM     30  O   UNL     1      -2.911  -0.137  -0.368  1.00  0.00    -0.269 OA
BRANCH  28  31
ATOM     31  C   UNL     1      -3.207   0.273  -2.637  1.00  0.00     0.039 A 
ATOM     32  C   UNL     1      -2.187   1.227  -2.793  1.00  0.00     0.014 A 
ATOM     33  C   UNL     1      -4.321   0.311  -3.472  1.00  0.00     0.014 A 
ATOM     34  C   UNL     1      -2.273   2.211  -3.784  1.00  0.00     0.010 A 
ATOM     35  C   UNL     1      -4.393   1.269  -4.480  1.00  0.00     0.010 A 
ATOM     36  C   UNL     1      -3.387   2.241  -4.627  1.00  0.00    -0.014 A 
BRANCH  36  37
ATOM     37  C   UNL     1      -3.631   3.320  -5.613  1.00  0.00     0.031 A 
ATOM     38  C   UNL     1      -4.767   4.263  -5.353  1.00  0.00     0.074 A 
ATOM     39  C   UNL     1      -2.987   3.325  -6.791  1.00  0.00     0.049 A 
ATOM     40  N   UNL     1      -5.486   4.953  -6.196  1.00  0.00    -0.248 NA
ATOM     41  C   UNL     1      -5.175   4.404  -3.946  1.00  0.00     0.031 C 
ATOM     42  C   UNL     1      -1.849   2.477  -7.138  1.00  0.00     0.029 A 
ATOM     43  N   UNL     1      -3.259   4.019  -7.945  1.00  0.00    -0.354 N 
ATOM     44  C   UNL     1      -6.483   5.547  -5.433  1.00  0.00     0.074 A 
ATOM     45  C   UNL     1      -6.259   5.159  -4.057  1.00  0.00     0.031 C 
ATOM     46  C   UNL     1      -1.562   2.646  -8.439  1.00  0.00     0.029 A 
ATOM     47  C   UNL     1      -2.537   3.565  -9.022  1.00  0.00     0.049 A 
ATOM     48  H   UNL     1      -3.903   4.763  -7.995  1.00  0.00     0.167 HD
ATOM     49  C   UNL     1      -7.506   6.324  -5.862  1.00  0.00     0.037 A 
ATOM     50  C   UNL     1      -2.701   3.800 -10.338  1.00  0.00     0.037 A 
ATOM     51  C   UNL     1      -7.673   6.737  -7.230  1.00  0.00     0.049 A 
ATOM     52  C   UNL     1      -3.825   4.691 -10.791  1.00  0.00     0.074 A 
ATOM     53  C   UNL     1      -8.620   7.591  -7.768  1.00  0.00     0.029 A 
ATOM     54  N   UNL     1      -6.861   6.326  -8.276  1.00  0.00    -0.354 N 
ATOM     55  N   UNL     1      -4.775   5.247 -10.079  1.00  0.00    -0.248 NA
ATOM     56  C   UNL     1      -3.906   4.978 -12.230  1.00  0.00     0.031 C 
ATOM     57  C   UNL     1      -8.397   7.673  -9.147  1.00  0.00     0.029 A 
ATOM     58  C   UNL     1      -7.292   6.896  -9.461  1.00  0.00     0.049 A 
ATOM     59  H   UNL     1      -6.091   5.718  -8.189  1.00  0.00     0.167 HD
ATOM     60  C   UNL     1      -5.563   5.954 -10.978  1.00  0.00     0.074 A 
ATOM     61  C   UNL     1      -4.970   5.769 -12.287  1.00  0.00     0.031 C 
ATOM     62  C   UNL     1      -6.679   6.688 -10.746  1.00  0.00     0.037 A 
BRANCH  49  63
ATOM     63  C   UNL     1      -8.538   6.744  -4.859  1.00  0.00     0.064 A 
ATOM     64  C   UNL     1      -8.275   7.708  -3.877  1.00  0.00     0.173 A 
ATOM     65  C   UNL     1      -9.830   6.196  -4.911  1.00  0.00     0.173 A 
ATOM     66  F   UNL     1      -7.053   8.251  -3.775  1.00  0.00    -0.203 F 
ATOM     67  C   UNL     1      -9.261   8.095  -2.971  1.00  0.00     0.198 A 
ATOM     68  C   UNL     1     -10.820   6.603  -4.021  1.00  0.00     0.198 A 
ATOM     69  F   UNL     1     -10.135   5.269  -5.833  1.00  0.00    -0.203 F 
ATOM     70  F   UNL     1      -8.976   8.992  -2.017  1.00  0.00    -0.200 F 
ATOM     71  C   UNL     1     -10.534   7.549  -3.049  1.00  0.00     0.200 A 
ATOM     72  F   UNL     1     -12.052   6.081  -4.104  1.00  0.00    -0.200 F 
ATOM     73  F   UNL     1     -11.483   7.930  -2.183  1.00  0.00    -0.200 F 
ENDBRANCH  49  63
BRANCH  50  74
ATOM     74  C   UNL     1      -1.816   3.122 -11.320  1.00  0.00     0.064 A 
ATOM     75  C   UNL     1      -0.825   3.834 -12.008  1.00  0.00     0.173 A 
ATOM     76  C   UNL     1      -1.928   1.746 -11.572  1.00  0.00     0.173 A 
ATOM     77  F   UNL     1      -0.699   5.155 -11.819  1.00  0.00    -0.203 F 
ATOM     78  C   UNL     1       0.018   3.196 -12.915  1.00  0.00     0.198 A 
ATOM     79  C   UNL     1      -1.069   1.105 -12.461  1.00  0.00     0.198 A 
ATOM     80  F   UNL     1      -2.861   1.021 -10.938  1.00  0.00    -0.203 F 
ATOM     81  F   UNL     1       0.938   3.905 -13.583  1.00  0.00    -0.200 F 
ATOM     82  C   UNL     1      -0.099   1.831 -13.135  1.00  0.00     0.200 A 
ATOM     83  F   UNL     1      -1.177  -0.215 -12.662  1.00  0.00    -0.200 F 
ATOM     84  F   UNL     1       0.721   1.217 -13.999  1.00  0.00    -0.200 F 
ENDBRANCH  50  74
BRANCH  62  85
ATOM     85  C   UNL     1      -7.312   7.353 -11.928  1.00  0.00     0.064 A 
ATOM     86  C   UNL     1      -8.102   6.631 -12.833  1.00  0.00     0.173 A 
ATOM     87  C   UNL     1      -7.164   8.733 -12.130  1.00  0.00     0.173 A 
ATOM     88  F   UNL     1      -8.259   5.307 -12.686  1.00  0.00    -0.203 F 
ATOM     89  C   UNL     1      -8.711   7.268 -13.911  1.00  0.00     0.198 A 
ATOM     90  C   UNL     1      -7.790   9.368 -13.198  1.00  0.00     0.198 A 
ATOM     91  F   UNL     1      -6.420   9.463 -11.286  1.00  0.00    -0.203 F 
ATOM     92  F   UNL     1      -9.437   6.556 -14.784  1.00  0.00    -0.200 F 
ATOM     93  C   UNL     1      -8.559   8.635 -14.089  1.00  0.00     0.200 A 
ATOM     94  F   UNL     1      -7.648  10.691 -13.365  1.00  0.00    -0.200 F 
ATOM     95  F   UNL     1      -9.150   9.246 -15.125  1.00  0.00    -0.200 F 
ENDBRANCH  62  85
ENDBRANCH  36  37
ENDBRANCH  28  31
ENDBRANCH  26  27
ENDBRANCH   1  26
TORSDOF 12
