REMARK SMILES N#C[C@@H](c1ccccc1)[C@H](CC(=O)NCCCNC(=O)c1ccc(-c2c3nc(c(-c4c(F)c(F)c(F)c(F)c4F)c4ccc([nH]4)c(-c4c(F)c(F)c(F)c(F)c4F)c4nc(c(-c5c(F)c(F)c(F)c(F)c5F)c5ccc2[nH]5)C=C4)C=C3)cc1)c1ccccc1
REMARK SMILES IDX 15 1 14 2 12 3 13 4 11 6 10 7 3 8 2 9 1 10 4 11 5 12 9 13
REMARK SMILES IDX 6 14 8 15 7 16 84 17 85 18 89 19 86 20 88 21 87 22 16 23
REMARK SMILES IDX 17 24 18 25 19 26 20 28 21 29 22 30 83 31 23 32 82 33 24 34
REMARK SMILES IDX 25 35 26 36 76 37 27 38 81 39 75 40 77 41 28 42 80 43 74 44
REMARK SMILES IDX 73 45 29 47 61 48 41 49 60 50 42 51 45 52 59 53 78 54 43 55
REMARK SMILES IDX 44 56 58 58 79 59 46 60 30 61 31 62 39 63 32 64 33 65 37 66
REMARK SMILES IDX 40 67 34 68 35 69 38 70 36 71 62 72 63 73 71 74 64 75 65 76
REMARK SMILES IDX 69 77 72 78 66 79 67 80 70 81 68 82 47 83 48 84 56 85 49 86
REMARK SMILES IDX 50 87 54 88 57 89 51 90 52 91 55 92 53 93
REMARK H PARENT 14 5 18 27 77 46 45 57
REMARK Flexibility Score: inf
ROOT
ATOM      1  C   UNL     1       1.995   2.486   1.912  1.00  0.00     0.117 C 
ENDROOT
BRANCH   1   2
ATOM      2  N   UNL     1       1.946   2.666   0.470  1.00  0.00    -0.356 N 
ATOM      3  C   UNL     1       2.464   1.946  -0.562  1.00  0.00     0.220 C 
ATOM      4  O   UNL     1       1.876   2.074  -1.644  1.00  0.00    -0.275 OA
ATOM      5  H   UNL     1       1.441   3.462   0.185  1.00  0.00     0.163 HD
BRANCH   3   6
ATOM      6  C   UNL     1       3.712   1.050  -0.520  1.00  0.00     0.110 C 
BRANCH   6   7
ATOM      7  C   UNL     1       4.547   1.000   0.752  1.00  0.00     0.050 C 
BRANCH   7   8
ATOM      8  C   UNL     1       4.171  -0.052   1.905  1.00  0.00     0.130 C 
BRANCH   8   9
ATOM      9  C   UNL     1       4.800   0.552   3.130  1.00  0.00     0.071 C 
ATOM     10  N   UNL     1       5.226   1.111   4.059  1.00  0.00    -0.198 NA
ENDBRANCH   8   9
BRANCH   8  11
ATOM     11  C   UNL     1       2.703  -0.465   2.194  1.00  0.00    -0.030 A 
ATOM     12  C   UNL     1       2.235  -0.577   3.525  1.00  0.00     0.005 A 
ATOM     13  C   UNL     1       1.764  -0.754   1.189  1.00  0.00     0.005 A 
ATOM     14  C   UNL     1       0.884  -0.795   3.823  1.00  0.00     0.000 A 
ATOM     15  C   UNL     1       0.403  -0.938   1.483  1.00  0.00     0.000 A 
ATOM     16  C   UNL     1      -0.040  -0.935   2.799  1.00  0.00     0.000 A 
ENDBRANCH   8  11
ENDBRANCH   7   8
BRANCH   7  17
ATOM     17  C   UNL     1       6.064   1.004   0.467  1.00  0.00    -0.043 A 
ATOM     18  C   UNL     1       6.851  -0.154   0.501  1.00  0.00     0.004 A 
ATOM     19  C   UNL     1       6.712   2.251   0.356  1.00  0.00     0.004 A 
ATOM     20  C   UNL     1       8.241  -0.056   0.594  1.00  0.00     0.000 A 
ATOM     21  C   UNL     1       8.100   2.344   0.431  1.00  0.00     0.000 A 
ATOM     22  C   UNL     1       8.862   1.192   0.590  1.00  0.00     0.000 A 
ENDBRANCH   7  17
ENDBRANCH   6   7
ENDBRANCH   3   6
ENDBRANCH   1   2
BRANCH   1  23
ATOM     23  C   UNL     1       1.688   3.714   2.735  1.00  0.00     0.042 C 
BRANCH  23  24
ATOM     24  C   UNL     1       0.188   3.819   2.934  1.00  0.00     0.118 C 
BRANCH  24  25
ATOM     25  N   UNL     1      -0.293   3.018   4.067  1.00  0.00    -0.352 N 
ATOM     26  C   UNL     1      -0.447   3.321   5.404  1.00  0.00     0.251 C 
ATOM     27  H   UNL     1      -0.552   2.099   3.829  1.00  0.00     0.163 HD
ATOM     28  O   UNL     1      -0.722   2.438   6.210  1.00  0.00    -0.269 OA
BRANCH  26  29
ATOM     29  C   UNL     1      -0.220   4.704   5.875  1.00  0.00     0.039 A 
ATOM     30  C   UNL     1       0.445   4.947   7.078  1.00  0.00     0.014 A 
ATOM     31  C   UNL     1      -0.605   5.771   5.076  1.00  0.00     0.014 A 
ATOM     32  C   UNL     1       0.835   6.253   7.394  1.00  0.00     0.010 A 
ATOM     33  C   UNL     1      -0.028   7.010   5.274  1.00  0.00     0.010 A 
ATOM     34  C   UNL     1       0.671   7.282   6.454  1.00  0.00    -0.014 A 
BRANCH  34  35
ATOM     35  C   UNL     1       1.175   8.662   6.669  1.00  0.00     0.031 A 
ATOM     36  C   UNL     1       0.230   9.830   6.545  1.00  0.00     0.074 A 
ATOM     37  C   UNL     1       2.491   8.873   6.870  1.00  0.00     0.049 A 
ATOM     38  N   UNL     1       0.483  11.114   6.577  1.00  0.00    -0.248 NA
ATOM     39  C   UNL     1      -1.187   9.513   6.292  1.00  0.00     0.031 C 
ATOM     40  C   UNL     1       3.517   7.832   6.942  1.00  0.00     0.029 A 
ATOM     41  N   UNL     1       3.191  10.040   7.047  1.00  0.00    -0.354 N 
ATOM     42  C   UNL     1      -0.729  11.741   6.320  1.00  0.00     0.074 A 
ATOM     43  C   UNL     1      -1.690  10.706   6.026  1.00  0.00     0.031 C 
ATOM     44  C   UNL     1       4.702   8.400   7.214  1.00  0.00     0.029 A 
ATOM     45  C   UNL     1       4.532   9.847   7.272  1.00  0.00     0.049 A 
ATOM     46  H   UNL     1       2.772  10.930   7.015  1.00  0.00     0.167 HD
ATOM     47  C   UNL     1      -1.031  13.060   6.371  1.00  0.00     0.037 A 
ATOM     48  C   UNL     1       5.511  10.742   7.502  1.00  0.00     0.037 A 
ATOM     49  C   UNL     1      -0.071  14.081   6.690  1.00  0.00     0.049 A 
ATOM     50  C   UNL     1       5.166  12.206   7.519  1.00  0.00     0.074 A 
ATOM     51  C   UNL     1      -0.270  15.441   6.833  1.00  0.00     0.029 A 
ATOM     52  N   UNL     1       1.281  13.846   6.908  1.00  0.00    -0.354 N 
ATOM     53  N   UNL     1       4.001  12.786   7.361  1.00  0.00    -0.248 NA
ATOM     54  C   UNL     1       6.276  13.140   7.746  1.00  0.00     0.031 C 
ATOM     55  C   UNL     1       0.974  16.038   7.065  1.00  0.00     0.029 A 
ATOM     56  C   UNL     1       1.936  15.043   7.142  1.00  0.00     0.049 A 
ATOM     57  H   UNL     1       1.709  12.960   6.897  1.00  0.00     0.167 HD
ATOM     58  C   UNL     1       4.229  14.148   7.497  1.00  0.00     0.074 A 
ATOM     59  C   UNL     1       5.644  14.305   7.767  1.00  0.00     0.031 C 
ATOM     60  C   UNL     1       3.348  15.176   7.408  1.00  0.00     0.037 A 
BRANCH  47  61
ATOM     61  C   UNL     1      -2.452  13.454   6.066  1.00  0.00     0.064 A 
ATOM     62  C   UNL     1      -3.527  13.043   6.874  1.00  0.00     0.173 A 
ATOM     63  C   UNL     1      -2.750  14.226   4.934  1.00  0.00     0.173 A 
ATOM     64  F   UNL     1      -3.305  12.293   7.965  1.00  0.00    -0.203 F 
ATOM     65  C   UNL     1      -4.843  13.331   6.523  1.00  0.00     0.198 A 
ATOM     66  C   UNL     1      -4.065  14.552   4.612  1.00  0.00     0.198 A 
ATOM     67  F   UNL     1      -1.767  14.655   4.128  1.00  0.00    -0.203 F 
ATOM     68  F   UNL     1      -5.853  12.843   7.258  1.00  0.00    -0.200 F 
ATOM     69  C   UNL     1      -5.111  14.089   5.394  1.00  0.00     0.200 A 
ATOM     70  F   UNL     1      -4.322  15.301   3.530  1.00  0.00    -0.200 F 
ATOM     71  F   UNL     1      -6.378  14.359   5.052  1.00  0.00    -0.200 F 
ENDBRANCH  47  61
BRANCH  48  72
ATOM     72  C   UNL     1       6.891  10.270   7.790  1.00  0.00     0.064 A 
ATOM     73  C   UNL     1       7.440  10.415   9.072  1.00  0.00     0.173 A 
ATOM     74  C   UNL     1       7.679   9.645   6.812  1.00  0.00     0.173 A 
ATOM     75  F   UNL     1       6.734  11.023  10.037  1.00  0.00    -0.203 F 
ATOM     76  C   UNL     1       8.726   9.965   9.361  1.00  0.00     0.198 A 
ATOM     77  C   UNL     1       8.954   9.167   7.111  1.00  0.00     0.198 A 
ATOM     78  F   UNL     1       7.200   9.476   5.570  1.00  0.00    -0.203 F 
ATOM     79  F   UNL     1       9.239  10.151  10.585  1.00  0.00    -0.200 F 
ATOM     80  C   UNL     1       9.479   9.333   8.383  1.00  0.00     0.200 A 
ATOM     81  F   UNL     1       9.671   8.543   6.167  1.00  0.00    -0.200 F 
ATOM     82  F   UNL     1      10.711   8.889   8.665  1.00  0.00    -0.200 F 
ENDBRANCH  48  72
BRANCH  60  83
ATOM     83  C   UNL     1       3.881  16.562   7.634  1.00  0.00     0.064 A 
ATOM     84  C   UNL     1       4.731  17.186   6.710  1.00  0.00     0.173 A 
ATOM     85  C   UNL     1       3.489  17.295   8.766  1.00  0.00     0.173 A 
ATOM     86  F   UNL     1       5.146  16.524   5.619  1.00  0.00    -0.203 F 
ATOM     87  C   UNL     1       5.190  18.483   6.923  1.00  0.00     0.198 A 
ATOM     88  C   UNL     1       3.919  18.604   8.956  1.00  0.00     0.198 A 
ATOM     89  F   UNL     1       2.670  16.747   9.677  1.00  0.00    -0.203 F 
ATOM     90  F   UNL     1       6.043  19.041   6.053  1.00  0.00    -0.200 F 
ATOM     91  C   UNL     1       4.775  19.194   8.040  1.00  0.00     0.200 A 
ATOM     92  F   UNL     1       3.500  19.296  10.024  1.00  0.00    -0.200 F 
ATOM     93  F   UNL     1       5.206  20.448   8.235  1.00  0.00    -0.200 F 
ENDBRANCH  60  83
ENDBRANCH  34  35
ENDBRANCH  26  29
ENDBRANCH  24  25
ENDBRANCH  23  24
ENDBRANCH   1  23
TORSDOF 15
