REMARK SMILES COc1ccc(NC(C)(C)C2=N[C@@H](C(=O)NCCCNC(=O)c3ccc(-c4c5nc(c(-c6c(F)c(F)c(F)c(F)c6F)c6ccc([nH]6)c(-c6c(F)c(F)c(F)c(F)c6F)c6nc(c(-c7c(F)c(F)c(F)c(F)c7F)c7ccc4[nH]7)C=C6)C=C5)cc3)CS2)cc1
REMARK SMILES IDX 17 1 16 2 14 3 15 4 13 6 11 7 12 8 87 9 86 10 8 11 9 12
REMARK SMILES IDX 10 13 7 14 6 16 3 17 4 18 89 19 5 20 88 21 2 22 1 23 18 24
REMARK SMILES IDX 19 25 20 26 21 27 22 29 23 30 24 31 85 32 25 33 84 34 26 35
REMARK SMILES IDX 27 36 28 37 78 38 29 39 83 40 77 41 79 42 30 43 82 44 76 45
REMARK SMILES IDX 75 46 31 48 63 49 43 50 62 51 44 52 47 53 61 54 80 55 45 56
REMARK SMILES IDX 46 57 60 59 81 60 48 61 32 62 33 63 41 64 34 65 35 66 39 67
REMARK SMILES IDX 42 68 36 69 37 70 40 71 38 72 64 73 65 74 73 75 66 76 67 77
REMARK SMILES IDX 71 78 74 79 68 80 69 81 72 82 70 83 49 84 50 85 58 86 51 87
REMARK SMILES IDX 52 88 56 89 59 90 53 91 54 92 57 93 55 94
REMARK H PARENT 16 5 7 15 20 28 79 47 47 58
REMARK Flexibility Score: inf
ROOT
ATOM      1  C   UNL     1      -0.602  -2.217  -3.618  1.00  0.00     0.117 C 
ENDROOT
BRANCH   1   2
ATOM      2  N   UNL     1      -1.475  -3.210  -4.215  1.00  0.00    -0.354 N 
ATOM      3  C   UNL     1      -2.094  -3.204  -5.429  1.00  0.00     0.245 C 
ATOM      4  O   UNL     1      -2.845  -4.152  -5.682  1.00  0.00    -0.273 OA
ATOM      5  H   UNL     1      -1.646  -4.006  -3.662  1.00  0.00     0.163 HD
BRANCH   3   6
ATOM      6  C   UNL     1      -1.949  -2.049  -6.422  1.00  0.00     0.205 C 
ATOM      7  C   UNL     1      -0.434  -0.462  -7.033  1.00  0.00     0.094 C 
ATOM      8  N   UNL     1      -0.519  -1.708  -6.668  1.00  0.00    -0.266 NA
ATOM      9  S   UNL     1      -1.934   0.463  -6.995  1.00  0.00    -0.106 SA
ATOM     10  C   UNL     1      -2.714  -0.815  -5.988  1.00  0.00     0.113 C 
BRANCH   7  11
ATOM     11  C   UNL     1       0.893   0.202  -7.493  1.00  0.00     0.080 C 
ATOM     12  C   UNL     1       0.768   1.621  -8.064  1.00  0.00     0.042 C 
ATOM     13  C   UNL     1       1.427  -0.702  -8.632  1.00  0.00     0.042 C 
BRANCH  11  14
ATOM     14  N   UNL     1       1.927   0.200  -6.436  1.00  0.00    -0.374 N 
ATOM     15  H   UNL     1       2.832  -0.050  -6.732  1.00  0.00     0.161 HD
BRANCH  14  16
ATOM     16  C   UNL     1       1.806   0.496  -5.095  1.00  0.00     0.035 A 
ATOM     17  C   UNL     1       1.520   0.733  -2.297  1.00  0.00     0.119 A 
ATOM     18  C   UNL     1       0.603   1.341  -3.149  1.00  0.00     0.048 A 
ATOM     19  C   UNL     1       2.600   0.042  -2.824  1.00  0.00     0.048 A 
ATOM     20  C   UNL     1       0.754   1.226  -4.537  1.00  0.00     0.029 A 
ATOM     21  C   UNL     1       2.747  -0.057  -4.211  1.00  0.00     0.029 A 
BRANCH  17  22
ATOM     22  O   UNL     1       1.287   0.612  -0.958  1.00  0.00    -0.497 OA
ATOM     23  C   UNL     1       1.291   1.850  -0.263  1.00  0.00     0.278 C 
ENDBRANCH  17  22
ENDBRANCH  14  16
ENDBRANCH  11  14
ENDBRANCH   7  11
ENDBRANCH   3   6
ENDBRANCH   1   2
BRANCH   1  24
ATOM     24  C   UNL     1      -1.131  -1.772  -2.260  1.00  0.00     0.042 C 
BRANCH  24  25
ATOM     25  C   UNL     1      -0.785  -2.696  -1.100  1.00  0.00     0.118 C 
BRANCH  25  26
ATOM     26  N   UNL     1       0.645  -2.846  -0.857  1.00  0.00    -0.352 N 
ATOM     27  C   UNL     1       1.476  -2.471   0.169  1.00  0.00     0.251 C 
ATOM     28  H   UNL     1       1.114  -3.316  -1.584  1.00  0.00     0.163 HD
ATOM     29  O   UNL     1       2.685  -2.672   0.036  1.00  0.00    -0.269 OA
BRANCH  27  30
ATOM     30  C   UNL     1       0.995  -1.825   1.419  1.00  0.00     0.039 A 
ATOM     31  C   UNL     1       1.872  -0.963   2.097  1.00  0.00     0.014 A 
ATOM     32  C   UNL     1      -0.254  -2.080   1.981  1.00  0.00     0.014 A 
ATOM     33  C   UNL     1       1.476  -0.321   3.277  1.00  0.00     0.010 A 
ATOM     34  C   UNL     1      -0.690  -1.361   3.096  1.00  0.00     0.010 A 
ATOM     35  C   UNL     1       0.175  -0.488   3.769  1.00  0.00    -0.014 A 
BRANCH  35  36
ATOM     36  C   UNL     1      -0.285   0.193   5.009  1.00  0.00     0.031 A 
ATOM     37  C   UNL     1      -0.702  -0.619   6.207  1.00  0.00     0.074 A 
ATOM     38  C   UNL     1      -0.400   1.535   5.042  1.00  0.00     0.049 A 
ATOM     39  N   UNL     1      -1.207  -0.219   7.348  1.00  0.00    -0.248 NA
ATOM     40  C   UNL     1      -0.565  -2.079   6.092  1.00  0.00     0.031 C 
ATOM     41  C   UNL     1      -0.091   2.437   3.933  1.00  0.00     0.029 A 
ATOM     42  N   UNL     1      -0.827   2.373   6.042  1.00  0.00    -0.354 N 
ATOM     43  C   UNL     1      -1.463  -1.376   8.073  1.00  0.00     0.074 A 
ATOM     44  C   UNL     1      -1.123  -2.493   7.219  1.00  0.00     0.031 C 
ATOM     45  C   UNL     1      -0.330   3.702   4.314  1.00  0.00     0.029 A 
ATOM     46  C   UNL     1      -0.830   3.699   5.686  1.00  0.00     0.049 A 
ATOM     47  H   UNL     1      -1.105   2.053   6.931  1.00  0.00     0.167 HD
ATOM     48  C   UNL     1      -1.909  -1.500   9.347  1.00  0.00     0.037 A 
ATOM     49  C   UNL     1      -1.196   4.790   6.386  1.00  0.00     0.037 A 
ATOM     50  C   UNL     1      -2.222  -0.391  10.208  1.00  0.00     0.049 A 
ATOM     51  C   UNL     1      -1.658   4.633   7.808  1.00  0.00     0.074 A 
ATOM     52  C   UNL     1      -2.633  -0.410  11.530  1.00  0.00     0.029 A 
ATOM     53  N   UNL     1      -2.156   0.942   9.830  1.00  0.00    -0.354 N 
ATOM     54  N   UNL     1      -1.829   3.537   8.507  1.00  0.00    -0.248 NA
ATOM     55  C   UNL     1      -1.959   5.868   8.546  1.00  0.00     0.031 C 
ATOM     56  C   UNL     1      -2.847   0.911  11.941  1.00  0.00     0.029 A 
ATOM     57  C   UNL     1      -2.527   1.755  10.889  1.00  0.00     0.049 A 
ATOM     58  H   UNL     1      -1.886   1.263   8.939  1.00  0.00     0.167 HD
ATOM     59  C   UNL     1      -2.232   3.948   9.770  1.00  0.00     0.074 A 
ATOM     60  C   UNL     1      -2.262   5.396   9.747  1.00  0.00     0.031 C 
ATOM     61  C   UNL     1      -2.550   3.195  10.852  1.00  0.00     0.037 A 
BRANCH  48  62
ATOM     62  C   UNL     1      -2.069  -2.895   9.881  1.00  0.00     0.064 A 
ATOM     63  C   UNL     1      -0.958  -3.716  10.132  1.00  0.00     0.173 A 
ATOM     64  C   UNL     1      -3.343  -3.420  10.143  1.00  0.00     0.173 A 
ATOM     65  F   UNL     1       0.282  -3.267   9.886  1.00  0.00    -0.203 F 
ATOM     66  C   UNL     1      -1.118  -5.024  10.581  1.00  0.00     0.198 A 
ATOM     67  C   UNL     1      -3.498  -4.718  10.624  1.00  0.00     0.198 A 
ATOM     68  F   UNL     1      -4.439  -2.678   9.928  1.00  0.00    -0.203 F 
ATOM     69  F   UNL     1      -0.045  -5.809  10.747  1.00  0.00    -0.200 F 
ATOM     70  C   UNL     1      -2.387  -5.523  10.830  1.00  0.00     0.200 A 
ATOM     71  F   UNL     1      -4.724  -5.196  10.876  1.00  0.00    -0.200 F 
ATOM     72  F   UNL     1      -2.540  -6.783  11.258  1.00  0.00    -0.200 F 
ENDBRANCH  48  62
BRANCH  49  73
ATOM     73  C   UNL     1      -1.100   6.134   5.760  1.00  0.00     0.064 A 
ATOM     74  C   UNL     1      -0.111   7.044   6.158  1.00  0.00     0.173 A 
ATOM     75  C   UNL     1      -1.989   6.534   4.752  1.00  0.00     0.173 A 
ATOM     76  F   UNL     1       0.750   6.713   7.131  1.00  0.00    -0.203 F 
ATOM     77  C   UNL     1      -0.026   8.311   5.585  1.00  0.00     0.198 A 
ATOM     78  C   UNL     1      -1.888   7.793   4.162  1.00  0.00     0.198 A 
ATOM     79  F   UNL     1      -2.948   5.697   4.331  1.00  0.00    -0.203 F 
ATOM     80  F   UNL     1       0.903   9.176   6.013  1.00  0.00    -0.200 F 
ATOM     81  C   UNL     1      -0.911   8.683   4.584  1.00  0.00     0.200 A 
ATOM     82  F   UNL     1      -2.735   8.143   3.185  1.00  0.00    -0.200 F 
ATOM     83  F   UNL     1      -0.826   9.899   4.030  1.00  0.00    -0.200 F 
ENDBRANCH  49  73
BRANCH  61  84
ATOM     84  C   UNL     1      -2.927   3.925  12.108  1.00  0.00     0.064 A 
ATOM     85  C   UNL     1      -4.148   4.605  12.226  1.00  0.00     0.173 A 
ATOM     86  C   UNL     1      -2.063   3.928  13.214  1.00  0.00     0.173 A 
ATOM     87  F   UNL     1      -5.001   4.646  11.191  1.00  0.00    -0.203 F 
ATOM     88  C   UNL     1      -4.476   5.288  13.394  1.00  0.00     0.198 A 
ATOM     89  C   UNL     1      -2.408   4.587  14.390  1.00  0.00     0.198 A 
ATOM     90  F   UNL     1      -0.886   3.287  13.155  1.00  0.00    -0.203 F 
ATOM     91  F   UNL     1      -5.624   5.976  13.465  1.00  0.00    -0.200 F 
ATOM     92  C   UNL     1      -3.609   5.274  14.477  1.00  0.00     0.200 A 
ATOM     93  F   UNL     1      -1.574   4.562  15.440  1.00  0.00    -0.200 F 
ATOM     94  F   UNL     1      -3.928   5.931  15.600  1.00  0.00    -0.200 F 
ENDBRANCH  61  84
ENDBRANCH  35  36
ENDBRANCH  27  30
ENDBRANCH  25  26
ENDBRANCH  24  25
ENDBRANCH   1  24
TORSDOF 14
