REMARK SMILES Cc1c(C(=O)N[C@H]2C=C[C@@H](C(=O)NCCCNC(=O)c3ccc(-c4c5nc(c(-c6c(F)c(F)c(F)c(F)c6F)c6ccc([nH]6)c(-c6c(F)c(F)c(F)c(F)c6F)c6nc(c(-c7c(F)c(F)c(F)c(F)c7F)c7ccc4[nH]7)C=C6)C=C5)cc3)C2)oc2ccccc12
REMARK SMILES IDX 15 1 14 2 13 3 11 4 12 5 10 7 7 8 8 9 83 10 9 11 6 12 4 13
REMARK SMILES IDX 5 14 3 16 1 17 2 18 90 19 84 20 85 21 89 22 86 23 88 24
REMARK SMILES IDX 87 25 16 26 17 27 18 28 19 30 20 31 21 32 82 33 22 34 81 35
REMARK SMILES IDX 23 36 24 37 25 38 75 39 26 40 80 41 74 42 76 43 27 44 79 45
REMARK SMILES IDX 73 46 72 47 28 49 60 50 40 51 59 52 41 53 44 54 58 55 77 56
REMARK SMILES IDX 42 57 43 58 57 60 78 61 45 62 29 63 30 64 38 65 31 66 32 67
REMARK SMILES IDX 36 68 39 69 33 70 34 71 37 72 35 73 61 74 62 75 70 76 63 77
REMARK SMILES IDX 64 78 68 79 71 80 65 81 66 82 69 83 67 84 46 85 47 86 55 87
REMARK SMILES IDX 48 88 49 89 53 90 56 91 50 92 51 93 54 94 52 95
REMARK H PARENT 13 6 6 15 17 29 76 48 44 59
REMARK Flexibility Score: inf
ROOT
ATOM      1  C   UNL     1       8.152  -1.932   2.018  1.00  0.00     0.042 C 
ENDROOT
BRANCH   1   2
ATOM      2  C   UNL     1       7.578  -2.921   1.026  1.00  0.00     0.117 C 
BRANCH   2   3
ATOM      3  N   UNL     1       6.710  -3.884   1.677  1.00  0.00    -0.356 N 
ATOM      4  C   UNL     1       5.375  -4.087   1.547  1.00  0.00     0.227 C 
ATOM      5  O   UNL     1       4.839  -4.898   2.307  1.00  0.00    -0.274 OA
ATOM      6  H   UNL     1       7.161  -4.484   2.314  1.00  0.00     0.163 HD
BRANCH   4   7
ATOM      7  C   UNL     1       4.546  -3.309   0.538  1.00  0.00     0.103 C 
ATOM      8  C   UNL     1       3.970  -1.193  -0.337  1.00  0.00     0.106 C 
ATOM      9  C   UNL     1       4.953  -1.826  -1.251  1.00  0.00    -0.006 C 
ATOM     10  C   UNL     1       4.271  -1.876   0.989  1.00  0.00     0.047 C 
ATOM     11  C   UNL     1       5.165  -3.083  -0.823  1.00  0.00    -0.016 C 
BRANCH   8  12
ATOM     12  N   UNL     1       3.945   0.214  -0.263  1.00  0.00    -0.343 N 
ATOM     13  C   UNL     1       2.824   0.995  -0.051  1.00  0.00     0.287 C 
ATOM     14  O   UNL     1       3.082   2.197   0.084  1.00  0.00    -0.266 OA
ATOM     15  H   UNL     1       4.804   0.683  -0.373  1.00  0.00     0.164 HD
BRANCH  13  16
ATOM     16  C   UNL     1       1.432   0.486  -0.013  1.00  0.00     0.195 A 
ATOM     17  C   UNL     1       1.045  -2.168  -0.020  1.00  0.00     0.049 C 
ATOM     18  C   UNL     1       0.692  -0.718  -0.019  1.00  0.00     0.008 A 
ATOM     19  C   UNL     1      -0.696  -0.351  -0.025  1.00  0.00     0.024 A 
ATOM     20  O   UNL     1       0.512   1.524   0.044  1.00  0.00    -0.451 OA
ATOM     21  C   UNL     1      -0.741   1.023   0.035  1.00  0.00     0.135 A 
ATOM     22  C   UNL     1      -1.909  -1.066  -0.063  1.00  0.00     0.012 A 
ATOM     23  C   UNL     1      -1.919   1.762   0.077  1.00  0.00     0.048 A 
ATOM     24  C   UNL     1      -3.113  -0.359  -0.026  1.00  0.00     0.001 A 
ATOM     25  C   UNL     1      -3.115   1.034   0.047  1.00  0.00     0.004 A 
ENDBRANCH  13  16
ENDBRANCH   8  12
ENDBRANCH   4   7
ENDBRANCH   2   3
ENDBRANCH   1   2
BRANCH   1  26
ATOM     26  C   UNL     1       9.041  -2.604   3.043  1.00  0.00     0.118 C 
BRANCH  26  27
ATOM     27  N   UNL     1      10.144  -3.315   2.410  1.00  0.00    -0.352 N 
ATOM     28  C   UNL     1      11.474  -2.989   2.358  1.00  0.00     0.251 C 
ATOM     29  H   UNL     1       9.899  -4.151   1.952  1.00  0.00     0.163 HD
ATOM     30  O   UNL     1      12.203  -3.506   1.521  1.00  0.00    -0.269 OA
BRANCH  28  31
ATOM     31  C   UNL     1      12.018  -2.024   3.331  1.00  0.00     0.039 A 
ATOM     32  C   UNL     1      13.044  -1.161   2.944  1.00  0.00     0.014 A 
ATOM     33  C   UNL     1      11.540  -2.010   4.644  1.00  0.00     0.014 A 
ATOM     34  C   UNL     1      13.577  -0.275   3.878  1.00  0.00     0.010 A 
ATOM     35  C   UNL     1      11.970  -1.038   5.528  1.00  0.00     0.010 A 
ATOM     36  C   UNL     1      13.037  -0.206   5.173  1.00  0.00    -0.014 A 
BRANCH  36  37
ATOM     37  C   UNL     1      13.643   0.647   6.217  1.00  0.00     0.031 A 
ATOM     38  C   UNL     1      14.245   0.001   7.436  1.00  0.00     0.074 A 
ATOM     39  C   UNL     1      13.607   1.984   6.089  1.00  0.00     0.049 A 
ATOM     40  N   UNL     1      14.803   0.557   8.480  1.00  0.00    -0.248 NA
ATOM     41  C   UNL     1      14.170  -1.468   7.515  1.00  0.00     0.031 C 
ATOM     42  C   UNL     1      12.992   2.712   4.978  1.00  0.00     0.029 A 
ATOM     43  N   UNL     1      14.107   2.967   6.900  1.00  0.00    -0.354 N 
ATOM     44  C   UNL     1      15.111  -0.488   9.342  1.00  0.00     0.074 A 
ATOM     45  C   UNL     1      14.610  -1.701   8.740  1.00  0.00     0.031 C 
ATOM     46  C   UNL     1      13.200   4.027   5.150  1.00  0.00     0.029 A 
ATOM     47  C   UNL     1      13.935   4.231   6.395  1.00  0.00     0.049 A 
ATOM     48  H   UNL     1      14.547   2.785   7.761  1.00  0.00     0.167 HD
ATOM     49  C   UNL     1      15.788  -0.445  10.513  1.00  0.00     0.037 A 
ATOM     50  C   UNL     1      14.350   5.415   6.880  1.00  0.00     0.037 A 
ATOM     51  C   UNL     1      16.327   0.763  11.073  1.00  0.00     0.049 A 
ATOM     52  C   UNL     1      15.134   5.435   8.163  1.00  0.00     0.074 A 
ATOM     53  C   UNL     1      17.092   0.924  12.213  1.00  0.00     0.029 A 
ATOM     54  N   UNL     1      16.158   2.025  10.519  1.00  0.00    -0.354 N 
ATOM     55  N   UNL     1      15.492   4.436   8.933  1.00  0.00    -0.248 NA
ATOM     56  C   UNL     1      15.583   6.750   8.635  1.00  0.00     0.031 C 
ATOM     57  C   UNL     1      17.353   2.290  12.370  1.00  0.00     0.029 A 
ATOM     58  C   UNL     1      16.793   2.974  11.302  1.00  0.00     0.049 A 
ATOM     59  H   UNL     1      15.660   2.217   9.692  1.00  0.00     0.167 HD
ATOM     60  C   UNL     1      16.242   4.994   9.959  1.00  0.00     0.074 A 
ATOM     61  C   UNL     1      16.292   6.421   9.706  1.00  0.00     0.031 C 
ATOM     62  C   UNL     1      16.838   4.385  11.014  1.00  0.00     0.037 A 
BRANCH  49  63
ATOM     63  C   UNL     1      15.978  -1.743  11.246  1.00  0.00     0.064 A 
ATOM     64  C   UNL     1      16.783  -2.773  10.732  1.00  0.00     0.173 A 
ATOM     65  C   UNL     1      15.331  -1.970  12.469  1.00  0.00     0.173 A 
ATOM     66  F   UNL     1      17.412  -2.617   9.557  1.00  0.00    -0.203 F 
ATOM     67  C   UNL     1      16.892  -3.996  11.390  1.00  0.00     0.198 A 
ATOM     68  C   UNL     1      15.471  -3.181  13.143  1.00  0.00     0.198 A 
ATOM     69  F   UNL     1      14.551  -1.020  13.009  1.00  0.00    -0.203 F 
ATOM     70  F   UNL     1      17.604  -4.990  10.839  1.00  0.00    -0.200 F 
ATOM     71  C   UNL     1      16.239  -4.198  12.596  1.00  0.00     0.200 A 
ATOM     72  F   UNL     1      14.848  -3.371  14.314  1.00  0.00    -0.200 F 
ATOM     73  F   UNL     1      16.340  -5.377  13.225  1.00  0.00    -0.200 F 
ENDBRANCH  49  63
BRANCH  50  74
ATOM     74  C   UNL     1      14.110   6.656   6.102  1.00  0.00     0.064 A 
ATOM     75  C   UNL     1      15.171   7.307   5.458  1.00  0.00     0.173 A 
ATOM     76  C   UNL     1      12.827   7.204   5.966  1.00  0.00     0.173 A 
ATOM     77  F   UNL     1      16.418   6.826   5.570  1.00  0.00    -0.203 F 
ATOM     78  C   UNL     1      14.961   8.470   4.721  1.00  0.00     0.198 A 
ATOM     79  C   UNL     1      12.614   8.354   5.209  1.00  0.00     0.198 A 
ATOM     80  F   UNL     1      11.778   6.611   6.554  1.00  0.00    -0.203 F 
ATOM     81  F   UNL     1      15.999   9.092   4.146  1.00  0.00    -0.200 F 
ATOM     82  C   UNL     1      13.682   8.990   4.593  1.00  0.00     0.200 A 
ATOM     83  F   UNL     1      11.375   8.845   5.074  1.00  0.00    -0.200 F 
ATOM     84  F   UNL     1      13.479  10.105   3.879  1.00  0.00    -0.200 F 
ENDBRANCH  50  74
BRANCH  62  85
ATOM     85  C   UNL     1      17.638   5.255  11.939  1.00  0.00     0.064 A 
ATOM     86  C   UNL     1      17.025   6.162  12.814  1.00  0.00     0.173 A 
ATOM     87  C   UNL     1      19.037   5.155  11.964  1.00  0.00     0.173 A 
ATOM     88  F   UNL     1      15.691   6.303  12.816  1.00  0.00    -0.203 F 
ATOM     89  C   UNL     1      17.787   6.965  13.657  1.00  0.00     0.198 A 
ATOM     90  C   UNL     1      19.794   5.937  12.832  1.00  0.00     0.198 A 
ATOM     91  F   UNL     1      19.670   4.295  11.152  1.00  0.00    -0.203 F 
ATOM     92  F   UNL     1      17.185   7.867  14.445  1.00  0.00    -0.200 F 
ATOM     93  C   UNL     1      19.169   6.848  13.670  1.00  0.00     0.200 A 
ATOM     94  F   UNL     1      21.128   5.811  12.853  1.00  0.00    -0.200 F 
ATOM     95  F   UNL     1      19.901   7.620  14.485  1.00  0.00    -0.200 F 
ENDBRANCH  62  85
ENDBRANCH  36  37
ENDBRANCH  28  31
ENDBRANCH  26  27
ENDBRANCH   1  26
TORSDOF 12
