REMARK SMILES C#CCN(CC(=O)NCCCNC(=O)c1ccc(-c2c3nc(c(-c4c(F)c(F)c(F)c(F)c4F)c4ccc([nH]4)c(-c4c(F)c(F)c(F)c(F)c4F)c4nc(c(-c5c(F)c(F)c(F)c(F)c5F)c5ccc2[nH]5)C=C4)C=C3)cc1)C(=O)NCCc1ccco1
REMARK SMILES IDX 6 1 7 2 8 3 5 5 4 6 3 7 2 8 1 9 78 10 79 11 80 12 81 14
REMARK SMILES IDX 82 15 83 16 84 17 87 18 85 19 86 20 9 21 10 22 11 23 12 24
REMARK SMILES IDX 13 25 14 27 15 28 16 29 77 30 17 31 76 32 18 33 19 34 20 35
REMARK SMILES IDX 70 36 21 37 75 38 69 39 71 40 22 41 74 42 68 43 67 44 23 46
REMARK SMILES IDX 55 47 35 48 54 49 36 50 39 51 53 52 72 53 37 54 38 55 52 57
REMARK SMILES IDX 73 58 40 59 24 60 25 61 33 62 26 63 27 64 31 65 34 66 28 67
REMARK SMILES IDX 29 68 32 69 30 70 56 71 57 72 65 73 58 74 59 75 63 76 66 77
REMARK SMILES IDX 60 78 61 79 64 80 62 81 41 82 42 83 50 84 43 85 44 86 48 87
REMARK SMILES IDX 51 88 45 89 46 90 49 91 47 92
REMARK H PARENT 8 4 80 13 12 26 71 45 39 56
REMARK Flexibility Score: inf
ROOT
ATOM      1  C   UNL     1      -4.715   2.128   0.558  1.00  0.00     0.239 C 
ATOM      2  O   UNL     1      -5.250   3.198   0.868  1.00  0.00    -0.273 OA
ATOM      3  N   UNL     1      -5.537   1.052   0.390  1.00  0.00    -0.354 N 
ATOM      4  H   UNL     1      -6.439   1.153   0.773  1.00  0.00     0.163 HD
ENDROOT
BRANCH   1   5
ATOM      5  C   UNL     1      -3.212   2.066   0.243  1.00  0.00     0.222 C 
BRANCH   5   6
ATOM      6  N   UNL     1      -2.493   0.979   0.902  1.00  0.00    -0.304 N 
BRANCH   6   7
ATOM      7  C   UNL     1      -1.915  -0.032   0.025  1.00  0.00     0.211 C 
BRANCH   7   8
ATOM      8  C   UNL     1      -0.395  -0.032   0.025  1.00  0.00    -0.085 C 
ATOM      9  C   UNL     1       0.908  -0.032   0.025  1.00  0.00     0.006 C 
ENDBRANCH   7   8
ENDBRANCH   6   7
BRANCH   6  10
ATOM     10  C   UNL     1      -2.297   0.801   2.242  1.00  0.00     0.318 C 
ATOM     11  O   UNL     1      -1.820  -0.251   2.682  1.00  0.00    -0.249 OA
ATOM     12  N   UNL     1      -2.615   1.706   3.179  1.00  0.00    -0.337 N 
ATOM     13  H   UNL     1      -2.439   1.350   4.079  1.00  0.00     0.165 HD
BRANCH  12  14
ATOM     14  C   UNL     1      -3.146   3.062   3.257  1.00  0.00     0.125 C 
BRANCH  14  15
ATOM     15  C   UNL     1      -4.538   3.091   3.895  1.00  0.00     0.096 C 
BRANCH  15  16
ATOM     16  C   UNL     1      -4.458   3.168   5.378  1.00  0.00     0.105 A 
ATOM     17  C   UNL     1      -4.516   4.222   6.266  1.00  0.00     0.045 A 
ATOM     18  O   UNL     1      -4.277   1.997   6.051  1.00  0.00    -0.469 OA
ATOM     19  C   UNL     1      -4.359   3.664   7.556  1.00  0.00     0.042 A 
ATOM     20  C   UNL     1      -4.220   2.308   7.373  1.00  0.00     0.195 A 
ENDBRANCH  15  16
ENDBRANCH  14  15
ENDBRANCH  12  14
ENDBRANCH   6  10
ENDBRANCH   5   6
ENDBRANCH   1   5
BRANCH   3  21
ATOM     21  C   UNL     1      -5.286  -0.214  -0.264  1.00  0.00     0.117 C 
BRANCH  21  22
ATOM     22  C   UNL     1      -5.090  -1.377   0.703  1.00  0.00     0.042 C 
BRANCH  22  23
ATOM     23  C   UNL     1      -6.316  -1.737   1.536  1.00  0.00     0.118 C 
BRANCH  23  24
ATOM     24  N   UNL     1      -7.463  -2.106   0.721  1.00  0.00    -0.352 N 
ATOM     25  C   UNL     1      -8.172  -3.273   0.624  1.00  0.00     0.251 C 
ATOM     26  H   UNL     1      -7.788  -1.387   0.133  1.00  0.00     0.163 HD
ATOM     27  O   UNL     1      -8.989  -3.390  -0.290  1.00  0.00    -0.269 OA
BRANCH  25  28
ATOM     28  C   UNL     1      -7.989  -4.393   1.576  1.00  0.00     0.039 A 
ATOM     29  C   UNL     1      -8.142  -5.700   1.097  1.00  0.00     0.014 A 
ATOM     30  C   UNL     1      -7.770  -4.185   2.941  1.00  0.00     0.014 A 
ATOM     31  C   UNL     1      -8.041  -6.788   1.967  1.00  0.00     0.010 A 
ATOM     32  C   UNL     1      -7.598  -5.273   3.799  1.00  0.00     0.010 A 
ATOM     33  C   UNL     1      -7.750  -6.584   3.324  1.00  0.00    -0.014 A 
BRANCH  33  34
ATOM     34  C   UNL     1      -7.636  -7.731   4.261  1.00  0.00     0.031 A 
ATOM     35  C   UNL     1      -8.642  -7.914   5.364  1.00  0.00     0.074 A 
ATOM     36  C   UNL     1      -6.603  -8.587   4.144  1.00  0.00     0.049 A 
ATOM     37  N   UNL     1      -8.687  -8.826   6.303  1.00  0.00    -0.248 NA
ATOM     38  C   UNL     1      -9.731  -6.928   5.435  1.00  0.00     0.031 C 
ATOM     39  C   UNL     1      -5.539  -8.495   3.145  1.00  0.00     0.029 A 
ATOM     40  N   UNL     1      -6.276  -9.700   4.878  1.00  0.00    -0.354 N 
ATOM     41  C   UNL     1      -9.790  -8.511   7.085  1.00  0.00     0.074 A 
ATOM     42  C   UNL     1     -10.365  -7.301   6.537  1.00  0.00     0.031 C 
ATOM     43  C   UNL     1      -4.689  -9.521   3.313  1.00  0.00     0.029 A 
ATOM     44  C   UNL     1      -5.132 -10.325   4.448  1.00  0.00     0.049 A 
ATOM     45  H   UNL     1      -6.811 -10.020   5.640  1.00  0.00     0.167 HD
ATOM     46  C   UNL     1     -10.291  -9.180   8.151  1.00  0.00     0.037 A 
ATOM     47  C   UNL     1      -4.512 -11.425   4.916  1.00  0.00     0.037 A 
ATOM     48  C   UNL     1      -9.741 -10.402   8.675  1.00  0.00     0.049 A 
ATOM     49  C   UNL     1      -5.101 -12.163   6.085  1.00  0.00     0.074 A 
ATOM     50  C   UNL     1     -10.209 -11.186   9.715  1.00  0.00     0.029 A 
ATOM     51  N   UNL     1      -8.598 -11.021   8.191  1.00  0.00    -0.354 N 
ATOM     52  N   UNL     1      -6.178 -11.888   6.779  1.00  0.00    -0.248 NA
ATOM     53  C   UNL     1      -4.393 -13.372   6.529  1.00  0.00     0.031 C 
ATOM     54  C   UNL     1      -9.332 -12.264   9.881  1.00  0.00     0.029 A 
ATOM     55  C   UNL     1      -8.339 -12.172   8.919  1.00  0.00     0.049 A 
ATOM     56  H   UNL     1      -8.050 -10.692   7.442  1.00  0.00     0.167 HD
ATOM     57  C   UNL     1      -6.293 -12.900   7.722  1.00  0.00     0.074 A 
ATOM     58  C   UNL     1      -5.181 -13.802   7.505  1.00  0.00     0.031 C 
ATOM     59  C   UNL     1      -7.236 -13.066   8.681  1.00  0.00     0.037 A 
BRANCH  46  60
ATOM     60  C   UNL     1     -11.504  -8.604   8.822  1.00  0.00     0.064 A 
ATOM     61  C   UNL     1     -12.766  -8.641   8.211  1.00  0.00     0.173 A 
ATOM     62  C   UNL     1     -11.409  -8.037  10.101  1.00  0.00     0.173 A 
ATOM     63  F   UNL     1     -12.907  -9.162   6.983  1.00  0.00    -0.203 F 
ATOM     64  C   UNL     1     -13.884  -8.105   8.845  1.00  0.00     0.198 A 
ATOM     65  C   UNL     1     -12.534  -7.526  10.743  1.00  0.00     0.198 A 
ATOM     66  F   UNL     1     -10.226  -7.982  10.732  1.00  0.00    -0.203 F 
ATOM     67  F   UNL     1     -15.072  -8.109   8.222  1.00  0.00    -0.200 F 
ATOM     68  C   UNL     1     -13.769  -7.553  10.112  1.00  0.00     0.200 A 
ATOM     69  F   UNL     1     -12.424  -7.003  11.972  1.00  0.00    -0.200 F 
ATOM     70  F   UNL     1     -14.847  -7.041  10.722  1.00  0.00    -0.200 F 
ENDBRANCH  46  60
BRANCH  47  71
ATOM     71  C   UNL     1      -3.283 -11.917   4.245  1.00  0.00     0.064 A 
ATOM     72  C   UNL     1      -3.312 -13.079   3.462  1.00  0.00     0.173 A 
ATOM     73  C   UNL     1      -2.063 -11.237   4.363  1.00  0.00     0.173 A 
ATOM     74  F   UNL     1      -4.452 -13.774   3.338  1.00  0.00    -0.203 F 
ATOM     75  C   UNL     1      -2.163 -13.549   2.831  1.00  0.00     0.198 A 
ATOM     76  C   UNL     1      -0.919 -11.695   3.712  1.00  0.00     0.198 A 
ATOM     77  F   UNL     1      -1.986 -10.118   5.099  1.00  0.00    -0.203 F 
ATOM     78  F   UNL     1      -2.209 -14.682   2.116  1.00  0.00    -0.200 F 
ATOM     79  C   UNL     1      -0.969 -12.854   2.952  1.00  0.00     0.200 A 
ATOM     80  F   UNL     1       0.230 -11.016   3.822  1.00  0.00    -0.200 F 
ATOM     81  F   UNL     1       0.135 -13.304   2.340  1.00  0.00    -0.200 F 
ENDBRANCH  47  71
BRANCH  59  82
ATOM     82  C   UNL     1      -7.129 -14.287   9.544  1.00  0.00     0.064 A 
ATOM     83  C   UNL     1      -6.162 -14.390  10.553  1.00  0.00     0.173 A 
ATOM     84  C   UNL     1      -8.032 -15.349   9.383  1.00  0.00     0.173 A 
ATOM     85  F   UNL     1      -5.267 -13.407  10.734  1.00  0.00    -0.203 F 
ATOM     86  C   UNL     1      -6.089 -15.524  11.359  1.00  0.00     0.198 A 
ATOM     87  C   UNL     1      -7.971 -16.470  10.206  1.00  0.00     0.198 A 
ATOM     88  F   UNL     1      -8.978 -15.294   8.434  1.00  0.00    -0.203 F 
ATOM     89  F   UNL     1      -5.132 -15.620  12.292  1.00  0.00    -0.200 F 
ATOM     90  C   UNL     1      -6.997 -16.559  11.189  1.00  0.00     0.200 A 
ATOM     91  F   UNL     1      -8.854 -17.465  10.047  1.00  0.00    -0.200 F 
ATOM     92  F   UNL     1      -6.928 -17.646  11.969  1.00  0.00    -0.200 F 
ENDBRANCH  59  82
ENDBRANCH  33  34
ENDBRANCH  25  28
ENDBRANCH  23  24
ENDBRANCH  22  23
ENDBRANCH  21  22
ENDBRANCH   3  21
TORSDOF 17
