REMARK SMILES O=C(NCCCNC(=O)C1CC[NH+]([C@@H]2CC(=O)N(c3ccc(Oc4ccccc4)cc3)C2=O)CC1)c1ccc(-c2c3nc(c(-c4c(F)c(F)c(F)c(F)c4F)c4ccc([nH]4)c(-c4c(F)c(F)c(F)c(F)c4F)c4nc(c(-c5c(F)c(F)c(F)c(F)c5F)c5ccc2[nH]5)C=C4)C=C3)cc1
REMARK SMILES IDX 6 1 5 2 4 3 3 4 1 5 2 6 36 8 37 9 98 10 38 11 97 12 39 13
REMARK SMILES IDX 40 14 41 15 91 16 42 17 96 18 90 19 92 20 43 21 95 22 89 23
REMARK SMILES IDX 88 24 44 26 76 27 56 28 75 29 57 30 60 31 74 32 93 33 58 34
REMARK SMILES IDX 59 35 73 37 94 38 61 39 45 40 46 41 54 42 47 43 48 44 52 45
REMARK SMILES IDX 55 46 49 47 50 48 53 49 51 50 77 51 78 52 86 53 79 54 80 55
REMARK SMILES IDX 84 56 87 57 81 58 82 59 85 60 83 61 62 62 63 63 71 64 64 65
REMARK SMILES IDX 65 66 69 67 72 68 66 69 67 70 70 71 68 72 7 73 8 74 9 76
REMARK SMILES IDX 10 77 11 78 35 79 12 80 34 81 13 82 14 84 15 85 32 86 16 87
REMARK SMILES IDX 18 88 33 89 17 90 19 91 20 92 31 93 21 94 30 95 22 96 23 97
REMARK SMILES IDX 24 98 25 99 29 100 26 101 28 102 27 103
REMARK H PARENT 3 7 92 25 60 36 7 75 13 83
REMARK Flexibility Score: inf
ROOT
ATOM      1  C   UNL     1       4.043  -3.782  -0.925  1.00  0.00     0.117 C 
ENDROOT
BRANCH   1   2
ATOM      2  C   UNL     1       4.641  -2.649  -0.098  1.00  0.00     0.042 C 
BRANCH   2   3
ATOM      3  C   UNL     1       4.380  -1.263  -0.682  1.00  0.00     0.118 C 
BRANCH   3   4
ATOM      4  N   UNL     1       2.963  -0.927  -0.746  1.00  0.00    -0.352 N 
ATOM      5  O   UNL     1       1.022   0.060  -0.171  1.00  0.00    -0.269 OA
ATOM      6  C   UNL     1       2.247   0.055  -0.104  1.00  0.00     0.251 C 
ATOM      7  H   UNL     1       2.431  -1.496  -1.348  1.00  0.00     0.163 HD
BRANCH   6   8
ATOM      8  C   UNL     1       2.944   1.084   0.696  1.00  0.00     0.039 A 
ATOM      9  C   UNL     1       4.116   1.679   0.230  1.00  0.00     0.014 A 
ATOM     10  C   UNL     1       2.412   1.463   1.932  1.00  0.00     0.014 A 
ATOM     11  C   UNL     1       4.857   2.494   1.076  1.00  0.00     0.010 A 
ATOM     12  C   UNL     1       3.106   2.371   2.738  1.00  0.00     0.010 A 
ATOM     13  C   UNL     1       4.362   2.853   2.340  1.00  0.00    -0.014 A 
BRANCH  13  14
ATOM     14  C   UNL     1       5.173   3.744   3.211  1.00  0.00     0.031 A 
ATOM     15  C   UNL     1       5.688   3.269   4.543  1.00  0.00     0.074 A 
ATOM     16  C   UNL     1       5.486   4.978   2.770  1.00  0.00     0.049 A 
ATOM     17  N   UNL     1       6.452   3.895   5.405  1.00  0.00    -0.248 NA
ATOM     18  C   UNL     1       5.289   1.920   4.972  1.00  0.00     0.031 C 
ATOM     19  C   UNL     1       5.040   5.556   1.501  1.00  0.00     0.029 A 
ATOM     20  N   UNL     1       6.269   5.959   3.323  1.00  0.00    -0.354 N 
ATOM     21  C   UNL     1       6.604   3.030   6.482  1.00  0.00     0.074 A 
ATOM     22  C   UNL     1       5.827   1.846   6.181  1.00  0.00     0.031 C 
ATOM     23  C   UNL     1       5.601   6.763   1.345  1.00  0.00     0.029 A 
ATOM     24  C   UNL     1       6.390   7.075   2.531  1.00  0.00     0.049 A 
ATOM     25  H   UNL     1       6.703   5.872   4.203  1.00  0.00     0.167 HD
ATOM     26  C   UNL     1       7.333   3.203   7.612  1.00  0.00     0.037 A 
ATOM     27  C   UNL     1       7.053   8.227   2.740  1.00  0.00     0.037 A 
ATOM     28  C   UNL     1       8.117   4.378   7.898  1.00  0.00     0.049 A 
ATOM     29  C   UNL     1       7.828   8.401   4.016  1.00  0.00     0.074 A 
ATOM     30  C   UNL     1       8.923   4.632   8.995  1.00  0.00     0.029 A 
ATOM     31  N   UNL     1       8.186   5.502   7.087  1.00  0.00    -0.354 N 
ATOM     32  N   UNL     1       8.003   7.556   5.002  1.00  0.00    -0.248 NA
ATOM     33  C   UNL     1       8.503   9.692   4.202  1.00  0.00     0.031 C 
ATOM     34  C   UNL     1       9.427   5.932   8.879  1.00  0.00     0.029 A 
ATOM     35  C   UNL     1       8.997   6.462   7.674  1.00  0.00     0.049 A 
ATOM     36  H   UNL     1       7.726   5.604   6.222  1.00  0.00     0.167 HD
ATOM     37  C   UNL     1       8.836   8.197   5.909  1.00  0.00     0.074 A 
ATOM     38  C   UNL     1       9.143   9.496   5.346  1.00  0.00     0.031 C 
ATOM     39  C   UNL     1       9.307   7.747   7.099  1.00  0.00     0.037 A 
BRANCH  26  40
ATOM     40  C   UNL     1       7.296   2.109   8.644  1.00  0.00     0.064 A 
ATOM     41  C   UNL     1       7.888   0.856   8.422  1.00  0.00     0.173 A 
ATOM     42  C   UNL     1       6.692   2.333   9.892  1.00  0.00     0.173 A 
ATOM     43  F   UNL     1       8.471   0.582   7.245  1.00  0.00    -0.203 F 
ATOM     44  C   UNL     1       7.847  -0.140   9.396  1.00  0.00     0.198 A 
ATOM     45  C   UNL     1       6.684   1.348  10.876  1.00  0.00     0.198 A 
ATOM     46  F   UNL     1       6.119   3.515  10.163  1.00  0.00    -0.203 F 
ATOM     47  F   UNL     1       8.371  -1.347   9.140  1.00  0.00    -0.200 F 
ATOM     48  C   UNL     1       7.252   0.109  10.624  1.00  0.00     0.200 A 
ATOM     49  F   UNL     1       6.123   1.597  12.067  1.00  0.00    -0.200 F 
ATOM     50  F   UNL     1       7.220  -0.848  11.562  1.00  0.00    -0.200 F 
ENDBRANCH  26  40
BRANCH  27  51
ATOM     51  C   UNL     1       7.019   9.300   1.712  1.00  0.00     0.064 A 
ATOM     52  C   UNL     1       8.176   9.663   1.010  1.00  0.00     0.173 A 
ATOM     53  C   UNL     1       5.833   9.987   1.414  1.00  0.00     0.173 A 
ATOM     54  F   UNL     1       9.339   9.047   1.271  1.00  0.00    -0.203 F 
ATOM     55  C   UNL     1       8.154  10.689   0.068  1.00  0.00     0.198 A 
ATOM     56  C   UNL     1       5.804  10.989   0.447  1.00  0.00     0.198 A 
ATOM     57  F   UNL     1       4.696   9.673   2.052  1.00  0.00    -0.203 F 
ATOM     58  F   UNL     1       9.287  11.052  -0.550  1.00  0.00    -0.200 F 
ATOM     59  C   UNL     1       6.967  11.347  -0.217  1.00  0.00     0.200 A 
ATOM     60  F   UNL     1       4.651  11.607   0.161  1.00  0.00    -0.200 F 
ATOM     61  F   UNL     1       6.946  12.330  -1.126  1.00  0.00    -0.200 F 
ENDBRANCH  27  51
BRANCH  39  62
ATOM     62  C   UNL     1      10.257   8.643   7.843  1.00  0.00     0.064 A 
ATOM     63  C   UNL     1       9.844   9.851   8.424  1.00  0.00     0.173 A 
ATOM     64  C   UNL     1      11.604   8.275   7.987  1.00  0.00     0.173 A 
ATOM     65  F   UNL     1       8.571  10.258   8.303  1.00  0.00    -0.203 F 
ATOM     66  C   UNL     1      10.751  10.676   9.084  1.00  0.00     0.198 A 
ATOM     67  C   UNL     1      12.500   9.083   8.682  1.00  0.00     0.198 A 
ATOM     68  F   UNL     1      12.053   7.126   7.459  1.00  0.00    -0.203 F 
ATOM     69  F   UNL     1      10.347  11.858   9.572  1.00  0.00    -0.200 F 
ATOM     70  C   UNL     1      12.076  10.289   9.219  1.00  0.00     0.200 A 
ATOM     71  F   UNL     1      13.775   8.698   8.825  1.00  0.00    -0.200 F 
ATOM     72  F   UNL     1      12.946  11.082   9.857  1.00  0.00    -0.200 F 
ENDBRANCH  39  62
ENDBRANCH  13  14
ENDBRANCH   6   8
ENDBRANCH   3   4
ENDBRANCH   2   3
ENDBRANCH   1   2
BRANCH   1  73
ATOM     73  N   UNL     1       4.568  -3.768  -2.277  1.00  0.00    -0.356 N 
ATOM     74  C   UNL     1       5.667  -4.398  -2.776  1.00  0.00     0.223 C 
ATOM     75  H   UNL     1       4.059  -3.228  -2.923  1.00  0.00     0.163 HD
ATOM     76  O   UNL     1       6.073  -4.042  -3.881  1.00  0.00    -0.275 OA
BRANCH  74  77
ATOM     77  C   UNL     1       6.274  -5.560  -1.995  1.00  0.00     0.089 C 
ATOM     78  C   UNL     1       7.735  -5.821  -2.364  1.00  0.00     0.075 C 
ATOM     79  C   UNL     1       5.449  -6.821  -2.259  1.00  0.00     0.075 C 
ATOM     80  C   UNL     1       7.909  -6.402  -3.767  1.00  0.00     0.263 C 
ATOM     81  C   UNL     1       5.628  -7.309  -3.697  1.00  0.00     0.263 C 
ATOM     82  N   UNL     1       7.038  -7.556  -4.022  1.00  0.00    -0.324 N 
ATOM     83  H   UNL     1       7.316  -8.294  -3.374  1.00  0.00     0.348 HD
BRANCH  82  84
ATOM     84  C   UNL     1       7.245  -8.072  -5.399  1.00  0.00     0.284 C 
ATOM     85  C   UNL     1       6.864  -7.151  -6.552  1.00  0.00     0.176 C 
ATOM     86  C   UNL     1       6.441  -9.337  -5.644  1.00  0.00     0.292 C 
ATOM     87  C   UNL     1       5.826  -7.906  -7.321  1.00  0.00     0.240 C 
ATOM     88  N   UNL     1       5.612  -9.126  -6.724  1.00  0.00    -0.245 N 
ATOM     89  O   UNL     1       6.567 -10.364  -4.985  1.00  0.00    -0.267 OA
ATOM     90  O   UNL     1       5.267  -7.426  -8.297  1.00  0.00    -0.274 OA
BRANCH  88  91
ATOM     91  C   UNL     1       4.664 -10.075  -7.177  1.00  0.00     0.052 A 
ATOM     92  C   UNL     1       3.995 -10.909  -6.269  1.00  0.00     0.031 A 
ATOM     93  C   UNL     1       4.365 -10.198  -8.539  1.00  0.00     0.031 A 
ATOM     94  C   UNL     1       3.061 -11.849  -6.715  1.00  0.00     0.049 A 
ATOM     95  C   UNL     1       3.448 -11.152  -8.987  1.00  0.00     0.049 A 
ATOM     96  C   UNL     1       2.805 -11.993  -8.077  1.00  0.00     0.127 A 
BRANCH  96  97
ATOM     97  O   UNL     1       1.885 -12.964  -8.409  1.00  0.00    -0.457 OA
BRANCH  97  98
ATOM     98  C   UNL     1       1.821 -13.362  -9.722  1.00  0.00     0.127 A 
ATOM     99  C   UNL     1       0.643 -13.108 -10.422  1.00  0.00     0.047 A 
ATOM    100  C   UNL     1       2.884 -14.032 -10.332  1.00  0.00     0.047 A 
ATOM    101  C   UNL     1       0.547 -13.478 -11.762  1.00  0.00     0.004 A 
ATOM    102  C   UNL     1       2.788 -14.392 -11.676  1.00  0.00     0.004 A 
ATOM    103  C   UNL     1       1.622 -14.109 -12.391  1.00  0.00     0.000 A 
ENDBRANCH  97  98
ENDBRANCH  96  97
ENDBRANCH  88  91
ENDBRANCH  82  84
ENDBRANCH  74  77
ENDBRANCH   1  73
TORSDOF 14
