REMARK SMILES Cc1cc([C@H](O)C[C@@H](C)CC(=O)NCCCNC(=O)c2ccc(-c3c4nc(c(-c5c(F)c(F)c(F)c(F)c5F)c5ccc([nH]5)c(-c5c(F)c(F)c(F)c(F)c5F)c5nc(c(-c6c(F)c(F)c(F)c(F)c6F)c6ccc3[nH]6)C=C5)C=C4)cc2)sc1Br
REMARK SMILES IDX 14 1 13 2 11 3 12 4 10 6 8 7 9 8 7 9 5 10 4 11 1 12 2 13
REMARK SMILES IDX 3 14 84 15 83 16 85 17 6 18 15 20 16 21 17 22 18 23 19 25
REMARK SMILES IDX 20 26 21 27 82 28 22 29 81 30 23 31 24 32 25 33 75 34 26 35
REMARK SMILES IDX 80 36 74 37 76 38 27 39 79 40 73 41 72 42 28 44 60 45 40 46
REMARK SMILES IDX 59 47 41 48 44 49 58 50 77 51 42 52 43 53 57 55 78 56 45 57
REMARK SMILES IDX 29 58 30 59 38 60 31 61 32 62 36 63 39 64 33 65 34 66 37 67
REMARK SMILES IDX 35 68 61 69 62 70 70 71 63 72 64 73 68 74 71 75 65 76 66 77
REMARK SMILES IDX 69 78 67 79 46 80 47 81 55 82 48 83 49 84 53 85 56 86 50 87
REMARK SMILES IDX 51 88 54 89 52 90
REMARK H PARENT 13 5 6 19 17 24 76 43 44 54
REMARK Flexibility Score: inf
ROOT
ATOM      1  C   UNL     1       0.259   0.055  -8.189  1.00  0.00     0.117 C 
ENDROOT
BRANCH   1   2
ATOM      2  N   UNL     1       1.348   0.712  -7.464  1.00  0.00    -0.356 N 
ATOM      3  C   UNL     1       2.375   0.200  -6.722  1.00  0.00     0.220 C 
ATOM      4  O   UNL     1       3.189   0.985  -6.234  1.00  0.00    -0.275 OA
ATOM      5  H   UNL     1       1.338   1.695  -7.520  1.00  0.00     0.163 HD
BRANCH   3   6
ATOM      6  C   UNL     1       2.498  -1.295  -6.472  1.00  0.00     0.103 C 
BRANCH   6   7
ATOM      7  C   UNL     1       1.874  -1.756  -5.128  1.00  0.00    -0.002 C 
ATOM      8  C   UNL     1       2.171  -3.240  -4.922  1.00  0.00     0.008 C 
BRANCH   7   9
ATOM      9  C   UNL     1       0.368  -1.461  -5.147  1.00  0.00     0.041 C 
BRANCH   9  10
ATOM     10  C   UNL     1      -0.560  -1.958  -4.027  1.00  0.00     0.155 C 
BRANCH  10  11
ATOM     11  C   UNL     1      -2.016  -1.714  -4.400  1.00  0.00     0.035 A 
ATOM     12  C   UNL     1      -5.386  -0.018  -4.093  1.00  0.00     0.046 C 
ATOM     13  C   UNL     1      -4.212  -0.831  -4.535  1.00  0.00    -0.026 A 
ATOM     14  C   UNL     1      -2.972  -0.906  -3.803  1.00  0.00     0.022 A 
ATOM     15  C   UNL     1      -4.114  -1.583  -5.685  1.00  0.00     0.073 A 
ATOM     16  S   UNL     1      -2.702  -2.516  -5.764  1.00  0.00    -0.130 S 
ATOM     17  Br  UNL     1      -5.398  -1.628  -7.057  1.00  0.00    -0.039 Br
ENDBRANCH  10  11
BRANCH  10  18
ATOM     18  O   UNL     1      -0.308  -1.212  -2.838  1.00  0.00    -0.388 OA
ATOM     19  H   UNL     1      -0.482  -0.272  -3.004  1.00  0.00     0.211 HD
ENDBRANCH  10  18
ENDBRANCH   9  10
ENDBRANCH   7   9
ENDBRANCH   6   7
ENDBRANCH   3   6
ENDBRANCH   1   2
BRANCH   1  20
ATOM     20  C   UNL     1      -1.121   0.237  -7.540  1.00  0.00     0.042 C 
BRANCH  20  21
ATOM     21  C   UNL     1      -1.716   1.608  -7.734  1.00  0.00     0.118 C 
BRANCH  21  22
ATOM     22  N   UNL     1      -2.646   1.716  -8.859  1.00  0.00    -0.352 N 
ATOM     23  C   UNL     1      -3.548   2.746  -9.110  1.00  0.00     0.251 C 
ATOM     24  H   UNL     1      -2.632   0.978  -9.511  1.00  0.00     0.163 HD
ATOM     25  O   UNL     1      -4.457   2.614  -9.915  1.00  0.00    -0.269 OA
BRANCH  23  26
ATOM     26  C   UNL     1      -3.385   4.010  -8.360  1.00  0.00     0.039 A 
ATOM     27  C   UNL     1      -4.451   4.792  -7.905  1.00  0.00     0.014 A 
ATOM     28  C   UNL     1      -2.088   4.369  -8.045  1.00  0.00     0.014 A 
ATOM     29  C   UNL     1      -4.174   5.896  -7.091  1.00  0.00     0.010 A 
ATOM     30  C   UNL     1      -1.863   5.193  -6.989  1.00  0.00     0.010 A 
ATOM     31  C   UNL     1      -2.862   6.087  -6.641  1.00  0.00    -0.014 A 
BRANCH  31  32
ATOM     32  C   UNL     1      -2.414   7.227  -5.847  1.00  0.00     0.031 A 
ATOM     33  C   UNL     1      -2.992   7.372  -4.485  1.00  0.00     0.074 A 
ATOM     34  C   UNL     1      -1.285   7.886  -6.210  1.00  0.00     0.049 A 
ATOM     35  N   UNL     1      -3.539   8.417  -3.955  1.00  0.00    -0.248 NA
ATOM     36  C   UNL     1      -2.994   6.190  -3.609  1.00  0.00     0.031 C 
ATOM     37  C   UNL     1      -0.399   7.624  -7.362  1.00  0.00     0.029 A 
ATOM     38  N   UNL     1      -0.591   8.833  -5.527  1.00  0.00    -0.354 N 
ATOM     39  C   UNL     1      -3.822   8.081  -2.632  1.00  0.00     0.074 A 
ATOM     40  C   UNL     1      -3.588   6.665  -2.513  1.00  0.00     0.031 C 
ATOM     41  C   UNL     1       0.808   8.186  -7.148  1.00  0.00     0.029 A 
ATOM     42  C   UNL     1       0.712   9.018  -5.969  1.00  0.00     0.049 A 
ATOM     43  H   UNL     1      -0.979   9.344  -4.780  1.00  0.00     0.167 HD
ATOM     44  C   UNL     1      -4.039   9.030  -1.679  1.00  0.00     0.037 A 
ATOM     45  C   UNL     1       1.663   9.790  -5.397  1.00  0.00     0.037 A 
ATOM     46  C   UNL     1      -4.324  10.313  -2.265  1.00  0.00     0.049 A 
ATOM     47  C   UNL     1       0.962  10.746  -4.508  1.00  0.00     0.074 A 
ATOM     48  C   UNL     1      -5.322  10.806  -3.082  1.00  0.00     0.029 A 
ATOM     49  N   UNL     1      -3.313  11.240  -2.324  1.00  0.00    -0.354 N 
ATOM     50  N   UNL     1       0.152  11.678  -4.933  1.00  0.00    -0.248 NA
ATOM     51  C   UNL     1       0.817  10.382  -3.108  1.00  0.00     0.031 C 
ATOM     52  C   UNL     1      -4.667  11.724  -3.955  1.00  0.00     0.029 A 
ATOM     53  C   UNL     1      -3.320  11.766  -3.590  1.00  0.00     0.049 A 
ATOM     54  H   UNL     1      -2.699  11.482  -1.593  1.00  0.00     0.167 HD
ATOM     55  C   UNL     1      -0.861  11.727  -3.987  1.00  0.00     0.074 A 
ATOM     56  C   UNL     1      -0.344  10.986  -2.839  1.00  0.00     0.031 C 
ATOM     57  C   UNL     1      -2.126  12.117  -4.326  1.00  0.00     0.037 A 
BRANCH  44  58
ATOM     58  C   UNL     1      -3.700   8.874  -0.218  1.00  0.00     0.064 A 
ATOM     59  C   UNL     1      -4.169   9.824   0.713  1.00  0.00     0.173 A 
ATOM     60  C   UNL     1      -2.711   7.990   0.264  1.00  0.00     0.173 A 
ATOM     61  F   UNL     1      -5.088  10.734   0.356  1.00  0.00    -0.203 F 
ATOM     62  C   UNL     1      -3.646   9.913   2.006  1.00  0.00     0.198 A 
ATOM     63  C   UNL     1      -2.233   8.045   1.573  1.00  0.00     0.198 A 
ATOM     64  F   UNL     1      -2.091   7.116  -0.539  1.00  0.00    -0.203 F 
ATOM     65  F   UNL     1      -4.040  10.906   2.816  1.00  0.00    -0.200 F 
ATOM     66  C   UNL     1      -2.678   9.024   2.435  1.00  0.00     0.200 A 
ATOM     67  F   UNL     1      -1.281   7.186   1.963  1.00  0.00    -0.200 F 
ATOM     68  F   UNL     1      -2.138   9.140   3.655  1.00  0.00    -0.200 F 
ENDBRANCH  44  58
BRANCH  45  69
ATOM     69  C   UNL     1       3.124   9.567  -5.375  1.00  0.00     0.064 A 
ATOM     70  C   UNL     1       4.016  10.616  -5.117  1.00  0.00     0.173 A 
ATOM     71  C   UNL     1       3.664   8.264  -5.364  1.00  0.00     0.173 A 
ATOM     72  F   UNL     1       3.572  11.880  -5.069  1.00  0.00    -0.203 F 
ATOM     73  C   UNL     1       5.367  10.377  -4.844  1.00  0.00     0.198 A 
ATOM     74  C   UNL     1       5.013   8.027  -5.099  1.00  0.00     0.198 A 
ATOM     75  F   UNL     1       2.873   7.192  -5.523  1.00  0.00    -0.203 F 
ATOM     76  F   UNL     1       6.180  11.400  -4.546  1.00  0.00    -0.200 F 
ATOM     77  C   UNL     1       5.862   9.082  -4.826  1.00  0.00     0.200 A 
ATOM     78  F   UNL     1       5.471   6.768  -5.051  1.00  0.00    -0.200 F 
ATOM     79  F   UNL     1       7.143   8.850  -4.509  1.00  0.00    -0.200 F 
ENDBRANCH  45  69
BRANCH  57  80
ATOM     80  C   UNL     1      -2.331  12.717  -5.692  1.00  0.00     0.064 A 
ATOM     81  C   UNL     1      -2.182  11.994  -6.889  1.00  0.00     0.173 A 
ATOM     82  C   UNL     1      -2.860  14.009  -5.792  1.00  0.00     0.173 A 
ATOM     83  F   UNL     1      -1.788  10.719  -6.877  1.00  0.00    -0.203 F 
ATOM     84  C   UNL     1      -2.506  12.549  -8.126  1.00  0.00     0.198 A 
ATOM     85  C   UNL     1      -3.218  14.552  -7.025  1.00  0.00     0.198 A 
ATOM     86  F   UNL     1      -3.087  14.728  -4.681  1.00  0.00    -0.203 F 
ATOM     87  F   UNL     1      -2.348  11.831  -9.248  1.00  0.00    -0.200 F 
ATOM     88  C   UNL     1      -3.033  13.826  -8.191  1.00  0.00     0.200 A 
ATOM     89  F   UNL     1      -3.776  15.768  -7.080  1.00  0.00    -0.200 F 
ATOM     90  F   UNL     1      -3.393  14.345  -9.374  1.00  0.00    -0.200 F 
ENDBRANCH  57  80
ENDBRANCH  31  32
ENDBRANCH  23  26
ENDBRANCH  21  22
ENDBRANCH  20  21
ENDBRANCH   1  20
TORSDOF 15
