REMARK SMILES [NH3+][C@H](Cc1cc(Br)c(O)c(Br)c1)C(=O)NCCCNC(=O)c1ccc(-c2c3nc(c(-c4c(F)c(F)c(F)c(F)c4F)c4ccc([nH]4)c(-c4c(F)c(F)c(F)c(F)c4F)c4nc(c(-c5c(F)c(F)c(F)c(F)c5F)c5ccc2[nH]5)C=C4)C=C3)cc1
REMARK SMILES IDX 16 1 15 2 13 3 14 4 2 6 1 7 3 11 4 12 5 13 12 14 6 15 10 16
REMARK SMILES IDX 7 17 8 18 11 19 9 20 17 22 18 23 19 24 20 25 21 27 22 28
REMARK SMILES IDX 23 29 84 30 24 31 83 32 25 33 26 34 27 35 77 36 28 37 82 38
REMARK SMILES IDX 76 39 78 40 29 41 81 42 75 43 74 44 30 46 62 47 42 48 61 49
REMARK SMILES IDX 43 50 46 51 60 52 79 53 44 54 45 55 59 57 80 58 47 59 31 60
REMARK SMILES IDX 32 61 40 62 33 63 34 64 38 65 41 66 35 67 36 68 39 69 37 70
REMARK SMILES IDX 63 71 64 72 72 73 65 74 66 75 70 76 73 77 67 78 68 79 71 80
REMARK SMILES IDX 69 81 48 82 49 83 57 84 50 85 51 86 55 87 58 88 52 89 53 90
REMARK SMILES IDX 56 91 54 92
REMARK H PARENT 15 5 1 8 1 9 1 10 9 21 19 26 78 45 46 56
REMARK Flexibility Score: inf
ROOT
ATOM      1  C   UNL     1      -2.112  -1.592  -1.041  1.00  0.00     0.118 C 
ENDROOT
BRANCH   1   2
ATOM      2  N   UNL     1      -1.915  -0.192  -1.352  1.00  0.00    -0.351 N 
ATOM      3  C   UNL     1      -0.821   0.614  -1.303  1.00  0.00     0.278 C 
ATOM      4  O   UNL     1      -1.050   1.831  -1.339  1.00  0.00    -0.268 OA
ATOM      5  H   UNL     1      -2.731   0.266  -1.658  1.00  0.00     0.163 HD
BRANCH   3   6
ATOM      6  C   UNL     1       0.640   0.107  -1.218  1.00  0.00     0.275 C 
BRANCH   6   7
ATOM      7  N   UNL     1       0.980  -0.791  -2.334  1.00  0.00    -0.347 N 
ATOM      8  H   UNL     1       0.556  -0.442  -3.193  1.00  0.00     0.345 HD
ATOM      9  H   UNL     1       0.627  -1.727  -2.136  1.00  0.00     0.345 HD
ATOM     10  H   UNL     1       1.993  -0.826  -2.445  1.00  0.00     0.345 HD
ENDBRANCH   6   7
BRANCH   6  11
ATOM     11  C   UNL     1       1.183  -0.232   0.194  1.00  0.00     0.111 C 
BRANCH  11  12
ATOM     12  C   UNL     1       0.903  -1.547   0.892  1.00  0.00    -0.039 A 
ATOM     13  C   UNL     1       0.635  -1.534   2.276  1.00  0.00     0.023 A 
ATOM     14  C   UNL     1       0.942  -2.791   0.248  1.00  0.00     0.023 A 
ATOM     15  C   UNL     1       0.277  -2.707   2.952  1.00  0.00     0.061 A 
ATOM     16  C   UNL     1       0.553  -3.962   0.917  1.00  0.00     0.061 A 
ATOM     17  Br  UNL     1      -0.160  -2.610   4.795  1.00  0.00    -0.047 Br
ATOM     18  C   UNL     1       0.190  -3.918   2.264  1.00  0.00     0.143 A 
ATOM     19  Br  UNL     1       0.411  -5.563  -0.092  1.00  0.00    -0.047 Br
BRANCH  18  20
ATOM     20  O   UNL     1      -0.291  -5.043   2.877  1.00  0.00    -0.506 OA
ATOM     21  H   UNL     1      -0.535  -5.016   3.782  1.00  0.00     0.293 HD
ENDBRANCH  18  20
ENDBRANCH  11  12
ENDBRANCH   6  11
ENDBRANCH   3   6
ENDBRANCH   1   2
BRANCH   1  22
ATOM     22  C   UNL     1      -2.408  -1.764   0.443  1.00  0.00     0.042 C 
BRANCH  22  23
ATOM     23  C   UNL     1      -3.759  -2.358   0.792  1.00  0.00     0.118 C 
BRANCH  23  24
ATOM     24  N   UNL     1      -3.946  -3.710   0.288  1.00  0.00    -0.352 N 
ATOM     25  C   UNL     1      -4.253  -4.892   0.913  1.00  0.00     0.251 C 
ATOM     26  H   UNL     1      -3.830  -3.792  -0.686  1.00  0.00     0.163 HD
ATOM     27  O   UNL     1      -4.293  -5.918   0.229  1.00  0.00    -0.269 OA
BRANCH  25  28
ATOM     28  C   UNL     1      -4.518  -4.990   2.371  1.00  0.00     0.039 A 
ATOM     29  C   UNL     1      -4.205  -6.190   3.025  1.00  0.00     0.014 A 
ATOM     30  C   UNL     1      -5.112  -3.962   3.104  1.00  0.00     0.014 A 
ATOM     31  C   UNL     1      -4.435  -6.333   4.397  1.00  0.00     0.010 A 
ATOM     32  C   UNL     1      -5.231  -4.059   4.489  1.00  0.00     0.010 A 
ATOM     33  C   UNL     1      -4.915  -5.253   5.152  1.00  0.00    -0.014 A 
BRANCH  33  34
ATOM     34  C   UNL     1      -5.130  -5.352   6.620  1.00  0.00     0.031 A 
ATOM     35  C   UNL     1      -6.505  -5.133   7.197  1.00  0.00     0.074 A 
ATOM     36  C   UNL     1      -4.082  -5.559   7.440  1.00  0.00     0.049 A 
ATOM     37  N   UNL     1      -6.879  -5.056   8.450  1.00  0.00    -0.248 NA
ATOM     38  C   UNL     1      -7.603  -4.940   6.236  1.00  0.00     0.031 C 
ATOM     39  C   UNL     1      -2.696  -5.748   7.011  1.00  0.00     0.029 A 
ATOM     40  N   UNL     1      -4.017  -5.632   8.810  1.00  0.00    -0.354 N 
ATOM     41  C   UNL     1      -8.241  -4.782   8.423  1.00  0.00     0.074 A 
ATOM     42  C   UNL     1      -8.618  -4.646   7.034  1.00  0.00     0.031 C 
ATOM     43  C   UNL     1      -1.921  -5.933   8.092  1.00  0.00     0.029 A 
ATOM     44  C   UNL     1      -2.746  -5.833   9.291  1.00  0.00     0.049 A 
ATOM     45  H   UNL     1      -4.806  -5.548   9.392  1.00  0.00     0.167 HD
ATOM     46  C   UNL     1      -9.106  -4.678   9.461  1.00  0.00     0.037 A 
ATOM     47  C   UNL     1      -2.295  -5.915  10.558  1.00  0.00     0.037 A 
ATOM     48  C   UNL     1      -8.733  -4.849  10.841  1.00  0.00     0.049 A 
ATOM     49  C   UNL     1      -3.275  -5.791  11.694  1.00  0.00     0.074 A 
ATOM     50  C   UNL     1      -9.542  -4.826  11.964  1.00  0.00     0.029 A 
ATOM     51  N   UNL     1      -7.439  -5.076  11.286  1.00  0.00    -0.354 N 
ATOM     52  N   UNL     1      -4.570  -5.592  11.654  1.00  0.00    -0.248 NA
ATOM     53  C   UNL     1      -2.729  -5.911  13.054  1.00  0.00     0.031 C 
ATOM     54  C   UNL     1      -8.731  -4.987  13.091  1.00  0.00     0.029 A 
ATOM     55  C   UNL     1      -7.424  -5.172  12.669  1.00  0.00     0.049 A 
ATOM     56  H   UNL     1      -6.648  -5.158  10.706  1.00  0.00     0.167 HD
ATOM     57  C   UNL     1      -4.998  -5.594  12.974  1.00  0.00     0.074 A 
ATOM     58  C   UNL     1      -3.827  -5.830  13.792  1.00  0.00     0.031 C 
ATOM     59  C   UNL     1      -6.249  -5.417  13.466  1.00  0.00     0.037 A 
BRANCH  46  60
ATOM     60  C   UNL     1     -10.543  -4.366   9.146  1.00  0.00     0.064 A 
ATOM     61  C   UNL     1     -11.372  -5.289   8.489  1.00  0.00     0.173 A 
ATOM     62  C   UNL     1     -11.109  -3.143   9.535  1.00  0.00     0.173 A 
ATOM     63  F   UNL     1     -10.880  -6.470   8.085  1.00  0.00    -0.203 F 
ATOM     64  C   UNL     1     -12.701  -4.985   8.203  1.00  0.00     0.198 A 
ATOM     65  C   UNL     1     -12.447  -2.856   9.279  1.00  0.00     0.198 A 
ATOM     66  F   UNL     1     -10.366  -2.225  10.172  1.00  0.00    -0.203 F 
ATOM     67  F   UNL     1     -13.455  -5.861   7.524  1.00  0.00    -0.200 F 
ATOM     68  C   UNL     1     -13.239  -3.773   8.605  1.00  0.00     0.200 A 
ATOM     69  F   UNL     1     -12.970  -1.690   9.682  1.00  0.00    -0.200 F 
ATOM     70  F   UNL     1     -14.520  -3.485   8.337  1.00  0.00    -0.200 F 
ENDBRANCH  46  60
BRANCH  47  71
ATOM     71  C   UNL     1      -0.849  -6.146  10.819  1.00  0.00     0.064 A 
ATOM     72  C   UNL     1      -0.402  -7.357  11.367  1.00  0.00     0.173 A 
ATOM     73  C   UNL     1       0.113  -5.167  10.532  1.00  0.00     0.173 A 
ATOM     74  F   UNL     1      -1.286  -8.317  11.678  1.00  0.00    -0.203 F 
ATOM     75  C   UNL     1       0.947  -7.570  11.640  1.00  0.00     0.198 A 
ATOM     76  C   UNL     1       1.466  -5.394  10.776  1.00  0.00     0.198 A 
ATOM     77  F   UNL     1      -0.260  -3.994   9.999  1.00  0.00    -0.203 F 
ATOM     78  F   UNL     1       1.340  -8.717  12.211  1.00  0.00    -0.200 F 
ATOM     79  C   UNL     1       1.881  -6.591  11.339  1.00  0.00     0.200 A 
ATOM     80  F   UNL     1       2.367  -4.451  10.467  1.00  0.00    -0.200 F 
ATOM     81  F   UNL     1       3.180  -6.798  11.597  1.00  0.00    -0.200 F 
ENDBRANCH  47  71
BRANCH  59  82
ATOM     82  C   UNL     1      -6.425  -5.513  14.955  1.00  0.00     0.064 A 
ATOM     83  C   UNL     1      -5.941  -4.522  15.821  1.00  0.00     0.173 A 
ATOM     84  C   UNL     1      -7.123  -6.593  15.517  1.00  0.00     0.173 A 
ATOM     85  F   UNL     1      -5.255  -3.476  15.335  1.00  0.00    -0.203 F 
ATOM     86  C   UNL     1      -6.125  -4.623  17.198  1.00  0.00     0.198 A 
ATOM     87  C   UNL     1      -7.334  -6.674  16.890  1.00  0.00     0.198 A 
ATOM     88  F   UNL     1      -7.613  -7.564  14.732  1.00  0.00    -0.203 F 
ATOM     89  F   UNL     1      -5.609  -3.691  18.011  1.00  0.00    -0.200 F 
ATOM     90  C   UNL     1      -6.828  -5.694  17.730  1.00  0.00     0.200 A 
ATOM     91  F   UNL     1      -8.028  -7.700  17.401  1.00  0.00    -0.200 F 
ATOM     92  F   UNL     1      -7.011  -5.785  19.054  1.00  0.00    -0.200 F 
ENDBRANCH  59  82
ENDBRANCH  33  34
ENDBRANCH  25  28
ENDBRANCH  23  24
ENDBRANCH  22  23
ENDBRANCH   1  22
TORSDOF 14
