REMARK SMILES CC(C)[C@@](O)(C(=O)NCCCNC(=O)c1ccc(-c2c3nc(c(-c4c(F)c(F)c(F)c(F)c4F)c4ccc([nH]4)c(-c4c(F)c(F)c(F)c(F)c4F)c4nc(c(-c5c(F)c(F)c(F)c(F)c5F)c5ccc2[nH]5)C=C4)C=C3)cc1)C1CCCCCC1
REMARK SMILES IDX 9 1 8 2 6 3 7 4 4 6 2 7 1 8 3 9 5 10 78 12 79 13 80 14 81 15
REMARK SMILES IDX 84 17 83 18 82 19 10 21 11 22 12 23 13 24 14 26 15 27 16 28
REMARK SMILES IDX 77 29 17 30 76 31 18 32 19 33 20 34 70 35 21 36 75 37 69 38
REMARK SMILES IDX 71 39 22 40 74 41 68 42 67 43 23 45 55 46 35 47 54 48 36 49
REMARK SMILES IDX 39 50 53 51 72 52 37 53 38 54 52 56 73 57 40 58 24 59 25 60
REMARK SMILES IDX 33 61 26 62 27 63 31 64 34 65 28 66 29 67 32 68 30 69 56 70
REMARK SMILES IDX 57 71 65 72 58 73 59 74 63 75 66 76 60 77 61 78 64 79 62 80
REMARK SMILES IDX 41 81 42 82 50 83 43 84 44 85 48 86 51 87 45 88 46 89 49 90
REMARK SMILES IDX 47 91
REMARK H PARENT 8 5 5 11 12 25 71 44 39 55
REMARK Flexibility Score: 90.00
ROOT
ATOM      1  C   UNL     1      -0.478  -2.688   3.071  1.00  0.00     0.117 C 
ENDROOT
BRANCH   1   2
ATOM      2  N   UNL     1      -1.149  -1.485   3.522  1.00  0.00    -0.354 N 
ATOM      3  C   UNL     1      -1.220  -0.240   2.975  1.00  0.00     0.252 C 
ATOM      4  O   UNL     1      -1.564   0.654   3.753  1.00  0.00    -0.272 OA
ATOM      5  H   UNL     1      -1.639  -1.585   4.370  1.00  0.00     0.163 HD
BRANCH   3   6
ATOM      6  C   UNL     1      -0.811   0.046   1.491  1.00  0.00     0.148 C 
BRANCH   6   7
ATOM      7  C   UNL     1       0.752   0.074   1.370  1.00  0.00     0.025 C 
ATOM      8  C   UNL     1       1.249   0.287  -0.067  1.00  0.00     0.011 C 
ATOM      9  C   UNL     1       1.495   1.018   2.321  1.00  0.00     0.011 C 
ENDBRANCH   6   7
BRANCH   6  10
ATOM     10  O   UNL     1      -1.233  -1.087   0.689  1.00  0.00    -0.379 OA
ATOM     11  H   UNL     1      -0.780  -1.888   0.997  1.00  0.00     0.212 HD
ENDBRANCH   6  10
BRANCH   6  12
ATOM     12  C   UNL     1      -1.597   1.303   0.920  1.00  0.00     0.031 C 
BRANCH  12  13
ATOM     13  C   UNL     1      -3.139   1.085   0.871  1.00  0.00     0.007 C 
BRANCH  13  14
ATOM     14  C   UNL     1      -4.003   1.617   2.014  1.00  0.00     0.000 C 
BRANCH  14  15
ATOM     15  C   UNL     1      -4.349   3.096   1.902  1.00  0.00     0.000 CG0
ATOM     16  G   UNL     1      -3.177   4.039   2.127  1.00  0.00     0.000 G0
ENDBRANCH  14  15
ENDBRANCH  13  14
ENDBRANCH  12  13
BRANCH  12  17
ATOM     17  C   UNL     1      -1.138   2.667   1.461  1.00  0.00     0.007 C 
BRANCH  17  18
ATOM     18  C   UNL     1      -2.034   3.860   1.135  1.00  0.00     0.000 C 
BRANCH  18  19
ATOM     19  C   UNL     1      -3.177   4.039   2.127  1.00  0.00     0.000 CG0
ATOM     20  G   UNL     1      -4.349   3.096   1.902  1.00  0.00     0.000 G0
ENDBRANCH  18  19
ENDBRANCH  17  18
ENDBRANCH  12  17
ENDBRANCH   6  12
ENDBRANCH   3   6
ENDBRANCH   1   2
BRANCH   1  21
ATOM     21  C   UNL     1       0.850  -2.870   3.802  1.00  0.00     0.042 C 
BRANCH  21  22
ATOM     22  C   UNL     1       0.710  -3.007   5.314  1.00  0.00     0.118 C 
BRANCH  22  23
ATOM     23  N   UNL     1      -0.008  -4.213   5.701  1.00  0.00    -0.352 N 
ATOM     24  C   UNL     1       0.394  -5.251   6.501  1.00  0.00     0.251 C 
ATOM     25  H   UNL     1      -0.918  -4.295   5.334  1.00  0.00     0.163 HD
ATOM     26  O   UNL     1      -0.281  -6.278   6.557  1.00  0.00    -0.269 OA
BRANCH  24  27
ATOM     27  C   UNL     1       1.643  -5.152   7.282  1.00  0.00     0.039 A 
ATOM     28  C   UNL     1       2.498  -6.257   7.327  1.00  0.00     0.014 A 
ATOM     29  C   UNL     1       1.964  -3.989   7.989  1.00  0.00     0.014 A 
ATOM     30  C   UNL     1       3.700  -6.177   8.032  1.00  0.00     0.010 A 
ATOM     31  C   UNL     1       3.196  -3.884   8.629  1.00  0.00     0.010 A 
ATOM     32  C   UNL     1       4.073  -4.979   8.663  1.00  0.00    -0.014 A 
BRANCH  32  33
ATOM     33  C   UNL     1       5.375  -4.855   9.365  1.00  0.00     0.031 A 
ATOM     34  C   UNL     1       5.414  -4.624  10.850  1.00  0.00     0.074 A 
ATOM     35  C   UNL     1       6.519  -4.889   8.656  1.00  0.00     0.049 A 
ATOM     36  N   UNL     1       6.446  -4.424  11.630  1.00  0.00    -0.248 NA
ATOM     37  C   UNL     1       4.119  -4.587  11.547  1.00  0.00     0.031 C 
ATOM     38  C   UNL     1       6.609  -5.061   7.205  1.00  0.00     0.029 A 
ATOM     39  N   UNL     1       7.826  -4.769   9.058  1.00  0.00    -0.354 N 
ATOM     40  C   UNL     1       5.925  -4.223  12.902  1.00  0.00     0.074 A 
ATOM     41  C   UNL     1       4.484  -4.274  12.781  1.00  0.00     0.031 C 
ATOM     42  C   UNL     1       7.901  -5.057   6.842  1.00  0.00     0.029 A 
ATOM     43  C   UNL     1       8.728  -4.844   8.026  1.00  0.00     0.049 A 
ATOM     44  H   UNL     1       8.091  -4.641   9.998  1.00  0.00     0.167 HD
ATOM     45  C   UNL     1       6.590  -4.037  14.067  1.00  0.00     0.037 A 
ATOM     46  C   UNL     1      10.071  -4.744   8.033  1.00  0.00     0.037 A 
ATOM     47  C   UNL     1       8.024  -4.012  14.186  1.00  0.00     0.049 A 
ATOM     48  C   UNL     1      10.784  -4.532   9.340  1.00  0.00     0.074 A 
ATOM     49  C   UNL     1       8.793  -3.890  15.330  1.00  0.00     0.029 A 
ATOM     50  N   UNL     1       8.906  -4.109  13.120  1.00  0.00    -0.354 N 
ATOM     51  N   UNL     1      10.285  -4.412  10.546  1.00  0.00    -0.248 NA
ATOM     52  C   UNL     1      12.251  -4.449   9.288  1.00  0.00     0.031 C 
ATOM     53  C   UNL     1      10.140  -3.867  14.952  1.00  0.00     0.029 A 
ATOM     54  C   UNL     1      10.212  -4.027  13.577  1.00  0.00     0.049 A 
ATOM     55  H   UNL     1       8.643  -4.220  12.178  1.00  0.00     0.167 HD
ATOM     56  C   UNL     1      11.371  -4.267  11.397  1.00  0.00     0.074 A 
ATOM     57  C   UNL     1      12.559  -4.329  10.571  1.00  0.00     0.031 C 
ATOM     58  C   UNL     1      11.384  -4.098  12.742  1.00  0.00     0.037 A 
BRANCH  45  59
ATOM     59  C   UNL     1       5.770  -3.846  15.311  1.00  0.00     0.064 A 
ATOM     60  C   UNL     1       5.028  -4.897  15.872  1.00  0.00     0.173 A 
ATOM     61  C   UNL     1       5.752  -2.607  15.969  1.00  0.00     0.173 A 
ATOM     62  F   UNL     1       5.003  -6.098  15.276  1.00  0.00    -0.203 F 
ATOM     63  C   UNL     1       4.275  -4.706  17.028  1.00  0.00     0.198 A 
ATOM     64  C   UNL     1       5.022  -2.429  17.142  1.00  0.00     0.198 A 
ATOM     65  F   UNL     1       6.448  -1.570  15.480  1.00  0.00    -0.203 F 
ATOM     66  F   UNL     1       3.535  -5.711  17.516  1.00  0.00    -0.200 F 
ATOM     67  C   UNL     1       4.279  -3.475  17.666  1.00  0.00     0.200 A 
ATOM     68  F   UNL     1       5.038  -1.242  17.765  1.00  0.00    -0.200 F 
ATOM     69  F   UNL     1       3.559  -3.295  18.782  1.00  0.00    -0.200 F 
ENDBRANCH  45  59
BRANCH  46  70
ATOM     70  C   UNL     1      10.830  -4.869   6.762  1.00  0.00     0.064 A 
ATOM     71  C   UNL     1      11.632  -5.991   6.511  1.00  0.00     0.173 A 
ATOM     72  C   UNL     1      10.770  -3.876   5.774  1.00  0.00     0.173 A 
ATOM     73  F   UNL     1      11.738  -6.957   7.435  1.00  0.00    -0.203 F 
ATOM     74  C   UNL     1      12.362  -6.105   5.330  1.00  0.00     0.198 A 
ATOM     75  C   UNL     1      11.477  -4.004   4.580  1.00  0.00     0.198 A 
ATOM     76  F   UNL     1      10.012  -2.785   5.962  1.00  0.00    -0.203 F 
ATOM     77  F   UNL     1      13.156  -7.167   5.136  1.00  0.00    -0.200 F 
ATOM     78  C   UNL     1      12.279  -5.115   4.363  1.00  0.00     0.200 A 
ATOM     79  F   UNL     1      11.383  -3.053   3.642  1.00  0.00    -0.200 F 
ATOM     80  F   UNL     1      12.977  -5.228   3.224  1.00  0.00    -0.200 F 
ENDBRANCH  46  70
BRANCH  58  81
ATOM     81  C   UNL     1      12.725  -4.004  13.411  1.00  0.00     0.064 A 
ATOM     82  C   UNL     1      13.539  -2.870  13.273  1.00  0.00     0.173 A 
ATOM     83  C   UNL     1      13.183  -5.047  14.231  1.00  0.00     0.173 A 
ATOM     84  F   UNL     1      13.153  -1.853  12.488  1.00  0.00    -0.203 F 
ATOM     85  C   UNL     1      14.773  -2.794  13.912  1.00  0.00     0.198 A 
ATOM     86  C   UNL     1      14.404  -4.955  14.892  1.00  0.00     0.198 A 
ATOM     87  F   UNL     1      12.439  -6.150  14.400  1.00  0.00    -0.203 F 
ATOM     88  F   UNL     1      15.556  -1.722  13.729  1.00  0.00    -0.200 F 
ATOM     89  C   UNL     1      15.201  -3.833  14.726  1.00  0.00     0.200 A 
ATOM     90  F   UNL     1      14.809  -5.953  15.689  1.00  0.00    -0.200 F 
ATOM     91  F   UNL     1      16.387  -3.755  15.346  1.00  0.00    -0.200 F 
ENDBRANCH  58  81
ENDBRANCH  32  33
ENDBRANCH  24  27
ENDBRANCH  22  23
ENDBRANCH  21  22
ENDBRANCH   1  21
TORSDOF 13
