REMARK SMILES C[C@@]1(O)CC(NCCCNC(=O)c2ccc(-c3c4nc(c(-c5c(F)c(F)c(F)c(F)c5F)c5ccc([nH]5)c(-c5c(F)c(F)c(F)c(F)c5F)c5nc(c(-c6c(F)c(F)c(F)c(F)c6F)c6ccc3[nH]6)C=C5)C=C4)cc2)=C(C(=O)Nc2ccccc2)[C@H](c2ccccc2C(=O)[O-])[C@@H]1C(=O)Nc1ccccc1
REMARK SMILES IDX 8 1 7 2 6 3 5 5 1 6 2 7 4 8 96 9 86 10 76 11 3 12 97 14
REMARK SMILES IDX 98 15 99 16 100 18 101 19 105 20 102 21 104 22 103 23 87 24
REMARK SMILES IDX 88 25 92 26 89 27 91 28 90 29 93 30 94 31 95 32 77 33 78 34
REMARK SMILES IDX 79 35 80 37 81 38 85 39 82 40 84 41 83 42 9 43 10 44 11 45
REMARK SMILES IDX 12 47 13 48 14 49 75 50 15 51 74 52 16 53 17 54 18 55 68 56
REMARK SMILES IDX 19 57 73 58 67 59 69 60 20 61 72 62 66 63 65 64 21 66 53 67
REMARK SMILES IDX 33 68 52 69 34 70 37 71 51 72 70 73 35 74 36 75 50 77 71 78
REMARK SMILES IDX 38 79 22 80 23 81 31 82 24 83 25 84 29 85 32 86 26 87 27 88
REMARK SMILES IDX 30 89 28 90 54 91 55 92 63 93 56 94 57 95 61 96 64 97 58 98
REMARK SMILES IDX 59 99 62 100 60 101 39 102 40 103 48 104 41 105 42 106
REMARK SMILES IDX 46 107 49 108 43 109 44 110 47 111 45 112
REMARK H PARENT 6 4 3 13 99 17 79 36 10 46 69 65 37 76
REMARK Flexibility Score: inf
ROOT
ATOM      1  C   UNL     1       3.902   5.032  -0.440  1.00  0.00     0.042 C 
ENDROOT
BRANCH   1   2
ATOM      2  C   UNL     1       2.969   4.653   0.695  1.00  0.00     0.114 C 
BRANCH   2   3
ATOM      3  N   UNL     1       1.607   4.455   0.204  1.00  0.00    -0.388 N 
ATOM      4  H   UNL     1       1.250   5.136  -0.411  1.00  0.00     0.160 HD
BRANCH   3   5
ATOM      5  C   UNL     1       0.765   3.391   0.526  1.00  0.00     0.023 C 
ATOM      6  C   UNL     1       1.271  -0.124  -0.161  1.00  0.00     0.043 C 
ATOM      7  C   UNL     1       0.719   0.802   0.945  1.00  0.00     0.080 C 
ATOM      8  C   UNL     1       1.487   2.132   0.929  1.00  0.00     0.089 C 
ATOM      9  C   UNL     1      -0.827   0.938   0.770  1.00  0.00     0.123 C 
ATOM     10  C   UNL     1      -1.418   2.330   1.199  1.00  0.00     0.073 C 
ATOM     11  C   UNL     1      -0.592   3.440   0.521  1.00  0.00     0.045 C 
BRANCH   7  12
ATOM     12  O   UNL     1       1.112   0.198   2.184  1.00  0.00    -0.389 OA
ATOM     13  H   UNL     1       2.079   0.145   2.226  1.00  0.00     0.211 HD
ENDBRANCH   7  12
BRANCH   9  14
ATOM     14  C   UNL     1      -1.578  -0.319   1.246  1.00  0.00     0.231 C 
ATOM     15  O   UNL     1      -1.012  -1.275   1.782  1.00  0.00    -0.274 OA
ATOM     16  N   UNL     1      -2.940  -0.353   1.237  1.00  0.00    -0.326 N 
ATOM     17  H   UNL     1      -3.355  -0.477   2.121  1.00  0.00     0.169 HD
BRANCH  16  18
ATOM     18  C   UNL     1      -3.844  -0.241   0.176  1.00  0.00     0.041 A 
ATOM     19  C   UNL     1      -5.204  -0.306   0.509  1.00  0.00     0.026 A 
ATOM     20  C   UNL     1      -3.460  -0.244  -1.162  1.00  0.00     0.026 A 
ATOM     21  C   UNL     1      -6.174  -0.384  -0.488  1.00  0.00     0.002 A 
ATOM     22  C   UNL     1      -4.435  -0.335  -2.161  1.00  0.00     0.002 A 
ATOM     23  C   UNL     1      -5.788  -0.408  -1.825  1.00  0.00     0.000 A 
ENDBRANCH  16  18
ENDBRANCH   9  14
BRANCH  10  24
ATOM     24  C   UNL     1      -1.904   2.744   2.643  1.00  0.00    -0.030 A 
ATOM     25  C   UNL     1      -2.197   4.117   2.865  1.00  0.00     0.005 A 
ATOM     26  C   UNL     1      -2.475   1.879   3.599  1.00  0.00     0.001 A 
ATOM     27  C   UNL     1      -3.207   4.549   3.738  1.00  0.00     0.000 A 
ATOM     28  C   UNL     1      -3.518   2.304   4.452  1.00  0.00     0.010 A 
ATOM     29  C   UNL     1      -3.924   3.628   4.478  1.00  0.00     0.001 A 
BRANCH  26  30
ATOM     30  C   UNL     1      -2.006   0.527   3.920  1.00  0.00     0.072 C 
ATOM     31  O   UNL     1      -2.720  -0.433   4.159  1.00  0.00    -0.545 OA
ATOM     32  O   UNL     1      -0.668   0.481   3.965  1.00  0.00    -0.545 OA
ENDBRANCH  26  30
ENDBRANCH  10  24
BRANCH  11  33
ATOM     33  C   UNL     1      -1.216   4.676  -0.107  1.00  0.00     0.253 C 
ATOM     34  O   UNL     1      -0.707   5.787   0.076  1.00  0.00    -0.269 OA
ATOM     35  N   UNL     1      -2.107   4.539  -1.136  1.00  0.00    -0.322 N 
ATOM     36  H   UNL     1      -1.760   4.809  -2.017  1.00  0.00     0.170 HD
BRANCH  35  37
ATOM     37  C   UNL     1      -3.436   4.077  -1.145  1.00  0.00     0.041 A 
ATOM     38  C   UNL     1      -4.067   3.937  -2.385  1.00  0.00     0.026 A 
ATOM     39  C   UNL     1      -4.183   3.850   0.006  1.00  0.00     0.026 A 
ATOM     40  C   UNL     1      -5.387   3.481  -2.461  1.00  0.00     0.002 A 
ATOM     41  C   UNL     1      -5.492   3.375  -0.062  1.00  0.00     0.002 A 
ATOM     42  C   UNL     1      -6.092   3.179  -1.299  1.00  0.00     0.000 A 
ENDBRANCH  35  37
ENDBRANCH  11  33
ENDBRANCH   3   5
ENDBRANCH   2   3
ENDBRANCH   1   2
BRANCH   1  43
ATOM     43  C   UNL     1       3.610   6.405  -1.019  1.00  0.00     0.118 C 
BRANCH  43  44
ATOM     44  N   UNL     1       3.872   7.483  -0.071  1.00  0.00    -0.352 N 
ATOM     45  C   UNL     1       4.725   8.552  -0.171  1.00  0.00     0.251 C 
ATOM     46  H   UNL     1       3.358   7.435   0.768  1.00  0.00     0.163 HD
ATOM     47  O   UNL     1       4.948   9.264   0.803  1.00  0.00    -0.269 OA
BRANCH  45  48
ATOM     48  C   UNL     1       5.396   8.834  -1.457  1.00  0.00     0.039 A 
ATOM     49  C   UNL     1       6.753   9.165  -1.458  1.00  0.00     0.014 A 
ATOM     50  C   UNL     1       4.687   8.765  -2.658  1.00  0.00     0.014 A 
ATOM     51  C   UNL     1       7.416   9.353  -2.671  1.00  0.00     0.010 A 
ATOM     52  C   UNL     1       5.366   8.862  -3.866  1.00  0.00     0.010 A 
ATOM     53  C   UNL     1       6.735   9.163  -3.885  1.00  0.00    -0.014 A 
BRANCH  53  54
ATOM     54  C   UNL     1       7.429   9.285  -5.191  1.00  0.00     0.031 A 
ATOM     55  C   UNL     1       7.010  10.350  -6.164  1.00  0.00     0.074 A 
ATOM     56  C   UNL     1       8.380   8.392  -5.527  1.00  0.00     0.049 A 
ATOM     57  N   UNL     1       7.420  10.562  -7.389  1.00  0.00    -0.248 NA
ATOM     58  C   UNL     1       5.965  11.282  -5.712  1.00  0.00     0.031 C 
ATOM     59  C   UNL     1       8.838   7.285  -4.686  1.00  0.00     0.029 A 
ATOM     60  N   UNL     1       9.123   8.267  -6.674  1.00  0.00    -0.354 N 
ATOM     61  C   UNL     1       6.673  11.635  -7.855  1.00  0.00     0.074 A 
ATOM     62  C   UNL     1       5.745  11.995  -6.806  1.00  0.00     0.031 C 
ATOM     63  C   UNL     1       9.800   6.609  -5.335  1.00  0.00     0.029 A 
ATOM     64  C   UNL     1       9.998   7.209  -6.650  1.00  0.00     0.049 A 
ATOM     65  H   UNL     1       9.037   8.879  -7.441  1.00  0.00     0.167 HD
ATOM     66  C   UNL     1       6.772  12.280  -9.042  1.00  0.00     0.037 A 
ATOM     67  C   UNL     1      10.857   6.769  -7.589  1.00  0.00     0.037 A 
ATOM     68  C   UNL     1       7.718  11.937 -10.070  1.00  0.00     0.049 A 
ATOM     69  C   UNL     1      10.945   7.502  -8.901  1.00  0.00     0.074 A 
ATOM     70  C   UNL     1       7.938  12.561 -11.285  1.00  0.00     0.029 A 
ATOM     71  N   UNL     1       8.605  10.872 -10.000  1.00  0.00    -0.354 N 
ATOM     72  N   UNL     1      10.278   8.555  -9.307  1.00  0.00    -0.248 NA
ATOM     73  C   UNL     1      11.909   6.987  -9.883  1.00  0.00     0.031 C 
ATOM     74  C   UNL     1       8.930  11.851 -11.968  1.00  0.00     0.029 A 
ATOM     75  C   UNL     1       9.363  10.812 -11.159  1.00  0.00     0.049 A 
ATOM     76  H   UNL     1       8.685  10.252  -9.240  1.00  0.00     0.167 HD
ATOM     77  C   UNL     1      10.761   8.847 -10.575  1.00  0.00     0.074 A 
ATOM     78  C   UNL     1      11.787   7.867 -10.867  1.00  0.00     0.031 C 
ATOM     79  C   UNL     1      10.389   9.836 -11.423  1.00  0.00     0.037 A 
BRANCH  66  80
ATOM     80  C   UNL     1       5.837  13.429  -9.286  1.00  0.00     0.064 A 
ATOM     81  C   UNL     1       5.962  14.638  -8.585  1.00  0.00     0.173 A 
ATOM     82  C   UNL     1       4.825  13.332 -10.252  1.00  0.00     0.173 A 
ATOM     83  F   UNL     1       6.905  14.778  -7.641  1.00  0.00    -0.203 F 
ATOM     84  C   UNL     1       5.088  15.697  -8.820  1.00  0.00     0.198 A 
ATOM     85  C   UNL     1       3.973  14.404 -10.507  1.00  0.00     0.198 A 
ATOM     86  F   UNL     1       4.665  12.200 -10.954  1.00  0.00    -0.203 F 
ATOM     87  F   UNL     1       5.194  16.823  -8.102  1.00  0.00    -0.200 F 
ATOM     88  C   UNL     1       4.100  15.582  -9.786  1.00  0.00     0.200 A 
ATOM     89  F   UNL     1       3.026  14.296 -11.449  1.00  0.00    -0.200 F 
ATOM     90  F   UNL     1       3.264  16.604 -10.016  1.00  0.00    -0.200 F 
ENDBRANCH  66  80
BRANCH  67  91
ATOM     91  C   UNL     1      11.724   5.594  -7.314  1.00  0.00     0.064 A 
ATOM     92  C   UNL     1      13.108   5.747  -7.152  1.00  0.00     0.173 A 
ATOM     93  C   UNL     1      11.194   4.300  -7.216  1.00  0.00     0.173 A 
ATOM     94  F   UNL     1      13.664   6.963  -7.258  1.00  0.00    -0.203 F 
ATOM     95  C   UNL     1      13.932   4.647  -6.924  1.00  0.00     0.198 A 
ATOM     96  C   UNL     1      12.016   3.204  -6.960  1.00  0.00     0.198 A 
ATOM     97  F   UNL     1       9.876   4.100  -7.359  1.00  0.00    -0.203 F 
ATOM     98  F   UNL     1      15.258   4.816  -6.820  1.00  0.00    -0.200 F 
ATOM     99  C   UNL     1      13.385   3.377  -6.823  1.00  0.00     0.200 A 
ATOM    100  F   UNL     1      11.482   1.980  -6.850  1.00  0.00    -0.200 F 
ATOM    101  F   UNL     1      14.178   2.320  -6.602  1.00  0.00    -0.200 F 
ENDBRANCH  67  91
BRANCH  79 102
ATOM    102  C   UNL     1      11.121   9.934 -12.729  1.00  0.00     0.064 A 
ATOM    103  C   UNL     1      10.916   9.005 -13.759  1.00  0.00     0.173 A 
ATOM    104  C   UNL     1      12.006  10.997 -12.966  1.00  0.00     0.173 A 
ATOM    105  F   UNL     1      10.092   7.963 -13.575  1.00  0.00    -0.203 F 
ATOM    106  C   UNL     1      11.590   9.124 -14.972  1.00  0.00     0.198 A 
ATOM    107  C   UNL     1      12.654  11.129 -14.190  1.00  0.00     0.198 A 
ATOM    108  F   UNL     1      12.230  11.916 -12.015  1.00  0.00    -0.203 F 
ATOM    109  F   UNL     1      11.414   8.200 -15.927  1.00  0.00    -0.200 F 
ATOM    110  C   UNL     1      12.451  10.189 -15.189  1.00  0.00     0.200 A 
ATOM    111  F   UNL     1      13.476  12.166 -14.403  1.00  0.00    -0.200 F 
ATOM    112  F   UNL     1      13.091  10.306 -16.361  1.00  0.00    -0.200 F 
ENDBRANCH  79 102
ENDBRANCH  53  54
ENDBRANCH  45  48
ENDBRANCH  43  44
ENDBRANCH   1  43
TORSDOF 17
