REMARK SMILES COC1CCN(c2nc(C(C)C)c(C(=O)NCCCNC(=O)c3ccc(-c4c5nc(c(-c6c(F)c(F)c(F)c(F)c6F)c6ccc([nH]6)c(-c6c(F)c(F)c(F)c(F)c6F)c6nc(c(-c7c(F)c(F)c(F)c(F)c7F)c7ccc4[nH]7)C=C6)C=C5)cc3)s2)CC1
REMARK SMILES IDX 18 1 17 2 16 3 14 4 15 5 13 7 7 8 8 9 86 10 9 11 6 12 3 13
REMARK SMILES IDX 4 14 88 15 5 16 87 17 2 18 1 19 10 20 11 21 12 22 19 23
REMARK SMILES IDX 20 24 21 25 22 27 23 28 24 29 85 30 25 31 84 32 26 33 27 34
REMARK SMILES IDX 28 35 78 36 29 37 83 38 77 39 79 40 30 41 82 42 76 43 75 44
REMARK SMILES IDX 31 46 63 47 43 48 62 49 44 50 47 51 61 52 80 53 45 54 46 55
REMARK SMILES IDX 60 57 81 58 48 59 32 60 33 61 41 62 34 63 35 64 39 65 42 66
REMARK SMILES IDX 36 67 37 68 40 69 38 70 64 71 65 72 73 73 66 74 67 75 71 76
REMARK SMILES IDX 74 77 68 78 69 79 72 80 70 81 49 82 50 83 58 84 51 85 52 86
REMARK SMILES IDX 56 87 59 88 53 89 54 90 57 91 55 92
REMARK H PARENT 16 6 20 26 79 45 47 56
REMARK Flexibility Score: inf
ROOT
ATOM      1  C   UNL     1       8.678   8.901   1.515  1.00  0.00     0.042 C 
ENDROOT
BRANCH   1   2
ATOM      2  C   UNL     1       8.430   7.703   2.417  1.00  0.00     0.118 C 
BRANCH   2   3
ATOM      3  N   UNL     1       7.218   7.840   3.171  1.00  0.00    -0.351 N 
ATOM      4  C   UNL     1       5.987   7.245   3.140  1.00  0.00     0.263 C 
ATOM      5  O   UNL     1       5.258   7.726   4.024  1.00  0.00    -0.268 OA
ATOM      6  H   UNL     1       7.288   8.524   3.876  1.00  0.00     0.163 HD
BRANCH   4   7
ATOM      7  C   UNL     1       5.530   6.168   2.254  1.00  0.00     0.117 A 
ATOM      8  C   UNL     1       3.925   4.436   1.473  1.00  0.00     0.186 A 
ATOM      9  N   UNL     1       5.046   4.376   0.812  1.00  0.00    -0.224 NA
ATOM     10  S   UNL     1       3.886   5.665   2.645  1.00  0.00    -0.091 S 
ATOM     11  C   UNL     1       5.924   5.405   1.146  1.00  0.00     0.069 A 
BRANCH   8  12
ATOM     12  N   UNL     1       2.920   3.550   1.308  1.00  0.00    -0.348 N 
ATOM     13  C   UNL     1       0.870   1.589   1.497  1.00  0.00     0.121 C 
ATOM     14  C   UNL     1       0.584   3.074   1.766  1.00  0.00     0.053 C 
ATOM     15  C   UNL     1       2.348   1.266   1.750  1.00  0.00     0.053 C 
ATOM     16  C   UNL     1       1.560   3.983   1.021  1.00  0.00     0.121 C 
ATOM     17  C   UNL     1       3.245   2.186   0.929  1.00  0.00     0.121 C 
BRANCH  13  18
ATOM     18  O   UNL     1       0.469   1.307   0.149  1.00  0.00    -0.381 OA
ATOM     19  C   UNL     1       0.568  -0.067  -0.204  1.00  0.00     0.195 C 
ENDBRANCH  13  18
ENDBRANCH   8  12
BRANCH  11  20
ATOM     20  C   UNL     1       7.068   5.440   0.163  1.00  0.00     0.034 C 
ATOM     21  C   UNL     1       7.157   6.768  -0.585  1.00  0.00     0.014 C 
ATOM     22  C   UNL     1       8.372   4.824   0.678  1.00  0.00     0.014 C 
ENDBRANCH  11  20
ENDBRANCH   4   7
ENDBRANCH   2   3
ENDBRANCH   1   2
BRANCH   1  23
ATOM     23  C   UNL     1       9.595   9.929   2.150  1.00  0.00     0.118 C 
BRANCH  23  24
ATOM     24  N   UNL     1      10.977   9.459   2.201  1.00  0.00    -0.352 N 
ATOM     25  C   UNL     1      12.064   9.763   1.423  1.00  0.00     0.251 C 
ATOM     26  H   UNL     1      11.160   8.810   2.919  1.00  0.00     0.163 HD
ATOM     27  O   UNL     1      13.069   9.048   1.493  1.00  0.00    -0.269 OA
BRANCH  25  28
ATOM     28  C   UNL     1      12.056  10.914   0.494  1.00  0.00     0.039 A 
ATOM     29  C   UNL     1      12.779  10.834  -0.702  1.00  0.00     0.014 A 
ATOM     30  C   UNL     1      11.381  12.093   0.807  1.00  0.00     0.014 A 
ATOM     31  C   UNL     1      12.765  11.905  -1.601  1.00  0.00     0.010 A 
ATOM     32  C   UNL     1      11.261  13.102  -0.139  1.00  0.00     0.010 A 
ATOM     33  C   UNL     1      11.970  13.032  -1.346  1.00  0.00    -0.014 A 
BRANCH  33  34
ATOM     34  C   UNL     1      11.878  14.169  -2.298  1.00  0.00     0.031 A 
ATOM     35  C   UNL     1      12.259  15.555  -1.850  1.00  0.00     0.074 A 
ATOM     36  C   UNL     1      11.351  13.977  -3.522  1.00  0.00     0.049 A 
ATOM     37  N   UNL     1      12.110  16.699  -2.468  1.00  0.00    -0.248 NA
ATOM     38  C   UNL     1      12.838  15.675  -0.503  1.00  0.00     0.031 C 
ATOM     39  C   UNL     1      10.879  12.697  -4.049  1.00  0.00     0.029 A 
ATOM     40  N   UNL     1      11.098  14.868  -4.536  1.00  0.00    -0.354 N 
ATOM     41  C   UNL     1      12.534  17.670  -1.570  1.00  0.00     0.074 A 
ATOM     42  C   UNL     1      12.889  16.988  -0.346  1.00  0.00     0.031 C 
ATOM     43  C   UNL     1      10.409  12.879  -5.293  1.00  0.00     0.029 A 
ATOM     44  C   UNL     1      10.506  14.295  -5.634  1.00  0.00     0.049 A 
ATOM     45  H   UNL     1      11.321  15.825  -4.481  1.00  0.00     0.167 HD
ATOM     46  C   UNL     1      12.642  19.008  -1.758  1.00  0.00     0.037 A 
ATOM     47  C   UNL     1      10.072  14.851  -6.781  1.00  0.00     0.037 A 
ATOM     48  C   UNL     1      12.339  19.671  -2.998  1.00  0.00     0.049 A 
ATOM     49  C   UNL     1      10.237  16.331  -6.986  1.00  0.00     0.074 A 
ATOM     50  C   UNL     1      12.523  20.999  -3.335  1.00  0.00     0.029 A 
ATOM     51  N   UNL     1      11.783  19.049  -4.108  1.00  0.00    -0.354 N 
ATOM     52  N   UNL     1      10.723  17.229  -6.165  1.00  0.00    -0.248 NA
ATOM     53  C   UNL     1       9.798  16.873  -8.279  1.00  0.00     0.031 C 
ATOM     54  C   UNL     1      12.030  21.193  -4.631  1.00  0.00     0.029 A 
ATOM     55  C   UNL     1      11.584  19.974  -5.120  1.00  0.00     0.049 A 
ATOM     56  H   UNL     1      11.562  18.091  -4.167  1.00  0.00     0.167 HD
ATOM     57  C   UNL     1      10.657  18.441  -6.839  1.00  0.00     0.074 A 
ATOM     58  C   UNL     1      10.105  18.157  -8.149  1.00  0.00     0.031 C 
ATOM     59  C   UNL     1      11.017  19.676  -6.411  1.00  0.00     0.037 A 
BRANCH  46  60
ATOM     60  C   UNL     1      13.105  19.835  -0.591  1.00  0.00     0.064 A 
ATOM     61  C   UNL     1      14.407  19.732  -0.077  1.00  0.00     0.173 A 
ATOM     62  C   UNL     1      12.230  20.743   0.025  1.00  0.00     0.173 A 
ATOM     63  F   UNL     1      15.283  18.873  -0.621  1.00  0.00    -0.203 F 
ATOM     64  C   UNL     1      14.799  20.464   1.041  1.00  0.00     0.198 A 
ATOM     65  C   UNL     1      12.637  21.502   1.120  1.00  0.00     0.198 A 
ATOM     66  F   UNL     1      10.977  20.891  -0.429  1.00  0.00    -0.203 F 
ATOM     67  F   UNL     1      16.023  20.291   1.559  1.00  0.00    -0.200 F 
ATOM     68  C   UNL     1      13.915  21.352   1.636  1.00  0.00     0.200 A 
ATOM     69  F   UNL     1      11.786  22.369   1.686  1.00  0.00    -0.200 F 
ATOM     70  F   UNL     1      14.292  22.052   2.715  1.00  0.00    -0.200 F 
ENDBRANCH  46  60
BRANCH  47  71
ATOM     71  C   UNL     1       9.460  13.987  -7.822  1.00  0.00     0.064 A 
ATOM     72  C   UNL     1      10.152  13.685  -9.003  1.00  0.00     0.173 A 
ATOM     73  C   UNL     1       8.197  13.406  -7.638  1.00  0.00     0.173 A 
ATOM     74  F   UNL     1      11.355  14.231  -9.231  1.00  0.00    -0.203 F 
ATOM     75  C   UNL     1       9.602  12.836  -9.961  1.00  0.00     0.198 A 
ATOM     76  C   UNL     1       7.659  12.538  -8.585  1.00  0.00     0.198 A 
ATOM     77  F   UNL     1       7.499  13.658  -6.521  1.00  0.00    -0.203 F 
ATOM     78  F   UNL     1      10.274  12.582 -11.092  1.00  0.00    -0.200 F 
ATOM     79  C   UNL     1       8.361  12.256  -9.748  1.00  0.00     0.200 A 
ATOM     80  F   UNL     1       6.467  11.966  -8.367  1.00  0.00    -0.200 F 
ATOM     81  F   UNL     1       7.841  11.425 -10.661  1.00  0.00    -0.200 F 
ENDBRANCH  47  71
BRANCH  59  82
ATOM     82  C   UNL     1      10.824  20.816  -7.367  1.00  0.00     0.064 A 
ATOM     83  C   UNL     1       9.546  21.309  -7.668  1.00  0.00     0.173 A 
ATOM     84  C   UNL     1      11.929  21.454  -7.950  1.00  0.00     0.173 A 
ATOM     85  F   UNL     1       8.457  20.723  -7.148  1.00  0.00    -0.203 F 
ATOM     86  C   UNL     1       9.380  22.388  -8.532  1.00  0.00     0.198 A 
ATOM     87  C   UNL     1      11.761  22.551  -8.791  1.00  0.00     0.198 A 
ATOM     88  F   UNL     1      13.173  21.025  -7.690  1.00  0.00    -0.203 F 
ATOM     89  F   UNL     1       8.148  22.816  -8.838  1.00  0.00    -0.200 F 
ATOM     90  C   UNL     1      10.488  23.013  -9.086  1.00  0.00     0.200 A 
ATOM     91  F   UNL     1      12.833  23.162  -9.314  1.00  0.00    -0.200 F 
ATOM     92  F   UNL     1      10.327  24.058  -9.909  1.00  0.00    -0.200 F 
ENDBRANCH  59  82
ENDBRANCH  33  34
ENDBRANCH  25  28
ENDBRANCH  23  24
ENDBRANCH   1  23
TORSDOF 13
