REMARK SMILES O=C(CCS(=O)(=O)Nc1c(Cl)cc(Br)cc1Cl)NCCCNC(=O)c1ccc(-c2c3nc(c(-c4c(F)c(F)c(F)c(F)c4F)c4ccc([nH]4)c(-c4c(F)c(F)c(F)c(F)c4F)c4nc(c(-c5c(F)c(F)c(F)c(F)c5F)c5ccc2[nH]5)C=C4)C=C3)cc1
REMARK SMILES IDX 19 1 18 2 1 3 2 4 3 6 4 7 5 8 6 9 7 10 8 11 9 13 10 14 16 15
REMARK SMILES IDX 11 16 12 17 15 18 17 19 13 20 14 21 20 22 21 23 22 24 23 25
REMARK SMILES IDX 24 27 25 28 26 29 87 30 27 31 86 32 28 33 29 34 30 35 80 36
REMARK SMILES IDX 31 37 85 38 79 39 81 40 32 41 84 42 78 43 77 44 33 46 65 47
REMARK SMILES IDX 45 48 64 49 46 50 49 51 63 52 82 53 47 54 48 55 62 57 83 58
REMARK SMILES IDX 50 59 34 60 35 61 43 62 36 63 37 64 41 65 44 66 38 67 39 68
REMARK SMILES IDX 42 69 40 70 66 71 67 72 75 73 68 74 69 75 73 76 76 77 70 78
REMARK SMILES IDX 71 79 74 80 72 81 51 82 52 83 60 84 53 85 54 86 58 87 61 88
REMARK SMILES IDX 55 89 56 90 59 91 57 92
REMARK H PARENT 18 5 8 12 22 26 81 45 49 56
REMARK Flexibility Score: inf
ROOT
ATOM      1  C   UNL     1       2.764   1.801  -1.484  1.00  0.00     0.117 C 
ENDROOT
BRANCH   1   2
ATOM      2  N   UNL     1       3.721   1.284  -0.524  1.00  0.00    -0.356 N 
ATOM      3  O   UNL     1       2.426   1.606   1.334  1.00  0.00    -0.275 OA
ATOM      4  C   UNL     1       3.337   1.013   0.767  1.00  0.00     0.221 C 
ATOM      5  H   UNL     1       4.653   1.127  -0.800  1.00  0.00     0.163 HD
BRANCH   4   6
ATOM      6  C   UNL     1       4.099  -0.112   1.433  1.00  0.00     0.118 C 
BRANCH   6   7
ATOM      7  C   UNL     1       3.734  -1.520   0.967  1.00  0.00     0.170 C 
BRANCH   7   8
ATOM      8  S   UNL     1       4.025  -1.910  -0.750  1.00  0.00     0.233 S 
ATOM      9  O   UNL     1       5.255  -1.232  -1.115  1.00  0.00    -0.207 OA
ATOM     10  O   UNL     1       3.883  -3.335  -0.953  1.00  0.00    -0.207 OA
BRANCH   8  11
ATOM     11  N   UNL     1       2.885  -1.145  -1.678  1.00  0.00    -0.281 N 
ATOM     12  H   UNL     1       3.150  -0.286  -2.079  1.00  0.00     0.180 HD
BRANCH  11  13
ATOM     13  C   UNL     1       1.544  -1.603  -1.964  1.00  0.00     0.086 A 
ATOM     14  C   UNL     1       1.268  -2.039  -3.277  1.00  0.00     0.067 A 
ATOM     15  C   UNL     1       0.448  -1.385  -1.109  1.00  0.00     0.067 A 
ATOM     16  Cl  UNL     1       2.546  -2.239  -4.430  1.00  0.00    -0.082 Cl
ATOM     17  C   UNL     1      -0.043  -2.215  -3.732  1.00  0.00     0.038 A 
ATOM     18  C   UNL     1      -0.864  -1.562  -1.565  1.00  0.00     0.038 A 
ATOM     19  Cl  UNL     1       0.558  -0.730   0.473  1.00  0.00    -0.082 Cl
ATOM     20  C   UNL     1      -1.104  -1.959  -2.873  1.00  0.00     0.021 A 
ATOM     21  Br  UNL     1      -2.883  -2.079  -3.494  1.00  0.00    -0.051 Br
ENDBRANCH  11  13
ENDBRANCH   8  11
ENDBRANCH   7   8
ENDBRANCH   6   7
ENDBRANCH   4   6
ENDBRANCH   1   2
BRANCH   1  22
ATOM     22  C   UNL     1       3.098   3.138  -2.085  1.00  0.00     0.042 C 
BRANCH  22  23
ATOM     23  C   UNL     1       4.458   3.175  -2.752  1.00  0.00     0.118 C 
BRANCH  23  24
ATOM     24  N   UNL     1       4.635   2.267  -3.889  1.00  0.00    -0.352 N 
ATOM     25  C   UNL     1       5.169   2.537  -5.134  1.00  0.00     0.251 C 
ATOM     26  H   UNL     1       4.333   1.341  -3.746  1.00  0.00     0.163 HD
ATOM     27  O   UNL     1       5.212   1.675  -6.004  1.00  0.00    -0.269 OA
BRANCH  25  28
ATOM     28  C   UNL     1       5.632   3.910  -5.415  1.00  0.00     0.039 A 
ATOM     29  C   UNL     1       5.175   4.570  -6.557  1.00  0.00     0.014 A 
ATOM     30  C   UNL     1       6.381   4.588  -4.455  1.00  0.00     0.014 A 
ATOM     31  C   UNL     1       5.364   5.948  -6.666  1.00  0.00     0.010 A 
ATOM     32  C   UNL     1       6.417   5.970  -4.485  1.00  0.00     0.010 A 
ATOM     33  C   UNL     1       5.925   6.667  -5.598  1.00  0.00    -0.014 A 
BRANCH  33  34
ATOM     34  C   UNL     1       6.061   8.143  -5.628  1.00  0.00     0.031 A 
ATOM     35  C   UNL     1       7.429   8.753  -5.484  1.00  0.00     0.074 A 
ATOM     36  C   UNL     1       4.967   8.926  -5.710  1.00  0.00     0.049 A 
ATOM     37  N   UNL     1       7.769  10.012  -5.390  1.00  0.00    -0.248 NA
ATOM     38  C   UNL     1       8.566   7.820  -5.386  1.00  0.00     0.031 C 
ATOM     39  C   UNL     1       3.584   8.450  -5.791  1.00  0.00     0.029 A 
ATOM     40  N   UNL     1       4.846  10.293  -5.741  1.00  0.00    -0.354 N 
ATOM     41  C   UNL     1       9.145  10.011  -5.208  1.00  0.00     0.074 A 
ATOM     42  C   UNL     1       9.568   8.636  -5.106  1.00  0.00     0.031 C 
ATOM     43  C   UNL     1       2.761   9.504  -5.916  1.00  0.00     0.029 A 
ATOM     44  C   UNL     1       3.551  10.731  -5.878  1.00  0.00     0.049 A 
ATOM     45  H   UNL     1       5.616  10.903  -5.670  1.00  0.00     0.167 HD
ATOM     46  C   UNL     1       9.992  11.065  -5.183  1.00  0.00     0.037 A 
ATOM     47  C   UNL     1       3.062  11.983  -5.970  1.00  0.00     0.037 A 
ATOM     48  C   UNL     1       9.570  12.428  -5.335  1.00  0.00     0.049 A 
ATOM     49  C   UNL     1       4.023  13.142  -5.925  1.00  0.00     0.074 A 
ATOM     50  C   UNL     1      10.349  13.569  -5.379  1.00  0.00     0.029 A 
ATOM     51  N   UNL     1       8.251  12.831  -5.478  1.00  0.00    -0.354 N 
ATOM     52  N   UNL     1       5.330  13.128  -5.818  1.00  0.00    -0.248 NA
ATOM     53  C   UNL     1       3.444  14.489  -6.017  1.00  0.00     0.031 C 
ATOM     54  C   UNL     1       9.496  14.669  -5.502  1.00  0.00     0.029 A 
ATOM     55  C   UNL     1       8.191  14.209  -5.589  1.00  0.00     0.049 A 
ATOM     56  H   UNL     1       7.473  12.227  -5.498  1.00  0.00     0.167 HD
ATOM     57  C   UNL     1       5.732  14.456  -5.852  1.00  0.00     0.074 A 
ATOM     58  C   UNL     1       4.530  15.250  -6.010  1.00  0.00     0.031 C 
ATOM     59  C   UNL     1       6.981  14.974  -5.755  1.00  0.00     0.037 A 
BRANCH  46  60
ATOM     60  C   UNL     1      11.456  10.777  -5.021  1.00  0.00     0.064 A 
ATOM     61  C   UNL     1      12.193  10.142  -6.033  1.00  0.00     0.173 A 
ATOM     62  C   UNL     1      12.139  11.174  -3.863  1.00  0.00     0.173 A 
ATOM     63  F   UNL     1      11.583   9.724  -7.153  1.00  0.00    -0.203 F 
ATOM     64  C   UNL     1      13.554   9.895  -5.882  1.00  0.00     0.198 A 
ATOM     65  C   UNL     1      13.507  10.956  -3.729  1.00  0.00     0.198 A 
ATOM     66  F   UNL     1      11.481  11.782  -2.864  1.00  0.00    -0.203 F 
ATOM     67  F   UNL     1      14.226   9.243  -6.841  1.00  0.00    -0.200 F 
ATOM     68  C   UNL     1      14.212  10.312  -4.735  1.00  0.00     0.200 A 
ATOM     69  F   UNL     1      14.145  11.370  -2.626  1.00  0.00    -0.200 F 
ATOM     70  F   UNL     1      15.526  10.088  -4.597  1.00  0.00    -0.200 F 
ENDBRANCH  46  60
BRANCH  47  71
ATOM     71  C   UNL     1       1.603  12.201  -6.164  1.00  0.00     0.064 A 
ATOM     72  C   UNL     1       1.109  12.696  -7.380  1.00  0.00     0.173 A 
ATOM     73  C   UNL     1       0.672  11.907  -5.157  1.00  0.00     0.173 A 
ATOM     74  F   UNL     1       1.958  13.012  -8.368  1.00  0.00    -0.203 F 
ATOM     75  C   UNL     1      -0.257  12.898  -7.576  1.00  0.00     0.198 A 
ATOM     76  C   UNL     1      -0.695  12.082  -5.364  1.00  0.00     0.198 A 
ATOM     77  F   UNL     1       1.090  11.428  -3.976  1.00  0.00    -0.203 F 
ATOM     78  F   UNL     1      -0.697  13.406  -8.736  1.00  0.00    -0.200 F 
ATOM     79  C   UNL     1      -1.158  12.583  -6.571  1.00  0.00     0.200 A 
ATOM     80  F   UNL     1      -1.564  11.761  -4.396  1.00  0.00    -0.200 F 
ATOM     81  F   UNL     1      -2.471  12.765  -6.765  1.00  0.00    -0.200 F 
ENDBRANCH  47  71
BRANCH  59  82
ATOM     82  C   UNL     1       7.125  16.465  -5.832  1.00  0.00     0.064 A 
ATOM     83  C   UNL     1       6.722  17.293  -4.775  1.00  0.00     0.173 A 
ATOM     84  C   UNL     1       7.758  17.062  -6.934  1.00  0.00     0.173 A 
ATOM     85  F   UNL     1       6.104  16.770  -3.705  1.00  0.00    -0.203 F 
ATOM     86  C   UNL     1       6.937  18.667  -4.823  1.00  0.00     0.198 A 
ATOM     87  C   UNL     1       8.001  18.431  -6.963  1.00  0.00     0.198 A 
ATOM     88  F   UNL     1       8.172  16.311  -7.965  1.00  0.00    -0.203 F 
ATOM     89  F   UNL     1       6.515  19.444  -3.817  1.00  0.00    -0.200 F 
ATOM     90  C   UNL     1       7.587  19.233  -5.911  1.00  0.00     0.200 A 
ATOM     91  F   UNL     1       8.648  18.973  -8.005  1.00  0.00    -0.200 F 
ATOM     92  F   UNL     1       7.814  20.553  -5.944  1.00  0.00    -0.200 F 
ENDBRANCH  59  82
ENDBRANCH  33  34
ENDBRANCH  25  28
ENDBRANCH  23  24
ENDBRANCH  22  23
ENDBRANCH   1  22
TORSDOF 14
