REMARK SMILES CC[NH+]1CC[NH+]([C@@H]2CC(=O)N(c3ccc(C(=O)NCCCNC(=O)c4ccc(-c5c6nc(c(-c7c(F)c(F)c(F)c(F)c7F)c7ccc([nH]7)c(-c7c(F)c(F)c(F)c(F)c7F)c7nc(c(-c8c(F)c(F)c(F)c(F)c8F)c8ccc5[nH]8)C=C7)C=C6)cc4)cc3)C2=O)CC1
REMARK SMILES IDX 19 1 18 2 16 3 17 4 15 6 12 7 13 8 89 9 14 10 88 11 11 12
REMARK SMILES IDX 7 13 8 14 90 15 9 16 91 17 10 18 6 19 3 20 4 21 93 22 5 24
REMARK SMILES IDX 92 25 2 27 1 28 20 29 21 30 22 31 23 32 24 34 25 35 26 36
REMARK SMILES IDX 87 37 27 38 86 39 28 40 29 41 30 42 80 43 31 44 85 45 79 46
REMARK SMILES IDX 81 47 32 48 84 49 78 50 77 51 33 53 65 54 45 55 64 56 46 57
REMARK SMILES IDX 49 58 63 59 82 60 47 61 48 62 62 64 83 65 50 66 34 67 35 68
REMARK SMILES IDX 43 69 36 70 37 71 41 72 44 73 38 74 39 75 42 76 40 77 66 78
REMARK SMILES IDX 67 79 75 80 68 81 69 82 73 83 76 84 70 85 71 86 74 87 72 88
REMARK SMILES IDX 51 89 52 90 60 91 53 92 54 93 58 94 61 95 55 96 56 97 59 98
REMARK SMILES IDX 57 99
REMARK H PARENT 18 5 3 23 6 26 22 33 81 52 49 63
REMARK Flexibility Score: inf
ROOT
ATOM      1  C   UNL     1      10.346   2.204  -6.354  1.00  0.00     0.118 C 
ENDROOT
BRANCH   1   2
ATOM      2  N   UNL     1      10.876   1.850  -5.051  1.00  0.00    -0.352 N 
ATOM      3  C   UNL     1      10.364   1.977  -3.785  1.00  0.00     0.251 C 
ATOM      4  O   UNL     1      11.044   1.546  -2.853  1.00  0.00    -0.269 OA
ATOM      5  H   UNL     1      11.771   1.441  -5.081  1.00  0.00     0.163 HD
BRANCH   3   6
ATOM      6  C   UNL     1       9.024   2.563  -3.500  1.00  0.00     0.039 A 
ATOM      7  C   UNL     1       6.455   3.524  -2.869  1.00  0.00     0.052 A 
ATOM      8  C   UNL     1       7.142   2.711  -1.962  1.00  0.00     0.027 A 
ATOM      9  C   UNL     1       7.068   3.884  -4.065  1.00  0.00     0.027 A 
ATOM     10  C   UNL     1       8.405   2.207  -2.293  1.00  0.00     0.016 A 
ATOM     11  C   UNL     1       8.363   3.458  -4.343  1.00  0.00     0.016 A 
BRANCH   7  12
ATOM     12  N   UNL     1       5.167   4.005  -2.589  1.00  0.00    -0.245 N 
ATOM     13  C   UNL     1       3.324   4.853  -1.418  1.00  0.00     0.285 C 
ATOM     14  C   UNL     1       2.951   4.663  -2.885  1.00  0.00     0.176 C 
ATOM     15  C   UNL     1       4.826   4.599  -1.398  1.00  0.00     0.292 C 
ATOM     16  C   UNL     1       4.144   4.009  -3.500  1.00  0.00     0.240 C 
ATOM     17  O   UNL     1       5.572   4.886  -0.471  1.00  0.00    -0.267 OA
ATOM     18  O   UNL     1       4.146   3.568  -4.644  1.00  0.00    -0.274 OA
BRANCH  13  19
ATOM     19  N   UNL     1       2.654   4.063  -0.369  1.00  0.00    -0.315 N 
ATOM     20  N   UNL     1       0.754   1.826  -1.052  1.00  0.00    -0.326 N 
ATOM     21  C   UNL     1       0.328   3.244  -1.093  1.00  0.00     0.324 C 
ATOM     22  C   UNL     1       2.214   1.730  -1.220  1.00  0.00     0.324 C 
ATOM     23  H   UNL     1       0.337   1.318  -1.832  1.00  0.00     0.348 HD
ATOM     24  C   UNL     1       1.197   4.246  -0.285  1.00  0.00     0.325 C 
ATOM     25  C   UNL     1       3.008   2.640  -0.269  1.00  0.00     0.325 C 
ATOM     26  H   UNL     1       3.069   4.497   0.456  1.00  0.00     0.349 HD
BRANCH  20  27
ATOM     27  C   UNL     1       0.261   1.176   0.172  1.00  0.00     0.259 C 
ATOM     28  C   UNL     1       0.632  -0.301   0.274  1.00  0.00     0.071 C 
ENDBRANCH  20  27
ENDBRANCH  13  19
ENDBRANCH   7  12
ENDBRANCH   3   6
ENDBRANCH   1   2
BRANCH   1  29
ATOM     29  C   UNL     1      10.853   3.579  -6.792  1.00  0.00     0.042 C 
BRANCH  29  30
ATOM     30  C   UNL     1      12.294   3.545  -7.280  1.00  0.00     0.118 C 
BRANCH  30  31
ATOM     31  N   UNL     1      12.417   2.798  -8.523  1.00  0.00    -0.352 N 
ATOM     32  C   UNL     1      12.870   3.202  -9.750  1.00  0.00     0.251 C 
ATOM     33  H   UNL     1      12.130   1.857  -8.473  1.00  0.00     0.163 HD
ATOM     34  O   UNL     1      12.646   2.509 -10.738  1.00  0.00    -0.269 OA
BRANCH  32  35
ATOM     35  C   UNL     1      13.624   4.464  -9.889  1.00  0.00     0.039 A 
ATOM     36  C   UNL     1      13.410   5.252 -11.023  1.00  0.00     0.014 A 
ATOM     37  C   UNL     1      14.572   4.847  -8.937  1.00  0.00     0.014 A 
ATOM     38  C   UNL     1      14.117   6.443 -11.180  1.00  0.00     0.010 A 
ATOM     39  C   UNL     1      15.215   6.074  -9.052  1.00  0.00     0.010 A 
ATOM     40  C   UNL     1      15.004   6.878 -10.182  1.00  0.00    -0.014 A 
BRANCH  40  41
ATOM     41  C   UNL     1      15.727   8.166 -10.308  1.00  0.00     0.031 A 
ATOM     42  C   UNL     1      17.227   8.185 -10.402  1.00  0.00     0.074 A 
ATOM     43  C   UNL     1      15.032   9.319 -10.280  1.00  0.00     0.049 A 
ATOM     44  N   UNL     1      18.041   9.209 -10.453  1.00  0.00    -0.248 NA
ATOM     45  C   UNL     1      17.906   6.879 -10.411  1.00  0.00     0.031 C 
ATOM     46  C   UNL     1      13.578   9.425 -10.148  1.00  0.00     0.029 A 
ATOM     47  N   UNL     1      15.455  10.622 -10.349  1.00  0.00    -0.354 N 
ATOM     48  C   UNL     1      19.321   8.673 -10.488  1.00  0.00     0.074 A 
ATOM     49  C   UNL     1      19.181   7.236 -10.393  1.00  0.00     0.031 C 
ATOM     50  C   UNL     1      13.228  10.720 -10.170  1.00  0.00     0.029 A 
ATOM     51  C   UNL     1      14.434  11.536 -10.272  1.00  0.00     0.049 A 
ATOM     52  H   UNL     1      16.401  10.877 -10.446  1.00  0.00     0.167 HD
ATOM     53  C   UNL     1      20.504   9.321 -10.612  1.00  0.00     0.037 A 
ATOM     54  C   UNL     1      14.468  12.882 -10.272  1.00  0.00     0.037 A 
ATOM     55  C   UNL     1      20.631  10.751 -10.723  1.00  0.00     0.049 A 
ATOM     56  C   UNL     1      15.798  13.577 -10.391  1.00  0.00     0.074 A 
ATOM     57  C   UNL     1      21.777  11.503 -10.909  1.00  0.00     0.029 A 
ATOM     58  N   UNL     1      19.573  11.645 -10.650  1.00  0.00    -0.354 N 
ATOM     59  N   UNL     1      16.997  13.059 -10.496  1.00  0.00    -0.248 NA
ATOM     60  C   UNL     1      15.777  15.046 -10.398  1.00  0.00     0.031 C 
ATOM     61  C   UNL     1      21.420  12.855 -10.889  1.00  0.00     0.029 A 
ATOM     62  C   UNL     1      20.043  12.944 -10.758  1.00  0.00     0.049 A 
ATOM     63  H   UNL     1      18.627  11.395 -10.538  1.00  0.00     0.167 HD
ATOM     64  C   UNL     1      17.869  14.133 -10.613  1.00  0.00     0.074 A 
ATOM     65  C   UNL     1      17.058  15.332 -10.583  1.00  0.00     0.031 C 
ATOM     66  C   UNL     1      19.220  14.127 -10.733  1.00  0.00     0.037 A 
BRANCH  53  67
ATOM     67  C   UNL     1      21.756   8.489 -10.631  1.00  0.00     0.064 A 
ATOM     68  C   UNL     1      22.059   7.634 -11.702  1.00  0.00     0.173 A 
ATOM     69  C   UNL     1      22.683   8.576  -9.582  1.00  0.00     0.173 A 
ATOM     70  F   UNL     1      21.202   7.506 -12.727  1.00  0.00    -0.203 F 
ATOM     71  C   UNL     1      23.226   6.874 -11.707  1.00  0.00     0.198 A 
ATOM     72  C   UNL     1      23.866   7.840  -9.606  1.00  0.00     0.198 A 
ATOM     73  F   UNL     1      22.449   9.381  -8.535  1.00  0.00    -0.203 F 
ATOM     74  F   UNL     1      23.466   6.025 -12.715  1.00  0.00    -0.200 F 
ATOM     75  C   UNL     1      24.132   6.984 -10.663  1.00  0.00     0.200 A 
ATOM     76  F   UNL     1      24.748   7.960  -8.604  1.00  0.00    -0.200 F 
ATOM     77  F   UNL     1      25.259   6.259 -10.673  1.00  0.00    -0.200 F 
ENDBRANCH  53  67
BRANCH  54  78
ATOM     78  C   UNL     1      13.204  13.659 -10.172  1.00  0.00     0.064 A 
ATOM     79  C   UNL     1      12.741  14.423 -11.252  1.00  0.00     0.173 A 
ATOM     80  C   UNL     1      12.437  13.657  -8.998  1.00  0.00     0.173 A 
ATOM     81  F   UNL     1      13.448  14.471 -12.390  1.00  0.00    -0.203 F 
ATOM     82  C   UNL     1      11.574  15.177 -11.152  1.00  0.00     0.198 A 
ATOM     83  C   UNL     1      11.252  14.385  -8.911  1.00  0.00     0.198 A 
ATOM     84  F   UNL     1      12.830  12.936  -7.938  1.00  0.00    -0.203 F 
ATOM     85  F   UNL     1      11.182  15.940 -12.182  1.00  0.00    -0.200 F 
ATOM     86  C   UNL     1      10.827  15.153  -9.984  1.00  0.00     0.200 A 
ATOM     87  F   UNL     1      10.524  14.344  -7.787  1.00  0.00    -0.200 F 
ATOM     88  F   UNL     1       9.702  15.875  -9.890  1.00  0.00    -0.200 F 
ENDBRANCH  54  78
BRANCH  66  89
ATOM     89  C   UNL     1      19.903  15.457 -10.882  1.00  0.00     0.064 A 
ATOM     90  C   UNL     1      19.986  16.369  -9.819  1.00  0.00     0.173 A 
ATOM     91  C   UNL     1      20.516  15.806 -12.095  1.00  0.00     0.173 A 
ATOM     92  F   UNL     1      19.404  16.090  -8.643  1.00  0.00    -0.203 F 
ATOM     93  C   UNL     1      20.631  17.593  -9.976  1.00  0.00     0.198 A 
ATOM     94  C   UNL     1      21.191  17.014 -12.237  1.00  0.00     0.198 A 
ATOM     95  F   UNL     1      20.473  14.966 -13.141  1.00  0.00    -0.203 F 
ATOM     96  F   UNL     1      20.650  18.471  -8.964  1.00  0.00    -0.200 F 
ATOM     97  C   UNL     1      21.240  17.911 -11.180  1.00  0.00     0.200 A 
ATOM     98  F   UNL     1      21.794  17.312 -13.396  1.00  0.00    -0.200 F 
ATOM     99  F   UNL     1      21.869  19.085 -11.326  1.00  0.00    -0.200 F 
ENDBRANCH  66  89
ENDBRANCH  40  41
ENDBRANCH  32  35
ENDBRANCH  30  31
ENDBRANCH  29  30
ENDBRANCH   1  29
TORSDOF 13
