REMARK SMILES CC(C)CCOc1ccc(/C=C2\SC(=S)N(CC(=O)NCCCNC(=O)c3ccc(-c4c5nc(c(-c6c(F)c(F)c(F)c(F)c6F)c6ccc([nH]6)c(-c6c(F)c(F)c(F)c(F)c6F)c6nc(c(-c7c(F)c(F)c(F)c(F)c7F)c7ccc4[nH]7)C=C6)C=C5)cc3)C2=O)cc1
REMARK SMILES IDX 18 1 19 2 20 3 17 5 16 6 11 7 12 8 13 9 90 10 14 11 91 12
REMARK SMILES IDX 15 13 10 14 7 15 8 16 93 17 9 18 92 19 6 20 5 21 4 22 2 23
REMARK SMILES IDX 1 24 3 25 21 26 22 27 23 28 24 29 25 30 26 32 27 33 28 34
REMARK SMILES IDX 89 35 29 36 88 37 30 38 31 39 32 40 82 41 33 42 87 43 81 44
REMARK SMILES IDX 83 45 34 46 86 47 80 48 79 49 35 51 67 52 47 53 66 54 48 55
REMARK SMILES IDX 51 56 65 57 84 58 49 59 50 60 64 62 85 63 52 64 36 65 37 66
REMARK SMILES IDX 45 67 38 68 39 69 43 70 46 71 40 72 41 73 44 74 42 75 68 76
REMARK SMILES IDX 69 77 77 78 70 79 71 80 75 81 78 82 72 83 73 84 76 85 74 86
REMARK SMILES IDX 53 87 54 88 62 89 55 90 56 91 60 92 63 93 57 94 58 95 61 96
REMARK SMILES IDX 59 97
REMARK H PARENT 20 4 24 31 83 50 51 61
REMARK Flexibility Score: inf
ROOT
ATOM      1  C   UNL     1       8.980   4.551   4.966  1.00  0.00     0.240 C 
ATOM      2  O   UNL     1      10.028   3.955   5.234  1.00  0.00    -0.273 OA
ATOM      3  N   UNL     1       8.387   5.235   5.986  1.00  0.00    -0.354 N 
ATOM      4  H   UNL     1       8.709   4.990   6.884  1.00  0.00     0.163 HD
ENDROOT
BRANCH   1   5
ATOM      5  C   UNL     1       8.492   4.649   3.516  1.00  0.00     0.227 C 
BRANCH   5   6
ATOM      6  N   UNL     1       7.052   4.474   3.378  1.00  0.00    -0.283 N 
ATOM      7  C   UNL     1       4.271   2.167   3.693  1.00  0.00     0.029 C 
ATOM      8  C   UNL     1       5.034   3.261   3.525  1.00  0.00     0.081 C 
ATOM      9  S   UNL     1       4.545   4.861   3.117  1.00  0.00    -0.054 SA
ATOM     10  C   UNL     1       6.514   3.232   3.679  1.00  0.00     0.266 C 
ATOM     11  C   UNL     1       6.184   5.409   2.865  1.00  0.00     0.148 C 
ATOM     12  O   UNL     1       7.143   2.238   4.015  1.00  0.00    -0.268 OA
ATOM     13  S   UNL     1       6.519   6.858   2.113  1.00  0.00    -0.052 S 
BRANCH   7  14
ATOM     14  C   UNL     1       2.809   2.055   3.523  1.00  0.00    -0.024 A 
ATOM     15  C   UNL     1       0.067   1.704   3.052  1.00  0.00     0.119 A 
ATOM     16  C   UNL     1       0.709   0.908   3.997  1.00  0.00     0.047 A 
ATOM     17  C   UNL     1       0.747   2.735   2.428  1.00  0.00     0.047 A 
ATOM     18  C   UNL     1       2.079   1.093   4.240  1.00  0.00     0.012 A 
ATOM     19  C   UNL     1       2.120   2.840   2.592  1.00  0.00     0.012 A 
BRANCH  15  20
ATOM     20  O   UNL     1      -1.231   1.486   2.694  1.00  0.00    -0.494 OA
BRANCH  20  21
ATOM     21  C   UNL     1      -1.333   0.589   1.568  1.00  0.00     0.230 C 
BRANCH  21  22
ATOM     22  C   UNL     1      -1.003   1.229   0.202  1.00  0.00     0.044 C 
BRANCH  22  23
ATOM     23  C   UNL     1       0.452   1.037  -0.293  1.00  0.00    -0.014 C 
ATOM     24  C   UNL     1       0.766  -0.407  -0.675  1.00  0.00     0.007 C 
ATOM     25  C   UNL     1       0.750   1.974  -1.468  1.00  0.00     0.007 C 
ENDBRANCH  22  23
ENDBRANCH  21  22
ENDBRANCH  20  21
ENDBRANCH  15  20
ENDBRANCH   7  14
ENDBRANCH   5   6
ENDBRANCH   1   5
BRANCH   3  26
ATOM     26  C   UNL     1       7.364   6.261   5.973  1.00  0.00     0.117 C 
BRANCH  26  27
ATOM     27  C   UNL     1       6.037   5.777   6.545  1.00  0.00     0.042 C 
BRANCH  27  28
ATOM     28  C   UNL     1       6.070   5.513   8.047  1.00  0.00     0.118 C 
BRANCH  28  29
ATOM     29  N   UNL     1       6.325   6.718   8.823  1.00  0.00    -0.352 N 
ATOM     30  C   UNL     1       5.591   7.309   9.820  1.00  0.00     0.251 C 
ATOM     31  H   UNL     1       7.162   7.186   8.595  1.00  0.00     0.163 HD
ATOM     32  O   UNL     1       5.901   8.429  10.216  1.00  0.00    -0.269 OA
BRANCH  30  33
ATOM     33  C   UNL     1       4.421   6.622  10.410  1.00  0.00     0.039 A 
ATOM     34  C   UNL     1       3.283   7.375  10.710  1.00  0.00     0.014 A 
ATOM     35  C   UNL     1       4.449   5.256  10.700  1.00  0.00     0.014 A 
ATOM     36  C   UNL     1       2.152   6.748  11.238  1.00  0.00     0.010 A 
ATOM     37  C   UNL     1       3.296   4.617  11.150  1.00  0.00     0.010 A 
ATOM     38  C   UNL     1       2.136   5.356  11.424  1.00  0.00    -0.014 A 
BRANCH  38  39
ATOM     39  C   UNL     1       0.911   4.656  11.890  1.00  0.00     0.031 A 
ATOM     40  C   UNL     1       0.909   3.915  13.198  1.00  0.00     0.074 A 
ATOM     41  C   UNL     1      -0.180   4.633  11.100  1.00  0.00     0.049 A 
ATOM     42  N   UNL     1      -0.034   3.181  13.734  1.00  0.00    -0.248 NA
ATOM     43  C   UNL     1       2.140   3.987  14.001  1.00  0.00     0.031 C 
ATOM     44  C   UNL     1      -0.288   5.277   9.790  1.00  0.00     0.029 A 
ATOM     45  N   UNL     1      -1.402   4.032  11.275  1.00  0.00    -0.354 N 
ATOM     46  C   UNL     1       0.492   2.697  14.924  1.00  0.00     0.074 A 
ATOM     47  C   UNL     1       1.856   3.175  15.008  1.00  0.00     0.031 C 
ATOM     48  C   UNL     1      -1.514   5.056   9.290  1.00  0.00     0.029 A 
ATOM     49  C   UNL     1      -2.262   4.216  10.220  1.00  0.00     0.049 A 
ATOM     50  H   UNL     1      -1.639   3.519  12.081  1.00  0.00     0.167 HD
ATOM     51  C   UNL     1      -0.114   1.942  15.871  1.00  0.00     0.037 A 
ATOM     52  C   UNL     1      -3.509   3.748  10.018  1.00  0.00     0.037 A 
ATOM     53  C   UNL     1      -1.476   1.481  15.789  1.00  0.00     0.049 A 
ATOM     54  C   UNL     1      -4.149   2.889  11.074  1.00  0.00     0.074 A 
ATOM     55  C   UNL     1      -2.199   0.756  16.720  1.00  0.00     0.029 A 
ATOM     56  N   UNL     1      -2.320   1.695  14.708  1.00  0.00    -0.354 N 
ATOM     57  N   UNL     1      -3.666   2.494  12.227  1.00  0.00    -0.248 NA
ATOM     58  C   UNL     1      -5.512   2.413  10.802  1.00  0.00     0.031 C 
ATOM     59  C   UNL     1      -3.459   0.480  16.179  1.00  0.00     0.029 A 
ATOM     60  C   UNL     1      -3.546   1.089  14.938  1.00  0.00     0.049 A 
ATOM     61  H   UNL     1      -2.083   2.201  13.898  1.00  0.00     0.167 HD
ATOM     62  C   UNL     1      -4.673   1.753  12.831  1.00  0.00     0.074 A 
ATOM     63  C   UNL     1      -5.801   1.767  11.923  1.00  0.00     0.031 C 
ATOM     64  C   UNL     1      -4.663   1.117  14.028  1.00  0.00     0.037 A 
BRANCH  51  65
ATOM     65  C   UNL     1       0.692   1.559  17.080  1.00  0.00     0.064 A 
ATOM     66  C   UNL     1       1.089   2.510  18.034  1.00  0.00     0.173 A 
ATOM     67  C   UNL     1       1.037   0.218  17.312  1.00  0.00     0.173 A 
ATOM     68  F   UNL     1       0.794   3.807  17.858  1.00  0.00    -0.203 F 
ATOM     69  C   UNL     1       1.825   2.137  19.156  1.00  0.00     0.198 A 
ATOM     70  C   UNL     1       1.743  -0.155  18.452  1.00  0.00     0.198 A 
ATOM     71  F   UNL     1       0.678  -0.733  16.437  1.00  0.00    -0.203 F 
ATOM     72  F   UNL     1       2.236   3.070  20.026  1.00  0.00    -0.200 F 
ATOM     73  C   UNL     1       2.144   0.804  19.368  1.00  0.00     0.200 A 
ATOM     74  F   UNL     1       2.037  -1.446  18.663  1.00  0.00    -0.200 F 
ATOM     75  F   UNL     1       2.844   0.446  20.454  1.00  0.00    -0.200 F 
ENDBRANCH  51  65
BRANCH  52  76
ATOM     76  C   UNL     1      -4.240   4.093   8.770  1.00  0.00     0.064 A 
ATOM     77  C   UNL     1      -5.372   4.919   8.803  1.00  0.00     0.173 A 
ATOM     78  C   UNL     1      -3.832   3.596   7.522  1.00  0.00     0.173 A 
ATOM     79  F   UNL     1      -5.815   5.401   9.973  1.00  0.00    -0.203 F 
ATOM     80  C   UNL     1      -6.083   5.213   7.641  1.00  0.00     0.198 A 
ATOM     81  C   UNL     1      -4.524   3.919   6.357  1.00  0.00     0.198 A 
ATOM     82  F   UNL     1      -2.753   2.804   7.436  1.00  0.00    -0.203 F 
ATOM     83  F   UNL     1      -7.194   5.960   7.710  1.00  0.00    -0.200 F 
ATOM     84  C   UNL     1      -5.655   4.718   6.419  1.00  0.00     0.200 A 
ATOM     85  F   UNL     1      -4.100   3.450   5.176  1.00  0.00    -0.200 F 
ATOM     86  F   UNL     1      -6.339   5.004   5.302  1.00  0.00    -0.200 F 
ENDBRANCH  52  76
BRANCH  64  87
ATOM     87  C   UNL     1      -5.925   0.416  14.447  1.00  0.00     0.064 A 
ATOM     88  C   UNL     1      -6.369  -0.752  13.811  1.00  0.00     0.173 A 
ATOM     89  C   UNL     1      -6.681   0.903  15.525  1.00  0.00     0.173 A 
ATOM     90  F   UNL     1      -5.691  -1.252  12.766  1.00  0.00    -0.203 F 
ATOM     91  C   UNL     1      -7.538  -1.390  14.219  1.00  0.00     0.198 A 
ATOM     92  C   UNL     1      -7.830   0.244  15.953  1.00  0.00     0.198 A 
ATOM     93  F   UNL     1      -6.298   2.013  16.174  1.00  0.00    -0.203 F 
ATOM     94  F   UNL     1      -7.972  -2.474  13.561  1.00  0.00    -0.200 F 
ATOM     95  C   UNL     1      -8.262  -0.897  15.294  1.00  0.00     0.200 A 
ATOM     96  F   UNL     1      -8.518   0.712  17.003  1.00  0.00    -0.200 F 
ATOM     97  F   UNL     1      -9.382  -1.517  15.690  1.00  0.00    -0.200 F 
ENDBRANCH  64  87
ENDBRANCH  38  39
ENDBRANCH  30  33
ENDBRANCH  28  29
ENDBRANCH  27  28
ENDBRANCH  26  27
ENDBRANCH   3  26
TORSDOF 16
