REMARK SMILES [NH3+][C@@H](CCS[C@@H]1CCO[C@@]2(CCOC2)C1)C(=O)NCCCNC(=O)c1ccc(-c2c3nc(c(-c4c(F)c(F)c(F)c(F)c4F)c4ccc([nH]4)c(-c4c(F)c(F)c(F)c(F)c4F)c4nc(c(-c5c(F)c(F)c(F)c(F)c5F)c5ccc2[nH]5)C=C4)C=C3)cc1
REMARK SMILES IDX 19 1 18 2 16 3 17 4 2 6 1 7 3 11 4 12 5 13 6 14 7 15 15 16
REMARK SMILES IDX 8 17 10 18 9 19 11 20 14 21 12 22 13 23 20 24 21 25 22 26
REMARK SMILES IDX 23 27 24 29 25 30 26 31 87 32 27 33 86 34 28 35 29 36 30 37
REMARK SMILES IDX 80 38 31 39 85 40 79 41 81 42 32 43 84 44 78 45 77 46 33 48
REMARK SMILES IDX 65 49 45 50 64 51 46 52 49 53 63 54 82 55 47 56 48 57 62 59
REMARK SMILES IDX 83 60 50 61 34 62 35 63 43 64 36 65 37 66 41 67 44 68 38 69
REMARK SMILES IDX 39 70 42 71 40 72 66 73 67 74 75 75 68 76 69 77 73 78 76 79
REMARK SMILES IDX 70 80 71 81 74 82 72 83 51 84 52 85 60 86 53 87 54 88 58 89
REMARK SMILES IDX 61 90 55 91 56 92 59 93 57 94
REMARK H PARENT 18 5 1 8 1 9 1 10 22 28 81 47 49 58
REMARK Flexibility Score: inf
ROOT
ATOM      1  C   UNL     1       0.155  -3.264   1.438  1.00  0.00     0.118 C 
ENDROOT
BRANCH   1   2
ATOM      2  N   UNL     1      -0.095  -1.984   0.787  1.00  0.00    -0.351 N 
ATOM      3  C   UNL     1       0.627  -1.151  -0.021  1.00  0.00     0.278 C 
ATOM      4  O   UNL     1       0.302   0.030  -0.173  1.00  0.00    -0.268 OA
ATOM      5  H   UNL     1      -0.998  -1.638   0.973  1.00  0.00     0.163 HD
BRANCH   3   6
ATOM      6  C   UNL     1       1.567  -1.712  -1.035  1.00  0.00     0.271 C 
BRANCH   6   7
ATOM      7  N   UNL     1       2.700  -2.379  -0.377  1.00  0.00    -0.347 N 
ATOM      8  H   UNL     1       3.330  -2.756  -1.085  1.00  0.00     0.345 HD
ATOM      9  H   UNL     1       2.354  -3.139   0.210  1.00  0.00     0.345 HD
ATOM     10  H   UNL     1       3.203  -1.705   0.201  1.00  0.00     0.345 HD
ENDBRANCH   6   7
BRANCH   6  11
ATOM     11  C   UNL     1       0.739  -2.532  -2.035  1.00  0.00     0.086 C 
BRANCH  11  12
ATOM     12  C   UNL     1      -0.825  -2.568  -1.897  1.00  0.00     0.076 C 
BRANCH  12  13
ATOM     13  S   UNL     1      -1.891  -1.067  -2.151  1.00  0.00    -0.158 SA
BRANCH  13  14
ATOM     14  C   UNL     1      -2.459   0.001  -0.599  1.00  0.00     0.052 C 
ATOM     15  C   UNL     1      -2.356   1.467  -1.065  1.00  0.00     0.043 C 
ATOM     16  C   UNL     1      -2.524  -0.105   0.978  1.00  0.00     0.052 C 
ATOM     17  C   UNL     1      -1.708   2.407  -0.067  1.00  0.00     0.162 C 
ATOM     18  C   UNL     1      -1.989   1.062   1.873  1.00  0.00     0.095 C 
ATOM     19  O   UNL     1      -2.309   2.291   1.216  1.00  0.00    -0.372 OA
ATOM     20  C   UNL     1      -2.701   1.093   3.238  1.00  0.00     0.066 C 
ATOM     21  C   UNL     1      -0.527   1.032   2.375  1.00  0.00     0.195 C 
ATOM     22  C   UNL     1      -1.766   0.450   4.239  1.00  0.00     0.163 C 
ATOM     23  O   UNL     1      -0.459   0.494   3.702  1.00  0.00    -0.378 OA
ENDBRANCH  13  14
ENDBRANCH  12  13
ENDBRANCH  11  12
ENDBRANCH   6  11
ENDBRANCH   3   6
ENDBRANCH   1   2
BRANCH   1  24
ATOM     24  C   UNL     1      -0.531  -3.338   2.823  1.00  0.00     0.042 C 
BRANCH  24  25
ATOM     25  C   UNL     1      -2.065  -3.201   2.882  1.00  0.00     0.118 C 
BRANCH  25  26
ATOM     26  N   UNL     1      -2.839  -4.410   3.049  1.00  0.00    -0.352 N 
ATOM     27  C   UNL     1      -3.976  -4.610   3.814  1.00  0.00     0.251 C 
ATOM     28  H   UNL     1      -2.515  -5.197   2.553  1.00  0.00     0.163 HD
ATOM     29  O   UNL     1      -4.627  -5.630   3.673  1.00  0.00    -0.269 OA
BRANCH  27  30
ATOM     30  C   UNL     1      -4.377  -3.643   4.876  1.00  0.00     0.039 A 
ATOM     31  C   UNL     1      -4.457  -4.141   6.179  1.00  0.00     0.014 A 
ATOM     32  C   UNL     1      -4.734  -2.312   4.631  1.00  0.00     0.014 A 
ATOM     33  C   UNL     1      -4.836  -3.306   7.236  1.00  0.00     0.010 A 
ATOM     34  C   UNL     1      -5.074  -1.462   5.704  1.00  0.00     0.010 A 
ATOM     35  C   UNL     1      -5.125  -1.947   7.022  1.00  0.00    -0.014 A 
BRANCH  35  36
ATOM     36  C   UNL     1      -5.444  -1.086   8.205  1.00  0.00     0.031 A 
ATOM     37  C   UNL     1      -6.823  -0.525   8.436  1.00  0.00     0.074 A 
ATOM     38  C   UNL     1      -4.491  -0.857   9.134  1.00  0.00     0.049 A 
ATOM     39  N   UNL     1      -7.311   0.057   9.508  1.00  0.00    -0.248 NA
ATOM     40  C   UNL     1      -7.773  -0.610   7.320  1.00  0.00     0.031 C 
ATOM     41  C   UNL     1      -3.094  -1.275   9.025  1.00  0.00     0.029 A 
ATOM     42  N   UNL     1      -4.558  -0.242  10.364  1.00  0.00    -0.354 N 
ATOM     43  C   UNL     1      -8.624   0.389   9.202  1.00  0.00     0.074 A 
ATOM     44  C   UNL     1      -8.838   0.002   7.822  1.00  0.00     0.031 C 
ATOM     45  C   UNL     1      -2.449  -0.955  10.158  1.00  0.00     0.029 A 
ATOM     46  C   UNL     1      -3.380  -0.296  11.072  1.00  0.00     0.049 A 
ATOM     47  H   UNL     1      -5.372   0.194  10.704  1.00  0.00     0.167 HD
ATOM     48  C   UNL     1      -9.575   0.939   9.999  1.00  0.00     0.037 A 
ATOM     49  C   UNL     1      -3.084   0.109  12.323  1.00  0.00     0.037 A 
ATOM     50  C   UNL     1      -9.375   1.330  11.374  1.00  0.00     0.049 A 
ATOM     51  C   UNL     1      -4.160   0.703  13.194  1.00  0.00     0.074 A 
ATOM     52  C   UNL     1     -10.300   1.842  12.270  1.00  0.00     0.029 A 
ATOM     53  N   UNL     1      -8.166   1.268  12.049  1.00  0.00    -0.354 N 
ATOM     54  N   UNL     1      -5.427   0.901  12.929  1.00  0.00    -0.248 NA
ATOM     55  C   UNL     1      -3.763   1.108  14.552  1.00  0.00     0.031 C 
ATOM     56  C   UNL     1      -9.640   2.135  13.469  1.00  0.00     0.029 A 
ATOM     57  C   UNL     1      -8.316   1.754  13.340  1.00  0.00     0.049 A 
ATOM     58  H   UNL     1      -7.324   0.928  11.668  1.00  0.00     0.167 HD
ATOM     59  C   UNL     1      -5.982   1.427  14.089  1.00  0.00     0.074 A 
ATOM     60  C   UNL     1      -4.920   1.492  15.070  1.00  0.00     0.031 C 
ATOM     61  C   UNL     1      -7.260   1.820  14.318  1.00  0.00     0.037 A 
BRANCH  48  62
ATOM     62  C   UNL     1     -10.943   1.145   9.408  1.00  0.00     0.064 A 
ATOM     63  C   UNL     1     -11.783   0.061   9.112  1.00  0.00     0.173 A 
ATOM     64  C   UNL     1     -11.443   2.438   9.190  1.00  0.00     0.173 A 
ATOM     65  F   UNL     1     -11.354  -1.196   9.300  1.00  0.00    -0.203 F 
ATOM     66  C   UNL     1     -13.059   0.262   8.590  1.00  0.00     0.198 A 
ATOM     67  C   UNL     1     -12.731   2.636   8.697  1.00  0.00     0.198 A 
ATOM     68  F   UNL     1     -10.689   3.512   9.470  1.00  0.00    -0.203 F 
ATOM     69  F   UNL     1     -13.824  -0.792   8.273  1.00  0.00    -0.200 F 
ATOM     70  C   UNL     1     -13.534   1.548   8.390  1.00  0.00     0.200 A 
ATOM     71  F   UNL     1     -13.196   3.881   8.521  1.00  0.00    -0.200 F 
ATOM     72  F   UNL     1     -14.765   1.740   7.896  1.00  0.00    -0.200 F 
ENDBRANCH  48  62
BRANCH  49  73
ATOM     73  C   UNL     1      -1.708  -0.079  12.858  1.00  0.00     0.064 A 
ATOM     74  C   UNL     1      -1.449  -0.996  13.887  1.00  0.00     0.173 A 
ATOM     75  C   UNL     1      -0.630   0.673  12.369  1.00  0.00     0.173 A 
ATOM     76  F   UNL     1      -2.451  -1.720  14.406  1.00  0.00    -0.203 F 
ATOM     77  C   UNL     1      -0.170  -1.136  14.422  1.00  0.00     0.198 A 
ATOM     78  C   UNL     1       0.654   0.509  12.884  1.00  0.00     0.198 A 
ATOM     79  F   UNL     1      -0.824   1.563  11.385  1.00  0.00    -0.203 F 
ATOM     80  F   UNL     1       0.038  -1.981  15.442  1.00  0.00    -0.200 F 
ATOM     81  C   UNL     1       0.882  -0.388  13.917  1.00  0.00     0.200 A 
ATOM     82  F   UNL     1       1.671   1.226  12.384  1.00  0.00    -0.200 F 
ATOM     83  F   UNL     1       2.111  -0.523  14.431  1.00  0.00    -0.200 F 
ENDBRANCH  49  73
BRANCH  61  84
ATOM     84  C   UNL     1      -7.589   2.332  15.694  1.00  0.00     0.064 A 
ATOM     85  C   UNL     1      -7.090   3.556  16.168  1.00  0.00     0.173 A 
ATOM     86  C   UNL     1      -8.423   1.593  16.548  1.00  0.00     0.173 A 
ATOM     87  F   UNL     1      -6.279   4.297  15.398  1.00  0.00    -0.203 F 
ATOM     88  C   UNL     1      -7.379   3.999  17.456  1.00  0.00     0.198 A 
ATOM     89  C   UNL     1      -8.737   2.055  17.824  1.00  0.00     0.198 A 
ATOM     90  F   UNL     1      -8.935   0.420  16.146  1.00  0.00    -0.203 F 
ATOM     91  F   UNL     1      -6.839   5.140  17.908  1.00  0.00    -0.200 F 
ATOM     92  C   UNL     1      -8.206   3.251  18.282  1.00  0.00     0.200 A 
ATOM     93  F   UNL     1      -9.547   1.338  18.615  1.00  0.00    -0.200 F 
ATOM     94  F   UNL     1      -8.481   3.678  19.522  1.00  0.00    -0.200 F 
ENDBRANCH  61  84
ENDBRANCH  35  36
ENDBRANCH  27  30
ENDBRANCH  25  26
ENDBRANCH  24  25
ENDBRANCH   1  24
TORSDOF 15
