REMARK SMILES Cc1cc(C)c2c(c1)C=C(C(=O)NCCCNC(=O)c1ccc(-c3c4nc(c(-c5c(F)c(F)c(F)c(F)c5F)c5ccc([nH]5)c(-c5c(F)c(F)c(F)c(F)c5F)c5nc(c(-c6c(F)c(F)c(F)c(F)c6F)c6ccc3[nH]6)C=C5)C=C4)cc1)[C@@H](C(F)(F)F)O2
REMARK SMILES IDX 15 1 14 2 13 3 11 4 12 5 10 7 1 8 2 9 3 10 8 11 4 12 7 13
REMARK SMILES IDX 5 14 6 15 9 16 88 17 83 18 84 19 85 20 86 21 87 22 16 23
REMARK SMILES IDX 17 24 18 25 19 27 20 28 21 29 82 30 22 31 81 32 23 33 24 34
REMARK SMILES IDX 25 35 75 36 26 37 80 38 74 39 76 40 27 41 79 42 73 43 72 44
REMARK SMILES IDX 28 46 60 47 40 48 59 49 41 50 44 51 58 52 77 53 42 54 43 55
REMARK SMILES IDX 57 57 78 58 45 59 29 60 30 61 38 62 31 63 32 64 36 65 39 66
REMARK SMILES IDX 33 67 34 68 37 69 35 70 61 71 62 72 70 73 63 74 64 75 68 76
REMARK SMILES IDX 71 77 65 78 66 79 69 80 67 81 46 82 47 83 55 84 48 85 49 86
REMARK SMILES IDX 53 87 56 88 50 89 51 90 54 91 52 92
REMARK H PARENT 13 6 17 26 76 45 44 56
REMARK Flexibility Score: inf
ROOT
ATOM      1  C   UNL     1      -1.377   1.435   9.584  1.00  0.00     0.042 C 
ENDROOT
BRANCH   1   2
ATOM      2  C   UNL     1      -2.362   1.563   8.432  1.00  0.00     0.118 C 
BRANCH   2   3
ATOM      3  N   UNL     1      -1.972   2.609   7.499  1.00  0.00    -0.352 N 
ATOM      4  C   UNL     1      -1.473   2.682   6.243  1.00  0.00     0.251 C 
ATOM      5  O   UNL     1      -1.281   3.827   5.820  1.00  0.00    -0.270 OA
ATOM      6  H   UNL     1      -2.107   3.504   7.885  1.00  0.00     0.163 HD
BRANCH   4   7
ATOM      7  C   UNL     1      -1.152   1.509   5.382  1.00  0.00     0.067 C 
ATOM      8  C   UNL     1       0.944   0.042  -0.251  1.00  0.00     0.044 C 
ATOM      9  C   UNL     1       0.470  -0.192   1.153  1.00  0.00    -0.050 A 
ATOM     10  C   UNL     1       0.414  -1.496   1.664  1.00  0.00     0.010 A 
ATOM     11  C   UNL     1       0.143   0.889   1.984  1.00  0.00     0.015 A 
ATOM     12  C   UNL     1       0.019  -1.732   2.985  1.00  0.00    -0.008 A 
ATOM     13  C   UNL     1      -0.260   0.669   3.304  1.00  0.00     0.018 A 
ATOM     14  C   UNL     1      -0.053  -3.130   3.529  1.00  0.00     0.048 C 
ATOM     15  C   UNL     1      -0.319  -0.640   3.791  1.00  0.00     0.130 A 
ATOM     16  C   UNL     1      -0.581   1.780   4.194  1.00  0.00     0.025 C 
ATOM     17  O   UNL     1      -0.655  -0.912   5.088  1.00  0.00    -0.475 OA
ATOM     18  C   UNL     1      -1.454   0.089   5.762  1.00  0.00     0.314 C 
BRANCH  18  19
ATOM     19  C   UNL     1      -2.947  -0.265   5.620  1.00  0.00     0.429 C 
ATOM     20  F   UNL     1      -3.233  -1.382   6.336  1.00  0.00    -0.167 F 
ATOM     21  F   UNL     1      -3.760   0.709   6.095  1.00  0.00    -0.167 F 
ATOM     22  F   UNL     1      -3.318  -0.494   4.343  1.00  0.00    -0.167 F 
ENDBRANCH  18  19
ENDBRANCH   4   7
ENDBRANCH   2   3
ENDBRANCH   1   2
BRANCH   1  23
ATOM     23  C   UNL     1      -1.585   2.518  10.633  1.00  0.00     0.118 C 
BRANCH  23  24
ATOM     24  N   UNL     1      -2.896   2.405  11.271  1.00  0.00    -0.352 N 
ATOM     25  C   UNL     1      -3.237   1.953  12.518  1.00  0.00     0.251 C 
ATOM     26  H   UNL     1      -3.653   2.701  10.716  1.00  0.00     0.163 HD
ATOM     27  O   UNL     1      -4.405   1.660  12.767  1.00  0.00    -0.269 OA
BRANCH  25  28
ATOM     28  C   UNL     1      -2.206   1.820  13.562  1.00  0.00     0.039 A 
ATOM     29  C   UNL     1      -2.251   0.733  14.438  1.00  0.00     0.014 A 
ATOM     30  C   UNL     1      -1.210   2.790  13.695  1.00  0.00     0.014 A 
ATOM     31  C   UNL     1      -1.258   0.589  15.406  1.00  0.00     0.010 A 
ATOM     32  C   UNL     1      -0.167   2.592  14.587  1.00  0.00     0.010 A 
ATOM     33  C   UNL     1      -0.190   1.501  15.465  1.00  0.00    -0.014 A 
BRANCH  33  34
ATOM     34  C   UNL     1       0.896   1.356  16.461  1.00  0.00     0.031 A 
ATOM     35  C   UNL     1       1.104   2.428  17.495  1.00  0.00     0.074 A 
ATOM     36  C   UNL     1       1.725   0.296  16.393  1.00  0.00     0.049 A 
ATOM     37  N   UNL     1       2.042   2.529  18.401  1.00  0.00    -0.248 NA
ATOM     38  C   UNL     1       0.152   3.553  17.493  1.00  0.00     0.031 C 
ATOM     39  C   UNL     1       1.646  -0.776  15.399  1.00  0.00     0.029 A 
ATOM     40  N   UNL     1       2.802  -0.049  17.169  1.00  0.00    -0.354 N 
ATOM     41  C   UNL     1       1.800   3.726  19.061  1.00  0.00     0.074 A 
ATOM     42  C   UNL     1       0.667   4.350  18.418  1.00  0.00     0.031 C 
ATOM     43  C   UNL     1       2.615  -1.673  15.642  1.00  0.00     0.029 A 
ATOM     44  C   UNL     1       3.409  -1.219  16.780  1.00  0.00     0.049 A 
ATOM     45  H   UNL     1       3.112   0.490  17.932  1.00  0.00     0.167 HD
ATOM     46  C   UNL     1       2.448   4.241  20.130  1.00  0.00     0.037 A 
ATOM     47  C   UNL     1       4.489  -1.848  17.282  1.00  0.00     0.037 A 
ATOM     48  C   UNL     1       3.545   3.589  20.793  1.00  0.00     0.049 A 
ATOM     49  C   UNL     1       5.189  -1.251  18.474  1.00  0.00     0.074 A 
ATOM     50  C   UNL     1       4.222   3.993  21.929  1.00  0.00     0.029 A 
ATOM     51  N   UNL     1       4.119   2.396  20.382  1.00  0.00    -0.354 N 
ATOM     52  N   UNL     1       4.904  -0.154  19.135  1.00  0.00    -0.248 NA
ATOM     53  C   UNL     1       6.355  -1.978  18.995  1.00  0.00     0.031 C 
ATOM     54  C   UNL     1       5.242   3.071  22.176  1.00  0.00     0.029 A 
ATOM     55  C   UNL     1       5.163   2.063  21.228  1.00  0.00     0.049 A 
ATOM     56  H   UNL     1       3.829   1.866  19.605  1.00  0.00     0.167 HD
ATOM     57  C   UNL     1       5.838  -0.072  20.159  1.00  0.00     0.074 A 
ATOM     58  C   UNL     1       6.685  -1.241  20.046  1.00  0.00     0.031 C 
ATOM     59  C   UNL     1       5.986   0.888  21.104  1.00  0.00     0.037 A 
BRANCH  46  60
ATOM     60  C   UNL     1       1.982   5.556  20.679  1.00  0.00     0.064 A 
ATOM     61  C   UNL     1       0.772   5.668  21.381  1.00  0.00     0.173 A 
ATOM     62  C   UNL     1       2.801   6.691  20.595  1.00  0.00     0.173 A 
ATOM     63  F   UNL     1      -0.053   4.615  21.477  1.00  0.00    -0.203 F 
ATOM     64  C   UNL     1       0.400   6.870  21.977  1.00  0.00     0.198 A 
ATOM     65  C   UNL     1       2.439   7.883  21.216  1.00  0.00     0.198 A 
ATOM     66  F   UNL     1       3.969   6.636  19.936  1.00  0.00    -0.203 F 
ATOM     67  F   UNL     1      -0.770   6.960  22.624  1.00  0.00    -0.200 F 
ATOM     68  C   UNL     1       1.240   7.971  21.907  1.00  0.00     0.200 A 
ATOM     69  F   UNL     1       3.259   8.942  21.160  1.00  0.00    -0.200 F 
ATOM     70  F   UNL     1       0.894   9.118  22.508  1.00  0.00    -0.200 F 
ENDBRANCH  46  60
BRANCH  47  71
ATOM     71  C   UNL     1       4.960  -3.120  16.673  1.00  0.00     0.064 A 
ATOM     72  C   UNL     1       4.870  -4.332  17.372  1.00  0.00     0.173 A 
ATOM     73  C   UNL     1       5.510  -3.153  15.383  1.00  0.00     0.173 A 
ATOM     74  F   UNL     1       4.368  -4.352  18.615  1.00  0.00    -0.203 F 
ATOM     75  C   UNL     1       5.330  -5.523  16.813  1.00  0.00     0.198 A 
ATOM     76  C   UNL     1       5.941  -4.349  14.812  1.00  0.00     0.198 A 
ATOM     77  F   UNL     1       5.615  -2.023  14.667  1.00  0.00    -0.203 F 
ATOM     78  F   UNL     1       5.275  -6.658  17.523  1.00  0.00    -0.200 F 
ATOM     79  C   UNL     1       5.860  -5.532  15.531  1.00  0.00     0.200 A 
ATOM     80  F   UNL     1       6.435  -4.355  13.567  1.00  0.00    -0.200 F 
ATOM     81  F   UNL     1       6.297  -6.678  14.992  1.00  0.00    -0.200 F 
ENDBRANCH  47  71
BRANCH  59  82
ATOM     82  C   UNL     1       7.089   0.717  22.106  1.00  0.00     0.064 A 
ATOM     83  C   UNL     1       8.433   0.891  21.749  1.00  0.00     0.173 A 
ATOM     84  C   UNL     1       6.792   0.467  23.454  1.00  0.00     0.173 A 
ATOM     85  F   UNL     1       8.768   1.121  20.470  1.00  0.00    -0.203 F 
ATOM     86  C   UNL     1       9.442   0.809  22.704  1.00  0.00     0.198 A 
ATOM     87  C   UNL     1       7.800   0.419  24.412  1.00  0.00     0.198 A 
ATOM     88  F   UNL     1       5.519   0.305  23.848  1.00  0.00    -0.203 F 
ATOM     89  F   UNL     1      10.723   0.946  22.336  1.00  0.00    -0.200 F 
ATOM     90  C   UNL     1       9.124   0.586  24.036  1.00  0.00     0.200 A 
ATOM     91  F   UNL     1       7.488   0.225  25.701  1.00  0.00    -0.200 F 
ATOM     92  F   UNL     1      10.095   0.531  24.957  1.00  0.00    -0.200 F 
ENDBRANCH  59  82
ENDBRANCH  33  34
ENDBRANCH  25  28
ENDBRANCH  23  24
ENDBRANCH   1  23
TORSDOF 11
