REMARK SMILES CC[C@H]1CCCC[C@@H]1C1(C(=O)NCCCNC(=O)c2ccc(-c3c4nc(c(-c5c(F)c(F)c(F)c(F)c5F)c5ccc([nH]5)c(-c5c(F)c(F)c(F)c(F)c5F)c5nc(c(-c6c(F)c(F)c(F)c(F)c6F)c6ccc3[nH]6)C=C5)C=C4)cc2)CC1
REMARK SMILES IDX 14 1 13 2 12 3 10 4 11 5 9 7 82 8 83 9 8 10 3 11 4 12 5 13
REMARK SMILES IDX 7 14 6 15 2 16 1 17 15 18 16 19 17 20 18 22 19 23 20 24
REMARK SMILES IDX 81 25 21 26 80 27 22 28 23 29 24 30 74 31 25 32 79 33 73 34
REMARK SMILES IDX 75 35 26 36 78 37 72 38 71 39 27 41 59 42 39 43 58 44 40 45
REMARK SMILES IDX 43 46 57 47 76 48 41 49 42 50 56 52 77 53 44 54 28 55 29 56
REMARK SMILES IDX 37 57 30 58 31 59 35 60 38 61 32 62 33 63 36 64 34 65 60 66
REMARK SMILES IDX 61 67 69 68 62 69 63 70 67 71 70 72 64 73 65 74 68 75 66 76
REMARK SMILES IDX 45 77 46 78 54 79 47 80 48 81 52 82 55 83 49 84 50 85 53 86
REMARK SMILES IDX 51 87
REMARK H PARENT 12 6 16 21 75 40 43 51
REMARK Flexibility Score: inf
ROOT
ATOM      1  C   UNL     1      -3.465   4.103   3.328  1.00  0.00     0.042 C 
ENDROOT
BRANCH   1   2
ATOM      2  C   UNL     1      -2.930   3.683   1.964  1.00  0.00     0.117 C 
BRANCH   2   3
ATOM      3  N   UNL     1      -1.486   3.744   1.890  1.00  0.00    -0.356 N 
ATOM      4  C   UNL     1      -0.469   2.837   1.912  1.00  0.00     0.226 C 
ATOM      5  O   UNL     1       0.647   3.301   1.672  1.00  0.00    -0.274 OA
ATOM      6  H   UNL     1      -1.157   4.668   1.802  1.00  0.00     0.163 HD
BRANCH   4   7
ATOM      7  C   UNL     1      -0.603   1.341   2.196  1.00  0.00     0.052 C 
ATOM      8  C   UNL     1      -1.483   0.589   1.193  1.00  0.00     0.018 C 
ATOM      9  C   UNL     1      -1.900   0.678   2.627  1.00  0.00     0.018 C 
BRANCH   7  10
ATOM     10  C   UNL     1       0.728   0.713   2.748  1.00  0.00     0.008 C 
ATOM     11  C   UNL     1       1.012  -0.800   2.515  1.00  0.00    -0.007 C 
ATOM     12  C   UNL     1       0.425  -1.711   3.611  1.00  0.00     0.004 C 
ATOM     13  C   UNL     1       0.698  -1.225   5.029  1.00  0.00     0.000 C 
ATOM     14  C   UNL     1       0.949   1.141   4.216  1.00  0.00     0.005 C 
ATOM     15  C   UNL     1       0.279   0.223   5.229  1.00  0.00     0.000 C 
BRANCH  11  16
ATOM     16  C   UNL     1       2.544  -1.059   2.413  1.00  0.00     0.000 C 
ATOM     17  C   UNL     1       3.136  -0.647   1.068  1.00  0.00     0.004 C 
ENDBRANCH  11  16
ENDBRANCH   7  10
ENDBRANCH   4   7
ENDBRANCH   2   3
ENDBRANCH   1   2
BRANCH   1  18
ATOM     18  C   UNL     1      -2.970   5.470   3.802  1.00  0.00     0.118 C 
BRANCH  18  19
ATOM     19  N   UNL     1      -3.175   6.527   2.817  1.00  0.00    -0.352 N 
ATOM     20  C   UNL     1      -3.983   7.634   2.842  1.00  0.00     0.251 C 
ATOM     21  H   UNL     1      -2.643   6.428   1.994  1.00  0.00     0.163 HD
ATOM     22  O   UNL     1      -4.151   8.295   1.819  1.00  0.00    -0.269 OA
BRANCH  20  23
ATOM     23  C   UNL     1      -4.675   8.020   4.085  1.00  0.00     0.039 A 
ATOM     24  C   UNL     1      -6.024   8.377   4.025  1.00  0.00     0.014 A 
ATOM     25  C   UNL     1      -3.996   8.030   5.305  1.00  0.00     0.014 A 
ATOM     26  C   UNL     1      -6.718   8.650   5.204  1.00  0.00     0.010 A 
ATOM     27  C   UNL     1      -4.705   8.224   6.485  1.00  0.00     0.010 A 
ATOM     28  C   UNL     1      -6.076   8.520   6.446  1.00  0.00    -0.014 A 
BRANCH  28  29
ATOM     29  C   UNL     1      -6.829   8.637   7.718  1.00  0.00     0.031 A 
ATOM     30  C   UNL     1      -6.506   9.726   8.698  1.00  0.00     0.074 A 
ATOM     31  C   UNL     1      -7.746   7.699   8.025  1.00  0.00     0.049 A 
ATOM     32  N   UNL     1      -7.003   9.940   9.891  1.00  0.00    -0.248 NA
ATOM     33  C   UNL     1      -5.467  10.685   8.297  1.00  0.00     0.031 C 
ATOM     34  C   UNL     1      -8.116   6.570   7.170  1.00  0.00     0.029 A 
ATOM     35  N   UNL     1      -8.525   7.538   9.142  1.00  0.00    -0.354 N 
ATOM     36  C   UNL     1      -6.327  11.047  10.386  1.00  0.00     0.074 A 
ATOM     37  C   UNL     1      -5.349  11.425   9.389  1.00  0.00     0.031 C 
ATOM     38  C   UNL     1      -9.075   5.854   7.777  1.00  0.00     0.029 A 
ATOM     39  C   UNL     1      -9.350   6.442   9.084  1.00  0.00     0.049 A 
ATOM     40  H   UNL     1      -8.496   8.151   9.912  1.00  0.00     0.167 HD
ATOM     41  C   UNL     1      -6.520  11.698  11.559  1.00  0.00     0.037 A 
ATOM     42  C   UNL     1     -10.224   5.960   9.987  1.00  0.00     0.037 A 
ATOM     43  C   UNL     1      -7.502  11.315  12.541  1.00  0.00     0.049 A 
ATOM     44  C   UNL     1     -10.384   6.671  11.302  1.00  0.00     0.074 A 
ATOM     45  C   UNL     1      -7.829  11.949  13.727  1.00  0.00     0.029 A 
ATOM     46  N   UNL     1      -8.302  10.184  12.460  1.00  0.00    -0.354 N 
ATOM     47  N   UNL     1      -9.803   7.766  11.727  1.00  0.00    -0.248 NA
ATOM     48  C   UNL     1     -11.319   6.073  12.264  1.00  0.00     0.031 C 
ATOM     49  C   UNL     1      -8.776  11.165  14.395  1.00  0.00     0.029 A 
ATOM     50  C   UNL     1      -9.088  10.075  13.597  1.00  0.00     0.049 A 
ATOM     51  H   UNL     1      -8.310   9.551  11.706  1.00  0.00     0.167 HD
ATOM     52  C   UNL     1     -10.318   8.005  12.993  1.00  0.00     0.074 A 
ATOM     53  C   UNL     1     -11.271   6.947  13.261  1.00  0.00     0.031 C 
ATOM     54  C   UNL     1     -10.028   9.011  13.855  1.00  0.00     0.037 A 
BRANCH  41  55
ATOM     55  C   UNL     1      -5.632  12.876  11.849  1.00  0.00     0.064 A 
ATOM     56  C   UNL     1      -5.698  14.059  11.096  1.00  0.00     0.173 A 
ATOM     57  C   UNL     1      -4.700  12.822  12.897  1.00  0.00     0.173 A 
ATOM     58  F   UNL     1      -6.565  14.163  10.077  1.00  0.00    -0.203 F 
ATOM     59  C   UNL     1      -4.833  15.121  11.348  1.00  0.00     0.198 A 
ATOM     60  C   UNL     1      -3.863  13.900  13.171  1.00  0.00     0.198 A 
ATOM     61  F   UNL     1      -4.599  11.721  13.657  1.00  0.00    -0.203 F 
ATOM     62  F   UNL     1      -4.868  16.210  10.568  1.00  0.00    -0.200 F 
ATOM     63  C   UNL     1      -3.920  15.043  12.388  1.00  0.00     0.200 A 
ATOM     64  F   UNL     1      -2.992  13.829  14.188  1.00  0.00    -0.200 F 
ATOM     65  F   UNL     1      -3.086  16.064  12.628  1.00  0.00    -0.200 F 
ENDBRANCH  41  55
BRANCH  42  66
ATOM     66  C   UNL     1     -11.037   4.761   9.658  1.00  0.00     0.064 A 
ATOM     67  C   UNL     1     -12.417   4.875   9.440  1.00  0.00     0.173 A 
ATOM     68  C   UNL     1     -10.459   3.489   9.530  1.00  0.00     0.173 A 
ATOM     69  F   UNL     1     -13.018   6.066   9.570  1.00  0.00    -0.203 F 
ATOM     70  C   UNL     1     -13.189   3.762   9.115  1.00  0.00     0.198 A 
ATOM     71  C   UNL     1     -11.227   2.382   9.177  1.00  0.00     0.198 A 
ATOM     72  F   UNL     1      -9.141   3.327   9.723  1.00  0.00    -0.203 F 
ATOM     73  F   UNL     1     -14.511   3.894   8.944  1.00  0.00    -0.200 F 
ATOM     74  C   UNL     1     -12.592   2.518   8.975  1.00  0.00     0.200 A 
ATOM     75  F   UNL     1     -10.644   1.185   9.026  1.00  0.00    -0.200 F 
ATOM     76  F   UNL     1     -13.333   1.450   8.649  1.00  0.00    -0.200 F 
ENDBRANCH  42  66
BRANCH  54  77
ATOM     77  C   UNL     1     -10.764   9.030  15.165  1.00  0.00     0.064 A 
ATOM     78  C   UNL     1     -10.503   8.086  16.169  1.00  0.00     0.173 A 
ATOM     79  C   UNL     1     -11.709  10.031  15.435  1.00  0.00     0.173 A 
ATOM     80  F   UNL     1      -9.622   7.097  15.954  1.00  0.00    -0.203 F 
ATOM     81  C   UNL     1     -11.177   8.132  17.387  1.00  0.00     0.198 A 
ATOM     82  C   UNL     1     -12.355  10.095  16.667  1.00  0.00     0.198 A 
ATOM     83  F   UNL     1     -11.993  10.961  14.511  1.00  0.00    -0.203 F 
ATOM     84  F   UNL     1     -10.946   7.192  18.314  1.00  0.00    -0.200 F 
ATOM     85  C   UNL     1     -12.094   9.141  17.639  1.00  0.00     0.200 A 
ATOM     86  F   UNL     1     -13.230  11.080  16.913  1.00  0.00    -0.200 F 
ATOM     87  F   UNL     1     -12.732   9.191  18.816  1.00  0.00    -0.200 F 
ENDBRANCH  54  77
ENDBRANCH  28  29
ENDBRANCH  20  23
ENDBRANCH  18  19
ENDBRANCH   1  18
TORSDOF 12
