REMARK SMILES Cc1cc(C)cc(N(C)S(=O)(=O)c2ccc(F)c(C(=O)NCCCNC(=O)c3ccc(-c4c5nc(c(-c6c(F)c(F)c(F)c(F)c6F)c6ccc([nH]6)c(-c6c(F)c(F)c(F)c(F)c6F)c6nc(c(-c7c(F)c(F)c(F)c(F)c7F)c7ccc4[nH]7)C=C6)C=C5)cc3)c2)c1
REMARK SMILES IDX 22 1 21 2 19 3 20 4 18 6 13 7 14 8 91 9 15 10 16 11 17 12
REMARK SMILES IDX 10 13 11 14 12 15 8 16 9 17 7 18 1 19 2 20 3 21 92 22 4 23
REMARK SMILES IDX 5 24 6 25 23 26 24 27 25 28 26 29 27 31 28 32 29 33 90 34
REMARK SMILES IDX 30 35 89 36 31 37 32 38 33 39 83 40 34 41 88 42 82 43 84 44
REMARK SMILES IDX 35 45 87 46 81 47 80 48 36 50 68 51 48 52 67 53 49 54 52 55
REMARK SMILES IDX 66 56 85 57 50 58 51 59 65 61 86 62 53 63 37 64 38 65 46 66
REMARK SMILES IDX 39 67 40 68 44 69 47 70 41 71 42 72 45 73 43 74 69 75 70 76
REMARK SMILES IDX 78 77 71 78 72 79 76 80 79 81 73 82 74 83 77 84 75 85 54 86
REMARK SMILES IDX 55 87 63 88 56 89 57 90 61 91 64 92 58 93 59 94 62 95 60 96
REMARK H PARENT 21 5 25 30 84 49 52 60
REMARK Flexibility Score: inf
ROOT
ATOM      1  C   UNL     1      -1.033 -10.827  -0.646  1.00  0.00     0.118 C 
ENDROOT
BRANCH   1   2
ATOM      2  N   UNL     1      -1.810  -9.631  -0.397  1.00  0.00    -0.352 N 
ATOM      3  C   UNL     1      -1.466  -8.343  -0.113  1.00  0.00     0.254 C 
ATOM      4  O   UNL     1      -2.395  -7.552   0.079  1.00  0.00    -0.269 OA
ATOM      5  H   UNL     1      -2.782  -9.777  -0.443  1.00  0.00     0.163 HD
BRANCH   3   6
ATOM      6  C   UNL     1      -0.085  -7.803  -0.051  1.00  0.00     0.076 A 
ATOM      7  C   UNL     1       1.182  -5.710  -0.110  1.00  0.00     0.089 A 
ATOM      8  C   UNL     1       2.327  -6.401   0.304  1.00  0.00     0.025 A 
ATOM      9  C   UNL     1       0.021  -6.435  -0.374  1.00  0.00     0.039 A 
ATOM     10  C   UNL     1       2.267  -7.779   0.528  1.00  0.00     0.041 A 
ATOM     11  C   UNL     1       1.056  -8.461   0.400  1.00  0.00     0.136 A 
ATOM     12  F   UNL     1       1.048  -9.747   0.761  1.00  0.00    -0.206 F 
BRANCH   7  13
ATOM     13  S   UNL     1       1.300  -3.944  -0.425  1.00  0.00     0.264 S 
ATOM     14  O   UNL     1       1.171  -3.801  -1.859  1.00  0.00    -0.201 OA
ATOM     15  O   UNL     1       2.524  -3.552   0.253  1.00  0.00    -0.201 OA
BRANCH  13  16
ATOM     16  N   UNL     1      -0.034  -3.086   0.340  1.00  0.00    -0.269 N 
ATOM     17  C   UNL     1      -1.362  -3.712   0.105  1.00  0.00     0.164 C 
BRANCH  16  18
ATOM     18  C   UNL     1       0.006  -1.603   0.148  1.00  0.00     0.052 A 
ATOM     19  C   UNL     1       2.578   1.236   0.010  1.00  0.00     0.044 C 
ATOM     20  C   UNL     1       1.260   0.517   0.034  1.00  0.00    -0.049 A 
ATOM     21  C   UNL     1       0.073   1.243  -0.038  1.00  0.00     0.007 A 
ATOM     22  C   UNL     1       1.211  -0.884   0.156  1.00  0.00     0.030 A 
ATOM     23  C   UNL     1      -1.151   0.582   0.018  1.00  0.00    -0.049 A 
ATOM     24  C   UNL     1      -2.427   1.373  -0.018  1.00  0.00     0.044 C 
ATOM     25  C   UNL     1      -1.169  -0.822   0.127  1.00  0.00     0.030 A 
ENDBRANCH  16  18
ENDBRANCH  13  16
ENDBRANCH   7  13
ENDBRANCH   3   6
ENDBRANCH   1   2
BRANCH   1  26
ATOM     26  C   UNL     1      -0.974 -11.707   0.602  1.00  0.00     0.042 C 
BRANCH  26  27
ATOM     27  C   UNL     1      -2.319 -12.322   0.986  1.00  0.00     0.118 C 
BRANCH  27  28
ATOM     28  N   UNL     1      -2.772 -13.295   0.005  1.00  0.00    -0.352 N 
ATOM     29  C   UNL     1      -2.941 -14.651   0.118  1.00  0.00     0.251 C 
ATOM     30  H   UNL     1      -2.993 -12.922  -0.879  1.00  0.00     0.163 HD
ATOM     31  O   UNL     1      -3.070 -15.330  -0.897  1.00  0.00    -0.269 OA
BRANCH  29  32
ATOM     32  C   UNL     1      -2.977 -15.306   1.444  1.00  0.00     0.039 A 
ATOM     33  C   UNL     1      -2.379 -16.562   1.586  1.00  0.00     0.014 A 
ATOM     34  C   UNL     1      -3.665 -14.736   2.520  1.00  0.00     0.014 A 
ATOM     35  C   UNL     1      -2.442 -17.229   2.811  1.00  0.00     0.010 A 
ATOM     36  C   UNL     1      -3.669 -15.371   3.761  1.00  0.00     0.010 A 
ATOM     37  C   UNL     1      -3.072 -16.631   3.914  1.00  0.00    -0.014 A 
BRANCH  37  38
ATOM     38  C   UNL     1      -3.128 -17.323   5.226  1.00  0.00     0.031 A 
ATOM     39  C   UNL     1      -4.447 -17.774   5.790  1.00  0.00     0.074 A 
ATOM     40  C   UNL     1      -1.993 -17.512   5.925  1.00  0.00     0.049 A 
ATOM     41  N   UNL     1      -4.700 -18.362   6.933  1.00  0.00    -0.248 NA
ATOM     42  C   UNL     1      -5.643 -17.512   4.975  1.00  0.00     0.031 C 
ATOM     43  C   UNL     1      -0.661 -17.081   5.500  1.00  0.00     0.029 A 
ATOM     44  N   UNL     1      -1.777 -18.115   7.139  1.00  0.00    -0.354 N 
ATOM     45  C   UNL     1      -6.078 -18.526   6.977  1.00  0.00     0.074 A 
ATOM     46  C   UNL     1      -6.614 -17.934   5.772  1.00  0.00     0.031 C 
ATOM     47  C   UNL     1       0.238 -17.462   6.421  1.00  0.00     0.029 A 
ATOM     48  C   UNL     1      -0.457 -18.133   7.516  1.00  0.00     0.049 A 
ATOM     49  H   UNL     1      -2.499 -18.498   7.687  1.00  0.00     0.167 HD
ATOM     50  C   UNL     1      -6.825 -19.138   7.927  1.00  0.00     0.037 A 
ATOM     51  C   UNL     1       0.129 -18.639   8.618  1.00  0.00     0.037 A 
ATOM     52  C   UNL     1      -6.283 -19.754   9.109  1.00  0.00     0.049 A 
ATOM     53  C   UNL     1      -0.721 -19.326   9.651  1.00  0.00     0.074 A 
ATOM     54  C   UNL     1      -6.952 -20.441  10.108  1.00  0.00     0.029 A 
ATOM     55  N   UNL     1      -4.938 -19.764   9.449  1.00  0.00    -0.354 N 
ATOM     56  N   UNL     1      -2.018 -19.515   9.660  1.00  0.00    -0.248 NA
ATOM     57  C   UNL     1      -0.026 -19.877  10.823  1.00  0.00     0.031 C 
ATOM     58  C   UNL     1      -6.017 -20.834  11.070  1.00  0.00     0.029 A 
ATOM     59  C   UNL     1      -4.759 -20.435  10.648  1.00  0.00     0.049 A 
ATOM     60  H   UNL     1      -4.218 -19.356   8.917  1.00  0.00     0.167 HD
ATOM     61  C   UNL     1      -2.293 -20.224  10.820  1.00  0.00     0.074 A 
ATOM     62  C   UNL     1      -1.025 -20.444  11.486  1.00  0.00     0.031 C 
ATOM     63  C   UNL     1      -3.489 -20.652  11.292  1.00  0.00     0.037 A 
BRANCH  50  64
ATOM     64  C   UNL     1      -8.311 -19.189   7.724  1.00  0.00     0.064 A 
ATOM     65  C   UNL     1      -9.172 -18.459   8.558  1.00  0.00     0.173 A 
ATOM     66  C   UNL     1      -8.888 -20.012   6.745  1.00  0.00     0.173 A 
ATOM     67  F   UNL     1      -8.672 -17.662   9.514  1.00  0.00    -0.203 F 
ATOM     68  C   UNL     1     -10.554 -18.559   8.425  1.00  0.00     0.198 A 
ATOM     69  C   UNL     1     -10.271 -20.088   6.596  1.00  0.00     0.198 A 
ATOM     70  F   UNL     1      -8.109 -20.722   5.916  1.00  0.00    -0.203 F 
ATOM     71  F   UNL     1     -11.357 -17.875   9.251  1.00  0.00    -0.200 F 
ATOM     72  C   UNL     1     -11.102 -19.370   7.442  1.00  0.00     0.200 A 
ATOM     73  F   UNL     1     -10.797 -20.854   5.631  1.00  0.00    -0.200 F 
ATOM     74  F   UNL     1     -12.433 -19.456   7.307  1.00  0.00    -0.200 F 
ENDBRANCH  50  64
BRANCH  51  75
ATOM     75  C   UNL     1       1.604 -18.553   8.768  1.00  0.00     0.064 A 
ATOM     76  C   UNL     1       2.246 -17.330   9.008  1.00  0.00     0.173 A 
ATOM     77  C   UNL     1       2.404 -19.696   8.634  1.00  0.00     0.173 A 
ATOM     78  F   UNL     1       1.524 -16.207   9.137  1.00  0.00    -0.203 F 
ATOM     79  C   UNL     1       3.634 -17.252   9.091  1.00  0.00     0.198 A 
ATOM     80  C   UNL     1       3.791 -19.620   8.742  1.00  0.00     0.198 A 
ATOM     81  F   UNL     1       1.833 -20.891   8.421  1.00  0.00    -0.203 F 
ATOM     82  F   UNL     1       4.226 -16.065   9.287  1.00  0.00    -0.200 F 
ATOM     83  C   UNL     1       4.405 -18.397   8.961  1.00  0.00     0.200 A 
ATOM     84  F   UNL     1       4.530 -20.733   8.637  1.00  0.00    -0.200 F 
ATOM     85  F   UNL     1       5.740 -18.322   9.049  1.00  0.00    -0.200 F 
ENDBRANCH  51  75
BRANCH  63  86
ATOM     86  C   UNL     1      -3.491 -21.424  12.578  1.00  0.00     0.064 A 
ATOM     87  C   UNL     1      -3.780 -22.797  12.581  1.00  0.00     0.173 A 
ATOM     88  C   UNL     1      -3.280 -20.793  13.812  1.00  0.00     0.173 A 
ATOM     89  F   UNL     1      -3.998 -23.444  11.426  1.00  0.00    -0.203 F 
ATOM     90  C   UNL     1      -3.870 -23.507  13.774  1.00  0.00     0.198 A 
ATOM     91  C   UNL     1      -3.344 -21.512  15.002  1.00  0.00     0.198 A 
ATOM     92  F   UNL     1      -2.988 -19.484  13.860  1.00  0.00    -0.203 F 
ATOM     93  F   UNL     1      -4.178 -24.811  13.755  1.00  0.00    -0.200 F 
ATOM     94  C   UNL     1      -3.648 -22.865  14.983  1.00  0.00     0.200 A 
ATOM     95  F   UNL     1      -3.106 -20.896  16.168  1.00  0.00    -0.200 F 
ATOM     96  F   UNL     1      -3.724 -23.552  16.131  1.00  0.00    -0.200 F 
ENDBRANCH  63  86
ENDBRANCH  37  38
ENDBRANCH  29  32
ENDBRANCH  27  28
ENDBRANCH  26  27
ENDBRANCH   1  26
TORSDOF 13
