REMARK SMILES CO[C@@H]1C[C@@H](C(=O)NCCCNC(=O)c2ccc(-c3c4nc(c(-c5c(F)c(F)c(F)c(F)c5F)c5ccc([nH]5)c(-c5c(F)c(F)c(F)c(F)c5F)c5nc(c(-c6c(F)c(F)c(F)c(F)c6F)c6ccc3[nH]6)C=C5)C=C4)cc2)N(S(=O)(=O)/C=C/c2ccccc2)C1
REMARK SMILES IDX 9 1 8 2 6 3 7 4 5 6 3 7 4 8 90 9 78 10 2 11 1 12 79 13 80 14
REMARK SMILES IDX 81 15 82 16 83 17 84 18 85 19 89 20 86 21 88 22 87 23 10 24
REMARK SMILES IDX 11 25 12 26 13 27 14 29 15 30 16 31 77 32 17 33 76 34 18 35
REMARK SMILES IDX 19 36 20 37 70 38 21 39 75 40 69 41 71 42 22 43 74 44 68 45
REMARK SMILES IDX 67 46 23 48 55 49 35 50 54 51 36 52 39 53 53 54 72 55 37 56
REMARK SMILES IDX 38 57 52 59 73 60 40 61 24 62 25 63 33 64 26 65 27 66 31 67
REMARK SMILES IDX 34 68 28 69 29 70 32 71 30 72 56 73 57 74 65 75 58 76 59 77
REMARK SMILES IDX 63 78 66 79 60 80 61 81 64 82 62 83 41 84 42 85 50 86 43 87
REMARK SMILES IDX 44 88 48 89 51 90 45 91 46 92 49 93 47 94
REMARK H PARENT 8 5 12 28 71 47 39 58
REMARK Flexibility Score: inf
ROOT
ATOM      1  C   UNL     1       4.602   1.091   1.234  1.00  0.00     0.117 C 
ENDROOT
BRANCH   1   2
ATOM      2  N   UNL     1       4.937  -0.105   0.493  1.00  0.00    -0.355 N 
ATOM      3  C   UNL     1       4.372  -1.346   0.567  1.00  0.00     0.238 C 
ATOM      4  O   UNL     1       5.174  -2.266   0.433  1.00  0.00    -0.273 OA
ATOM      5  H   UNL     1       5.673  -0.011  -0.154  1.00  0.00     0.163 HD
BRANCH   3   6
ATOM      6  C   UNL     1       2.857  -1.513   0.658  1.00  0.00     0.165 C 
ATOM      7  C   UNL     1       0.769  -1.492   1.847  1.00  0.00     0.135 C 
ATOM      8  C   UNL     1       2.220  -1.054   1.968  1.00  0.00     0.064 C 
ATOM      9  C   UNL     1       0.794  -2.735   0.954  1.00  0.00     0.135 C 
ATOM     10  N   UNL     1       2.190  -2.839   0.377  1.00  0.00    -0.183 NA
BRANCH   7  11
ATOM     11  O   UNL     1      -0.125  -0.460   1.421  1.00  0.00    -0.380 OA
ATOM     12  C   UNL     1       0.094   0.143   0.157  1.00  0.00     0.195 C 
ENDBRANCH   7  11
BRANCH  10  13
ATOM     13  S   UNL     1       2.967  -4.293   0.882  1.00  0.00     0.237 S 
ATOM     14  O   UNL     1       3.450  -4.032   2.224  1.00  0.00    -0.207 OA
ATOM     15  O   UNL     1       1.990  -5.348   0.680  1.00  0.00    -0.207 OA
BRANCH  13  16
ATOM     16  C   UNL     1       4.288  -4.647  -0.164  1.00  0.00     0.123 C 
ATOM     17  C   UNL     1       4.189  -4.452  -1.486  1.00  0.00     0.021 C 
BRANCH  17  18
ATOM     18  C   UNL     1       5.388  -4.557  -2.318  1.00  0.00    -0.025 A 
ATOM     19  C   UNL     1       5.937  -3.392  -2.868  1.00  0.00     0.008 A 
ATOM     20  C   UNL     1       6.033  -5.782  -2.519  1.00  0.00     0.008 A 
ATOM     21  C   UNL     1       7.122  -3.450  -3.603  1.00  0.00     0.001 A 
ATOM     22  C   UNL     1       7.218  -5.838  -3.256  1.00  0.00     0.001 A 
ATOM     23  C   UNL     1       7.763  -4.672  -3.795  1.00  0.00     0.000 A 
ENDBRANCH  17  18
ENDBRANCH  13  16
ENDBRANCH  10  13
ENDBRANCH   3   6
ENDBRANCH   1   2
BRANCH   1  24
ATOM     24  C   UNL     1       5.095   0.981   2.680  1.00  0.00     0.042 C 
BRANCH  24  25
ATOM     25  C   UNL     1       6.578   0.616   2.805  1.00  0.00     0.118 C 
BRANCH  25  26
ATOM     26  N   UNL     1       7.440   1.571   2.128  1.00  0.00    -0.352 N 
ATOM     27  C   UNL     1       8.492   2.302   2.611  1.00  0.00     0.251 C 
ATOM     28  H   UNL     1       7.237   1.713   1.175  1.00  0.00     0.163 HD
ATOM     29  O   UNL     1       8.965   3.208   1.932  1.00  0.00    -0.269 OA
BRANCH  27  30
ATOM     30  C   UNL     1       9.053   2.015   3.947  1.00  0.00     0.039 A 
ATOM     31  C   UNL     1       9.372   3.090   4.779  1.00  0.00     0.014 A 
ATOM     32  C   UNL     1       9.314   0.704   4.357  1.00  0.00     0.014 A 
ATOM     33  C   UNL     1       9.918   2.851   6.040  1.00  0.00     0.010 A 
ATOM     34  C   UNL     1       9.805   0.463   5.639  1.00  0.00     0.010 A 
ATOM     35  C   UNL     1      10.122   1.535   6.487  1.00  0.00    -0.014 A 
BRANCH  35  36
ATOM     36  C   UNL     1      10.672   1.280   7.840  1.00  0.00     0.031 A 
ATOM     37  C   UNL     1      12.042   0.687   8.005  1.00  0.00     0.074 A 
ATOM     38  C   UNL     1       9.918   1.559   8.920  1.00  0.00     0.049 A 
ATOM     39  N   UNL     1      12.694   0.406   9.106  1.00  0.00    -0.248 NA
ATOM     40  C   UNL     1      12.768   0.343   6.773  1.00  0.00     0.031 C 
ATOM     41  C   UNL     1       8.550   2.078   8.882  1.00  0.00     0.029 A 
ATOM     42  N   UNL     1      10.196   1.444  10.258  1.00  0.00    -0.354 N 
ATOM     43  C   UNL     1      13.898  -0.154   8.699  1.00  0.00     0.074 A 
ATOM     44  C   UNL     1      13.867  -0.220   7.254  1.00  0.00     0.031 C 
ATOM     45  C   UNL     1       8.117   2.262  10.139  1.00  0.00     0.029 A 
ATOM     46  C   UNL     1       9.168   1.857  11.068  1.00  0.00     0.049 A 
ATOM     47  H   UNL     1      11.050   1.100  10.604  1.00  0.00     0.167 HD
ATOM     48  C   UNL     1      14.943  -0.555   9.462  1.00  0.00     0.037 A 
ATOM     49  C   UNL     1       9.088   1.913  12.411  1.00  0.00     0.037 A 
ATOM     50  C   UNL     1      14.978  -0.468  10.899  1.00  0.00     0.049 A 
ATOM     51  C   UNL     1      10.278   1.502  13.232  1.00  0.00     0.074 A 
ATOM     52  C   UNL     1      16.007  -0.804  11.761  1.00  0.00     0.029 A 
ATOM     53  N   UNL     1      13.932  -0.009  11.685  1.00  0.00    -0.354 N 
ATOM     54  N   UNL     1      11.438   1.039  12.834  1.00  0.00    -0.248 NA
ATOM     55  C   UNL     1      10.153   1.640  14.689  1.00  0.00     0.031 C 
ATOM     56  C   UNL     1      15.572  -0.574  13.072  1.00  0.00     0.029 A 
ATOM     57  C   UNL     1      14.287  -0.059  13.024  1.00  0.00     0.049 A 
ATOM     58  H   UNL     1      13.064   0.307  11.342  1.00  0.00     0.167 HD
ATOM     59  C   UNL     1      12.187   0.847  13.986  1.00  0.00     0.074 A 
ATOM     60  C   UNL     1      11.358   1.267  15.098  1.00  0.00     0.031 C 
ATOM     61  C   UNL     1      13.446   0.362  14.114  1.00  0.00     0.037 A 
BRANCH  48  62
ATOM     62  C   UNL     1      16.141  -1.115   8.752  1.00  0.00     0.064 A 
ATOM     63  C   UNL     1      16.994  -0.294   7.997  1.00  0.00     0.173 A 
ATOM     64  C   UNL     1      16.457  -2.478   8.847  1.00  0.00     0.173 A 
ATOM     65  F   UNL     1      16.728   1.014   7.865  1.00  0.00    -0.203 F 
ATOM     66  C   UNL     1      18.103  -0.822   7.342  1.00  0.00     0.198 A 
ATOM     67  C   UNL     1      17.583  -2.998   8.212  1.00  0.00     0.198 A 
ATOM     68  F   UNL     1      15.678  -3.305   9.559  1.00  0.00    -0.203 F 
ATOM     69  F   UNL     1      18.876  -0.027   6.590  1.00  0.00    -0.200 F 
ATOM     70  C   UNL     1      18.400  -2.172   7.455  1.00  0.00     0.200 A 
ATOM     71  F   UNL     1      17.875  -4.301   8.330  1.00  0.00    -0.200 F 
ATOM     72  F   UNL     1      19.470  -2.678   6.827  1.00  0.00    -0.200 F 
ENDBRANCH  48  62
BRANCH  49  73
ATOM     73  C   UNL     1       7.852   2.422  13.056  1.00  0.00     0.064 A 
ATOM     74  C   UNL     1       7.832   3.678  13.677  1.00  0.00     0.173 A 
ATOM     75  C   UNL     1       6.668   1.672  13.057  1.00  0.00     0.173 A 
ATOM     76  F   UNL     1       8.947   4.423  13.716  1.00  0.00    -0.203 F 
ATOM     77  C   UNL     1       6.679   4.158  14.293  1.00  0.00     0.198 A 
ATOM     78  C   UNL     1       5.508   2.163  13.652  1.00  0.00     0.198 A 
ATOM     79  F   UNL     1       6.635   0.468  12.468  1.00  0.00    -0.203 F 
ATOM     80  F   UNL     1       6.697   5.345  14.914  1.00  0.00    -0.200 F 
ATOM     81  C   UNL     1       5.516   3.402  14.275  1.00  0.00     0.200 A 
ATOM     82  F   UNL     1       4.382   1.437  13.620  1.00  0.00    -0.200 F 
ATOM     83  F   UNL     1       4.405   3.866  14.862  1.00  0.00    -0.200 F 
ENDBRANCH  49  73
BRANCH  61  84
ATOM     84  C   UNL     1      14.003   0.279  15.505  1.00  0.00     0.064 A 
ATOM     85  C   UNL     1      13.552  -0.685  16.418  1.00  0.00     0.173 A 
ATOM     86  C   UNL     1      15.006   1.166  15.923  1.00  0.00     0.173 A 
ATOM     87  F   UNL     1      12.582  -1.544  16.069  1.00  0.00    -0.203 F 
ATOM     88  C   UNL     1      14.062  -0.737  17.712  1.00  0.00     0.198 A 
ATOM     89  C   UNL     1      15.533   1.093  17.209  1.00  0.00     0.198 A 
ATOM     90  F   UNL     1      15.474   2.102  15.085  1.00  0.00    -0.203 F 
ATOM     91  F   UNL     1      13.579  -1.632  18.585  1.00  0.00    -0.200 F 
ATOM     92  C   UNL     1      15.055   0.148  18.105  1.00  0.00     0.200 A 
ATOM     93  F   UNL     1      16.499   1.943  17.585  1.00  0.00    -0.200 F 
ATOM     94  F   UNL     1      15.543   0.098  19.352  1.00  0.00    -0.200 F 
ENDBRANCH  61  84
ENDBRANCH  35  36
ENDBRANCH  27  30
ENDBRANCH  25  26
ENDBRANCH  24  25
ENDBRANCH   1  24
TORSDOF 14
