REMARK SMILES CC(C)[C@H](NC(=O)[C@H]1CC(=O)N(c2ccc(F)cc2)C1)C(=O)N1CCC[C@@H]1C(=O)NCCCNC(=O)c1ccc(-c2c3nc(c(-c4c(F)c(F)c(F)c(F)c4F)c4ccc([nH]4)c(-c4c(F)c(F)c(F)c(F)c4F)c4nc(c(-c5c(F)c(F)c(F)c(F)c5F)c5ccc2[nH]5)C=C4)C=C3)cc1
REMARK SMILES IDX 28 1 29 2 30 3 27 5 23 6 24 7 25 8 26 9 21 10 22 11 4 12
REMARK SMILES IDX 2 13 1 14 3 15 5 16 6 17 7 19 8 20 9 21 20 22 10 23 12 24
REMARK SMILES IDX 11 25 13 26 14 27 19 28 15 29 18 30 16 31 17 32 31 33 32 34
REMARK SMILES IDX 33 35 34 36 35 37 36 39 37 40 38 41 99 42 39 43 98 44 40 45
REMARK SMILES IDX 41 46 42 47 92 48 43 49 97 50 91 51 93 52 44 53 96 54 90 55
REMARK SMILES IDX 89 56 45 58 77 59 57 60 76 61 58 62 61 63 75 64 94 65 59 66
REMARK SMILES IDX 60 67 74 69 95 70 62 71 46 72 47 73 55 74 48 75 49 76 53 77
REMARK SMILES IDX 56 78 50 79 51 80 54 81 52 82 78 83 79 84 87 85 80 86 81 87
REMARK SMILES IDX 85 88 88 89 82 90 83 91 86 92 84 93 63 94 64 95 72 96 65 97
REMARK SMILES IDX 66 98 70 99 73 100 67 101 68 102 71 103 69 104
REMARK H PARENT 30 4 5 18 34 38 93 57 61 68
REMARK Flexibility Score: inf
ROOT
ATOM      1  C   UNL     1      -2.898  -4.231  -3.260  1.00  0.00     0.242 C 
ATOM      2  O   UNL     1      -3.879  -4.978  -3.190  1.00  0.00    -0.273 OA
ATOM      3  N   UNL     1      -3.010  -3.162  -4.101  1.00  0.00    -0.354 N 
ATOM      4  H   UNL     1      -3.875  -3.094  -4.567  1.00  0.00     0.163 HD
ENDROOT
BRANCH   1   5
ATOM      5  C   UNL     1      -1.567  -4.604  -2.579  1.00  0.00     0.174 C 
ATOM      6  N   UNL     1      -0.862  -3.499  -1.916  1.00  0.00    -0.329 N 
ATOM      7  C   UNL     1       0.551  -3.540  -2.253  1.00  0.00     0.120 C 
ATOM      8  C   UNL     1       0.656  -4.325  -3.548  1.00  0.00     0.024 C 
ATOM      9  C   UNL     1      -0.590  -5.196  -3.597  1.00  0.00     0.037 C 
BRANCH   6  10
ATOM     10  C   UNL     1      -1.340  -3.069  -0.679  1.00  0.00     0.246 C 
ATOM     11  O   UNL     1      -2.150  -3.757  -0.050  1.00  0.00    -0.272 OA
BRANCH  10  12
ATOM     12  C   UNL     1      -1.112  -1.587  -0.232  1.00  0.00     0.174 C 
BRANCH  12  13
ATOM     13  C   UNL     1      -2.350  -0.710  -0.647  1.00  0.00     0.015 C 
ATOM     14  C   UNL     1      -3.632  -1.430  -1.085  1.00  0.00     0.010 C 
ATOM     15  C   UNL     1      -2.788   0.236   0.483  1.00  0.00     0.010 C 
ENDBRANCH  12  13
BRANCH  12  16
ATOM     16  N   UNL     1       0.284  -1.132  -0.552  1.00  0.00    -0.344 N 
ATOM     17  C   UNL     1       0.923  -0.038  -1.066  1.00  0.00     0.226 C 
ATOM     18  H   UNL     1       0.935  -1.834  -0.323  1.00  0.00     0.164 HD
ATOM     19  O   UNL     1       2.123  -0.121  -1.327  1.00  0.00    -0.275 OA
BRANCH  17  20
ATOM     20  C   UNL     1       0.179   1.239  -1.225  1.00  0.00     0.107 C 
ATOM     21  C   UNL     1       0.185   2.051   0.052  1.00  0.00     0.116 C 
ATOM     22  C   UNL     1       0.542   2.306  -2.229  1.00  0.00     0.139 C 
ATOM     23  C   UNL     1      -0.625   3.226  -0.416  1.00  0.00     0.227 C 
ATOM     24  N   UNL     1      -0.421   3.330  -1.817  1.00  0.00    -0.312 N 
ATOM     25  O   UNL     1      -1.349   3.865   0.335  1.00  0.00    -0.274 OA
BRANCH  24  26
ATOM     26  C   UNL     1      -1.245   4.083  -2.703  1.00  0.00     0.044 A 
ATOM     27  C   UNL     1      -2.244   4.940  -2.208  1.00  0.00     0.029 A 
ATOM     28  C   UNL     1      -1.139   3.956  -4.095  1.00  0.00     0.029 A 
ATOM     29  C   UNL     1      -3.127   5.615  -3.057  1.00  0.00     0.041 A 
ATOM     30  C   UNL     1      -2.010   4.650  -4.947  1.00  0.00     0.041 A 
ATOM     31  C   UNL     1      -3.006   5.458  -4.423  1.00  0.00     0.123 A 
ATOM     32  F   UNL     1      -3.848   6.096  -5.246  1.00  0.00    -0.207 F 
ENDBRANCH  24  26
ENDBRANCH  17  20
ENDBRANCH  12  16
ENDBRANCH  10  12
ENDBRANCH   6  10
ENDBRANCH   1   5
BRANCH   3  33
ATOM     33  C   UNL     1      -2.066  -2.112  -4.421  1.00  0.00     0.117 C 
BRANCH  33  34
ATOM     34  C   UNL     1      -2.101  -1.744  -5.895  1.00  0.00     0.042 C 
BRANCH  34  35
ATOM     35  C   UNL     1      -3.422  -1.134  -6.338  1.00  0.00     0.118 C 
BRANCH  35  36
ATOM     36  N   UNL     1      -3.745   0.100  -5.636  1.00  0.00    -0.352 N 
ATOM     37  C   UNL     1      -3.932   1.358  -6.147  1.00  0.00     0.251 C 
ATOM     38  H   UNL     1      -3.843   0.020  -4.659  1.00  0.00     0.163 HD
ATOM     39  O   UNL     1      -4.143   2.314  -5.412  1.00  0.00    -0.269 OA
BRANCH  37  40
ATOM     40  C   UNL     1      -3.850   1.545  -7.603  1.00  0.00     0.039 A 
ATOM     41  C   UNL     1      -2.899   2.420  -8.126  1.00  0.00     0.014 A 
ATOM     42  C   UNL     1      -4.677   0.799  -8.441  1.00  0.00     0.014 A 
ATOM     43  C   UNL     1      -2.749   2.528  -9.505  1.00  0.00     0.010 A 
ATOM     44  C   UNL     1      -4.455   0.829  -9.810  1.00  0.00     0.010 A 
ATOM     45  C   UNL     1      -3.498   1.703 -10.355  1.00  0.00    -0.014 A 
BRANCH  45  46
ATOM     46  C   UNL     1      -3.338   1.754 -11.827  1.00  0.00     0.031 A 
ATOM     47  C   UNL     1      -4.530   2.100 -12.673  1.00  0.00     0.074 A 
ATOM     48  C   UNL     1      -2.164   1.418 -12.395  1.00  0.00     0.049 A 
ATOM     49  N   UNL     1      -4.691   1.984 -13.964  1.00  0.00    -0.248 NA
ATOM     50  C   UNL     1      -5.718   2.601 -11.960  1.00  0.00     0.031 C 
ATOM     51  C   UNL     1      -0.941   1.065 -11.673  1.00  0.00     0.029 A 
ATOM     52  N   UNL     1      -1.812   1.306 -13.717  1.00  0.00    -0.354 N 
ATOM     53  C   UNL     1      -6.007   2.352 -14.209  1.00  0.00     0.074 A 
ATOM     54  C   UNL     1      -6.615   2.650 -12.933  1.00  0.00     0.031 C 
ATOM     55  C   UNL     1       0.033   0.800 -12.558  1.00  0.00     0.029 A 
ATOM     56  C   UNL     1      -0.513   0.900 -13.907  1.00  0.00     0.049 A 
ATOM     57  H   UNL     1      -2.431   1.498 -14.458  1.00  0.00     0.167 HD
ATOM     58  C   UNL     1      -6.641   2.449 -15.400  1.00  0.00     0.037 A 
ATOM     59  C   UNL     1       0.151   0.616 -15.044  1.00  0.00     0.037 A 
ATOM     60  C   UNL     1      -6.000   2.211 -16.665  1.00  0.00     0.049 A 
ATOM     61  C   UNL     1      -0.575   0.732 -16.356  1.00  0.00     0.074 A 
ATOM     62  C   UNL     1      -6.532   2.332 -17.935  1.00  0.00     0.029 A 
ATOM     63  N   UNL     1      -4.677   1.819 -16.816  1.00  0.00    -0.354 N 
ATOM     64  N   UNL     1      -1.820   1.079 -16.581  1.00  0.00    -0.248 NA
ATOM     65  C   UNL     1       0.187   0.412 -17.570  1.00  0.00     0.031 C 
ATOM     66  C   UNL     1      -5.543   1.975 -18.855  1.00  0.00     0.029 A 
ATOM     67  C   UNL     1      -4.379   1.682 -18.160  1.00  0.00     0.049 A 
ATOM     68  H   UNL     1      -4.046   1.662 -16.077  1.00  0.00     0.167 HD
ATOM     69  C   UNL     1      -1.985   1.040 -17.958  1.00  0.00     0.074 A 
ATOM     70  C   UNL     1      -0.708   0.648 -18.519  1.00  0.00     0.031 C 
ATOM     71  C   UNL     1      -3.094   1.303 -18.691  1.00  0.00     0.037 A 
BRANCH  58  72
ATOM     72  C   UNL     1      -8.090   2.838 -15.395  1.00  0.00     0.064 A 
ATOM     73  C   UNL     1      -9.072   1.918 -15.795  1.00  0.00     0.173 A 
ATOM     74  C   UNL     1      -8.506   4.131 -15.046  1.00  0.00     0.173 A 
ATOM     75  F   UNL     1      -8.728   0.668 -16.140  1.00  0.00    -0.203 F 
ATOM     76  C   UNL     1     -10.414   2.284 -15.857  1.00  0.00     0.198 A 
ATOM     77  C   UNL     1      -9.853   4.484 -15.078  1.00  0.00     0.198 A 
ATOM     78  F   UNL     1      -7.609   5.043 -14.641  1.00  0.00    -0.203 F 
ATOM     79  F   UNL     1     -11.329   1.398 -16.273  1.00  0.00    -0.200 F 
ATOM     80  C   UNL     1     -10.804   3.564 -15.494  1.00  0.00     0.200 A 
ATOM     81  F   UNL     1     -10.230   5.712 -14.698  1.00  0.00    -0.200 F 
ATOM     82  F   UNL     1     -12.097   3.911 -15.542  1.00  0.00    -0.200 F 
ENDBRANCH  58  72
BRANCH  59  83
ATOM     83  C   UNL     1       1.581   0.215 -14.981  1.00  0.00     0.064 A 
ATOM     84  C   UNL     1       1.978  -1.011 -14.425  1.00  0.00     0.173 A 
ATOM     85  C   UNL     1       2.587   1.076 -15.441  1.00  0.00     0.173 A 
ATOM     86  F   UNL     1       1.057  -1.868 -13.962  1.00  0.00    -0.203 F 
ATOM     87  C   UNL     1       3.326  -1.347 -14.310  1.00  0.00     0.198 A 
ATOM     88  C   UNL     1       3.933   0.726 -15.351  1.00  0.00     0.198 A 
ATOM     89  F   UNL     1       2.258   2.251 -15.998  1.00  0.00    -0.203 F 
ATOM     90  F   UNL     1       3.678  -2.506 -13.735  1.00  0.00    -0.200 F 
ATOM     91  C   UNL     1       4.302  -0.481 -14.777  1.00  0.00     0.200 A 
ATOM     92  F   UNL     1       4.872   1.558 -15.823  1.00  0.00    -0.200 F 
ATOM     93  F   UNL     1       5.597  -0.807 -14.671  1.00  0.00    -0.200 F 
ENDBRANCH  59  83
BRANCH  71  94
ATOM     94  C   UNL     1      -2.979   1.208 -20.183  1.00  0.00     0.064 A 
ATOM     95  C   UNL     1      -3.039   2.368 -20.972  1.00  0.00     0.173 A 
ATOM     96  C   UNL     1      -2.913  -0.031 -20.834  1.00  0.00     0.173 A 
ATOM     97  F   UNL     1      -3.113   3.576 -20.393  1.00  0.00    -0.203 F 
ATOM     98  C   UNL     1      -3.060   2.287 -22.360  1.00  0.00     0.198 A 
ATOM     99  C   UNL     1      -2.904  -0.106 -22.224  1.00  0.00     0.198 A 
ATOM    100  F   UNL     1      -2.841  -1.165 -20.122  1.00  0.00    -0.203 F 
ATOM    101  F   UNL     1      -3.163   3.404 -23.093  1.00  0.00    -0.200 F 
ATOM    102  C   UNL     1      -2.991   1.051 -22.985  1.00  0.00     0.200 A 
ATOM    103  F   UNL     1      -2.815  -1.299 -22.828  1.00  0.00    -0.200 F 
ATOM    104  F   UNL     1      -3.008   0.974 -24.323  1.00  0.00    -0.200 F 
ENDBRANCH  71  94
ENDBRANCH  45  46
ENDBRANCH  37  40
ENDBRANCH  35  36
ENDBRANCH  34  35
ENDBRANCH  33  34
ENDBRANCH   3  33
TORSDOF 16
