REMARK SMILES Cc1cc(C(=O)Nc2c(Cl)cc(Cl)cc2C(=O)NCCCNC(=O)c2ccc(-c3c4nc(c(-c5c(F)c(F)c(F)c(F)c5F)c5ccc([nH]5)c(-c5c(F)c(F)c(F)c(F)c5F)c5nc(c(-c6c(F)c(F)c(F)c(F)c6F)c6ccc3[nH]6)C=C5)C=C4)cc2)c(C)s1
REMARK SMILES IDX 20 1 19 2 18 3 16 4 17 5 15 7 8 8 9 9 10 10 11 11 14 12
REMARK SMILES IDX 12 13 13 14 7 15 5 16 6 17 4 19 1 20 2 21 3 22 90 23 88 24
REMARK SMILES IDX 89 25 21 26 22 27 23 28 24 30 25 31 26 32 87 33 27 34 86 35
REMARK SMILES IDX 28 36 29 37 30 38 80 39 31 40 85 41 79 42 81 43 32 44 84 45
REMARK SMILES IDX 78 46 77 47 33 49 65 50 45 51 64 52 46 53 49 54 63 55 82 56
REMARK SMILES IDX 47 57 48 58 62 60 83 61 50 62 34 63 35 64 43 65 36 66 37 67
REMARK SMILES IDX 41 68 44 69 38 70 39 71 42 72 40 73 66 74 67 75 75 76 68 77
REMARK SMILES IDX 69 78 73 79 76 80 70 81 71 82 74 83 72 84 51 85 52 86 60 87
REMARK SMILES IDX 53 88 54 89 58 90 61 91 55 92 56 93 59 94 57 95
REMARK H PARENT 18 6 7 18 22 29 81 48 49 59
REMARK Flexibility Score: inf
ROOT
ATOM      1  C   UNL     1       2.647  -3.983   2.378  1.00  0.00     0.042 C 
ENDROOT
BRANCH   1   2
ATOM      2  C   UNL     1       1.691  -4.450   1.310  1.00  0.00     0.118 C 
BRANCH   2   3
ATOM      3  N   UNL     1       0.824  -5.552   1.615  1.00  0.00    -0.352 N 
ATOM      4  C   UNL     1      -0.430  -5.843   1.143  1.00  0.00     0.253 C 
ATOM      5  O   UNL     1      -0.921  -6.902   1.542  1.00  0.00    -0.269 OA
ATOM      6  H   UNL     1       1.185  -6.199   2.264  1.00  0.00     0.163 HD
BRANCH   4   7
ATOM      7  C   UNL     1      -1.274  -4.976   0.246  1.00  0.00     0.066 A 
ATOM      8  C   UNL     1      -0.905  -4.115  -0.817  1.00  0.00     0.073 A 
ATOM      9  C   UNL     1      -1.921  -3.529  -1.619  1.00  0.00     0.066 A 
ATOM     10  Cl  UNL     1      -1.551  -2.613  -3.045  1.00  0.00    -0.082 Cl
ATOM     11  C   UNL     1      -3.270  -3.666  -1.297  1.00  0.00     0.043 A 
ATOM     12  C   UNL     1      -2.654  -5.090   0.546  1.00  0.00     0.036 A 
ATOM     13  C   UNL     1      -3.627  -4.425  -0.197  1.00  0.00     0.043 A 
ATOM     14  Cl  UNL     1      -5.282  -4.552   0.250  1.00  0.00    -0.084 Cl
BRANCH   8  15
ATOM     15  N   UNL     1       0.432  -3.810  -1.127  1.00  0.00    -0.320 N 
ATOM     16  C   UNL     1       1.100  -2.584  -1.039  1.00  0.00     0.256 C 
ATOM     17  O   UNL     1       2.282  -2.593  -1.391  1.00  0.00    -0.269 OA
ATOM     18  H   UNL     1       0.974  -4.566  -1.450  1.00  0.00     0.170 HD
BRANCH  16  19
ATOM     19  C   UNL     1       0.482  -1.370  -0.441  1.00  0.00     0.054 A 
ATOM     20  C   UNL     1      -2.619   0.620   0.351  1.00  0.00     0.056 C 
ATOM     21  C   UNL     1      -1.231   0.104   0.199  1.00  0.00     0.003 A 
ATOM     22  C   UNL     1      -0.824  -1.208   0.139  1.00  0.00     0.029 A 
ATOM     23  S   UNL     1       0.098   1.146   0.068  1.00  0.00    -0.145 S 
ATOM     24  C   UNL     1       1.168  -0.166  -0.253  1.00  0.00     0.014 A 
ATOM     25  C   UNL     1       2.628   0.154  -0.336  1.00  0.00     0.057 C 
ENDBRANCH  16  19
ENDBRANCH   8  15
ENDBRANCH   4   7
ENDBRANCH   2   3
ENDBRANCH   1   2
BRANCH   1  26
ATOM     26  C   UNL     1       3.634  -5.023   2.860  1.00  0.00     0.118 C 
BRANCH  26  27
ATOM     27  N   UNL     1       4.597  -5.456   1.854  1.00  0.00    -0.352 N 
ATOM     28  C   UNL     1       5.924  -5.158   1.652  1.00  0.00     0.251 C 
ATOM     29  H   UNL     1       4.225  -6.083   1.192  1.00  0.00     0.163 HD
ATOM     30  O   UNL     1       6.492  -5.608   0.655  1.00  0.00    -0.269 OA
BRANCH  28  31
ATOM     31  C   UNL     1       6.680  -4.287   2.581  1.00  0.00     0.039 A 
ATOM     32  C   UNL     1       7.698  -3.465   2.085  1.00  0.00     0.014 A 
ATOM     33  C   UNL     1       6.422  -4.288   3.948  1.00  0.00     0.014 A 
ATOM     34  C   UNL     1       8.396  -2.615   2.951  1.00  0.00     0.010 A 
ATOM     35  C   UNL     1       6.978  -3.319   4.769  1.00  0.00     0.010 A 
ATOM     36  C   UNL     1       8.017  -2.511   4.298  1.00  0.00    -0.014 A 
BRANCH  36  37
ATOM     37  C   UNL     1       8.743  -1.648   5.266  1.00  0.00     0.031 A 
ATOM     38  C   UNL     1       9.360  -2.265   6.499  1.00  0.00     0.074 A 
ATOM     39  C   UNL     1       8.792  -0.316   5.081  1.00  0.00     0.049 A 
ATOM     40  N   UNL     1       9.977  -1.688   7.500  1.00  0.00    -0.248 NA
ATOM     41  C   UNL     1       9.221  -3.723   6.654  1.00  0.00     0.031 C 
ATOM     42  C   UNL     1       8.183   0.410   3.966  1.00  0.00     0.029 A 
ATOM     43  N   UNL     1       9.387   0.667   5.831  1.00  0.00    -0.354 N 
ATOM     44  C   UNL     1      10.257  -2.705   8.406  1.00  0.00     0.074 A 
ATOM     45  C   UNL     1       9.665  -3.913   7.885  1.00  0.00     0.031 C 
ATOM     46  C   UNL     1       8.486   1.713   4.073  1.00  0.00     0.029 A 
ATOM     47  C   UNL     1       9.272   1.921   5.284  1.00  0.00     0.049 A 
ATOM     48  H   UNL     1       9.852   0.489   6.681  1.00  0.00     0.167 HD
ATOM     49  C   UNL     1      10.980  -2.651   9.550  1.00  0.00     0.037 A 
ATOM     50  C   UNL     1       9.762   3.100   5.710  1.00  0.00     0.037 A 
ATOM     51  C   UNL     1      11.610  -1.454  10.037  1.00  0.00     0.049 A 
ATOM     52  C   UNL     1      10.575   3.139   6.976  1.00  0.00     0.074 A 
ATOM     53  C   UNL     1      12.430  -1.294  11.139  1.00  0.00     0.029 A 
ATOM     54  N   UNL     1      11.486  -0.205   9.444  1.00  0.00    -0.354 N 
ATOM     55  N   UNL     1      10.905   2.159   7.782  1.00  0.00    -0.248 NA
ATOM     56  C   UNL     1      11.093   4.451   7.383  1.00  0.00     0.031 C 
ATOM     57  C   UNL     1      12.753   0.063  11.247  1.00  0.00     0.029 A 
ATOM     58  C   UNL     1      12.194   0.737  10.172  1.00  0.00     0.049 A 
ATOM     59  H   UNL     1      10.972  -0.017   8.626  1.00  0.00     0.167 HD
ATOM     60  C   UNL     1      11.707   2.725   8.765  1.00  0.00     0.074 A 
ATOM     61  C   UNL     1      11.816   4.135   8.447  1.00  0.00     0.031 C 
ATOM     62  C   UNL     1      12.303   2.133   9.831  1.00  0.00     0.037 A 
BRANCH  49  63
ATOM     63  C   UNL     1      11.119  -3.922  10.343  1.00  0.00     0.064 A 
ATOM     64  C   UNL     1      11.806  -5.042   9.843  1.00  0.00     0.173 A 
ATOM     65  C   UNL     1      10.543  -4.031  11.618  1.00  0.00     0.173 A 
ATOM     66  F   UNL     1      12.368  -5.002   8.625  1.00  0.00    -0.203 F 
ATOM     67  C   UNL     1      11.858  -6.235  10.560  1.00  0.00     0.198 A 
ATOM     68  C   UNL     1      10.635  -5.212  12.351  1.00  0.00     0.198 A 
ATOM     69  F   UNL     1       9.880  -2.994  12.152  1.00  0.00    -0.203 F 
ATOM     70  F   UNL     1      12.445  -7.313  10.022  1.00  0.00    -0.200 F 
ATOM     71  C   UNL     1      11.277  -6.317  11.816  1.00  0.00     0.200 A 
ATOM     72  F   UNL     1      10.086  -5.284  13.572  1.00  0.00    -0.200 F 
ATOM     73  F   UNL     1      11.325  -7.466  12.503  1.00  0.00    -0.200 F 
ENDBRANCH  49  63
BRANCH  50  74
ATOM     74  C   UNL     1       9.562   4.325   4.891  1.00  0.00     0.064 A 
ATOM     75  C   UNL     1      10.644   4.923   4.228  1.00  0.00     0.173 A 
ATOM     76  C   UNL     1       8.301   4.920   4.746  1.00  0.00     0.173 A 
ATOM     77  F   UNL     1      11.874   4.401   4.351  1.00  0.00    -0.203 F 
ATOM     78  C   UNL     1      10.477   6.079   3.469  1.00  0.00     0.198 A 
ATOM     79  C   UNL     1       8.129   6.059   3.962  1.00  0.00     0.198 A 
ATOM     80  F   UNL     1       7.232   4.384   5.353  1.00  0.00    -0.203 F 
ATOM     81  F   UNL     1      11.537   6.653   2.884  1.00  0.00    -0.200 F 
ATOM     82  C   UNL     1       9.218   6.642   3.331  1.00  0.00     0.200 A 
ATOM     83  F   UNL     1       6.908   6.593   3.818  1.00  0.00    -0.200 F 
ATOM     84  F   UNL     1       9.055   7.751   2.596  1.00  0.00    -0.200 F 
ENDBRANCH  50  74
BRANCH  62  85
ATOM     85  C   UNL     1      13.179   2.995  10.694  1.00  0.00     0.064 A 
ATOM     86  C   UNL     1      12.656   4.007  11.513  1.00  0.00     0.173 A 
ATOM     87  C   UNL     1      14.567   2.784  10.720  1.00  0.00     0.173 A 
ATOM     88  F   UNL     1      11.338   4.257  11.518  1.00  0.00    -0.203 F 
ATOM     89  C   UNL     1      13.493   4.801  12.292  1.00  0.00     0.198 A 
ATOM     90  C   UNL     1      15.396   3.553  11.530  1.00  0.00     0.198 A 
ATOM     91  F   UNL     1      15.119   1.822   9.965  1.00  0.00    -0.203 F 
ATOM     92  F   UNL     1      12.977   5.804  13.016  1.00  0.00    -0.200 F 
ATOM     93  C   UNL     1      14.860   4.569  12.305  1.00  0.00     0.200 A 
ATOM     94  F   UNL     1      16.714   3.314  11.556  1.00  0.00    -0.200 F 
ATOM     95  F   UNL     1      15.663   5.332  13.059  1.00  0.00    -0.200 F 
ENDBRANCH  62  85
ENDBRANCH  36  37
ENDBRANCH  28  31
ENDBRANCH  26  27
ENDBRANCH   1  26
TORSDOF 12
