REMARK SMILES CCOc1cc(OCC)cc(-c2ccc([C@@H](C)C(=O)NCCCNC(=O)c3ccc(-c4c5nc(c(-c6c(F)c(F)c(F)c(F)c6F)c6ccc([nH]6)c(-c6c(F)c(F)c(F)c(F)c6F)c6nc(c(-c7c(F)c(F)c(F)c(F)c7F)c7ccc4[nH]7)C=C6)C=C5)cc3)cc2)c1
REMARK SMILES IDX 21 1 20 2 18 3 19 4 16 6 17 7 15 8 12 9 13 10 91 11 14 12
REMARK SMILES IDX 90 13 11 14 4 15 5 16 92 17 6 18 10 19 3 20 2 21 1 22 7 23
REMARK SMILES IDX 8 24 9 25 22 26 23 27 24 28 25 29 26 31 27 32 28 33 89 34
REMARK SMILES IDX 29 35 88 36 30 37 31 38 32 39 82 40 33 41 87 42 81 43 83 44
REMARK SMILES IDX 34 45 86 46 80 47 79 48 35 50 67 51 47 52 66 53 48 54 51 55
REMARK SMILES IDX 65 56 84 57 49 58 50 59 64 61 85 62 52 63 36 64 37 65 45 66
REMARK SMILES IDX 38 67 39 68 43 69 46 70 40 71 41 72 44 73 42 74 68 75 69 76
REMARK SMILES IDX 77 77 70 78 71 79 75 80 78 81 72 82 73 83 76 84 74 85 53 86
REMARK SMILES IDX 54 87 62 88 55 89 56 90 60 91 63 92 57 93 58 94 61 95 59 96
REMARK H PARENT 20 5 24 30 83 49 51 60
REMARK Flexibility Score: inf
ROOT
ATOM      1  C   UNL     1       9.376  -2.429   0.202  1.00  0.00     0.117 C 
ENDROOT
BRANCH   1   2
ATOM      2  N   UNL     1       8.583  -3.483  -0.400  1.00  0.00    -0.356 N 
ATOM      3  C   UNL     1       7.945  -3.581  -1.598  1.00  0.00     0.227 C 
ATOM      4  O   UNL     1       7.301  -4.622  -1.785  1.00  0.00    -0.274 OA
ATOM      5  H   UNL     1       8.489  -4.283   0.167  1.00  0.00     0.163 HD
BRANCH   3   6
ATOM      6  C   UNL     1       7.977  -2.499  -2.689  1.00  0.00     0.105 C 
ATOM      7  C   UNL     1       9.373  -2.143  -3.200  1.00  0.00     0.023 C 
BRANCH   6   8
ATOM      8  C   UNL     1       7.072  -1.320  -2.380  1.00  0.00    -0.036 A 
ATOM      9  C   UNL     1       5.266   0.765  -1.649  1.00  0.00    -0.018 A 
ATOM     10  C   UNL     1       6.616   0.783  -1.261  1.00  0.00     0.009 A 
ATOM     11  C   UNL     1       4.850  -0.308  -2.449  1.00  0.00     0.009 A 
ATOM     12  C   UNL     1       7.510  -0.215  -1.650  1.00  0.00     0.005 A 
ATOM     13  C   UNL     1       5.731  -1.344  -2.790  1.00  0.00     0.005 A 
BRANCH   9  14
ATOM     14  C   UNL     1       4.342   1.827  -1.192  1.00  0.00    -0.011 A 
ATOM     15  C   UNL     1       2.169   2.561  -0.378  1.00  0.00     0.123 A 
ATOM     16  C   UNL     1       2.667   3.842  -0.146  1.00  0.00     0.092 A 
ATOM     17  C   UNL     1       2.994   1.568  -0.908  1.00  0.00     0.055 A 
ATOM     18  C   UNL     1       3.995   4.139  -0.447  1.00  0.00     0.123 A 
ATOM     19  C   UNL     1       4.807   3.139  -0.984  1.00  0.00     0.055 A 
BRANCH  15  20
ATOM     20  O   UNL     1       0.832   2.341  -0.189  1.00  0.00    -0.494 OA
BRANCH  20  21
ATOM     21  C   UNL     1       0.538   1.439   0.885  1.00  0.00     0.226 C 
ATOM     22  C   UNL     1       0.386   0.006   0.398  1.00  0.00     0.049 C 
ENDBRANCH  20  21
ENDBRANCH  15  20
BRANCH  18  23
ATOM     23  O   UNL     1       4.405   5.412  -0.154  1.00  0.00    -0.494 OA
BRANCH  23  24
ATOM     24  C   UNL     1       5.669   5.848  -0.664  1.00  0.00     0.226 C 
ATOM     25  C   UNL     1       6.812   5.497   0.278  1.00  0.00     0.049 C 
ENDBRANCH  23  24
ENDBRANCH  18  23
ENDBRANCH   9  14
ENDBRANCH   6   8
ENDBRANCH   3   6
ENDBRANCH   1   2
BRANCH   1  26
ATOM     26  C   UNL     1       8.584  -1.603   1.214  1.00  0.00     0.042 C 
BRANCH  26  27
ATOM     27  C   UNL     1       8.457  -2.249   2.590  1.00  0.00     0.118 C 
BRANCH  27  28
ATOM     28  N   UNL     1       9.728  -2.299   3.298  1.00  0.00    -0.352 N 
ATOM     29  C   UNL     1      10.125  -1.742   4.488  1.00  0.00     0.251 C 
ATOM     30  H   UNL     1      10.425  -2.825   2.843  1.00  0.00     0.163 HD
ATOM     31  O   UNL     1      11.319  -1.761   4.777  1.00  0.00    -0.269 OA
BRANCH  29  32
ATOM     32  C   UNL     1       9.162  -1.116   5.426  1.00  0.00     0.039 A 
ATOM     33  C   UNL     1       9.595  -0.021   6.184  1.00  0.00     0.014 A 
ATOM     34  C   UNL     1       7.880  -1.630   5.635  1.00  0.00     0.014 A 
ATOM     35  C   UNL     1       8.736   0.578   7.110  1.00  0.00     0.010 A 
ATOM     36  C   UNL     1       6.997  -0.985   6.502  1.00  0.00     0.010 A 
ATOM     37  C   UNL     1       7.419   0.117   7.259  1.00  0.00    -0.014 A 
BRANCH  37  38
ATOM     38  C   UNL     1       6.486   0.773   8.213  1.00  0.00     0.031 A 
ATOM     39  C   UNL     1       5.960   0.024   9.407  1.00  0.00     0.074 A 
ATOM     40  C   UNL     1       6.078   2.035   7.980  1.00  0.00     0.049 A 
ATOM     41  N   UNL     1       5.117   0.419  10.329  1.00  0.00    -0.248 NA
ATOM     42  C   UNL     1       6.421  -1.363   9.574  1.00  0.00     0.031 C 
ATOM     43  C   UNL     1       6.470   2.850   6.829  1.00  0.00     0.029 A 
ATOM     44  N   UNL     1       5.238   2.853   8.695  1.00  0.00    -0.354 N 
ATOM     45  C   UNL     1       4.940  -0.669  11.173  1.00  0.00     0.074 A 
ATOM     46  C   UNL     1       5.720  -1.758  10.626  1.00  0.00     0.031 C 
ATOM     47  C   UNL     1       5.890   4.057   6.927  1.00  0.00     0.029 A 
ATOM     48  C   UNL     1       5.065   4.092   8.130  1.00  0.00     0.049 A 
ATOM     49  H   UNL     1       4.802   2.576   9.533  1.00  0.00     0.167 HD
ATOM     50  C   UNL     1       4.213  -0.747  12.314  1.00  0.00     0.037 A 
ATOM     51  C   UNL     1       4.324   5.140   8.537  1.00  0.00     0.037 A 
ATOM     52  C   UNL     1       3.456   0.344  12.871  1.00  0.00     0.049 A 
ATOM     53  C   UNL     1       3.544   5.037   9.819  1.00  0.00     0.074 A 
ATOM     54  C   UNL     1       2.730   0.381  14.050  1.00  0.00     0.029 A 
ATOM     55  N   UNL     1       3.329   1.596  12.286  1.00  0.00    -0.354 N 
ATOM     56  N   UNL     1       3.437   4.023  10.643  1.00  0.00    -0.248 NA
ATOM     57  C   UNL     1       2.793   6.229  10.233  1.00  0.00     0.031 C 
ATOM     58  C   UNL     1       2.134   1.643  14.158  1.00  0.00     0.029 A 
ATOM     59  C   UNL     1       2.525   2.407  13.071  1.00  0.00     0.049 A 
ATOM     60  H   UNL     1       3.749   1.868  11.438  1.00  0.00     0.167 HD
ATOM     61  C   UNL     1       2.624   4.458  11.680  1.00  0.00     0.074 A 
ATOM     62  C   UNL     1       2.285   5.837  11.393  1.00  0.00     0.031 C 
ATOM     63  C   UNL     1       2.193   3.776  12.769  1.00  0.00     0.037 A 
BRANCH  50  64
ATOM     64  C   UNL     1       4.207  -2.060  13.043  1.00  0.00     0.064 A 
ATOM     65  C   UNL     1       5.346  -2.534  13.712  1.00  0.00     0.173 A 
ATOM     66  C   UNL     1       3.043  -2.841  13.100  1.00  0.00     0.173 A 
ATOM     67  F   UNL     1       6.489  -1.831  13.678  1.00  0.00    -0.203 F 
ATOM     68  C   UNL     1       5.330  -3.753  14.384  1.00  0.00     0.198 A 
ATOM     69  C   UNL     1       3.021  -4.046  13.798  1.00  0.00     0.198 A 
ATOM     70  F   UNL     1       1.923  -2.433  12.484  1.00  0.00    -0.203 F 
ATOM     71  F   UNL     1       6.445  -4.208  14.972  1.00  0.00    -0.200 F 
ATOM     72  C   UNL     1       4.166  -4.505  14.432  1.00  0.00     0.200 A 
ATOM     73  F   UNL     1       1.892  -4.767  13.854  1.00  0.00    -0.200 F 
ATOM     74  F   UNL     1       4.150  -5.677  15.083  1.00  0.00    -0.200 F 
ENDBRANCH  50  64
BRANCH  51  75
ATOM     75  C   UNL     1       4.312   6.391   7.736  1.00  0.00     0.064 A 
ATOM     76  C   UNL     1       4.949   7.549   8.201  1.00  0.00     0.173 A 
ATOM     77  C   UNL     1       3.674   6.451   6.489  1.00  0.00     0.173 A 
ATOM     78  F   UNL     1       5.555   7.545   9.398  1.00  0.00    -0.203 F 
ATOM     79  C   UNL     1       4.933   8.727   7.458  1.00  0.00     0.198 A 
ATOM     80  C   UNL     1       3.681   7.622   5.734  1.00  0.00     0.198 A 
ATOM     81  F   UNL     1       3.055   5.367   5.998  1.00  0.00    -0.203 F 
ATOM     82  F   UNL     1       5.513   9.832   7.945  1.00  0.00    -0.200 F 
ATOM     83  C   UNL     1       4.304   8.761   6.222  1.00  0.00     0.200 A 
ATOM     84  F   UNL     1       3.084   7.648   4.534  1.00  0.00    -0.200 F 
ATOM     85  F   UNL     1       4.295   9.893   5.504  1.00  0.00    -0.200 F 
ENDBRANCH  51  75
BRANCH  63  86
ATOM     86  C   UNL     1       1.324   4.521  13.740  1.00  0.00     0.064 A 
ATOM     87  C   UNL     1      -0.003   4.856  13.429  1.00  0.00     0.173 A 
ATOM     88  C   UNL     1       1.816   4.887  15.001  1.00  0.00     0.173 A 
ATOM     89  F   UNL     1      -0.515   4.542  12.229  1.00  0.00    -0.203 F 
ATOM     90  C   UNL     1      -0.793   5.559  14.334  1.00  0.00     0.198 A 
ATOM     91  C   UNL     1       1.013   5.564  15.915  1.00  0.00     0.198 A 
ATOM     92  F   UNL     1       3.076   4.584  15.350  1.00  0.00    -0.203 F 
ATOM     93  F   UNL     1      -2.040   5.915  13.995  1.00  0.00    -0.200 F 
ATOM     94  C   UNL     1      -0.287   5.907  15.577  1.00  0.00     0.200 A 
ATOM     95  F   UNL     1       1.500   5.890  17.120  1.00  0.00    -0.200 F 
ATOM     96  F   UNL     1      -1.050   6.583  16.447  1.00  0.00    -0.200 F 
ENDBRANCH  63  86
ENDBRANCH  37  38
ENDBRANCH  29  32
ENDBRANCH  27  28
ENDBRANCH  26  27
ENDBRANCH   1  26
TORSDOF 16
