REMARK SMILES O=C(NCCCNC(=O)[C@@H]1[C@H]2C=C[C@H]3C=C[C@@H]1[C@H]32)c1ccc(-c2c3nc(c(-c4c(F)c(F)c(F)c(F)c4F)c4ccc([nH]4)c(-c4c(F)c(F)c(F)c(F)c4F)c4nc(c(-c5c(F)c(F)c(F)c(F)c5F)c5ccc2[nH]5)C=C4)C=C3)cc1
REMARK SMILES IDX 4 1 3 2 1 3 2 4 19 6 20 7 81 8 21 9 80 10 22 11 23 12 24 13
REMARK SMILES IDX 74 14 25 15 79 16 73 17 75 18 26 19 78 20 72 21 71 22 27 24
REMARK SMILES IDX 59 25 39 26 58 27 40 28 43 29 57 30 76 31 41 32 42 33 56 35
REMARK SMILES IDX 77 36 44 37 28 38 29 39 37 40 30 41 31 42 35 43 38 44 32 45
REMARK SMILES IDX 33 46 36 47 34 48 60 49 61 50 69 51 62 52 63 53 67 54 70 55
REMARK SMILES IDX 64 56 65 57 68 58 66 59 45 60 46 61 54 62 47 63 48 64 52 65
REMARK SMILES IDX 55 66 49 67 50 68 53 69 51 70 5 71 6 72 7 73 8 74 9 76 10 77
REMARK SMILES IDX 17 78 11 79 16 80 18 81 12 82 15 83 14 84 13 85
REMARK H PARENT 3 5 75 23 43 34 7 75
REMARK Flexibility Score: inf
ROOT
ATOM      1  C   UNL     1       4.731  -1.206  -0.678  1.00  0.00     0.118 C 
ENDROOT
BRANCH   1   2
ATOM      2  N   UNL     1       3.288  -1.007  -0.687  1.00  0.00    -0.352 N 
ATOM      3  O   UNL     1       1.294  -0.110  -0.138  1.00  0.00    -0.269 OA
ATOM      4  C   UNL     1       2.516  -0.041  -0.079  1.00  0.00     0.251 C 
ATOM      5  H   UNL     1       2.783  -1.669  -1.212  1.00  0.00     0.163 HD
BRANCH   4   6
ATOM      6  C   UNL     1       3.151   1.055   0.690  1.00  0.00     0.039 A 
ATOM      7  C   UNL     1       4.290   1.706   0.217  1.00  0.00     0.014 A 
ATOM      8  C   UNL     1       2.604   1.426   1.922  1.00  0.00     0.014 A 
ATOM      9  C   UNL     1       5.000   2.554   1.059  1.00  0.00     0.010 A 
ATOM     10  C   UNL     1       3.260   2.367   2.724  1.00  0.00     0.010 A 
ATOM     11  C   UNL     1       4.500   2.891   2.328  1.00  0.00    -0.014 A 
BRANCH  11  12
ATOM     12  C   UNL     1       5.296   3.788   3.208  1.00  0.00     0.031 A 
ATOM     13  C   UNL     1       5.831   3.305   4.531  1.00  0.00     0.074 A 
ATOM     14  C   UNL     1       5.592   5.031   2.781  1.00  0.00     0.049 A 
ATOM     15  N   UNL     1       6.592   3.934   5.394  1.00  0.00    -0.248 NA
ATOM     16  C   UNL     1       5.458   1.945   4.950  1.00  0.00     0.031 C 
ATOM     17  C   UNL     1       5.125   5.622   1.525  1.00  0.00     0.029 A 
ATOM     18  N   UNL     1       6.380   6.008   3.334  1.00  0.00    -0.354 N 
ATOM     19  C   UNL     1       6.760   3.064   6.464  1.00  0.00     0.074 A 
ATOM     20  C   UNL     1       6.006   1.869   6.155  1.00  0.00     0.031 C 
ATOM     21  C   UNL     1       5.686   6.830   1.372  1.00  0.00     0.029 A 
ATOM     22  C   UNL     1       6.504   7.124   2.543  1.00  0.00     0.049 A 
ATOM     23  H   UNL     1       6.813   5.918   4.214  1.00  0.00     0.167 HD
ATOM     24  C   UNL     1       7.483   3.242   7.596  1.00  0.00     0.037 A 
ATOM     25  C   UNL     1       7.200   8.259   2.737  1.00  0.00     0.037 A 
ATOM     26  C   UNL     1       8.268   4.415   7.886  1.00  0.00     0.049 A 
ATOM     27  C   UNL     1       8.006   8.422   3.993  1.00  0.00     0.074 A 
ATOM     28  C   UNL     1       9.071   4.667   8.986  1.00  0.00     0.029 A 
ATOM     29  N   UNL     1       8.352   5.531   7.068  1.00  0.00    -0.354 N 
ATOM     30  N   UNL     1       8.180   7.577   4.979  1.00  0.00    -0.248 NA
ATOM     31  C   UNL     1       8.712   9.699   4.162  1.00  0.00     0.031 C 
ATOM     32  C   UNL     1       9.611   5.950   8.851  1.00  0.00     0.029 A 
ATOM     33  C   UNL     1       9.181   6.481   7.646  1.00  0.00     0.049 A 
ATOM     34  H   UNL     1       7.892   5.634   6.204  1.00  0.00     0.167 HD
ATOM     35  C   UNL     1       9.030   8.209   5.875  1.00  0.00     0.074 A 
ATOM     36  C   UNL     1       9.351   9.502   5.306  1.00  0.00     0.031 C 
ATOM     37  C   UNL     1       9.500   7.758   7.063  1.00  0.00     0.037 A 
BRANCH  24  38
ATOM     38  C   UNL     1       7.451   2.148   8.624  1.00  0.00     0.064 A 
ATOM     39  C   UNL     1       8.120   0.931   8.430  1.00  0.00     0.173 A 
ATOM     40  C   UNL     1       6.778   2.340   9.841  1.00  0.00     0.173 A 
ATOM     41  F   UNL     1       8.769   0.693   7.280  1.00  0.00    -0.203 F 
ATOM     42  C   UNL     1       8.098  -0.063   9.407  1.00  0.00     0.198 A 
ATOM     43  C   UNL     1       6.779   1.355  10.825  1.00  0.00     0.198 A 
ATOM     44  F   UNL     1       6.127   3.488  10.080  1.00  0.00    -0.203 F 
ATOM     45  F   UNL     1       8.710  -1.234   9.183  1.00  0.00    -0.200 F 
ATOM     46  C   UNL     1       7.433   0.152  10.605  1.00  0.00     0.200 A 
ATOM     47  F   UNL     1       6.146   1.569  11.987  1.00  0.00    -0.200 F 
ATOM     48  F   UNL     1       7.419  -0.802  11.546  1.00  0.00    -0.200 F 
ENDBRANCH  24  38
BRANCH  25  49
ATOM     49  C   UNL     1       7.177   9.321   1.699  1.00  0.00     0.064 A 
ATOM     50  C   UNL     1       8.316   9.598   0.930  1.00  0.00     0.173 A 
ATOM     51  C   UNL     1       6.018  10.068   1.445  1.00  0.00     0.173 A 
ATOM     52  F   UNL     1       9.453   8.923   1.150  1.00  0.00    -0.203 F 
ATOM     53  C   UNL     1       8.298  10.592  -0.046  1.00  0.00     0.198 A 
ATOM     54  C   UNL     1       5.994  11.041   0.450  1.00  0.00     0.198 A 
ATOM     55  F   UNL     1       4.902   9.835   2.152  1.00  0.00    -0.203 F 
ATOM     56  F   UNL     1       9.411  10.863  -0.743  1.00  0.00    -0.200 F 
ATOM     57  C   UNL     1       7.135  11.307  -0.290  1.00  0.00     0.200 A 
ATOM     58  F   UNL     1       4.864  11.719   0.207  1.00  0.00    -0.200 F 
ATOM     59  F   UNL     1       7.117  12.256  -1.236  1.00  0.00    -0.200 F 
ENDBRANCH  25  49
BRANCH  37  60
ATOM     60  C   UNL     1      10.442   8.656   7.808  1.00  0.00     0.064 A 
ATOM     61  C   UNL     1       9.994   9.817   8.455  1.00  0.00     0.173 A 
ATOM     62  C   UNL     1      11.806   8.340   7.888  1.00  0.00     0.173 A 
ATOM     63  F   UNL     1       8.701  10.169   8.392  1.00  0.00    -0.203 F 
ATOM     64  C   UNL     1      10.885  10.645   9.133  1.00  0.00     0.198 A 
ATOM     65  C   UNL     1      12.689   9.157   8.589  1.00  0.00     0.198 A 
ATOM     66  F   UNL     1      12.282   7.238   7.289  1.00  0.00    -0.203 F 
ATOM     67  F   UNL     1      10.445  11.775   9.702  1.00  0.00    -0.200 F 
ATOM     68  C   UNL     1      12.230  10.312   9.203  1.00  0.00     0.200 A 
ATOM     69  F   UNL     1      13.987   8.829   8.664  1.00  0.00    -0.200 F 
ATOM     70  F   UNL     1      13.085  11.111   9.855  1.00  0.00    -0.200 F 
ENDBRANCH  37  60
ENDBRANCH  11  12
ENDBRANCH   4   6
ENDBRANCH   1   2
BRANCH   1  71
ATOM     71  C   UNL     1       5.172  -2.540  -0.091  1.00  0.00     0.042 C 
BRANCH  71  72
ATOM     72  C   UNL     1       4.801  -3.761  -0.917  1.00  0.00     0.117 C 
BRANCH  72  73
ATOM     73  N   UNL     1       5.369  -3.745  -2.248  1.00  0.00    -0.356 N 
ATOM     74  C   UNL     1       5.713  -4.795  -3.064  1.00  0.00     0.224 C 
ATOM     75  H   UNL     1       5.534  -2.850  -2.624  1.00  0.00     0.163 HD
ATOM     76  O   UNL     1       6.136  -4.481  -4.185  1.00  0.00    -0.275 OA
BRANCH  74  77
ATOM     77  C   UNL     1       5.588  -6.262  -2.585  1.00  0.00     0.093 C 
ATOM     78  C   UNL     1       4.360  -6.739  -1.748  1.00  0.00     0.029 C 
ATOM     79  C   UNL     1       5.166  -7.265  -3.716  1.00  0.00     0.029 C 
ATOM     80  C   UNL     1       4.664  -7.592  -0.569  1.00  0.00    -0.026 C 
ATOM     81  C   UNL     1       3.963  -7.709  -2.869  1.00  0.00     0.015 C 
ATOM     82  C   UNL     1       5.995  -8.482  -3.892  1.00  0.00    -0.026 C 
ATOM     83  C   UNL     1       4.622  -8.889  -0.907  1.00  0.00    -0.023 C 
ATOM     84  C   UNL     1       4.295  -9.121  -2.355  1.00  0.00     0.038 C 
ATOM     85  C   UNL     1       5.508  -9.493  -3.159  1.00  0.00    -0.023 C 
ENDBRANCH  74  77
ENDBRANCH  72  73
ENDBRANCH  71  72
ENDBRANCH   1  71
TORSDOF 10
