REMARK SMILES O=C(NC[C@@H]1CCCO1)C(=O)N/N=C/c1ccc(C(=O)NCCCNC(=O)c2ccc(-c3c4nc(c(-c5c(F)c(F)c(F)c(F)c5F)c5ccc([nH]5)c(-c5c(F)c(F)c(F)c(F)c5F)c5nc(c(-c6c(F)c(F)c(F)c(F)c6F)c6ccc3[nH]6)C=C5)C=C4)cc2)cc1
REMARK SMILES IDX 19 1 20 2 21 3 18 5 15 6 16 7 92 8 17 9 91 10 14 11 13 12
REMARK SMILES IDX 12 13 10 14 11 15 2 17 1 18 3 19 4 21 5 22 6 23 9 24 7 25
REMARK SMILES IDX 8 26 22 27 23 28 24 29 25 30 26 31 27 33 28 34 29 35 90 36
REMARK SMILES IDX 30 37 89 38 31 39 32 40 33 41 83 42 34 43 88 44 82 45 84 46
REMARK SMILES IDX 35 47 87 48 81 49 80 50 36 52 68 53 48 54 67 55 49 56 52 57
REMARK SMILES IDX 66 58 85 59 50 60 51 61 65 63 86 64 53 65 37 66 38 67 46 68
REMARK SMILES IDX 39 69 40 70 44 71 47 72 41 73 42 74 45 75 43 76 69 77 70 78
REMARK SMILES IDX 78 79 71 80 72 81 76 82 79 83 73 84 74 85 77 86 75 87 54 88
REMARK SMILES IDX 55 89 63 90 56 91 57 92 61 93 64 94 58 95 59 96 62 97 60 98
REMARK H PARENT 21 4 12 16 3 20 25 32 84 51 52 62
REMARK Flexibility Score: inf
ROOT
ATOM      1  C   UNL     1       7.321  -0.997  -5.733  1.00  0.00     0.251 C 
ATOM      2  O   UNL     1       6.578  -0.817  -6.699  1.00  0.00    -0.269 OA
ATOM      3  N   UNL     1       8.405  -1.807  -5.929  1.00  0.00    -0.352 N 
ATOM      4  H   UNL     1       8.451  -2.178  -6.840  1.00  0.00     0.163 HD
ENDROOT
BRANCH   1   5
ATOM      5  C   UNL     1       7.003  -0.305  -4.454  1.00  0.00     0.039 A 
ATOM      6  C   UNL     1       6.110   1.061  -2.153  1.00  0.00    -0.005 A 
ATOM      7  C   UNL     1       5.795   1.556  -3.415  1.00  0.00     0.010 A 
ATOM      8  C   UNL     1       6.893  -0.098  -2.037  1.00  0.00     0.010 A 
ATOM      9  C   UNL     1       6.245   0.878  -4.553  1.00  0.00     0.014 A 
ATOM     10  C   UNL     1       7.304  -0.796  -3.182  1.00  0.00     0.014 A 
BRANCH   6  11
ATOM     11  C   UNL     1       5.358   1.587  -0.985  1.00  0.00     0.141 C 
ATOM     12  N   UNL     1       5.381   0.934   0.132  1.00  0.00    -0.180 NA
BRANCH  12  13
ATOM     13  N   UNL     1       4.429   1.268   1.055  1.00  0.00    -0.239 N 
ATOM     14  C   UNL     1       3.296   0.466   1.239  1.00  0.00     0.329 C 
ATOM     15  O   UNL     1       2.975   0.087   2.364  1.00  0.00    -0.262 OA
ATOM     16  H   UNL     1       4.543   2.081   1.598  1.00  0.00     0.194 HD
BRANCH  14  17
ATOM     17  C   UNL     1       2.310   0.224   0.076  1.00  0.00     0.311 C 
ATOM     18  O   UNL     1       1.304   0.928   0.011  1.00  0.00    -0.264 OA
ATOM     19  N   UNL     1       2.474  -0.835  -0.811  1.00  0.00    -0.345 N 
ATOM     20  H   UNL     1       1.691  -1.377  -1.062  1.00  0.00     0.164 HD
BRANCH  19  21
ATOM     21  C   UNL     1       3.756  -1.159  -1.370  1.00  0.00     0.148 C 
BRANCH  21  22
ATOM     22  C   UNL     1       4.125  -2.553  -1.831  1.00  0.00     0.137 C 
ATOM     23  C   UNL     1       3.320  -3.246  -2.900  1.00  0.00     0.036 C 
ATOM     24  O   UNL     1       4.204  -3.481  -0.744  1.00  0.00    -0.376 OA
ATOM     25  C   UNL     1       3.966  -4.616  -2.820  1.00  0.00     0.031 C 
ATOM     26  C   UNL     1       4.201  -4.793  -1.325  1.00  0.00     0.160 C 
ENDBRANCH  21  22
ENDBRANCH  19  21
ENDBRANCH  14  17
ENDBRANCH  12  13
ENDBRANCH   6  11
ENDBRANCH   1   5
BRANCH   3  27
ATOM     27  C   UNL     1       9.502  -2.239  -5.082  1.00  0.00     0.118 C 
BRANCH  27  28
ATOM     28  C   UNL     1       9.479  -3.759  -4.918  1.00  0.00     0.042 C 
BRANCH  28  29
ATOM     29  C   UNL     1      10.113  -4.487  -6.104  1.00  0.00     0.118 C 
BRANCH  29  30
ATOM     30  N   UNL     1      11.555  -4.275  -6.149  1.00  0.00    -0.352 N 
ATOM     31  C   UNL     1      12.584  -5.171  -6.004  1.00  0.00     0.251 C 
ATOM     32  H   UNL     1      11.834  -3.345  -6.309  1.00  0.00     0.163 HD
ATOM     33  O   UNL     1      13.721  -4.763  -5.790  1.00  0.00    -0.269 OA
BRANCH  31  34
ATOM     34  C   UNL     1      12.331  -6.622  -6.103  1.00  0.00     0.039 A 
ATOM     35  C   UNL     1      12.978  -7.485  -5.213  1.00  0.00     0.014 A 
ATOM     36  C   UNL     1      11.499  -7.137  -7.101  1.00  0.00     0.014 A 
ATOM     37  C   UNL     1      12.740  -8.859  -5.284  1.00  0.00     0.010 A 
ATOM     38  C   UNL     1      11.212  -8.498  -7.130  1.00  0.00     0.010 A 
ATOM     39  C   UNL     1      11.828  -9.371  -6.221  1.00  0.00    -0.014 A 
BRANCH  39  40
ATOM     40  C   UNL     1      11.485 -10.815  -6.254  1.00  0.00     0.031 A 
ATOM     41  C   UNL     1      11.830 -11.647  -7.455  1.00  0.00     0.074 A 
ATOM     42  C   UNL     1      10.790 -11.350  -5.232  1.00  0.00     0.049 A 
ATOM     43  N   UNL     1      11.523 -12.894  -7.714  1.00  0.00    -0.248 NA
ATOM     44  C   UNL     1      12.598 -10.984  -8.520  1.00  0.00     0.031 C 
ATOM     45  C   UNL     1      10.365 -10.628  -4.031  1.00  0.00     0.029 A 
ATOM     46  N   UNL     1      10.303 -12.619  -5.047  1.00  0.00    -0.354 N 
ATOM     47  C   UNL     1      12.049 -13.158  -8.972  1.00  0.00     0.074 A 
ATOM     48  C   UNL     1      12.651 -11.930  -9.446  1.00  0.00     0.031 C 
ATOM     49  C   UNL     1       9.693 -11.468  -3.229  1.00  0.00     0.029 A 
ATOM     50  C   UNL     1       9.602 -12.773  -3.876  1.00  0.00     0.049 A 
ATOM     51  H   UNL     1      10.443 -13.349  -5.692  1.00  0.00     0.167 HD
ATOM     52  C   UNL     1      12.044 -14.326  -9.659  1.00  0.00     0.037 A 
ATOM     53  C   UNL     1       8.944 -13.842  -3.389  1.00  0.00     0.037 A 
ATOM     54  C   UNL     1      11.459 -15.548  -9.172  1.00  0.00     0.049 A 
ATOM     55  C   UNL     1       8.936 -15.119  -4.183  1.00  0.00     0.074 A 
ATOM     56  C   UNL     1      11.457 -16.799  -9.762  1.00  0.00     0.029 A 
ATOM     57  N   UNL     1      10.764 -15.668  -7.977  1.00  0.00    -0.354 N 
ATOM     58  N   UNL     1       9.494 -15.377  -5.341  1.00  0.00    -0.248 NA
ATOM     59  C   UNL     1       8.209 -16.255  -3.600  1.00  0.00     0.031 C 
ATOM     60  C   UNL     1      10.717 -17.665  -8.949  1.00  0.00     0.029 A 
ATOM     61  C   UNL     1      10.302 -16.966  -7.826  1.00  0.00     0.049 A 
ATOM     62  H   UNL     1      10.619 -14.939  -7.331  1.00  0.00     0.167 HD
ATOM     63  C   UNL     1       9.204 -16.707  -5.616  1.00  0.00     0.074 A 
ATOM     64  C   UNL     1       8.438 -17.207  -4.493  1.00  0.00     0.031 C 
ATOM     65  C   UNL     1       9.539 -17.446  -6.702  1.00  0.00     0.037 A 
BRANCH  52  66
ATOM     66  C   UNL     1      12.691 -14.338 -11.014  1.00  0.00     0.064 A 
ATOM     67  C   UNL     1      14.082 -14.225 -11.168  1.00  0.00     0.173 A 
ATOM     68  C   UNL     1      11.916 -14.506 -12.172  1.00  0.00     0.173 A 
ATOM     69  F   UNL     1      14.867 -14.053 -10.094  1.00  0.00    -0.203 F 
ATOM     70  C   UNL     1      14.668 -14.248 -12.431  1.00  0.00     0.198 A 
ATOM     71  C   UNL     1      12.509 -14.559 -13.431  1.00  0.00     0.198 A 
ATOM     72  F   UNL     1      10.583 -14.625 -12.083  1.00  0.00    -0.203 F 
ATOM     73  F   UNL     1      15.993 -14.088 -12.555  1.00  0.00    -0.200 F 
ATOM     74  C   UNL     1      13.883 -14.423 -13.560  1.00  0.00     0.200 A 
ATOM     75  F   UNL     1      11.750 -14.742 -14.521  1.00  0.00    -0.200 F 
ATOM     76  F   UNL     1      14.450 -14.453 -14.774  1.00  0.00    -0.200 F 
ENDBRANCH  52  66
BRANCH  53  77
ATOM     77  C   UNL     1       8.248 -13.751  -2.079  1.00  0.00     0.064 A 
ATOM     78  C   UNL     1       8.721 -14.456  -0.963  1.00  0.00     0.173 A 
ATOM     79  C   UNL     1       7.101 -12.962  -1.914  1.00  0.00     0.173 A 
ATOM     80  F   UNL     1       9.804 -15.239  -1.077  1.00  0.00    -0.203 F 
ATOM     81  C   UNL     1       8.061 -14.391   0.262  1.00  0.00     0.198 A 
ATOM     82  C   UNL     1       6.459 -12.874  -0.680  1.00  0.00     0.198 A 
ATOM     83  F   UNL     1       6.611 -12.262  -2.948  1.00  0.00    -0.203 F 
ATOM     84  F   UNL     1       8.509 -15.110   1.300  1.00  0.00    -0.200 F 
ATOM     85  C   UNL     1       6.934 -13.595   0.404  1.00  0.00     0.200 A 
ATOM     86  F   UNL     1       5.380 -12.091  -0.543  1.00  0.00    -0.200 F 
ATOM     87  F   UNL     1       6.303 -13.529   1.584  1.00  0.00    -0.200 F 
ENDBRANCH  53  77
BRANCH  65  88
ATOM     88  C   UNL     1       9.096 -18.880  -6.717  1.00  0.00     0.064 A 
ATOM     89  C   UNL     1       7.750 -19.231  -6.897  1.00  0.00     0.173 A 
ATOM     90  C   UNL     1      10.033 -19.916  -6.586  1.00  0.00     0.173 A 
ATOM     91  F   UNL     1       6.813 -18.277  -7.010  1.00  0.00    -0.203 F 
ATOM     92  C   UNL     1       7.355 -20.566  -6.920  1.00  0.00     0.198 A 
ATOM     93  C   UNL     1       9.639 -21.250  -6.640  1.00  0.00     0.198 A 
ATOM     94  F   UNL     1      11.334 -19.634  -6.417  1.00  0.00    -0.203 F 
ATOM     95  F   UNL     1       6.057 -20.876  -7.043  1.00  0.00    -0.200 F 
ATOM     96  C   UNL     1       8.300 -21.573  -6.799  1.00  0.00     0.200 A 
ATOM     97  F   UNL     1      10.556 -22.222  -6.538  1.00  0.00    -0.200 F 
ATOM     98  F   UNL     1       7.920 -22.858  -6.829  1.00  0.00    -0.200 F 
ENDBRANCH  65  88
ENDBRANCH  39  40
ENDBRANCH  31  34
ENDBRANCH  29  30
ENDBRANCH  28  29
ENDBRANCH  27  28
ENDBRANCH   3  27
TORSDOF 15
