REMARK SMILES N#Cc1cc(F)ccc1N1[C@@H]2CC[C@H]1C[C@H](CC(=O)NCCCNC(=O)c1ccc(-c3c4nc(c(-c5c(F)c(F)c(F)c(F)c5F)c5ccc([nH]5)c(-c5c(F)c(F)c(F)c(F)c5F)c5nc(c(-c6c(F)c(F)c(F)c(F)c6F)c6ccc3[nH]6)C=C5)C=C4)cc1)C2
REMARK SMILES IDX 21 1 20 2 18 3 19 4 17 6 16 7 10 8 11 9 14 10 12 11 90 12
REMARK SMILES IDX 13 13 15 14 9 15 3 16 4 17 5 18 8 19 6 20 7 21 2 22 1 23
REMARK SMILES IDX 22 24 23 25 24 26 25 27 26 29 27 30 28 31 89 32 29 33 88 34
REMARK SMILES IDX 30 35 31 36 32 37 82 38 33 39 87 40 81 41 83 42 34 43 86 44
REMARK SMILES IDX 80 45 79 46 35 48 67 49 47 50 66 51 48 52 51 53 65 54 84 55
REMARK SMILES IDX 49 56 50 57 64 59 85 60 52 61 36 62 37 63 45 64 38 65 39 66
REMARK SMILES IDX 43 67 46 68 40 69 41 70 44 71 42 72 68 73 69 74 77 75 70 76
REMARK SMILES IDX 71 77 75 78 78 79 72 80 73 81 76 82 74 83 53 84 54 85 62 86
REMARK SMILES IDX 55 87 56 88 60 89 63 90 57 91 58 92 61 93 59 94
REMARK H PARENT 20 5 24 28 83 47 51 58
REMARK Flexibility Score: inf
ROOT
ATOM      1  C   UNL     1      -6.428   1.083  -0.325  1.00  0.00     0.117 C 
ENDROOT
BRANCH   1   2
ATOM      2  N   UNL     1      -6.746   1.740  -1.587  1.00  0.00    -0.356 N 
ATOM      3  C   UNL     1      -6.033   1.887  -2.740  1.00  0.00     0.220 C 
ATOM      4  O   UNL     1      -6.591   2.453  -3.684  1.00  0.00    -0.275 OA
ATOM      5  H   UNL     1      -7.639   2.155  -1.611  1.00  0.00     0.163 HD
BRANCH   3   6
ATOM      6  C   UNL     1      -4.591   1.414  -2.876  1.00  0.00     0.103 C 
BRANCH   6   7
ATOM      7  C   UNL     1      -3.567   2.499  -2.478  1.00  0.00     0.002 C 
ATOM      8  N   UNL     1      -1.184   2.535  -0.849  1.00  0.00    -0.364 N 
ATOM      9  C   UNL     1      -1.052   2.968  -2.236  1.00  0.00     0.083 C 
ATOM     10  C   UNL     1      -2.321   3.242  -0.297  1.00  0.00     0.083 C 
ATOM     11  C   UNL     1      -1.319   4.484  -2.123  1.00  0.00     0.027 C 
ATOM     12  C   UNL     1      -2.147   2.207  -3.014  1.00  0.00     0.029 C 
ATOM     13  C   UNL     1      -2.078   4.671  -0.800  1.00  0.00     0.027 C 
ATOM     14  C   UNL     1      -3.591   2.713  -0.955  1.00  0.00     0.029 C 
BRANCH   8  15
ATOM     15  C   UNL     1      -0.381   1.562  -0.326  1.00  0.00     0.055 A 
ATOM     16  C   UNL     1      -0.764   0.231  -0.062  1.00  0.00     0.078 A 
ATOM     17  C   UNL     1       0.204  -0.747   0.234  1.00  0.00     0.060 A 
ATOM     18  C   UNL     1       1.541  -0.399   0.323  1.00  0.00     0.124 A 
ATOM     19  C   UNL     1       0.983   1.880  -0.163  1.00  0.00     0.030 A 
ATOM     20  F   UNL     1       2.455  -1.347   0.561  1.00  0.00    -0.207 F 
ATOM     21  C   UNL     1       1.938   0.915   0.159  1.00  0.00     0.041 A 
BRANCH  16  22
ATOM     22  C   UNL     1      -2.113  -0.234  -0.123  1.00  0.00     0.101 C 
ATOM     23  N   UNL     1      -3.182  -0.700  -0.127  1.00  0.00    -0.192 NA
ENDBRANCH  16  22
ENDBRANCH   8  15
ENDBRANCH   6   7
ENDBRANCH   3   6
ENDBRANCH   1   2
BRANCH   1  24
ATOM     24  C   UNL     1      -6.235   2.070   0.830  1.00  0.00     0.042 C 
BRANCH  24  25
ATOM     25  C   UNL     1      -7.514   2.705   1.343  1.00  0.00     0.118 C 
BRANCH  25  26
ATOM     26  N   UNL     1      -8.152   1.869   2.338  1.00  0.00    -0.352 N 
ATOM     27  C   UNL     1      -8.274   2.053   3.692  1.00  0.00     0.251 C 
ATOM     28  H   UNL     1      -8.560   1.043   1.991  1.00  0.00     0.163 HD
ATOM     29  O   UNL     1      -8.574   1.093   4.397  1.00  0.00    -0.269 OA
BRANCH  27  30
ATOM     30  C   UNL     1      -8.053   3.380   4.324  1.00  0.00     0.039 A 
ATOM     31  C   UNL     1      -7.553   3.416   5.630  1.00  0.00     0.014 A 
ATOM     32  C   UNL     1      -8.408   4.578   3.696  1.00  0.00     0.014 A 
ATOM     33  C   UNL     1      -7.402   4.637   6.292  1.00  0.00     0.010 A 
ATOM     34  C   UNL     1      -8.162   5.802   4.319  1.00  0.00     0.010 A 
ATOM     35  C   UNL     1      -7.691   5.845   5.638  1.00  0.00    -0.014 A 
BRANCH  35  36
ATOM     36  C   UNL     1      -7.553   7.145   6.349  1.00  0.00     0.031 A 
ATOM     37  C   UNL     1      -8.761   8.015   6.587  1.00  0.00     0.074 A 
ATOM     38  C   UNL     1      -6.340   7.550   6.773  1.00  0.00     0.049 A 
ATOM     39  N   UNL     1      -8.842   9.173   7.195  1.00  0.00    -0.248 NA
ATOM     40  C   UNL     1     -10.044   7.534   6.052  1.00  0.00     0.031 C 
ATOM     41  C   UNL     1      -5.088   6.821   6.564  1.00  0.00     0.029 A 
ATOM     42  N   UNL     1      -5.960   8.669   7.471  1.00  0.00    -0.354 N 
ATOM     43  C   UNL     1     -10.175   9.557   7.106  1.00  0.00     0.074 A 
ATOM     44  C   UNL     1     -10.854   8.545   6.329  1.00  0.00     0.031 C 
ATOM     45  C   UNL     1      -4.086   7.491   7.155  1.00  0.00     0.029 A 
ATOM     46  C   UNL     1      -4.615   8.715   7.748  1.00  0.00     0.049 A 
ATOM     47  H   UNL     1      -6.592   9.372   7.748  1.00  0.00     0.167 HD
ATOM     48  C   UNL     1     -10.785  10.639   7.648  1.00  0.00     0.037 A 
ATOM     49  C   UNL     1      -3.890   9.641   8.404  1.00  0.00     0.037 A 
ATOM     50  C   UNL     1     -10.110  11.634   8.439  1.00  0.00     0.049 A 
ATOM     51  C   UNL     1      -4.590  10.843   8.982  1.00  0.00     0.074 A 
ATOM     52  C   UNL     1     -10.646  12.737   9.081  1.00  0.00     0.029 A 
ATOM     53  N   UNL     1      -8.745  11.649   8.691  1.00  0.00    -0.354 N 
ATOM     54  N   UNL     1      -5.864  11.153   8.957  1.00  0.00    -0.248 NA
ATOM     55  C   UNL     1      -3.750  11.819   9.690  1.00  0.00     0.031 C 
ATOM     56  C   UNL     1      -9.598  13.453   9.668  1.00  0.00     0.029 A 
ATOM     57  C   UNL     1      -8.417  12.762   9.451  1.00  0.00     0.049 A 
ATOM     58  H   UNL     1      -8.105  10.971   8.377  1.00  0.00     0.167 HD
ATOM     59  C   UNL     1      -5.981  12.343   9.663  1.00  0.00     0.074 A 
ATOM     60  C   UNL     1      -4.652  12.684  10.127  1.00  0.00     0.031 C 
ATOM     61  C   UNL     1      -7.088  13.089   9.903  1.00  0.00     0.037 A 
BRANCH  48  62
ATOM     62  C   UNL     1     -12.260  10.804   7.402  1.00  0.00     0.064 A 
ATOM     63  C   UNL     1     -13.206   9.929   7.960  1.00  0.00     0.173 A 
ATOM     64  C   UNL     1     -12.737  11.873   6.628  1.00  0.00     0.173 A 
ATOM     65  F   UNL     1     -12.805   8.884   8.700  1.00  0.00    -0.203 F 
ATOM     66  C   UNL     1     -14.568  10.098   7.723  1.00  0.00     0.198 A 
ATOM     67  C   UNL     1     -14.102  12.060   6.424  1.00  0.00     0.198 A 
ATOM     68  F   UNL     1     -11.880  12.746   6.076  1.00  0.00    -0.203 F 
ATOM     69  F   UNL     1     -15.447   9.216   8.220  1.00  0.00    -0.200 F 
ATOM     70  C   UNL     1     -15.016  11.167   6.963  1.00  0.00     0.200 A 
ATOM     71  F   UNL     1     -14.534  13.103   5.702  1.00  0.00    -0.200 F 
ATOM     72  F   UNL     1     -16.327  11.333   6.744  1.00  0.00    -0.200 F 
ENDBRANCH  48  62
BRANCH  49  73
ATOM     73  C   UNL     1      -2.423   9.461   8.567  1.00  0.00     0.064 A 
ATOM     74  C   UNL     1      -1.856   9.238   9.830  1.00  0.00     0.173 A 
ATOM     75  C   UNL     1      -1.555   9.519   7.466  1.00  0.00     0.173 A 
ATOM     76  F   UNL     1      -2.640   9.194  10.917  1.00  0.00    -0.203 F 
ATOM     77  C   UNL     1      -0.478   9.107   9.989  1.00  0.00     0.198 A 
ATOM     78  C   UNL     1      -0.181   9.353   7.621  1.00  0.00     0.198 A 
ATOM     79  F   UNL     1      -2.045   9.724   6.234  1.00  0.00    -0.203 F 
ATOM     80  F   UNL     1       0.041   8.949  11.214  1.00  0.00    -0.200 F 
ATOM     81  C   UNL     1       0.358   9.158   8.883  1.00  0.00     0.200 A 
ATOM     82  F   UNL     1       0.621   9.386   6.548  1.00  0.00    -0.200 F 
ATOM     83  F   UNL     1       1.683   9.028   9.036  1.00  0.00    -0.200 F 
ENDBRANCH  49  73
BRANCH  61  84
ATOM     84  C   UNL     1      -6.913  14.334  10.726  1.00  0.00     0.064 A 
ATOM     85  C   UNL     1      -6.222  15.452  10.235  1.00  0.00     0.173 A 
ATOM     86  C   UNL     1      -7.465  14.419  12.014  1.00  0.00     0.173 A 
ATOM     87  F   UNL     1      -5.662  15.419   9.016  1.00  0.00    -0.203 F 
ATOM     88  C   UNL     1      -6.059  16.593  11.016  1.00  0.00     0.198 A 
ATOM     89  C   UNL     1      -7.333  15.576  12.777  1.00  0.00     0.198 A 
ATOM     90  F   UNL     1      -8.144  13.383  12.529  1.00  0.00    -0.203 F 
ATOM     91  F   UNL     1      -5.341  17.625  10.549  1.00  0.00    -0.200 F 
ATOM     92  C   UNL     1      -6.621  16.657  12.282  1.00  0.00     0.200 A 
ATOM     93  F   UNL     1      -7.892  15.642  13.993  1.00  0.00    -0.200 F 
ATOM     94  F   UNL     1      -6.467  17.759  13.030  1.00  0.00    -0.200 F 
ENDBRANCH  61  84
ENDBRANCH  35  36
ENDBRANCH  27  30
ENDBRANCH  25  26
ENDBRANCH  24  25
ENDBRANCH   1  24
TORSDOF 13
