REMARK SMILES O=C(NCCCNC(=O)[C@H]1CC[C@@H](CNc2nncs2)CC1)c1ccc(-c2c3nc(c(-c4c(F)c(F)c(F)c(F)c4F)c4ccc([nH]4)c(-c4c(F)c(F)c(F)c(F)c4F)c4nc(c(-c5c(F)c(F)c(F)c(F)c5F)c5ccc2[nH]5)C=C4)C=C3)cc1
REMARK SMILES IDX 5 1 4 2 3 3 1 4 2 5 23 7 24 8 85 9 25 10 84 11 26 12 27 13
REMARK SMILES IDX 28 14 78 15 29 16 83 17 77 18 79 19 30 20 82 21 76 22 75 23
REMARK SMILES IDX 31 25 63 26 43 27 62 28 44 29 47 30 61 31 80 32 45 33 46 34
REMARK SMILES IDX 60 36 81 37 48 38 32 39 33 40 41 41 34 42 35 43 39 44 42 45
REMARK SMILES IDX 36 46 37 47 40 48 38 49 64 50 65 51 73 52 66 53 67 54 71 55
REMARK SMILES IDX 74 56 68 57 69 58 72 59 70 60 49 61 50 62 58 63 51 64 52 65
REMARK SMILES IDX 56 66 59 67 53 68 54 69 57 70 55 71 6 72 7 73 8 74 9 76
REMARK SMILES IDX 10 77 22 78 11 79 21 80 12 81 13 82 14 83 15 84 16 86 17 87
REMARK SMILES IDX 20 88 18 89 19 90
REMARK H PARENT 3 6 79 24 47 35 7 75 15 85
REMARK Flexibility Score: inf
ROOT
ATOM      1  C   UNL     1       4.519   0.239  -2.503  1.00  0.00     0.042 C 
ENDROOT
BRANCH   1   2
ATOM      2  C   UNL     1       4.351   0.788  -1.094  1.00  0.00     0.118 C 
BRANCH   2   3
ATOM      3  N   UNL     1       2.953   0.782  -0.669  1.00  0.00    -0.352 N 
ATOM      4  O   UNL     1       1.089  -0.019   0.310  1.00  0.00    -0.269 OA
ATOM      5  C   UNL     1       2.312   0.018   0.277  1.00  0.00     0.251 C 
ATOM      6  H   UNL     1       2.376   1.430  -1.136  1.00  0.00     0.163 HD
BRANCH   5   7
ATOM      7  C   UNL     1       3.104  -0.757   1.254  1.00  0.00     0.039 A 
ATOM      8  C   UNL     1       4.272  -0.214   1.786  1.00  0.00     0.014 A 
ATOM      9  C   UNL     1       2.665  -2.018   1.670  1.00  0.00     0.014 A 
ATOM     10  C   UNL     1       5.095  -0.996   2.577  1.00  0.00     0.010 A 
ATOM     11  C   UNL     1       3.430  -2.752   2.584  1.00  0.00     0.010 A 
ATOM     12  C   UNL     1       4.665  -2.256   3.025  1.00  0.00    -0.014 A 
BRANCH  12  13
ATOM     13  C   UNL     1       5.506  -2.957   4.027  1.00  0.00     0.031 A 
ATOM     14  C   UNL     1       6.138  -4.286   3.735  1.00  0.00     0.074 A 
ATOM     15  C   UNL     1       5.758  -2.319   5.188  1.00  0.00     0.049 A 
ATOM     16  N   UNL     1       6.966  -4.980   4.475  1.00  0.00    -0.248 NA
ATOM     17  C   UNL     1       5.796  -4.928   2.457  1.00  0.00     0.031 C 
ATOM     18  C   UNL     1       5.175  -1.032   5.581  1.00  0.00     0.029 A 
ATOM     19  N   UNL     1       6.595  -2.631   6.227  1.00  0.00    -0.354 N 
ATOM     20  C   UNL     1       7.239  -6.138   3.760  1.00  0.00     0.074 A 
ATOM     21  C   UNL     1       6.459  -6.074   2.542  1.00  0.00     0.031 C 
ATOM     22  C   UNL     1       5.726  -0.629   6.732  1.00  0.00     0.029 A 
ATOM     23  C   UNL     1       6.633  -1.666   7.204  1.00  0.00     0.049 A 
ATOM     24  H   UNL     1       7.117  -3.464   6.269  1.00  0.00     0.167 HD
ATOM     25  C   UNL     1       8.076  -7.151   4.089  1.00  0.00     0.037 A 
ATOM     26  C   UNL     1       7.306  -1.628   8.367  1.00  0.00     0.037 A 
ATOM     27  C   UNL     1       8.846  -7.202   5.307  1.00  0.00     0.049 A 
ATOM     28  C   UNL     1       8.206  -2.778   8.711  1.00  0.00     0.074 A 
ATOM     29  C   UNL     1       9.722  -8.184   5.736  1.00  0.00     0.029 A 
ATOM     30  N   UNL     1       8.831  -6.226   6.295  1.00  0.00    -0.354 N 
ATOM     31  N   UNL     1       8.471  -3.857   8.015  1.00  0.00    -0.248 NA
ATOM     32  C   UNL     1       8.901  -2.707  10.001  1.00  0.00     0.031 C 
ATOM     33  C   UNL     1      10.200  -7.826   7.001  1.00  0.00     0.029 A 
ATOM     34  C   UNL     1       9.669  -6.591   7.338  1.00  0.00     0.049 A 
ATOM     35  H   UNL     1       8.302  -5.396   6.260  1.00  0.00     0.167 HD
ATOM     36  C   UNL     1       9.368  -4.590   8.776  1.00  0.00     0.074 A 
ATOM     37  C   UNL     1       9.633  -3.811   9.969  1.00  0.00     0.031 C 
ATOM     38  C   UNL     1       9.914  -5.804   8.520  1.00  0.00     0.037 A 
BRANCH  25  39
ATOM     39  C   UNL     1       8.200  -8.297   3.124  1.00  0.00     0.064 A 
ATOM     40  C   UNL     1       8.851  -8.152   1.889  1.00  0.00     0.173 A 
ATOM     41  C   UNL     1       7.716  -9.571   3.461  1.00  0.00     0.173 A 
ATOM     42  F   UNL     1       9.325  -6.954   1.513  1.00  0.00    -0.203 F 
ATOM     43  C   UNL     1       8.997  -9.233   1.022  1.00  0.00     0.198 A 
ATOM     44  C   UNL     1       7.889 -10.656   2.605  1.00  0.00     0.198 A 
ATOM     45  F   UNL     1       7.092  -9.769   4.632  1.00  0.00    -0.203 F 
ATOM     46  F   UNL     1       9.592  -9.060  -0.166  1.00  0.00    -0.200 F 
ATOM     47  C   UNL     1       8.524 -10.485   1.384  1.00  0.00     0.200 A 
ATOM     48  F   UNL     1       7.447 -11.869   2.965  1.00  0.00    -0.200 F 
ATOM     49  F   UNL     1       8.679 -11.527   0.556  1.00  0.00    -0.200 F 
ENDBRANCH  25  39
BRANCH  26  50
ATOM     50  C   UNL     1       7.124  -0.480   9.294  1.00  0.00     0.064 A 
ATOM     51  C   UNL     1       8.178   0.392   9.596  1.00  0.00     0.173 A 
ATOM     52  C   UNL     1       5.882  -0.235   9.903  1.00  0.00     0.173 A 
ATOM     53  F   UNL     1       9.388   0.194   9.052  1.00  0.00    -0.203 F 
ATOM     54  C   UNL     1       8.006   1.445  10.492  1.00  0.00     0.198 A 
ATOM     55  C   UNL     1       5.700   0.842  10.766  1.00  0.00     0.198 A 
ATOM     56  F   UNL     1       4.836  -1.033   9.642  1.00  0.00    -0.203 F 
ATOM     57  F   UNL     1       9.046   2.229  10.808  1.00  0.00    -0.200 F 
ATOM     58  C   UNL     1       6.766   1.673  11.071  1.00  0.00     0.200 A 
ATOM     59  F   UNL     1       4.494   1.071  11.302  1.00  0.00    -0.200 F 
ATOM     60  F   UNL     1       6.600   2.690  11.928  1.00  0.00    -0.200 F 
ENDBRANCH  26  50
BRANCH  38  61
ATOM     61  C   UNL     1      10.871  -6.341   9.545  1.00  0.00     0.064 A 
ATOM     62  C   UNL     1      10.435  -6.753  10.814  1.00  0.00     0.173 A 
ATOM     63  C   UNL     1      12.240  -6.440   9.256  1.00  0.00     0.173 A 
ATOM     64  F   UNL     1       9.138  -6.661  11.146  1.00  0.00    -0.203 F 
ATOM     65  C   UNL     1      11.342  -7.201  11.771  1.00  0.00     0.198 A 
ATOM     66  C   UNL     1      13.138  -6.924  10.202  1.00  0.00     0.198 A 
ATOM     67  F   UNL     1      12.707  -6.066   8.056  1.00  0.00    -0.203 F 
ATOM     68  F   UNL     1      10.912  -7.519  13.000  1.00  0.00    -0.200 F 
ATOM     69  C   UNL     1      12.691  -7.291  11.462  1.00  0.00     0.200 A 
ATOM     70  F   UNL     1      14.439  -7.024   9.898  1.00  0.00    -0.200 F 
ATOM     71  F   UNL     1      13.562  -7.720  12.385  1.00  0.00    -0.200 F 
ENDBRANCH  38  61
ENDBRANCH  12  13
ENDBRANCH   5   7
ENDBRANCH   2   3
ENDBRANCH   1   2
BRANCH   1  72
ATOM     72  C   UNL     1       3.914   1.165  -3.551  1.00  0.00     0.117 C 
BRANCH  72  73
ATOM     73  N   UNL     1       4.782   2.297  -3.818  1.00  0.00    -0.356 N 
ATOM     74  C   UNL     1       5.770   2.544  -4.707  1.00  0.00     0.223 C 
ATOM     75  H   UNL     1       4.612   3.057  -3.216  1.00  0.00     0.163 HD
ATOM     76  O   UNL     1       6.363   3.618  -4.534  1.00  0.00    -0.275 OA
BRANCH  74  77
ATOM     77  C   UNL     1       6.152   1.652  -5.902  1.00  0.00     0.078 C 
ATOM     78  C   UNL     1       7.695   1.673  -6.016  1.00  0.00     0.014 C 
ATOM     79  C   UNL     1       5.588   0.233  -5.957  1.00  0.00     0.014 C 
ATOM     80  C   UNL     1       8.262   0.726  -7.074  1.00  0.00     0.006 C 
ATOM     81  C   UNL     1       6.206  -0.642  -7.040  1.00  0.00     0.006 C 
ATOM     82  C   UNL     1       7.731  -0.705  -6.931  1.00  0.00     0.008 C 
BRANCH  82  83
ATOM     83  C   UNL     1       8.248  -1.369  -5.633  1.00  0.00     0.119 C 
BRANCH  83  84
ATOM     84  N   UNL     1       7.765  -2.728  -5.532  1.00  0.00    -0.360 N 
ATOM     85  H   UNL     1       6.793  -2.863  -5.610  1.00  0.00     0.162 HD
BRANCH  84  86
ATOM     86  C   UNL     1       8.523  -3.830  -5.341  1.00  0.00     0.205 A 
ATOM     87  N   UNL     1       8.024  -5.043  -5.477  1.00  0.00    -0.121 NA
ATOM     88  S   UNL     1      10.187  -3.841  -4.884  1.00  0.00    -0.083 S 
ATOM     89  N   UNL     1       8.952  -6.043  -5.271  1.00  0.00    -0.145 NA
ATOM     90  C   UNL     1      10.125  -5.548  -4.950  1.00  0.00     0.204 A 
ENDBRANCH  84  86
ENDBRANCH  83  84
ENDBRANCH  82  83
ENDBRANCH  74  77
ENDBRANCH  72  73
ENDBRANCH   1  72
TORSDOF 13
