REMARK SMILES CC[C@](C)(NC(=O)N(C)Cc1cccc(C)c1)C(=O)NCCCNC(=O)c1ccc(-c2c3nc(c(-c4c(F)c(F)c(F)c(F)c4F)c4ccc([nH]4)c(-c4c(F)c(F)c(F)c(F)c4F)c4nc(c(-c5c(F)c(F)c(F)c(F)c5F)c5ccc2[nH]5)C=C4)C=C3)cc1
REMARK SMILES IDX 21 1 20 2 18 3 19 4 3 6 4 7 2 8 1 9 5 10 6 11 7 13 8 14 9 15
REMARK SMILES IDX 10 16 11 17 12 18 17 19 13 20 15 21 14 22 16 23 22 24 23 25
REMARK SMILES IDX 24 26 25 27 26 29 27 30 28 31 89 32 29 33 88 34 30 35 31 36
REMARK SMILES IDX 32 37 82 38 33 39 87 40 81 41 83 42 34 43 86 44 80 45 79 46
REMARK SMILES IDX 35 48 67 49 47 50 66 51 48 52 51 53 65 54 84 55 49 56 50 57
REMARK SMILES IDX 64 59 85 60 52 61 36 62 37 63 45 64 38 65 39 66 43 67 46 68
REMARK SMILES IDX 40 69 41 70 44 71 42 72 68 73 69 74 77 75 70 76 71 77 75 78
REMARK SMILES IDX 78 79 72 80 73 81 76 82 74 83 53 84 54 85 62 86 55 87 56 88
REMARK SMILES IDX 60 89 63 90 57 91 58 92 61 93 59 94
REMARK H PARENT 20 5 5 12 24 28 83 47 51 58
REMARK Flexibility Score: inf
ROOT
ATOM      1  C   UNL     1       2.129  -2.810   4.207  1.00  0.00     0.117 C 
ENDROOT
BRANCH   1   2
ATOM      2  N   UNL     1       2.827  -2.025   3.196  1.00  0.00    -0.354 N 
ATOM      3  C   UNL     1       2.474  -1.498   1.987  1.00  0.00     0.245 C 
ATOM      4  O   UNL     1       3.258  -0.645   1.547  1.00  0.00    -0.272 OA
ATOM      5  H   UNL     1       3.761  -1.831   3.440  1.00  0.00     0.163 HD
BRANCH   3   6
ATOM      6  C   UNL     1       1.173  -1.855   1.195  1.00  0.00     0.117 C 
ATOM      7  C   UNL     1       1.143  -1.153  -0.186  1.00  0.00     0.045 C 
BRANCH   6   8
ATOM      8  C   UNL     1      -0.070  -1.345   1.990  1.00  0.00     0.035 C 
ATOM      9  C   UNL     1      -0.169   0.172   2.138  1.00  0.00     0.007 C 
ENDBRANCH   6   8
BRANCH   6  10
ATOM     10  N   UNL     1       1.007  -3.310   0.952  1.00  0.00    -0.324 N 
ATOM     11  C   UNL     1       1.685  -4.131   0.093  1.00  0.00     0.318 C 
ATOM     12  H   UNL     1       0.307  -3.749   1.487  1.00  0.00     0.166 HD
ATOM     13  O   UNL     1       1.008  -4.743  -0.734  1.00  0.00    -0.249 OA
BRANCH  11  14
ATOM     14  N   UNL     1       2.994  -4.453   0.377  1.00  0.00    -0.324 N 
ATOM     15  C   UNL     1       4.021  -3.425   0.307  1.00  0.00     0.149 C 
BRANCH  14  16
ATOM     16  C   UNL     1       3.488  -5.786   0.008  1.00  0.00     0.156 C 
BRANCH  16  17
ATOM     17  C   UNL     1       2.867  -7.048   0.586  1.00  0.00    -0.028 A 
ATOM     18  C   UNL     1       3.639  -8.226   0.531  1.00  0.00     0.005 A 
ATOM     19  C   UNL     1       1.538  -7.169   1.010  1.00  0.00     0.009 A 
ATOM     20  C   UNL     1       3.100  -9.468   0.869  1.00  0.00     0.001 A 
ATOM     21  C   UNL     1       0.973  -8.418   1.318  1.00  0.00    -0.051 A 
ATOM     22  C   UNL     1       1.764  -9.566   1.245  1.00  0.00     0.003 A 
ATOM     23  C   UNL     1      -0.494  -8.535   1.617  1.00  0.00     0.044 C 
ENDBRANCH  16  17
ENDBRANCH  14  16
ENDBRANCH  11  14
ENDBRANCH   6  10
ENDBRANCH   3   6
ENDBRANCH   1   2
BRANCH   1  24
ATOM     24  C   UNL     1       2.092  -4.313   3.976  1.00  0.00     0.042 C 
BRANCH  24  25
ATOM     25  C   UNL     1       3.413  -5.014   4.274  1.00  0.00     0.118 C 
BRANCH  25  26
ATOM     26  N   UNL     1       3.372  -5.809   5.507  1.00  0.00    -0.352 N 
ATOM     27  C   UNL     1       4.287  -6.723   5.992  1.00  0.00     0.251 C 
ATOM     28  H   UNL     1       2.576  -5.671   6.070  1.00  0.00     0.163 HD
ATOM     29  O   UNL     1       4.127  -7.258   7.085  1.00  0.00    -0.269 OA
BRANCH  27  30
ATOM     30  C   UNL     1       5.533  -6.945   5.234  1.00  0.00     0.039 A 
ATOM     31  C   UNL     1       6.745  -6.665   5.872  1.00  0.00     0.014 A 
ATOM     32  C   UNL     1       5.480  -7.171   3.862  1.00  0.00     0.014 A 
ATOM     33  C   UNL     1       7.854  -6.346   5.097  1.00  0.00     0.010 A 
ATOM     34  C   UNL     1       6.553  -6.772   3.089  1.00  0.00     0.010 A 
ATOM     35  C   UNL     1       7.708  -6.284   3.709  1.00  0.00    -0.014 A 
BRANCH  35  36
ATOM     36  C   UNL     1       8.652  -5.565   2.862  1.00  0.00     0.031 A 
ATOM     37  C   UNL     1       9.645  -6.289   2.049  1.00  0.00     0.074 A 
ATOM     38  C   UNL     1       8.591  -4.215   2.809  1.00  0.00     0.049 A 
ATOM     39  N   UNL     1      10.801  -5.811   1.731  1.00  0.00    -0.248 NA
ATOM     40  C   UNL     1       9.415  -7.640   1.550  1.00  0.00     0.031 C 
ATOM     41  C   UNL     1       9.301  -3.329   1.890  1.00  0.00     0.029 A 
ATOM     42  N   UNL     1       8.001  -3.348   3.746  1.00  0.00    -0.354 N 
ATOM     43  C   UNL     1      11.351  -6.654   0.795  1.00  0.00     0.074 A 
ATOM     44  C   UNL     1      10.480  -7.808   0.759  1.00  0.00     0.031 C 
ATOM     45  C   UNL     1       9.375  -2.107   2.441  1.00  0.00     0.029 A 
ATOM     46  C   UNL     1       8.835  -2.208   3.786  1.00  0.00     0.049 A 
ATOM     47  H   UNL     1       7.179  -3.502   4.265  1.00  0.00     0.167 HD
ATOM     48  C   UNL     1      12.407  -6.236   0.040  1.00  0.00     0.037 A 
ATOM     49  C   UNL     1       9.492  -1.843   4.923  1.00  0.00     0.037 A 
ATOM     50  C   UNL     1      12.832  -4.889   0.399  1.00  0.00     0.049 A 
ATOM     51  C   UNL     1      10.992  -1.789   4.767  1.00  0.00     0.074 A 
ATOM     52  C   UNL     1      12.517  -3.648  -0.129  1.00  0.00     0.029 A 
ATOM     53  N   UNL     1      13.417  -4.653   1.639  1.00  0.00    -0.354 N 
ATOM     54  N   UNL     1      11.646  -2.413   3.828  1.00  0.00    -0.248 NA
ATOM     55  C   UNL     1      11.873  -1.068   5.683  1.00  0.00     0.031 C 
ATOM     56  C   UNL     1      12.856  -2.663   0.827  1.00  0.00     0.029 A 
ATOM     57  C   UNL     1      13.400  -3.301   1.927  1.00  0.00     0.049 A 
ATOM     58  H   UNL     1      13.790  -5.349   2.228  1.00  0.00     0.167 HD
ATOM     59  C   UNL     1      12.989  -2.215   4.005  1.00  0.00     0.074 A 
ATOM     60  C   UNL     1      13.082  -1.355   5.169  1.00  0.00     0.031 C 
ATOM     61  C   UNL     1      13.919  -2.781   3.181  1.00  0.00     0.037 A 
BRANCH  48  62
ATOM     62  C   UNL     1      12.796  -6.950  -1.228  1.00  0.00     0.064 A 
ATOM     63  C   UNL     1      13.091  -6.240  -2.410  1.00  0.00     0.173 A 
ATOM     64  C   UNL     1      12.817  -8.351  -1.347  1.00  0.00     0.173 A 
ATOM     65  F   UNL     1      13.188  -4.905  -2.421  1.00  0.00    -0.203 F 
ATOM     66  C   UNL     1      13.272  -6.880  -3.639  1.00  0.00     0.198 A 
ATOM     67  C   UNL     1      12.946  -8.989  -2.584  1.00  0.00     0.198 A 
ATOM     68  F   UNL     1      12.711  -9.132  -0.261  1.00  0.00    -0.203 F 
ATOM     69  F   UNL     1      13.527  -6.153  -4.736  1.00  0.00    -0.200 F 
ATOM     70  C   UNL     1      13.160  -8.252  -3.733  1.00  0.00     0.200 A 
ATOM     71  F   UNL     1      12.842 -10.324  -2.660  1.00  0.00    -0.200 F 
ATOM     72  F   UNL     1      13.268  -8.860  -4.922  1.00  0.00    -0.200 F 
ENDBRANCH  48  62
BRANCH  49  73
ATOM     73  C   UNL     1       8.787  -2.231   6.173  1.00  0.00     0.064 A 
ATOM     74  C   UNL     1       7.510  -1.689   6.418  1.00  0.00     0.173 A 
ATOM     75  C   UNL     1       9.170  -3.349   6.921  1.00  0.00     0.173 A 
ATOM     76  F   UNL     1       7.092  -0.617   5.727  1.00  0.00    -0.203 F 
ATOM     77  C   UNL     1       6.614  -2.308   7.286  1.00  0.00     0.198 A 
ATOM     78  C   UNL     1       8.275  -3.957   7.804  1.00  0.00     0.198 A 
ATOM     79  F   UNL     1      10.365  -3.922   6.723  1.00  0.00    -0.203 F 
ATOM     80  F   UNL     1       5.365  -1.834   7.407  1.00  0.00    -0.200 F 
ATOM     81  C   UNL     1       6.989  -3.457   7.960  1.00  0.00     0.200 A 
ATOM     82  F   UNL     1       8.627  -5.085   8.437  1.00  0.00    -0.200 F 
ATOM     83  F   UNL     1       6.101  -4.105   8.727  1.00  0.00    -0.200 F 
ENDBRANCH  49  73
BRANCH  61  84
ATOM     84  C   UNL     1      15.404  -2.785   3.423  1.00  0.00     0.064 A 
ATOM     85  C   UNL     1      15.980  -2.837   4.702  1.00  0.00     0.173 A 
ATOM     86  C   UNL     1      16.306  -2.872   2.337  1.00  0.00     0.173 A 
ATOM     87  F   UNL     1      15.220  -2.882   5.805  1.00  0.00    -0.203 F 
ATOM     88  C   UNL     1      17.364  -2.898   4.884  1.00  0.00     0.198 A 
ATOM     89  C   UNL     1      17.682  -2.986   2.522  1.00  0.00     0.198 A 
ATOM     90  F   UNL     1      15.874  -2.869   1.067  1.00  0.00    -0.203 F 
ATOM     91  F   UNL     1      17.870  -2.901   6.125  1.00  0.00    -0.200 F 
ATOM     92  C   UNL     1      18.213  -2.981   3.796  1.00  0.00     0.200 A 
ATOM     93  F   UNL     1      18.489  -3.116   1.460  1.00  0.00    -0.200 F 
ATOM     94  F   UNL     1      19.537  -3.076   3.976  1.00  0.00    -0.200 F 
ENDBRANCH  61  84
ENDBRANCH  35  36
ENDBRANCH  27  30
ENDBRANCH  25  26
ENDBRANCH  24  25
ENDBRANCH   1  24
TORSDOF 15
