REMARK SMILES Cc1cc(CC(=O)C(=O)NCCCNC(=O)c2ccc(-c3c4nc(c(-c5c(F)c(F)c(F)c(F)c5F)c5ccc([nH]5)c(-c5c(F)c(F)c(F)c(F)c5F)c5nc(c(-c6c(F)c(F)c(F)c(F)c6F)c6ccc3[nH]6)C=C5)C=C4)cc2)cc2cn[nH]c12
REMARK SMILES IDX 12 1 11 2 10 3 8 4 9 5 6 7 7 8 5 9 4 10 1 11 2 12 3 13 85 14
REMARK SMILES IDX 81 15 84 16 80 17 82 18 83 19 13 21 14 22 15 23 16 25 17 26
REMARK SMILES IDX 18 27 79 28 19 29 78 30 20 31 21 32 22 33 72 34 23 35 77 36
REMARK SMILES IDX 71 37 73 38 24 39 76 40 70 41 69 42 25 44 57 45 37 46 56 47
REMARK SMILES IDX 38 48 41 49 55 50 74 51 39 52 40 53 54 55 75 56 42 57 26 58
REMARK SMILES IDX 27 59 35 60 28 61 29 62 33 63 36 64 30 65 31 66 34 67 32 68
REMARK SMILES IDX 58 69 59 70 67 71 60 72 61 73 65 74 68 75 62 76 63 77 66 78
REMARK SMILES IDX 64 79 43 80 44 81 52 82 45 83 46 84 50 85 53 86 47 87 48 88
REMARK SMILES IDX 51 89 49 90
REMARK H PARENT 10 6 84 20 14 24 73 43 41 54
REMARK Flexibility Score: inf
ROOT
ATOM      1  C   UNL     1       4.102   7.310  -4.474  1.00  0.00     0.042 C 
ENDROOT
BRANCH   1   2
ATOM      2  C   UNL     1       3.208   6.071  -4.607  1.00  0.00     0.118 C 
BRANCH   2   3
ATOM      3  N   UNL     1       3.614   4.997  -3.710  1.00  0.00    -0.349 N 
ATOM      4  C   UNL     1       3.129   4.696  -2.457  1.00  0.00     0.287 C 
ATOM      5  O   UNL     1       3.639   3.807  -1.785  1.00  0.00    -0.266 OA
ATOM      6  H   UNL     1       4.329   4.409  -4.044  1.00  0.00     0.163 HD
BRANCH   4   7
ATOM      7  C   UNL     1       1.945   5.486  -1.893  1.00  0.00     0.224 C 
ATOM      8  O   UNL     1       1.825   6.682  -2.141  1.00  0.00    -0.288 OA
BRANCH   7   9
ATOM      9  C   UNL     1       1.044   4.766  -0.920  1.00  0.00     0.122 C 
BRANCH   9  10
ATOM     10  C   UNL     1       0.570   3.397  -1.349  1.00  0.00    -0.039 A 
ATOM     11  C   UNL     1       0.844  -0.173  -0.001  1.00  0.00     0.047 C 
ATOM     12  C   UNL     1       0.458   0.975  -0.886  1.00  0.00    -0.025 A 
ATOM     13  C   UNL     1       0.894   2.276  -0.568  1.00  0.00     0.009 A 
ATOM     14  C   UNL     1      -0.328   0.862  -2.043  1.00  0.00     0.068 A 
ATOM     15  C   UNL     1      -0.670   1.947  -2.844  1.00  0.00     0.020 A 
ATOM     16  N   UNL     1      -0.919  -0.222  -2.643  1.00  0.00    -0.278 N 
ATOM     17  C   UNL     1      -0.223   3.236  -2.498  1.00  0.00     0.016 A 
ATOM     18  C   UNL     1      -1.452   1.389  -3.881  1.00  0.00     0.143 A 
ATOM     19  N   UNL     1      -1.604   0.068  -3.762  1.00  0.00    -0.183 NA
ATOM     20  H   UNL     1      -0.847  -1.135  -2.283  1.00  0.00     0.190 HD
ENDBRANCH   9  10
ENDBRANCH   7   9
ENDBRANCH   4   7
ENDBRANCH   2   3
ENDBRANCH   1   2
BRANCH   1  21
ATOM     21  C   UNL     1       5.466   7.089  -5.107  1.00  0.00     0.118 C 
BRANCH  21  22
ATOM     22  N   UNL     1       5.413   6.972  -6.568  1.00  0.00    -0.352 N 
ATOM     23  C   UNL     1       6.460   6.883  -7.470  1.00  0.00     0.251 C 
ATOM     24  H   UNL     1       4.511   6.953  -6.961  1.00  0.00     0.163 HD
ATOM     25  O   UNL     1       6.281   7.059  -8.662  1.00  0.00    -0.269 OA
BRANCH  23  26
ATOM     26  C   UNL     1       7.803   6.556  -6.959  1.00  0.00     0.039 A 
ATOM     27  C   UNL     1       8.961   7.111  -7.514  1.00  0.00     0.014 A 
ATOM     28  C   UNL     1       7.887   5.650  -5.907  1.00  0.00     0.014 A 
ATOM     29  C   UNL     1      10.195   6.761  -6.970  1.00  0.00     0.010 A 
ATOM     30  C   UNL     1       9.062   5.480  -5.239  1.00  0.00     0.010 A 
ATOM     31  C   UNL     1      10.225   5.936  -5.838  1.00  0.00    -0.014 A 
BRANCH  31  32
ATOM     32  C   UNL     1      11.464   5.481  -5.239  1.00  0.00     0.031 A 
ATOM     33  C   UNL     1      12.271   6.540  -4.594  1.00  0.00     0.074 A 
ATOM     34  C   UNL     1      11.710   4.162  -5.071  1.00  0.00     0.049 A 
ATOM     35  N   UNL     1      13.428   6.978  -4.958  1.00  0.00    -0.248 NA
ATOM     36  C   UNL     1      11.677   7.284  -3.471  1.00  0.00     0.031 C 
ATOM     37  C   UNL     1      10.809   3.029  -5.346  1.00  0.00     0.029 A 
ATOM     38  N   UNL     1      12.791   3.554  -4.516  1.00  0.00    -0.354 N 
ATOM     39  C   UNL     1      13.798   7.919  -4.002  1.00  0.00     0.074 A 
ATOM     40  C   UNL     1      12.621   8.194  -3.220  1.00  0.00     0.031 C 
ATOM     41  C   UNL     1      11.291   1.910  -4.763  1.00  0.00     0.029 A 
ATOM     42  C   UNL     1      12.614   2.202  -4.248  1.00  0.00     0.049 A 
ATOM     43  H   UNL     1      13.630   4.031  -4.322  1.00  0.00     0.167 HD
ATOM     44  C   UNL     1      15.111   8.192  -3.767  1.00  0.00     0.037 A 
ATOM     45  C   UNL     1      13.505   1.386  -3.641  1.00  0.00     0.037 A 
ATOM     46  C   UNL     1      15.947   7.596  -4.776  1.00  0.00     0.049 A 
ATOM     47  C   UNL     1      14.837   2.016  -3.784  1.00  0.00     0.074 A 
ATOM     48  C   UNL     1      16.307   7.886  -6.073  1.00  0.00     0.029 A 
ATOM     49  N   UNL     1      16.215   6.269  -4.563  1.00  0.00    -0.354 N 
ATOM     50  N   UNL     1      15.440   2.170  -4.929  1.00  0.00    -0.248 NA
ATOM     51  C   UNL     1      15.376   2.800  -2.680  1.00  0.00     0.031 C 
ATOM     52  C   UNL     1      16.610   6.635  -6.690  1.00  0.00     0.029 A 
ATOM     53  C   UNL     1      16.462   5.622  -5.745  1.00  0.00     0.049 A 
ATOM     54  H   UNL     1      16.229   5.838  -3.678  1.00  0.00     0.167 HD
ATOM     55  C   UNL     1      16.136   3.354  -4.790  1.00  0.00     0.074 A 
ATOM     56  C   UNL     1      16.212   3.593  -3.355  1.00  0.00     0.031 C 
ATOM     57  C   UNL     1      16.303   4.190  -5.853  1.00  0.00     0.037 A 
BRANCH  44  58
ATOM     58  C   UNL     1      15.686   8.600  -2.434  1.00  0.00     0.064 A 
ATOM     59  C   UNL     1      17.006   9.088  -2.368  1.00  0.00     0.173 A 
ATOM     60  C   UNL     1      15.101   8.255  -1.197  1.00  0.00     0.173 A 
ATOM     61  F   UNL     1      17.672   9.408  -3.488  1.00  0.00    -0.203 F 
ATOM     62  C   UNL     1      17.697   9.186  -1.156  1.00  0.00     0.198 A 
ATOM     63  C   UNL     1      15.773   8.406   0.015  1.00  0.00     0.198 A 
ATOM     64  F   UNL     1      13.907   7.652  -1.124  1.00  0.00    -0.203 F 
ATOM     65  F   UNL     1      18.985   9.557  -1.150  1.00  0.00    -0.200 F 
ATOM     66  C   UNL     1      17.079   8.848   0.035  1.00  0.00     0.200 A 
ATOM     67  F   UNL     1      15.165   8.046   1.155  1.00  0.00    -0.200 F 
ATOM     68  F   UNL     1      17.752   8.899   1.192  1.00  0.00    -0.200 F 
ENDBRANCH  44  58
BRANCH  45  69
ATOM     69  C   UNL     1      13.280   0.247  -2.728  1.00  0.00     0.064 A 
ATOM     70  C   UNL     1      14.307  -0.680  -2.484  1.00  0.00     0.173 A 
ATOM     71  C   UNL     1      12.200   0.250  -1.828  1.00  0.00     0.173 A 
ATOM     72  F   UNL     1      15.376  -0.728  -3.291  1.00  0.00    -0.203 F 
ATOM     73  C   UNL     1      14.293  -1.503  -1.356  1.00  0.00     0.198 A 
ATOM     74  C   UNL     1      12.187  -0.575  -0.703  1.00  0.00     0.198 A 
ATOM     75  F   UNL     1      11.199   1.132  -1.964  1.00  0.00    -0.203 F 
ATOM     76  F   UNL     1      15.334  -2.309  -1.104  1.00  0.00    -0.200 F 
ATOM     77  C   UNL     1      13.244  -1.433  -0.454  1.00  0.00     0.200 A 
ATOM     78  F   UNL     1      11.184  -0.476   0.182  1.00  0.00    -0.200 F 
ATOM     79  F   UNL     1      13.275  -2.153   0.676  1.00  0.00    -0.200 F 
ENDBRANCH  45  69
BRANCH  57  80
ATOM     80  C   UNL     1      16.146   3.585  -7.215  1.00  0.00     0.064 A 
ATOM     81  C   UNL     1      14.929   3.127  -7.747  1.00  0.00     0.173 A 
ATOM     82  C   UNL     1      17.278   3.506  -8.033  1.00  0.00     0.173 A 
ATOM     83  F   UNL     1      13.790   3.240  -7.055  1.00  0.00    -0.203 F 
ATOM     84  C   UNL     1      14.863   2.570  -9.023  1.00  0.00     0.198 A 
ATOM     85  C   UNL     1      17.204   2.983  -9.320  1.00  0.00     0.198 A 
ATOM     86  F   UNL     1      18.459   3.967  -7.590  1.00  0.00    -0.203 F 
ATOM     87  F   UNL     1      13.694   2.115  -9.499  1.00  0.00    -0.200 F 
ATOM     88  C   UNL     1      16.000   2.502  -9.809  1.00  0.00     0.200 A 
ATOM     89  F   UNL     1      18.300   2.956 -10.090  1.00  0.00    -0.200 F 
ATOM     90  F   UNL     1      15.935   1.991 -11.047  1.00  0.00    -0.200 F 
ENDBRANCH  57  80
ENDBRANCH  31  32
ENDBRANCH  23  26
ENDBRANCH  21  22
ENDBRANCH   1  21
TORSDOF 12
