REMARK SMILES Cc1c(CC(=O)NCCCNC(=O)c2ccc(-c3c4nc(c(-c5c(F)c(F)c(F)c(F)c5F)c5ccc([nH]5)c(-c5c(F)c(F)c(F)c(F)c5F)c5nc(c(-c6c(F)c(F)c(F)c(F)c6F)c6ccc3[nH]6)C=C5)C=C4)cc2)c(O)oc2cc(=O)cc(O)c1-2
REMARK SMILES IDX 9 1 8 2 7 3 5 4 6 5 4 7 3 8 1 9 2 10 87 11 77 12 80 13 85 14
REMARK SMILES IDX 79 15 81 16 84 17 82 18 83 19 78 20 86 22 10 24 11 25 12 26
REMARK SMILES IDX 13 28 14 29 15 30 76 31 16 32 75 33 17 34 18 35 19 36 69 37
REMARK SMILES IDX 20 38 74 39 68 40 70 41 21 42 73 43 67 44 66 45 22 47 54 48
REMARK SMILES IDX 34 49 53 50 35 51 38 52 52 53 71 54 36 55 37 56 51 58 72 59
REMARK SMILES IDX 39 60 23 61 24 62 32 63 25 64 26 65 30 66 33 67 27 68 28 69
REMARK SMILES IDX 31 70 29 71 55 72 56 73 64 74 57 75 58 76 62 77 65 78 59 79
REMARK SMILES IDX 60 80 63 81 61 82 40 83 41 84 49 85 42 86 43 87 47 88 50 89
REMARK SMILES IDX 44 90 45 91 48 92 46 93
REMARK H PARENT 7 6 78 21 86 23 11 27 70 46 38 57
REMARK Flexibility Score: inf
ROOT
ATOM      1  C   UNL     1       3.718   1.873   3.185  1.00  0.00     0.042 C 
ENDROOT
BRANCH   1   2
ATOM      2  C   UNL     1       3.561   3.057   2.237  1.00  0.00     0.117 C 
BRANCH   2   3
ATOM      3  N   UNL     1       3.603   2.646   0.847  1.00  0.00    -0.356 N 
ATOM      4  C   UNL     1       2.578   2.466  -0.032  1.00  0.00     0.224 C 
ATOM      5  O   UNL     1       2.854   2.088  -1.173  1.00  0.00    -0.275 OA
ATOM      6  H   UNL     1       4.502   2.471   0.487  1.00  0.00     0.163 HD
BRANCH   4   7
ATOM      7  C   UNL     1       1.143   2.796   0.371  1.00  0.00     0.143 C 
BRANCH   7   8
ATOM      8  C   UNL     1       0.523   1.881   1.417  1.00  0.00     0.046 A 
ATOM      9  C   UNL     1       0.735  -0.049  -0.241  1.00  0.00     0.046 C 
ATOM     10  C   UNL     1       0.392   0.419   1.159  1.00  0.00    -0.026 A 
ATOM     11  C   UNL     1      -0.037  -0.415   2.152  1.00  0.00     0.063 A 
ATOM     12  C   UNL     1       0.098   2.367   2.607  1.00  0.00     0.286 A 
ATOM     13  C   UNL     1      -0.444   0.183   3.439  1.00  0.00     0.146 A 
ATOM     14  C   UNL     1      -0.135  -1.891   2.055  1.00  0.00     0.130 A 
ATOM     15  O   UNL     1      -0.373   1.551   3.608  1.00  0.00    -0.425 OA
ATOM     16  C   UNL     1      -0.916  -0.551   4.452  1.00  0.00     0.100 A 
ATOM     17  C   UNL     1      -0.619  -2.631   3.063  1.00  0.00     0.099 A 
ATOM     18  C   UNL     1      -1.049  -2.009   4.329  1.00  0.00     0.186 A 
ATOM     19  O   UNL     1      -1.488  -2.689   5.248  1.00  0.00    -0.290 OA
BRANCH  12  20
ATOM     20  O   UNL     1       0.133   3.705   2.936  1.00  0.00    -0.480 OA
ATOM     21  H   UNL     1       0.440   4.333   2.313  1.00  0.00     0.297 HD
ENDBRANCH  12  20
BRANCH  14  22
ATOM     22  O   UNL     1       0.336  -2.501   0.913  1.00  0.00    -0.507 OA
ATOM     23  H   UNL     1       0.287  -3.432   0.824  1.00  0.00     0.293 HD
ENDBRANCH  14  22
ENDBRANCH   7   8
ENDBRANCH   4   7
ENDBRANCH   2   3
ENDBRANCH   1   2
BRANCH   1  24
ATOM     24  C   UNL     1       5.083   1.199   3.090  1.00  0.00     0.118 C 
BRANCH  24  25
ATOM     25  N   UNL     1       6.175   2.093   3.458  1.00  0.00    -0.352 N 
ATOM     26  C   UNL     1       7.054   2.029   4.508  1.00  0.00     0.251 C 
ATOM     27  H   UNL     1       6.301   2.863   2.858  1.00  0.00     0.163 HD
ATOM     28  O   UNL     1       7.771   2.993   4.766  1.00  0.00    -0.269 OA
BRANCH  26  29
ATOM     29  C   UNL     1       7.133   0.812   5.339  1.00  0.00     0.039 A 
ATOM     30  C   UNL     1       7.214   0.945   6.727  1.00  0.00     0.014 A 
ATOM     31  C   UNL     1       7.149  -0.455   4.750  1.00  0.00     0.014 A 
ATOM     32  C   UNL     1       7.244  -0.197   7.529  1.00  0.00     0.010 A 
ATOM     33  C   UNL     1       7.097  -1.591   5.552  1.00  0.00     0.010 A 
ATOM     34  C   UNL     1       7.149  -1.473   6.949  1.00  0.00    -0.014 A 
BRANCH  34  35
ATOM     35  C   UNL     1       7.111  -2.695   7.789  1.00  0.00     0.031 A 
ATOM     36  C   UNL     1       8.226  -3.698   7.712  1.00  0.00     0.074 A 
ATOM     37  C   UNL     1       6.050  -2.920   8.587  1.00  0.00     0.049 A 
ATOM     38  N   UNL     1       8.352  -4.844   8.332  1.00  0.00    -0.248 NA
ATOM     39  C   UNL     1       9.339  -3.384   6.801  1.00  0.00     0.031 C 
ATOM     40  C   UNL     1       4.891  -2.035   8.718  1.00  0.00     0.029 A 
ATOM     41  N   UNL     1       5.771  -3.961   9.437  1.00  0.00    -0.354 N 
ATOM     42  C   UNL     1       9.551  -5.383   7.887  1.00  0.00     0.074 A 
ATOM     43  C   UNL     1      10.085  -4.475   6.897  1.00  0.00     0.031 C 
ATOM     44  C   UNL     1       4.043  -2.553   9.620  1.00  0.00     0.029 A 
ATOM     45  C   UNL     1       4.576  -3.824  10.101  1.00  0.00     0.049 A 
ATOM     46  H   UNL     1       6.370  -4.732   9.559  1.00  0.00     0.167 HD
ATOM     47  C   UNL     1      10.165  -6.519   8.293  1.00  0.00     0.037 A 
ATOM     48  C   UNL     1       3.978  -4.635  10.995  1.00  0.00     0.037 A 
ATOM     49  C   UNL     1       9.636  -7.410   9.292  1.00  0.00     0.049 A 
ATOM     50  C   UNL     1       4.663  -5.913  11.399  1.00  0.00     0.074 A 
ATOM     51  C   UNL     1      10.204  -8.564   9.802  1.00  0.00     0.029 A 
ATOM     52  N   UNL     1       8.415  -7.247   9.931  1.00  0.00    -0.354 N 
ATOM     53  N   UNL     1       5.825  -6.384  11.016  1.00  0.00    -0.248 NA
ATOM     54  C   UNL     1       3.955  -6.771  12.359  1.00  0.00     0.031 C 
ATOM     55  C   UNL     1       9.303  -9.128  10.709  1.00  0.00     0.029 A 
ATOM     56  C   UNL     1       8.200  -8.296  10.809  1.00  0.00     0.049 A 
ATOM     57  H   UNL     1       7.795  -6.497   9.781  1.00  0.00     0.167 HD
ATOM     58  C   UNL     1       5.999  -7.577  11.703  1.00  0.00     0.074 A 
ATOM     59  C   UNL     1       4.830  -7.751  12.541  1.00  0.00     0.031 C 
ATOM     60  C   UNL     1       7.033  -8.452  11.641  1.00  0.00     0.037 A 
BRANCH  47  61
ATOM     61  C   UNL     1      11.489  -6.859   7.671  1.00  0.00     0.064 A 
ATOM     62  C   UNL     1      12.641  -6.106   7.946  1.00  0.00     0.173 A 
ATOM     63  C   UNL     1      11.622  -7.984   6.845  1.00  0.00     0.173 A 
ATOM     64  F   UNL     1      12.566  -5.014   8.721  1.00  0.00    -0.203 F 
ATOM     65  C   UNL     1      13.873  -6.456   7.399  1.00  0.00     0.198 A 
ATOM     66  C   UNL     1      12.862  -8.350   6.326  1.00  0.00     0.198 A 
ATOM     67  F   UNL     1      10.554  -8.742   6.554  1.00  0.00    -0.203 F 
ATOM     68  F   UNL     1      14.951  -5.698   7.643  1.00  0.00    -0.200 F 
ATOM     69  C   UNL     1      13.985  -7.583   6.600  1.00  0.00     0.200 A 
ATOM     70  F   UNL     1      12.971  -9.448   5.566  1.00  0.00    -0.200 F 
ATOM     71  F   UNL     1      15.175  -7.929   6.089  1.00  0.00    -0.200 F 
ENDBRANCH  47  61
BRANCH  48  72
ATOM     72  C   UNL     1       2.675  -4.239  11.592  1.00  0.00     0.064 A 
ATOM     73  C   UNL     1       2.588  -3.877  12.944  1.00  0.00     0.173 A 
ATOM     74  C   UNL     1       1.501  -4.188  10.826  1.00  0.00     0.173 A 
ATOM     75  F   UNL     1       3.678  -3.930  13.723  1.00  0.00    -0.203 F 
ATOM     76  C   UNL     1       1.375  -3.487  13.508  1.00  0.00     0.198 A 
ATOM     77  C   UNL     1       0.295  -3.770  11.385  1.00  0.00     0.198 A 
ATOM     78  F   UNL     1       1.532  -4.523   9.528  1.00  0.00    -0.203 F 
ATOM     79  F   UNL     1       1.313  -3.180  14.811  1.00  0.00    -0.200 F 
ATOM     80  C   UNL     1       0.232  -3.425  12.726  1.00  0.00     0.200 A 
ATOM     81  F   UNL     1      -0.805  -3.697  10.623  1.00  0.00    -0.200 F 
ATOM     82  F   UNL     1      -0.931  -3.037  13.267  1.00  0.00    -0.200 F 
ENDBRANCH  48  72
BRANCH  60  83
ATOM     83  C   UNL     1       6.966  -9.675  12.511  1.00  0.00     0.064 A 
ATOM     84  C   UNL     1       6.084 -10.727  12.228  1.00  0.00     0.173 A 
ATOM     85  C   UNL     1       7.858  -9.834  13.583  1.00  0.00     0.173 A 
ATOM     86  F   UNL     1       5.204 -10.618  11.220  1.00  0.00    -0.203 F 
ATOM     87  C   UNL     1       6.088 -11.889  12.994  1.00  0.00     0.198 A 
ATOM     88  C   UNL     1       7.881 -11.011  14.326  1.00  0.00     0.198 A 
ATOM     89  F   UNL     1       8.729  -8.861  13.889  1.00  0.00    -0.203 F 
ATOM     90  F   UNL     1       5.214 -12.869  12.726  1.00  0.00    -0.200 F 
ATOM     91  C   UNL     1       6.995 -12.036  14.034  1.00  0.00     0.200 A 
ATOM     92  F   UNL     1       8.771 -11.158  15.318  1.00  0.00    -0.200 F 
ATOM     93  F   UNL     1       7.013 -13.165  14.754  1.00  0.00    -0.200 F 
ENDBRANCH  60  83
ENDBRANCH  34  35
ENDBRANCH  26  29
ENDBRANCH  24  25
ENDBRANCH   1  24
TORSDOF 13
