REMARK SMILES O=C(CNc1ccccc1C(=O)N1CCCC1)NCCCNC(=O)c1ccc(-c2c3nc(c(-c4c(F)c(F)c(F)c(F)c4F)c4ccc([nH]4)c(-c4c(F)c(F)c(F)c(F)c4F)c4nc(c(-c5c(F)c(F)c(F)c(F)c5F)c5ccc2[nH]5)C=C4)C=C3)cc1
REMARK SMILES IDX 19 1 18 2 1 3 2 4 3 6 4 7 5 9 6 10 10 11 7 12 9 13 8 14
REMARK SMILES IDX 11 15 12 16 13 17 14 18 17 19 15 20 16 21 20 22 21 23 22 24
REMARK SMILES IDX 23 25 24 27 25 28 26 29 87 30 27 31 86 32 28 33 29 34 30 35
REMARK SMILES IDX 80 36 31 37 85 38 79 39 81 40 32 41 84 42 78 43 77 44 33 46
REMARK SMILES IDX 65 47 45 48 64 49 46 50 49 51 63 52 82 53 47 54 48 55 62 57
REMARK SMILES IDX 83 58 50 59 34 60 35 61 43 62 36 63 37 64 41 65 44 66 38 67
REMARK SMILES IDX 39 68 42 69 40 70 66 71 67 72 75 73 68 74 69 75 73 76 76 77
REMARK SMILES IDX 70 78 71 79 74 80 72 81 51 82 52 83 60 84 53 85 54 86 58 87
REMARK SMILES IDX 61 88 55 89 56 90 59 91 57 92
REMARK H PARENT 18 5 4 8 22 26 81 45 49 56
REMARK Flexibility Score: inf
ROOT
ATOM      1  C   UNL     1       1.979   2.876  -1.450  1.00  0.00     0.117 C 
ENDROOT
BRANCH   1   2
ATOM      2  N   UNL     1       2.743   1.668  -1.241  1.00  0.00    -0.355 N 
ATOM      3  O   UNL     1       1.203   0.680   0.145  1.00  0.00    -0.273 OA
ATOM      4  C   UNL     1       2.349   0.753  -0.287  1.00  0.00     0.239 C 
ATOM      5  H   UNL     1       3.548   1.497  -1.781  1.00  0.00     0.163 HD
BRANCH   4   6
ATOM      6  C   UNL     1       3.510  -0.065   0.259  1.00  0.00     0.213 C 
BRANCH   6   7
ATOM      7  N   UNL     1       3.925  -1.106  -0.674  1.00  0.00    -0.376 N 
ATOM      8  H   UNL     1       3.363  -1.350  -1.445  1.00  0.00     0.161 HD
BRANCH   7   9
ATOM      9  C   UNL     1       5.144  -1.745  -0.441  1.00  0.00     0.047 A 
ATOM     10  C   UNL     1       6.112  -1.629  -1.459  1.00  0.00     0.026 A 
ATOM     11  C   UNL     1       5.539  -2.338   0.781  1.00  0.00     0.063 A 
ATOM     12  C   UNL     1       7.435  -2.035  -1.268  1.00  0.00     0.002 A 
ATOM     13  C   UNL     1       6.874  -2.756   0.957  1.00  0.00     0.016 A 
ATOM     14  C   UNL     1       7.818  -2.596  -0.057  1.00  0.00     0.001 A 
BRANCH  11  15
ATOM     15  C   UNL     1       4.686  -2.408   2.003  1.00  0.00     0.255 C 
ATOM     16  O   UNL     1       5.196  -2.030   3.061  1.00  0.00    -0.269 OA
ATOM     17  N   UNL     1       3.361  -2.797   1.944  1.00  0.00    -0.339 N 
ATOM     18  C   UNL     1       2.648  -3.529   0.916  1.00  0.00     0.120 C 
ATOM     19  C   UNL     1       2.441  -2.407   2.992  1.00  0.00     0.120 C 
ATOM     20  C   UNL     1       1.268  -2.886   0.902  1.00  0.00     0.023 C 
ATOM     21  C   UNL     1       1.095  -2.257   2.289  1.00  0.00     0.023 C 
ENDBRANCH  11  15
ENDBRANCH   7   9
ENDBRANCH   6   7
ENDBRANCH   4   6
ENDBRANCH   1   2
BRANCH   1  22
ATOM     22  C   UNL     1       2.303   3.905  -0.363  1.00  0.00     0.042 C 
BRANCH  22  23
ATOM     23  C   UNL     1       3.799   4.134  -0.150  1.00  0.00     0.118 C 
BRANCH  23  24
ATOM     24  N   UNL     1       4.503   4.413  -1.394  1.00  0.00    -0.352 N 
ATOM     25  C   UNL     1       5.233   5.501  -1.772  1.00  0.00     0.251 C 
ATOM     26  H   UNL     1       4.442   3.701  -2.071  1.00  0.00     0.163 HD
ATOM     27  O   UNL     1       5.572   5.620  -2.953  1.00  0.00    -0.269 OA
BRANCH  25  28
ATOM     28  C   UNL     1       5.611   6.535  -0.794  1.00  0.00     0.039 A 
ATOM     29  C   UNL     1       5.561   7.874  -1.187  1.00  0.00     0.014 A 
ATOM     30  C   UNL     1       6.065   6.192   0.484  1.00  0.00     0.014 A 
ATOM     31  C   UNL     1       5.944   8.870  -0.291  1.00  0.00     0.010 A 
ATOM     32  C   UNL     1       6.364   7.192   1.404  1.00  0.00     0.010 A 
ATOM     33  C   UNL     1       6.335   8.539   1.016  1.00  0.00    -0.014 A 
BRANCH  33  34
ATOM     34  C   UNL     1       6.763   9.598   1.963  1.00  0.00     0.031 A 
ATOM     35  C   UNL     1       8.183   9.638   2.458  1.00  0.00     0.074 A 
ATOM     36  C   UNL     1       5.870  10.514   2.382  1.00  0.00     0.049 A 
ATOM     37  N   UNL     1       8.755  10.497   3.265  1.00  0.00    -0.248 NA
ATOM     38  C   UNL     1       9.074   8.557   2.009  1.00  0.00     0.031 C 
ATOM     39  C   UNL     1       4.454  10.544   2.013  1.00  0.00     0.029 A 
ATOM     40  N   UNL     1       6.023  11.600   3.206  1.00  0.00    -0.354 N 
ATOM     41  C   UNL     1      10.061  10.053   3.424  1.00  0.00     0.074 A 
ATOM     42  C   UNL     1      10.181   8.815   2.687  1.00  0.00     0.031 C 
ATOM     43  C   UNL     1       3.877  11.617   2.577  1.00  0.00     0.029 A 
ATOM     44  C   UNL     1       4.872  12.330   3.371  1.00  0.00     0.049 A 
ATOM     45  H   UNL     1       6.877  11.833   3.638  1.00  0.00     0.167 HD
ATOM     46  C   UNL     1      11.078  10.641   4.098  1.00  0.00     0.037 A 
ATOM     47  C   UNL     1       4.651  13.455   4.077  1.00  0.00     0.037 A 
ATOM     48  C   UNL     1      10.957  11.885   4.813  1.00  0.00     0.049 A 
ATOM     49  C   UNL     1       5.801  14.095   4.807  1.00  0.00     0.074 A 
ATOM     50  C   UNL     1      11.934  12.590   5.493  1.00  0.00     0.029 A 
ATOM     51  N   UNL     1       9.779  12.607   4.941  1.00  0.00    -0.354 N 
ATOM     52  N   UNL     1       7.051  13.707   4.890  1.00  0.00    -0.248 NA
ATOM     53  C   UNL     1       5.512  15.343   5.525  1.00  0.00     0.031 C 
ATOM     54  C   UNL     1      11.337  13.715   6.073  1.00  0.00     0.029 A 
ATOM     55  C   UNL     1      10.002  13.744   5.702  1.00  0.00     0.049 A 
ATOM     56  H   UNL     1       8.913  12.351   4.550  1.00  0.00     0.167 HD
ATOM     57  C   UNL     1       7.705  14.681   5.634  1.00  0.00     0.074 A 
ATOM     58  C   UNL     1       6.714  15.684   5.964  1.00  0.00     0.031 C 
ATOM     59  C   UNL     1       9.007  14.740   6.009  1.00  0.00     0.037 A 
BRANCH  46  60
ATOM     60  C   UNL     1      12.411   9.946   4.089  1.00  0.00     0.064 A 
ATOM     61  C   UNL     1      13.178   9.836   2.918  1.00  0.00     0.173 A 
ATOM     62  C   UNL     1      12.940   9.402   5.269  1.00  0.00     0.173 A 
ATOM     63  F   UNL     1      12.714  10.326   1.758  1.00  0.00    -0.203 F 
ATOM     64  C   UNL     1      14.406   9.179   2.923  1.00  0.00     0.198 A 
ATOM     65  C   UNL     1      14.184   8.777   5.277  1.00  0.00     0.198 A 
ATOM     66  F   UNL     1      12.252   9.482   6.419  1.00  0.00    -0.203 F 
ATOM     67  F   UNL     1      15.092   9.036   1.780  1.00  0.00    -0.200 F 
ATOM     68  C   UNL     1      14.911   8.657   4.103  1.00  0.00     0.200 A 
ATOM     69  F   UNL     1      14.678   8.285   6.422  1.00  0.00    -0.200 F 
ATOM     70  F   UNL     1      16.096   8.031   4.107  1.00  0.00    -0.200 F 
ENDBRANCH  46  60
BRANCH  47  71
ATOM     71  C   UNL     1       3.298  14.071   4.091  1.00  0.00     0.064 A 
ATOM     72  C   UNL     1       3.060  15.303   3.465  1.00  0.00     0.173 A 
ATOM     73  C   UNL     1       2.220  13.450   4.737  1.00  0.00     0.173 A 
ATOM     74  F   UNL     1       4.062  15.945   2.847  1.00  0.00    -0.203 F 
ATOM     75  C   UNL     1       1.804  15.904   3.511  1.00  0.00     0.198 A 
ATOM     76  C   UNL     1       0.956  14.036   4.755  1.00  0.00     0.198 A 
ATOM     77  F   UNL     1       2.392  12.266   5.343  1.00  0.00    -0.203 F 
ATOM     78  F   UNL     1       1.618  17.107   2.951  1.00  0.00    -0.200 F 
ATOM     79  C   UNL     1       0.752  15.268   4.152  1.00  0.00     0.200 A 
ATOM     80  F   UNL     1      -0.062  13.409   5.360  1.00  0.00    -0.200 F 
ATOM     81  F   UNL     1      -0.457  15.845   4.194  1.00  0.00    -0.200 F 
ENDBRANCH  47  71
BRANCH  59  82
ATOM     82  C   UNL     1       9.446  15.960   6.768  1.00  0.00     0.064 A 
ATOM     83  C   UNL     1       9.021  16.213   8.081  1.00  0.00     0.173 A 
ATOM     84  C   UNL     1      10.318  16.885   6.172  1.00  0.00     0.173 A 
ATOM     85  F   UNL     1       8.179  15.367   8.693  1.00  0.00    -0.203 F 
ATOM     86  C   UNL     1       9.417  17.367   8.752  1.00  0.00     0.198 A 
ATOM     87  C   UNL     1      10.741  18.019   6.859  1.00  0.00     0.198 A 
ATOM     88  F   UNL     1      10.763  16.687   4.922  1.00  0.00    -0.203 F 
ATOM     89  F   UNL     1       8.944  17.621   9.979  1.00  0.00    -0.200 F 
ATOM     90  C   UNL     1      10.280  18.266   8.143  1.00  0.00     0.200 A 
ATOM     91  F   UNL     1      11.589  18.877   6.275  1.00  0.00    -0.200 F 
ATOM     92  F   UNL     1      10.659  19.377   8.790  1.00  0.00    -0.200 F 
ENDBRANCH  59  82
ENDBRANCH  33  34
ENDBRANCH  25  28
ENDBRANCH  23  24
ENDBRANCH  22  23
ENDBRANCH   1  22
TORSDOF 13
