REMARK SMILES CC[C@@H](C(=O)NCCCNC(=O)c1ccc(-c2c3nc(c(-c4c(F)c(F)c(F)c(F)c4F)c4ccc([nH]4)c(-c4c(F)c(F)c(F)c(F)c4F)c4nc(c(-c5c(F)c(F)c(F)c(F)c5F)c5ccc2[nH]5)C=C4)C=C3)cc1)[N@@H+]1CCc2ccc(N)cc2C1
REMARK SMILES IDX 8 1 7 2 6 3 4 4 5 5 3 7 2 8 1 9 76 10 77 11 86 12 78 14
REMARK SMILES IDX 85 15 79 16 84 17 80 18 82 19 81 20 83 21 9 24 10 25 11 26
REMARK SMILES IDX 12 28 13 29 14 30 75 31 15 32 74 33 16 34 17 35 18 36 68 37
REMARK SMILES IDX 19 38 73 39 67 40 69 41 20 42 72 43 66 44 65 45 21 47 53 48
REMARK SMILES IDX 33 49 52 50 34 51 37 52 51 53 70 54 35 55 36 56 50 58 71 59
REMARK SMILES IDX 38 60 22 61 23 62 31 63 24 64 25 65 29 66 32 67 26 68 27 69
REMARK SMILES IDX 30 70 28 71 54 72 55 73 63 74 56 75 57 76 61 77 64 78 58 79
REMARK SMILES IDX 59 80 62 81 60 82 39 83 40 84 48 85 41 86 42 87 46 88 49 89
REMARK SMILES IDX 43 90 44 91 47 92 45 93
REMARK H PARENT 6 6 76 13 83 22 83 23 10 27 69 46 37 57
REMARK Flexibility Score: inf
ROOT
ATOM      1  C   UNL     1       2.090  -2.636  -0.085  1.00  0.00     0.042 C 
ENDROOT
BRANCH   1   2
ATOM      2  C   UNL     1       2.923  -1.662  -0.941  1.00  0.00     0.118 C 
BRANCH   2   3
ATOM      3  N   UNL     1       2.079  -0.688  -1.618  1.00  0.00    -0.351 N 
ATOM      4  C   UNL     1       2.384   0.652  -1.779  1.00  0.00     0.278 C 
ATOM      5  O   UNL     1       3.553   1.012  -1.913  1.00  0.00    -0.268 OA
ATOM      6  H   UNL     1       1.226  -1.007  -1.990  1.00  0.00     0.163 HD
BRANCH   4   7
ATOM      7  C   UNL     1       1.188   1.697  -1.678  1.00  0.00     0.274 C 
BRANCH   7   8
ATOM      8  C   UNL     1       0.551   1.734  -0.264  1.00  0.00     0.072 C 
ATOM      9  C   UNL     1       1.338   1.068   0.860  1.00  0.00     0.011 C 
ENDBRANCH   7   8
BRANCH   7  10
ATOM     10  N   UNL     1       0.274   1.790  -2.865  1.00  0.00    -0.321 N 
ATOM     11  C   UNL     1      -1.117   2.335  -2.723  1.00  0.00     0.267 C 
ATOM     12  C   UNL     1       0.248   0.625  -3.713  1.00  0.00     0.300 C 
ATOM     13  H   UNL     1       0.781   2.554  -3.312  1.00  0.00     0.349 HD
ATOM     14  C   UNL     1      -2.211   1.741  -3.748  1.00  0.00     0.097 C 
ATOM     15  C   UNL     1      -0.903  -0.255  -3.330  1.00  0.00     0.012 A 
ATOM     16  C   UNL     1      -2.141   0.222  -3.719  1.00  0.00    -0.033 A 
ATOM     17  C   UNL     1      -0.930  -1.275  -2.397  1.00  0.00     0.035 A 
ATOM     18  C   UNL     1      -3.197  -0.675  -3.815  1.00  0.00     0.006 A 
ATOM     19  C   UNL     1      -2.033  -2.104  -2.277  1.00  0.00     0.032 A 
ATOM     20  C   UNL     1      -3.085  -1.910  -3.163  1.00  0.00     0.026 A 
BRANCH  19  21
ATOM     21  N   UNL     1      -2.006  -3.138  -1.351  1.00  0.00    -0.399 N 
ATOM     22  H   UNL     1      -2.783  -3.734  -1.256  1.00  0.00     0.156 HD
ATOM     23  H   UNL     1      -1.209  -3.274  -0.789  1.00  0.00     0.156 HD
ENDBRANCH  19  21
ENDBRANCH   7  10
ENDBRANCH   4   7
ENDBRANCH   2   3
ENDBRANCH   1   2
BRANCH   1  24
ATOM     24  C   UNL     1       1.394  -3.762  -0.854  1.00  0.00     0.118 C 
BRANCH  24  25
ATOM     25  N   UNL     1       2.268  -4.893  -1.106  1.00  0.00    -0.352 N 
ATOM     26  C   UNL     1       2.332  -6.124  -0.512  1.00  0.00     0.251 C 
ATOM     27  H   UNL     1       2.925  -4.751  -1.825  1.00  0.00     0.163 HD
ATOM     28  O   UNL     1       3.294  -6.860  -0.774  1.00  0.00    -0.269 OA
BRANCH  26  29
ATOM     29  C   UNL     1       1.311  -6.610   0.448  1.00  0.00     0.039 A 
ATOM     30  C   UNL     1       1.749  -7.338   1.560  1.00  0.00     0.014 A 
ATOM     31  C   UNL     1      -0.063  -6.468   0.227  1.00  0.00     0.014 A 
ATOM     32  C   UNL     1       0.827  -7.896   2.453  1.00  0.00     0.010 A 
ATOM     33  C   UNL     1      -0.985  -6.969   1.158  1.00  0.00     0.010 A 
ATOM     34  C   UNL     1      -0.553  -7.708   2.271  1.00  0.00    -0.014 A 
BRANCH  34  35
ATOM     35  C   UNL     1      -1.526  -8.324   3.222  1.00  0.00     0.031 A 
ATOM     36  C   UNL     1      -2.480  -9.397   2.759  1.00  0.00     0.074 A 
ATOM     37  C   UNL     1      -1.550  -7.929   4.512  1.00  0.00     0.049 A 
ATOM     38  N   UNL     1      -3.373 -10.067   3.448  1.00  0.00    -0.248 NA
ATOM     39  C   UNL     1      -2.443  -9.755   1.332  1.00  0.00     0.031 C 
ATOM     40  C   UNL     1      -0.713  -6.876   5.089  1.00  0.00     0.029 A 
ATOM     41  N   UNL     1      -2.305  -8.368   5.575  1.00  0.00    -0.354 N 
ATOM     42  C   UNL     1      -4.006 -10.909   2.540  1.00  0.00     0.074 A 
ATOM     43  C   UNL     1      -3.430 -10.635   1.242  1.00  0.00     0.031 C 
ATOM     44  C   UNL     1      -0.981  -6.768   6.401  1.00  0.00     0.029 A 
ATOM     45  C   UNL     1      -2.031  -7.718   6.756  1.00  0.00     0.049 A 
ATOM     46  H   UNL     1      -2.980  -9.081   5.498  1.00  0.00     0.167 HD
ATOM     47  C   UNL     1      -4.962 -11.841   2.769  1.00  0.00     0.037 A 
ATOM     48  C   UNL     1      -2.565  -7.867   7.984  1.00  0.00     0.037 A 
ATOM     49  C   UNL     1      -5.510 -12.146   4.066  1.00  0.00     0.049 A 
ATOM     50  C   UNL     1      -3.621  -8.921   8.208  1.00  0.00     0.074 A 
ATOM     51  C   UNL     1      -6.430 -13.125   4.403  1.00  0.00     0.029 A 
ATOM     52  N   UNL     1      -5.191 -11.479   5.238  1.00  0.00    -0.354 N 
ATOM     53  N   UNL     1      -4.144  -9.766   7.354  1.00  0.00    -0.248 NA
ATOM     54  C   UNL     1      -4.148  -9.052   9.575  1.00  0.00     0.031 C 
ATOM     55  C   UNL     1      -6.713 -13.010   5.767  1.00  0.00     0.029 A 
ATOM     56  C   UNL     1      -5.917 -12.007   6.294  1.00  0.00     0.049 A 
ATOM     57  H   UNL     1      -4.545 -10.739   5.309  1.00  0.00     0.167 HD
ATOM     58  C   UNL     1      -5.025 -10.553   8.086  1.00  0.00     0.074 A 
ATOM     59  C   UNL     1      -4.955 -10.096   9.456  1.00  0.00     0.031 C 
ATOM     60  C   UNL     1      -5.822 -11.563   7.660  1.00  0.00     0.037 A 
BRANCH  47  61
ATOM     61  C   UNL     1      -5.492 -12.617   1.597  1.00  0.00     0.064 A 
ATOM     62  C   UNL     1      -4.722 -13.595   0.949  1.00  0.00     0.173 A 
ATOM     63  C   UNL     1      -6.821 -12.446   1.177  1.00  0.00     0.173 A 
ATOM     64  F   UNL     1      -3.444 -13.793   1.306  1.00  0.00    -0.203 F 
ATOM     65  C   UNL     1      -5.258 -14.362  -0.082  1.00  0.00     0.198 A 
ATOM     66  C   UNL     1      -7.363 -13.236   0.167  1.00  0.00     0.198 A 
ATOM     67  F   UNL     1      -7.604 -11.530   1.768  1.00  0.00    -0.203 F 
ATOM     68  F   UNL     1      -4.495 -15.270  -0.706  1.00  0.00    -0.200 F 
ATOM     69  C   UNL     1      -6.581 -14.191  -0.464  1.00  0.00     0.200 A 
ATOM     70  F   UNL     1      -8.646 -13.080  -0.188  1.00  0.00    -0.200 F 
ATOM     71  F   UNL     1      -7.102 -14.947  -1.440  1.00  0.00    -0.200 F 
ENDBRANCH  47  61
BRANCH  48  72
ATOM     72  C   UNL     1      -2.118  -7.004   9.113  1.00  0.00     0.064 A 
ATOM     73  C   UNL     1      -1.454  -7.544  10.225  1.00  0.00     0.173 A 
ATOM     74  C   UNL     1      -2.401  -5.630   9.132  1.00  0.00     0.173 A 
ATOM     75  F   UNL     1      -1.178  -8.856  10.268  1.00  0.00    -0.203 F 
ATOM     76  C   UNL     1      -1.133  -6.755  11.328  1.00  0.00     0.198 A 
ATOM     77  C   UNL     1      -2.045  -4.834  10.219  1.00  0.00     0.198 A 
ATOM     78  F   UNL     1      -3.029  -5.060   8.093  1.00  0.00    -0.203 F 
ATOM     79  F   UNL     1      -0.570  -7.313  12.408  1.00  0.00    -0.200 F 
ATOM     80  C   UNL     1      -1.426  -5.400  11.323  1.00  0.00     0.200 A 
ATOM     81  F   UNL     1      -2.317  -3.522  10.202  1.00  0.00    -0.200 F 
ATOM     82  F   UNL     1      -1.128  -4.643  12.387  1.00  0.00    -0.200 F 
ENDBRANCH  48  72
BRANCH  60  83
ATOM     83  C   UNL     1      -6.635 -12.290   8.694  1.00  0.00     0.064 A 
ATOM     84  C   UNL     1      -7.714 -11.684   9.354  1.00  0.00     0.173 A 
ATOM     85  C   UNL     1      -6.342 -13.627   9.009  1.00  0.00     0.173 A 
ATOM     86  F   UNL     1      -8.030 -10.405   9.098  1.00  0.00    -0.203 F 
ATOM     87  C   UNL     1      -8.444 -12.375  10.318  1.00  0.00     0.198 A 
ATOM     88  C   UNL     1      -7.098 -14.326   9.946  1.00  0.00     0.198 A 
ATOM     89  F   UNL     1      -5.328 -14.259   8.400  1.00  0.00    -0.203 F 
ATOM     90  F   UNL     1      -9.431 -11.754  10.980  1.00  0.00    -0.200 F 
ATOM     91  C   UNL     1      -8.140 -13.696  10.608  1.00  0.00     0.200 A 
ATOM     92  F   UNL     1      -6.814 -15.609  10.211  1.00  0.00    -0.200 F 
ATOM     93  F   UNL     1      -8.847 -14.361  11.533  1.00  0.00    -0.200 F 
ENDBRANCH  60  83
ENDBRANCH  34  35
ENDBRANCH  26  29
ENDBRANCH  24  25
ENDBRANCH   1  24
TORSDOF 13
