REMARK SMILES O=C(NCCCNC(=O)[C@@H]1CCC[N@@H+](Cc2ccc(F)cc2Cl)C1)c1ccc(-c2c3nc(c(-c4c(F)c(F)c(F)c(F)c4F)c4ccc([nH]4)c(-c4c(F)c(F)c(F)c(F)c4F)c4nc(c(-c5c(F)c(F)c(F)c(F)c5F)c5ccc2[nH]5)C=C4)C=C3)cc1
REMARK SMILES IDX 5 1 4 2 3 3 1 4 2 5 25 7 26 8 87 9 27 10 86 11 28 12 29 13
REMARK SMILES IDX 30 14 80 15 31 16 85 17 79 18 81 19 32 20 84 21 78 22 77 23
REMARK SMILES IDX 33 25 65 26 45 27 64 28 46 29 49 30 63 31 82 32 47 33 48 34
REMARK SMILES IDX 62 36 83 37 50 38 34 39 35 40 43 41 36 42 37 43 41 44 44 45
REMARK SMILES IDX 38 46 39 47 42 48 40 49 66 50 67 51 75 52 68 53 69 54 73 55
REMARK SMILES IDX 76 56 70 57 71 58 74 59 72 60 51 61 52 62 60 63 53 64 54 65
REMARK SMILES IDX 58 66 61 67 55 68 56 69 59 70 57 71 6 72 7 73 8 74 9 76
REMARK SMILES IDX 10 77 11 78 24 79 12 80 14 81 13 82 15 84 16 85 17 86 22 87
REMARK SMILES IDX 18 88 21 89 23 90 19 91 20 92
REMARK H PARENT 3 6 81 24 49 35 7 75 14 83
REMARK Flexibility Score: inf
ROOT
ATOM      1  C   UNL     1       4.271   0.983  -2.441  1.00  0.00     0.042 C 
ENDROOT
BRANCH   1   2
ATOM      2  C   UNL     1       4.124   1.071  -0.933  1.00  0.00     0.118 C 
BRANCH   2   3
ATOM      3  N   UNL     1       2.740   0.955  -0.504  1.00  0.00    -0.352 N 
ATOM      4  O   UNL     1       0.918  -0.084   0.321  1.00  0.00    -0.269 OA
ATOM      5  C   UNL     1       2.137  -0.035   0.236  1.00  0.00     0.251 C 
ATOM      6  H   UNL     1       2.148   1.692  -0.783  1.00  0.00     0.163 HD
BRANCH   5   7
ATOM      7  C   UNL     1       2.972  -1.049   0.918  1.00  0.00     0.039 A 
ATOM      8  C   UNL     1       4.155  -0.675   1.554  1.00  0.00     0.014 A 
ATOM      9  C   UNL     1       2.560  -2.385   0.938  1.00  0.00     0.014 A 
ATOM     10  C   UNL     1       5.005  -1.647   2.059  1.00  0.00     0.010 A 
ATOM     11  C   UNL     1       3.357  -3.349   1.564  1.00  0.00     0.010 A 
ATOM     12  C   UNL     1       4.597  -2.990   2.112  1.00  0.00    -0.014 A 
BRANCH  12  13
ATOM     13  C   UNL     1       5.454  -3.951   2.852  1.00  0.00     0.031 A 
ATOM     14  C   UNL     1       6.102  -5.121   2.171  1.00  0.00     0.074 A 
ATOM     15  C   UNL     1       5.688  -3.705   4.156  1.00  0.00     0.049 A 
ATOM     16  N   UNL     1       6.930  -6.005   2.670  1.00  0.00    -0.248 NA
ATOM     17  C   UNL     1       5.780  -5.338   0.753  1.00  0.00     0.031 C 
ATOM     18  C   UNL     1       5.087  -2.610   4.925  1.00  0.00     0.029 A 
ATOM     19  N   UNL     1       6.512  -4.324   5.059  1.00  0.00    -0.354 N 
ATOM     20  C   UNL     1       7.224  -6.882   1.635  1.00  0.00     0.074 A 
ATOM     21  C   UNL     1       6.458  -6.447   0.486  1.00  0.00     0.031 C 
ATOM     22  C   UNL     1       5.611  -2.593   6.156  1.00  0.00     0.029 A 
ATOM     23  C   UNL     1       6.522  -3.721   6.293  1.00  0.00     0.049 A 
ATOM     24  H   UNL     1       7.045  -5.124   4.844  1.00  0.00     0.167 HD
ATOM     25  C   UNL     1       8.068  -7.942   1.645  1.00  0.00     0.037 A 
ATOM     26  C   UNL     1       7.175  -4.050   7.421  1.00  0.00     0.037 A 
ATOM     27  C   UNL     1       8.826  -8.365   2.797  1.00  0.00     0.049 A 
ATOM     28  C   UNL     1       8.083  -5.245   7.402  1.00  0.00     0.074 A 
ATOM     29  C   UNL     1       9.712  -9.423   2.908  1.00  0.00     0.029 A 
ATOM     30  N   UNL     1       8.785  -7.751   4.042  1.00  0.00    -0.354 N 
ATOM     31  N   UNL     1       8.373  -6.047   6.407  1.00  0.00    -0.248 NA
ATOM     32  C   UNL     1       8.755  -5.580   8.663  1.00  0.00     0.031 C 
ATOM     33  C   UNL     1      10.171  -9.478   4.228  1.00  0.00     0.029 A 
ATOM     34  C   UNL     1       9.616  -8.419   4.929  1.00  0.00     0.049 A 
ATOM     35  H   UNL     1       8.246  -6.958   4.262  1.00  0.00     0.167 HD
ATOM     36  C   UNL     1       9.267  -6.976   6.918  1.00  0.00     0.074 A 
ATOM     37  C   UNL     1       9.503  -6.611   8.299  1.00  0.00     0.031 C 
ATOM     38  C   UNL     1       9.832  -8.045   6.303  1.00  0.00     0.037 A 
BRANCH  25  39
ATOM     39  C   UNL     1       8.220  -8.731   0.375  1.00  0.00     0.064 A 
ATOM     40  C   UNL     1       8.899  -8.210  -0.737  1.00  0.00     0.173 A 
ATOM     41  C   UNL     1       7.747 -10.050   0.293  1.00  0.00     0.173 A 
ATOM     42  F   UNL     1       9.362  -6.951  -0.716  1.00  0.00    -0.203 F 
ATOM     43  C   UNL     1       9.084  -8.973  -1.888  1.00  0.00     0.198 A 
ATOM     44  C   UNL     1       7.959 -10.820  -0.849  1.00  0.00     0.198 A 
ATOM     45  F   UNL     1       7.096 -10.601   1.328  1.00  0.00    -0.203 F 
ATOM     46  F   UNL     1       9.706  -8.442  -2.949  1.00  0.00    -0.200 F 
ATOM     47  C   UNL     1       8.624 -10.280  -1.939  1.00  0.00     0.200 A 
ATOM     48  F   UNL     1       7.526 -12.088  -0.890  1.00  0.00    -0.200 F 
ATOM     49  F   UNL     1       8.818 -11.019  -3.040  1.00  0.00    -0.200 F 
ENDBRANCH  25  39
BRANCH  26  50
ATOM     50  C   UNL     1       6.967  -3.256   8.661  1.00  0.00     0.064 A 
ATOM     51  C   UNL     1       8.010  -2.520   9.239  1.00  0.00     0.173 A 
ATOM     52  C   UNL     1       5.718  -3.227   9.299  1.00  0.00     0.173 A 
ATOM     53  F   UNL     1       9.227  -2.526   8.677  1.00  0.00    -0.203 F 
ATOM     54  C   UNL     1       7.819  -1.812  10.425  1.00  0.00     0.198 A 
ATOM     55  C   UNL     1       5.517  -2.487  10.461  1.00  0.00     0.198 A 
ATOM     56  F   UNL     1       4.683  -3.907   8.783  1.00  0.00    -0.203 F 
ATOM     57  F   UNL     1       8.849  -1.168  10.990  1.00  0.00    -0.200 F 
ATOM     58  C   UNL     1       6.572  -1.792  11.031  1.00  0.00     0.200 A 
ATOM     59  F   UNL     1       4.305  -2.453  11.030  1.00  0.00    -0.200 F 
ATOM     60  F   UNL     1       6.389  -1.110  12.169  1.00  0.00    -0.200 F 
ENDBRANCH  26  50
BRANCH  38  61
ATOM     61  C   UNL     1      10.773  -8.874   7.128  1.00  0.00     0.064 A 
ATOM     62  C   UNL     1      10.316  -9.667   8.192  1.00  0.00     0.173 A 
ATOM     63  C   UNL     1      12.150  -8.870   6.857  1.00  0.00     0.173 A 
ATOM     64  F   UNL     1       9.010  -9.692   8.503  1.00  0.00    -0.203 F 
ATOM     65  C   UNL     1      11.206 -10.388   8.982  1.00  0.00     0.198 A 
ATOM     66  C   UNL     1      13.033  -9.621   7.626  1.00  0.00     0.198 A 
ATOM     67  F   UNL     1      12.639  -8.135   5.847  1.00  0.00    -0.203 F 
ATOM     68  F   UNL     1      10.754 -11.080  10.037  1.00  0.00    -0.200 F 
ATOM     69  C   UNL     1      12.563 -10.368   8.696  1.00  0.00     0.200 A 
ATOM     70  F   UNL     1      14.342  -9.613   7.340  1.00  0.00    -0.200 F 
ATOM     71  F   UNL     1      13.420 -11.060   9.460  1.00  0.00    -0.200 F 
ENDBRANCH  38  61
ENDBRANCH  12  13
ENDBRANCH   5   7
ENDBRANCH   2   3
ENDBRANCH   1   2
BRANCH   1  72
ATOM     72  C   UNL     1       3.766   2.223  -3.170  1.00  0.00     0.117 C 
BRANCH  72  73
ATOM     73  N   UNL     1       4.530   3.395  -2.801  1.00  0.00    -0.356 N 
ATOM     74  C   UNL     1       5.609   3.979  -3.391  1.00  0.00     0.228 C 
ATOM     75  H   UNL     1       4.216   3.848  -1.985  1.00  0.00     0.163 HD
ATOM     76  O   UNL     1       6.051   4.983  -2.829  1.00  0.00    -0.275 OA
BRANCH  74  77
ATOM     77  C   UNL     1       6.137   3.473  -4.738  1.00  0.00     0.133 C 
ATOM     78  C   UNL     1       6.582   2.011  -4.820  1.00  0.00     0.025 C 
ATOM     79  C   UNL     1       7.315   4.341  -5.219  1.00  0.00     0.276 C 
ATOM     80  C   UNL     1       7.824   1.779  -3.973  1.00  0.00     0.062 C 
ATOM     81  N   UNL     1       8.589   4.076  -4.531  1.00  0.00    -0.330 N 
ATOM     82  C   UNL     1       8.964   2.662  -4.473  1.00  0.00     0.262 C 
ATOM     83  H   UNL     1       8.408   4.334  -3.561  1.00  0.00     0.348 HD
BRANCH  81  84
ATOM     84  C   UNL     1       9.692   4.949  -4.984  1.00  0.00     0.300 C 
BRANCH  84  85
ATOM     85  C   UNL     1      10.241   4.632  -6.367  1.00  0.00     0.025 A 
ATOM     86  C   UNL     1       9.517   5.061  -7.498  1.00  0.00     0.014 A 
ATOM     87  C   UNL     1      11.389   3.844  -6.573  1.00  0.00     0.052 A 
ATOM     88  C   UNL     1       9.860   4.628  -8.777  1.00  0.00     0.040 A 
ATOM     89  C   UNL     1      11.743   3.426  -7.858  1.00  0.00     0.060 A 
ATOM     90  Cl  UNL     1      12.408   3.330  -5.275  1.00  0.00    -0.084 Cl
ATOM     91  C   UNL     1      10.961   3.801  -8.941  1.00  0.00     0.124 A 
ATOM     92  F   UNL     1      11.272   3.356 -10.165  1.00  0.00    -0.207 F 
ENDBRANCH  84  85
ENDBRANCH  81  84
ENDBRANCH  74  77
ENDBRANCH  72  73
ENDBRANCH   1  72
TORSDOF 12
