REMARK SMILES CCc1cc(C)c2c(c1)C=C(C(=O)NCCCNC(=O)c1ccc(-c3c4nc(c(-c5c(F)c(F)c(F)c(F)c5F)c5ccc([nH]5)c(-c5c(F)c(F)c(F)c(F)c5F)c5nc(c(-c6c(F)c(F)c(F)c(F)c6F)c6ccc3[nH]6)C=C5)C=C4)cc1)[C@@H](C(F)(F)F)O2
REMARK SMILES IDX 16 1 15 2 14 3 12 4 13 5 11 7 3 8 4 9 9 10 5 11 8 12 6 13
REMARK SMILES IDX 7 14 10 15 89 16 84 17 2 18 1 19 85 20 86 21 87 22 88 23
REMARK SMILES IDX 17 24 18 25 19 26 20 28 21 29 22 30 83 31 23 32 82 33 24 34
REMARK SMILES IDX 25 35 26 36 76 37 27 38 81 39 75 40 77 41 28 42 80 43 74 44
REMARK SMILES IDX 73 45 29 47 61 48 41 49 60 50 42 51 45 52 59 53 78 54 43 55
REMARK SMILES IDX 44 56 58 58 79 59 46 60 30 61 31 62 39 63 32 64 33 65 37 66
REMARK SMILES IDX 40 67 34 68 35 69 38 70 36 71 62 72 63 73 71 74 64 75 65 76
REMARK SMILES IDX 69 77 72 78 66 79 67 80 70 81 68 82 47 83 48 84 56 85 49 86
REMARK SMILES IDX 50 87 54 88 57 89 51 90 52 91 55 92 53 93
REMARK H PARENT 14 6 18 27 77 46 45 57
REMARK Flexibility Score: inf
ROOT
ATOM      1  C   UNL     1       4.490   3.918  -8.818  1.00  0.00     0.042 C 
ENDROOT
BRANCH   1   2
ATOM      2  C   UNL     1       3.156   3.211  -8.631  1.00  0.00     0.118 C 
BRANCH   2   3
ATOM      3  N   UNL     1       3.321   1.925  -7.971  1.00  0.00    -0.352 N 
ATOM      4  C   UNL     1       3.096   1.404  -6.744  1.00  0.00     0.251 C 
ATOM      5  O   UNL     1       3.435   0.224  -6.609  1.00  0.00    -0.270 OA
ATOM      6  H   UNL     1       3.700   1.254  -8.582  1.00  0.00     0.163 HD
BRANCH   4   7
ATOM      7  C   UNL     1       2.486   2.137  -5.599  1.00  0.00     0.067 C 
ATOM      8  C   UNL     1       0.818   1.987  -1.059  1.00  0.00    -0.047 A 
ATOM      9  C   UNL     1       0.589   3.374  -1.117  1.00  0.00     0.011 A 
ATOM     10  C   UNL     1       1.407   1.358  -2.164  1.00  0.00     0.015 A 
ATOM     11  C   UNL     1       0.950   4.128  -2.240  1.00  0.00    -0.008 A 
ATOM     12  C   UNL     1       1.764   2.095  -3.298  1.00  0.00     0.018 A 
ATOM     13  C   UNL     1       0.690   5.606  -2.287  1.00  0.00     0.048 C 
ATOM     14  C   UNL     1       1.530   3.471  -3.329  1.00  0.00     0.130 A 
ATOM     15  C   UNL     1       2.394   1.450  -4.445  1.00  0.00     0.025 C 
ATOM     16  O   UNL     1       1.892   4.236  -4.405  1.00  0.00    -0.475 OA
ATOM     17  C   UNL     1       1.954   3.538  -5.676  1.00  0.00     0.314 C 
BRANCH   8  18
ATOM     18  C   UNL     1       0.384   1.249   0.188  1.00  0.00     0.032 C 
ATOM     19  C   UNL     1       0.854  -0.193   0.330  1.00  0.00     0.009 C 
ENDBRANCH   8  18
BRANCH  17  20
ATOM     20  C   UNL     1       0.585   3.623  -6.378  1.00  0.00     0.429 C 
ATOM     21  F   UNL     1       0.330   4.900  -6.759  1.00  0.00    -0.167 F 
ATOM     22  F   UNL     1       0.532   2.872  -7.505  1.00  0.00    -0.167 F 
ATOM     23  F   UNL     1      -0.439   3.222  -5.593  1.00  0.00    -0.167 F 
ENDBRANCH  17  20
ENDBRANCH   4   7
ENDBRANCH   2   3
ENDBRANCH   1   2
BRANCH   1  24
ATOM     24  C   UNL     1       5.281   3.332  -9.980  1.00  0.00     0.118 C 
BRANCH  24  25
ATOM     25  N   UNL     1       4.621   3.594 -11.257  1.00  0.00    -0.352 N 
ATOM     26  C   UNL     1       4.900   4.549 -12.199  1.00  0.00     0.251 C 
ATOM     27  H   UNL     1       3.867   2.998 -11.471  1.00  0.00     0.163 HD
ATOM     28  O   UNL     1       4.071   4.837 -13.059  1.00  0.00    -0.269 OA
BRANCH  26  29
ATOM     29  C   UNL     1       6.208   5.225 -12.180  1.00  0.00     0.039 A 
ATOM     30  C   UNL     1       6.277   6.607 -12.375  1.00  0.00     0.014 A 
ATOM     31  C   UNL     1       7.371   4.473 -11.997  1.00  0.00     0.014 A 
ATOM     32  C   UNL     1       7.517   7.243 -12.335  1.00  0.00     0.010 A 
ATOM     33  C   UNL     1       8.594   5.115 -11.876  1.00  0.00     0.010 A 
ATOM     34  C   UNL     1       8.678   6.501 -12.067  1.00  0.00    -0.014 A 
BRANCH  34  35
ATOM     35  C   UNL     1      10.013   7.136 -12.045  1.00  0.00     0.031 A 
ATOM     36  C   UNL     1      11.009   6.788 -13.112  1.00  0.00     0.074 A 
ATOM     37  C   UNL     1      10.348   7.953 -11.031  1.00  0.00     0.049 A 
ATOM     38  N   UNL     1      12.254   7.168 -13.239  1.00  0.00    -0.248 NA
ATOM     39  C   UNL     1      10.551   5.863 -14.162  1.00  0.00     0.031 C 
ATOM     40  C   UNL     1       9.473   8.320  -9.919  1.00  0.00     0.029 A 
ATOM     41  N   UNL     1      11.521   8.612 -10.768  1.00  0.00    -0.354 N 
ATOM     42  C   UNL     1      12.726   6.521 -14.372  1.00  0.00     0.074 A 
ATOM     43  C   UNL     1      11.661   5.674 -14.858  1.00  0.00     0.031 C 
ATOM     44  C   UNL     1      10.133   9.156  -9.101  1.00  0.00     0.029 A 
ATOM     45  C   UNL     1      11.485   9.358  -9.618  1.00  0.00     0.049 A 
ATOM     46  H   UNL     1      12.314   8.554 -11.349  1.00  0.00     0.167 HD
ATOM     47  C   UNL     1      13.933   6.650 -14.971  1.00  0.00     0.037 A 
ATOM     48  C   UNL     1      12.437  10.120  -9.049  1.00  0.00     0.037 A 
ATOM     49  C   UNL     1      14.977   7.513 -14.491  1.00  0.00     0.049 A 
ATOM     50  C   UNL     1      13.777  10.238  -9.722  1.00  0.00     0.074 A 
ATOM     51  C   UNL     1      16.213   7.769 -15.055  1.00  0.00     0.029 A 
ATOM     52  N   UNL     1      14.904   8.259 -13.322  1.00  0.00    -0.354 N 
ATOM     53  N   UNL     1      14.195   9.680 -10.832  1.00  0.00    -0.248 NA
ATOM     54  C   UNL     1      14.775  11.095  -9.067  1.00  0.00     0.031 C 
ATOM     55  C   UNL     1      16.907   8.635 -14.203  1.00  0.00     0.029 A 
ATOM     56  C   UNL     1      16.085   8.956 -13.133  1.00  0.00     0.049 A 
ATOM     57  H   UNL     1      14.128   8.288 -12.718  1.00  0.00     0.167 HD
ATOM     58  C   UNL     1      15.495  10.128 -11.021  1.00  0.00     0.074 A 
ATOM     59  C   UNL     1      15.792  11.016  -9.915  1.00  0.00     0.031 C 
ATOM     60  C   UNL     1      16.362   9.830 -12.020  1.00  0.00     0.037 A 
BRANCH  47  61
ATOM     61  C   UNL     1      14.174   5.843 -16.213  1.00  0.00     0.064 A 
ATOM     62  C   UNL     1      13.497   6.121 -17.412  1.00  0.00     0.173 A 
ATOM     63  C   UNL     1      15.098   4.788 -16.212  1.00  0.00     0.173 A 
ATOM     64  F   UNL     1      12.591   7.110 -17.462  1.00  0.00    -0.203 F 
ATOM     65  C   UNL     1      13.709   5.349 -18.551  1.00  0.00     0.198 A 
ATOM     66  C   UNL     1      15.331   4.039 -17.362  1.00  0.00     0.198 A 
ATOM     67  F   UNL     1      15.774   4.482 -15.095  1.00  0.00    -0.203 F 
ATOM     68  F   UNL     1      13.007   5.596 -19.665  1.00  0.00    -0.200 F 
ATOM     69  C   UNL     1      14.630   4.313 -18.527  1.00  0.00     0.200 A 
ATOM     70  F   UNL     1      16.229   3.044 -17.342  1.00  0.00    -0.200 F 
ATOM     71  F   UNL     1      14.835   3.572 -19.625  1.00  0.00    -0.200 F 
ENDBRANCH  47  61
BRANCH  48  72
ATOM     72  C   UNL     1      12.122  10.865  -7.805  1.00  0.00     0.064 A 
ATOM     73  C   UNL     1      11.917  12.251  -7.838  1.00  0.00     0.173 A 
ATOM     74  C   UNL     1      11.954  10.207  -6.578  1.00  0.00     0.173 A 
ATOM     75  F   UNL     1      12.081  12.924  -8.985  1.00  0.00    -0.203 F 
ATOM     76  C   UNL     1      11.552  12.951  -6.690  1.00  0.00     0.198 A 
ATOM     77  C   UNL     1      11.569  10.905  -5.435  1.00  0.00     0.198 A 
ATOM     78  F   UNL     1      12.132   8.880  -6.498  1.00  0.00    -0.203 F 
ATOM     79  F   UNL     1      11.374  14.278  -6.745  1.00  0.00    -0.200 F 
ATOM     80  C   UNL     1      11.368  12.276  -5.492  1.00  0.00     0.200 A 
ATOM     81  F   UNL     1      11.376  10.247  -4.284  1.00  0.00    -0.200 F 
ATOM     82  F   UNL     1      10.995  12.947  -4.393  1.00  0.00    -0.200 F 
ENDBRANCH  48  72
BRANCH  60  83
ATOM     83  C   UNL     1      17.718  10.470 -11.973  1.00  0.00     0.064 A 
ATOM     84  C   UNL     1      18.694  10.044 -11.062  1.00  0.00     0.173 A 
ATOM     85  C   UNL     1      18.072  11.455 -12.908  1.00  0.00     0.173 A 
ATOM     86  F   UNL     1      18.398   9.114 -10.141  1.00  0.00    -0.203 F 
ATOM     87  C   UNL     1      19.975  10.588 -11.081  1.00  0.00     0.198 A 
ATOM     88  C   UNL     1      19.362  11.976 -12.943  1.00  0.00     0.198 A 
ATOM     89  F   UNL     1      17.176  11.889 -13.806  1.00  0.00    -0.203 F 
ATOM     90  F   UNL     1      20.885  10.187 -10.183  1.00  0.00    -0.200 F 
ATOM     91  C   UNL     1      20.311  11.545 -12.028  1.00  0.00     0.200 A 
ATOM     92  F   UNL     1      19.690  12.888 -13.868  1.00  0.00    -0.200 F 
ATOM     93  F   UNL     1      21.551  12.052 -12.059  1.00  0.00    -0.200 F 
ENDBRANCH  60  83
ENDBRANCH  34  35
ENDBRANCH  26  29
ENDBRANCH  24  25
ENDBRANCH   1  24
TORSDOF 12
