REMARK SMILES CCS(=O)(=O)Nc1ccc(N2CC[NH+](C)CC2)cc1C(=O)NCCCNC(=O)c1ccc(-c2c3nc(c(-c4c(F)c(F)c(F)c(F)c4F)c4ccc([nH]4)c(-c4c(F)c(F)c(F)c(F)c4F)c4nc(c(-c5c(F)c(F)c(F)c(F)c5F)c5ccc2[nH]5)C=C4)C=C3)cc1
REMARK SMILES IDX 23 1 22 2 20 3 21 4 19 6 7 7 8 8 9 9 18 10 10 11 6 12 3 14
REMARK SMILES IDX 4 15 5 16 2 17 1 18 11 19 12 20 17 21 13 22 16 23 14 24
REMARK SMILES IDX 15 25 24 27 25 28 26 29 27 30 28 32 29 33 30 34 91 35 31 36
REMARK SMILES IDX 90 37 32 38 33 39 34 40 84 41 35 42 89 43 83 44 85 45 36 46
REMARK SMILES IDX 88 47 82 48 81 49 37 51 69 52 49 53 68 54 50 55 53 56 67 57
REMARK SMILES IDX 86 58 51 59 52 60 66 62 87 63 54 64 38 65 39 66 47 67 40 68
REMARK SMILES IDX 41 69 45 70 48 71 42 72 43 73 46 74 44 75 70 76 71 77 79 78
REMARK SMILES IDX 72 79 73 80 77 81 80 82 74 83 75 84 78 85 76 86 55 87 56 88
REMARK SMILES IDX 64 89 57 90 58 91 62 92 65 93 59 94 60 95 63 96 61 97
REMARK H PARENT 22 5 6 13 14 26 26 31 85 50 53 61
REMARK Flexibility Score: inf
ROOT
ATOM      1  C   UNL     1       2.820   2.839   1.387  1.00  0.00     0.118 C 
ENDROOT
BRANCH   1   2
ATOM      2  N   UNL     1       2.473   2.103   0.186  1.00  0.00    -0.352 N 
ATOM      3  C   UNL     1       2.679   0.802  -0.164  1.00  0.00     0.253 C 
ATOM      4  O   UNL     1       2.281   0.435  -1.270  1.00  0.00    -0.269 OA
ATOM      5  H   UNL     1       2.006   2.637  -0.496  1.00  0.00     0.163 HD
BRANCH   3   6
ATOM      6  C   UNL     1       3.431  -0.153   0.682  1.00  0.00     0.066 A 
ATOM      7  C   UNL     1       3.291  -0.341   2.059  1.00  0.00     0.061 A 
ATOM      8  C   UNL     1       4.196  -1.186   2.706  1.00  0.00     0.030 A 
ATOM      9  C   UNL     1       5.096  -1.965   1.981  1.00  0.00     0.028 A 
ATOM     10  C   UNL     1       4.318  -0.995  -0.038  1.00  0.00     0.042 A 
ATOM     11  C   UNL     1       5.114  -1.963   0.584  1.00  0.00     0.038 A 
BRANCH   7  12
ATOM     12  N   UNL     1       2.300   0.219   2.921  1.00  0.00    -0.283 N 
ATOM     13  H   UNL     1       2.608   0.764   3.681  1.00  0.00     0.180 HD
BRANCH  12  14
ATOM     14  S   UNL     1       0.652   0.011   2.727  1.00  0.00     0.232 S 
ATOM     15  O   UNL     1       0.137   1.105   1.934  1.00  0.00    -0.207 OA
ATOM     16  O   UNL     1       0.194  -0.155   4.095  1.00  0.00    -0.207 OA
BRANCH  14  17
ATOM     17  C   UNL     1       0.371  -1.558   1.897  1.00  0.00     0.156 C 
ATOM     18  C   UNL     1       0.240  -1.470   0.391  1.00  0.00     0.023 C 
ENDBRANCH  14  17
ENDBRANCH  12  14
ENDBRANCH   7  12
BRANCH  11  19
ATOM     19  N   UNL     1       5.815  -2.916  -0.122  1.00  0.00    -0.360 N 
ATOM     20  C   UNL     1       6.471  -2.675  -1.419  1.00  0.00     0.178 C 
ATOM     21  C   UNL     1       6.110  -4.231   0.476  1.00  0.00     0.178 C 
ATOM     22  C   UNL     1       6.257  -3.870  -2.385  1.00  0.00     0.283 C 
ATOM     23  C   UNL     1       5.854  -5.361  -0.540  1.00  0.00     0.283 C 
ATOM     24  N   UNL     1       6.617  -5.179  -1.790  1.00  0.00    -0.334 N 
ATOM     25  C   UNL     1       6.329  -6.271  -2.719  1.00  0.00     0.332 C 
ATOM     26  H   UNL     1       7.617  -5.193  -1.593  1.00  0.00     0.347 HD
ENDBRANCH  11  19
ENDBRANCH   3   6
ENDBRANCH   1   2
BRANCH   1  27
ATOM     27  C   UNL     1       2.416   4.301   1.312  1.00  0.00     0.042 C 
BRANCH  27  28
ATOM     28  C   UNL     1       0.940   4.524   0.986  1.00  0.00     0.118 C 
BRANCH  28  29
ATOM     29  N   UNL     1       0.000   4.114   2.023  1.00  0.00    -0.352 N 
ATOM     30  C   UNL     1      -0.828   4.862   2.833  1.00  0.00     0.251 C 
ATOM     31  H   UNL     1      -0.051   3.142   2.170  1.00  0.00     0.163 HD
ATOM     32  O   UNL     1      -1.538   4.332   3.681  1.00  0.00    -0.269 OA
BRANCH  30  33
ATOM     33  C   UNL     1      -0.811   6.339   2.732  1.00  0.00     0.039 A 
ATOM     34  C   UNL     1      -0.697   7.098   3.900  1.00  0.00     0.014 A 
ATOM     35  C   UNL     1      -0.825   6.973   1.493  1.00  0.00     0.014 A 
ATOM     36  C   UNL     1      -0.439   8.469   3.810  1.00  0.00     0.010 A 
ATOM     37  C   UNL     1      -0.426   8.300   1.402  1.00  0.00     0.010 A 
ATOM     38  C   UNL     1      -0.211   9.064   2.559  1.00  0.00    -0.014 A 
BRANCH  38  39
ATOM     39  C   UNL     1       0.271  10.467   2.424  1.00  0.00     0.031 A 
ATOM     40  C   UNL     1      -0.489  11.445   1.568  1.00  0.00     0.074 A 
ATOM     41  C   UNL     1       1.451  10.831   2.968  1.00  0.00     0.049 A 
ATOM     42  N   UNL     1      -0.148  12.648   1.177  1.00  0.00    -0.248 NA
ATOM     43  C   UNL     1      -1.784  10.990   1.036  1.00  0.00     0.031 C 
ATOM     44  C   UNL     1       2.329   9.965   3.759  1.00  0.00     0.029 A 
ATOM     45  N   UNL     1       2.125  12.028   2.926  1.00  0.00    -0.354 N 
ATOM     46  C   UNL     1      -1.157  13.065   0.319  1.00  0.00     0.074 A 
ATOM     47  C   UNL     1      -2.094  11.969   0.201  1.00  0.00     0.031 C 
ATOM     48  C   UNL     1       3.402  10.667   4.157  1.00  0.00     0.029 A 
ATOM     49  C   UNL     1       3.316  12.017   3.612  1.00  0.00     0.049 A 
ATOM     50  H   UNL     1       1.787  12.820   2.449  1.00  0.00     0.167 HD
ATOM     51  C   UNL     1      -1.309  14.264  -0.292  1.00  0.00     0.037 A 
ATOM     52  C   UNL     1       4.239  12.984   3.778  1.00  0.00     0.037 A 
ATOM     53  C   UNL     1      -0.418  15.379  -0.115  1.00  0.00     0.049 A 
ATOM     54  C   UNL     1       4.017  14.328   3.138  1.00  0.00     0.074 A 
ATOM     55  C   UNL     1      -0.528  16.661  -0.623  1.00  0.00     0.029 A 
ATOM     56  N   UNL     1       0.742  15.346   0.644  1.00  0.00    -0.354 N 
ATOM     57  N   UNL     1       3.030  14.727   2.376  1.00  0.00    -0.248 NA
ATOM     58  C   UNL     1       5.038  15.356   3.386  1.00  0.00     0.031 C 
ATOM     59  C   UNL     1       0.579  17.398  -0.190  1.00  0.00     0.029 A 
ATOM     60  C   UNL     1       1.359  16.585   0.617  1.00  0.00     0.049 A 
ATOM     61  H   UNL     1       1.077  14.558   1.131  1.00  0.00     0.167 HD
ATOM     62  C   UNL     1       3.292  16.057   2.078  1.00  0.00     0.074 A 
ATOM     63  C   UNL     1       4.527  16.401   2.751  1.00  0.00     0.031 C 
ATOM     64  C   UNL     1       2.575  16.915   1.312  1.00  0.00     0.037 A 
BRANCH  51  65
ATOM     65  C   UNL     1      -2.498  14.436  -1.193  1.00  0.00     0.064 A 
ATOM     66  C   UNL     1      -3.804  14.491  -0.684  1.00  0.00     0.173 A 
ATOM     67  C   UNL     1      -2.328  14.569  -2.579  1.00  0.00     0.173 A 
ATOM     68  F   UNL     1      -4.021  14.356   0.633  1.00  0.00    -0.203 F 
ATOM     69  C   UNL     1      -4.899  14.633  -1.532  1.00  0.00     0.198 A 
ATOM     70  C   UNL     1      -3.423  14.745  -3.421  1.00  0.00     0.198 A 
ATOM     71  F   UNL     1      -1.100  14.532  -3.118  1.00  0.00    -0.203 F 
ATOM     72  F   UNL     1      -6.140  14.623  -1.027  1.00  0.00    -0.200 F 
ATOM     73  C   UNL     1      -4.707  14.767  -2.898  1.00  0.00     0.200 A 
ATOM     74  F   UNL     1      -3.236  14.888  -4.741  1.00  0.00    -0.200 F 
ATOM     75  F   UNL     1      -5.762  14.908  -3.713  1.00  0.00    -0.200 F 
ENDBRANCH  51  65
BRANCH  52  76
ATOM     76  C   UNL     1       5.442  12.733   4.615  1.00  0.00     0.064 A 
ATOM     77  C   UNL     1       5.583  13.353   5.865  1.00  0.00     0.173 A 
ATOM     78  C   UNL     1       6.472  11.884   4.188  1.00  0.00     0.173 A 
ATOM     79  F   UNL     1       4.633  14.190   6.307  1.00  0.00    -0.203 F 
ATOM     80  C   UNL     1       6.719  13.151   6.646  1.00  0.00     0.198 A 
ATOM     81  C   UNL     1       7.596  11.662   4.982  1.00  0.00     0.198 A 
ATOM     82  F   UNL     1       6.384  11.263   3.003  1.00  0.00    -0.203 F 
ATOM     83  F   UNL     1       6.848  13.793   7.815  1.00  0.00    -0.200 F 
ATOM     84  C   UNL     1       7.723  12.303   6.206  1.00  0.00     0.200 A 
ATOM     85  F   UNL     1       8.559  10.832   4.559  1.00  0.00    -0.200 F 
ATOM     86  F   UNL     1       8.816  12.108   6.957  1.00  0.00    -0.200 F 
ENDBRANCH  52  76
BRANCH  64  87
ATOM     87  C   UNL     1       3.081  18.322   1.198  1.00  0.00     0.064 A 
ATOM     88  C   UNL     1       4.204  18.639   0.421  1.00  0.00     0.173 A 
ATOM     89  C   UNL     1       2.401  19.371   1.835  1.00  0.00     0.173 A 
ATOM     90  F   UNL     1       4.895  17.668  -0.194  1.00  0.00    -0.203 F 
ATOM     91  C   UNL     1       4.640  19.956   0.302  1.00  0.00     0.198 A 
ATOM     92  C   UNL     1       2.824  20.689   1.692  1.00  0.00     0.198 A 
ATOM     93  F   UNL     1       1.318  19.118   2.585  1.00  0.00    -0.203 F 
ATOM     94  F   UNL     1       5.738  20.233  -0.414  1.00  0.00    -0.200 F 
ATOM     95  C   UNL     1       3.946  20.979   0.930  1.00  0.00     0.200 A 
ATOM     96  F   UNL     1       2.146  21.677   2.291  1.00  0.00    -0.200 F 
ATOM     97  F   UNL     1       4.362  22.247   0.806  1.00  0.00    -0.200 F 
ENDBRANCH  64  87
ENDBRANCH  38  39
ENDBRANCH  30  33
ENDBRANCH  28  29
ENDBRANCH  27  28
ENDBRANCH   1  27
TORSDOF 14
