REMARK SMILES O=C(NCCCNC(=O)[C@@H](c1ccccc1)[C@H](C(=O)c1ccccc1)c1ccccc1)c1ccc(-c2c3nc(c(-c4c(F)c(F)c(F)c(F)c4F)c4ccc([nH]4)c(-c4c(F)c(F)c(F)c(F)c4F)c4nc(c(-c5c(F)c(F)c(F)c(F)c5F)c5ccc2[nH]5)C=C4)C=C3)cc1
REMARK SMILES IDX 5 1 4 2 3 3 1 4 2 5 32 7 33 8 94 9 34 10 93 11 35 12 36 13
REMARK SMILES IDX 37 14 87 15 38 16 92 17 86 18 88 19 39 20 91 21 85 22 84 23
REMARK SMILES IDX 40 25 72 26 52 27 71 28 53 29 56 30 70 31 89 32 54 33 55 34
REMARK SMILES IDX 69 36 90 37 57 38 41 39 42 40 50 41 43 42 44 43 48 44 51 45
REMARK SMILES IDX 45 46 46 47 49 48 47 49 73 50 74 51 82 52 75 53 76 54 80 55
REMARK SMILES IDX 83 56 77 57 78 58 81 59 79 60 58 61 59 62 67 63 60 64 61 65
REMARK SMILES IDX 65 66 68 67 62 68 63 69 66 70 64 71 6 72 7 73 8 74 9 76
REMARK SMILES IDX 10 77 11 78 12 79 16 80 13 81 15 82 14 83 17 84 26 85 27 86
REMARK SMILES IDX 31 87 28 88 30 89 29 90 18 91 19 92 20 93 21 94 25 95 22 96
REMARK SMILES IDX 24 97 23 98
REMARK H PARENT 3 6 88 24 56 35 7 75
REMARK Flexibility Score: inf
ROOT
ATOM      1  C   UNL     1       0.587   0.577   5.785  1.00  0.00     0.042 C 
ENDROOT
BRANCH   1   2
ATOM      2  C   UNL     1      -0.648   1.101   6.495  1.00  0.00     0.118 C 
BRANCH   2   3
ATOM      3  N   UNL     1      -0.889   2.508   6.196  1.00  0.00    -0.352 N 
ATOM      4  O   UNL     1      -1.756   4.256   5.068  1.00  0.00    -0.269 OA
ATOM      5  C   UNL     1      -1.863   3.082   5.424  1.00  0.00     0.251 C 
ATOM      6  H   UNL     1      -0.258   3.139   6.612  1.00  0.00     0.163 HD
BRANCH   5   7
ATOM      7  C   UNL     1      -3.037   2.289   5.014  1.00  0.00     0.039 A 
ATOM      8  C   UNL     1      -3.640   1.409   5.915  1.00  0.00     0.014 A 
ATOM      9  C   UNL     1      -3.558   2.446   3.728  1.00  0.00     0.014 A 
ATOM     10  C   UNL     1      -4.659   0.572   5.487  1.00  0.00     0.010 A 
ATOM     11  C   UNL     1      -4.660   1.685   3.334  1.00  0.00     0.010 A 
ATOM     12  C   UNL     1      -5.203   0.726   4.204  1.00  0.00    -0.014 A 
BRANCH  12  13
ATOM     13  C   UNL     1      -6.400  -0.063   3.831  1.00  0.00     0.031 A 
ATOM     14  C   UNL     1      -6.361  -1.046   2.701  1.00  0.00     0.074 A 
ATOM     15  C   UNL     1      -7.533   0.128   4.533  1.00  0.00     0.049 A 
ATOM     16  N   UNL     1      -7.326  -1.790   2.223  1.00  0.00    -0.248 NA
ATOM     17  C   UNL     1      -5.075  -1.209   2.007  1.00  0.00     0.031 C 
ATOM     18  C   UNL     1      -7.684   1.073   5.643  1.00  0.00     0.029 A 
ATOM     19  N   UNL     1      -8.768  -0.455   4.423  1.00  0.00    -0.354 N 
ATOM     20  C   UNL     1      -6.774  -2.491   1.161  1.00  0.00     0.074 A 
ATOM     21  C   UNL     1      -5.395  -2.063   1.045  1.00  0.00     0.031 C 
ATOM     22  C   UNL     1      -8.930   0.987   6.128  1.00  0.00     0.029 A 
ATOM     23  C   UNL     1      -9.684   0.040   5.317  1.00  0.00     0.049 A 
ATOM     24  H   UNL     1      -8.977  -1.159   3.768  1.00  0.00     0.167 HD
ATOM     25  C   UNL     1      -7.368  -3.411   0.362  1.00  0.00     0.037 A 
ATOM     26  C   UNL     1     -10.999  -0.211   5.448  1.00  0.00     0.037 A 
ATOM     27  C   UNL     1      -8.741  -3.828   0.496  1.00  0.00     0.049 A 
ATOM     28  C   UNL     1     -11.641  -1.208   4.530  1.00  0.00     0.074 A 
ATOM     29  C   UNL     1      -9.426  -4.789  -0.228  1.00  0.00     0.029 A 
ATOM     30  N   UNL     1      -9.646  -3.295   1.406  1.00  0.00    -0.354 N 
ATOM     31  N   UNL     1     -11.098  -1.905   3.561  1.00  0.00    -0.248 NA
ATOM     32  C   UNL     1     -13.074  -1.456   4.722  1.00  0.00     0.031 C 
ATOM     33  C   UNL     1     -10.759  -4.790   0.198  1.00  0.00     0.029 A 
ATOM     34  C   UNL     1     -10.891  -3.881   1.236  1.00  0.00     0.049 A 
ATOM     35  H   UNL     1      -9.434  -2.604   2.074  1.00  0.00     0.167 HD
ATOM     36  C   UNL     1     -12.117  -2.686   3.037  1.00  0.00     0.074 A 
ATOM     37  C   UNL     1     -13.307  -2.389   3.809  1.00  0.00     0.031 C 
ATOM     38  C   UNL     1     -12.068  -3.570   2.010  1.00  0.00     0.037 A 
BRANCH  25  39
ATOM     39  C   UNL     1      -6.547  -4.001  -0.750  1.00  0.00     0.064 A 
ATOM     40  C   UNL     1      -5.463  -4.857  -0.502  1.00  0.00     0.173 A 
ATOM     41  C   UNL     1      -6.863  -3.721  -2.089  1.00  0.00     0.173 A 
ATOM     42  F   UNL     1      -5.109  -5.153   0.758  1.00  0.00    -0.203 F 
ATOM     43  C   UNL     1      -4.704  -5.377  -1.549  1.00  0.00     0.198 A 
ATOM     44  C   UNL     1      -6.125  -4.270  -3.134  1.00  0.00     0.198 A 
ATOM     45  F   UNL     1      -7.894  -2.915  -2.386  1.00  0.00    -0.203 F 
ATOM     46  F   UNL     1      -3.636  -6.143  -1.285  1.00  0.00    -0.200 F 
ATOM     47  C   UNL     1      -5.039  -5.088  -2.863  1.00  0.00     0.200 A 
ATOM     48  F   UNL     1      -6.459  -4.001  -4.403  1.00  0.00    -0.200 F 
ATOM     49  F   UNL     1      -4.308  -5.589  -3.869  1.00  0.00    -0.200 F 
ENDBRANCH  25  39
BRANCH  26  50
ATOM     50  C   UNL     1     -11.779   0.523   6.477  1.00  0.00     0.064 A 
ATOM     51  C   UNL     1     -12.284  -0.130   7.608  1.00  0.00     0.173 A 
ATOM     52  C   UNL     1     -11.992   1.907   6.370  1.00  0.00     0.173 A 
ATOM     53  F   UNL     1     -12.117  -1.453   7.747  1.00  0.00    -0.203 F 
ATOM     54  C   UNL     1     -12.982   0.571   8.589  1.00  0.00     0.198 A 
ATOM     55  C   UNL     1     -12.661   2.611   7.367  1.00  0.00     0.198 A 
ATOM     56  F   UNL     1     -11.517   2.580   5.312  1.00  0.00    -0.203 F 
ATOM     57  F   UNL     1     -13.485  -0.082   9.645  1.00  0.00    -0.200 F 
ATOM     58  C   UNL     1     -13.162   1.942   8.472  1.00  0.00     0.200 A 
ATOM     59  F   UNL     1     -12.811   3.939   7.261  1.00  0.00    -0.200 F 
ATOM     60  F   UNL     1     -13.818   2.617   9.425  1.00  0.00    -0.200 F 
ENDBRANCH  26  50
BRANCH  38  61
ATOM     61  C   UNL     1     -13.336  -4.302   1.677  1.00  0.00     0.064 A 
ATOM     62  C   UNL     1     -14.423  -3.658   1.068  1.00  0.00     0.173 A 
ATOM     63  C   UNL     1     -13.445  -5.678   1.929  1.00  0.00     0.173 A 
ATOM     64  F   UNL     1     -14.376  -2.340   0.823  1.00  0.00    -0.203 F 
ATOM     65  C   UNL     1     -15.580  -4.361   0.743  1.00  0.00     0.198 A 
ATOM     66  C   UNL     1     -14.590  -6.384   1.573  1.00  0.00     0.198 A 
ATOM     67  F   UNL     1     -12.432  -6.343   2.507  1.00  0.00    -0.203 F 
ATOM     68  F   UNL     1     -16.624  -3.716   0.204  1.00  0.00    -0.200 F 
ATOM     69  C   UNL     1     -15.659  -5.724   0.986  1.00  0.00     0.200 A 
ATOM     70  F   UNL     1     -14.657  -7.704   1.795  1.00  0.00    -0.200 F 
ATOM     71  F   UNL     1     -16.768  -6.402   0.660  1.00  0.00    -0.200 F 
ENDBRANCH  38  61
ENDBRANCH  12  13
ENDBRANCH   5   7
ENDBRANCH   2   3
ENDBRANCH   1   2
BRANCH   1  72
ATOM     72  C   UNL     1       1.857   1.248   6.275  1.00  0.00     0.117 C 
BRANCH  72  73
ATOM     73  N   UNL     1       2.141   0.898   7.652  1.00  0.00    -0.355 N 
ATOM     74  C   UNL     1       3.026  -0.003   8.161  1.00  0.00     0.228 C 
ATOM     75  H   UNL     1       1.613   1.388   8.323  1.00  0.00     0.163 HD
ATOM     76  O   UNL     1       2.921  -0.294   9.356  1.00  0.00    -0.274 OA
BRANCH  74  77
ATOM     77  C   UNL     1       4.114  -0.639   7.279  1.00  0.00     0.124 C 
BRANCH  77  78
ATOM     78  C   UNL     1       3.474  -1.690   6.358  1.00  0.00    -0.035 A 
ATOM     79  C   UNL     1       2.790  -2.769   6.955  1.00  0.00     0.004 A 
ATOM     80  C   UNL     1       3.485  -1.632   4.959  1.00  0.00     0.004 A 
ATOM     81  C   UNL     1       2.149  -3.742   6.183  1.00  0.00     0.000 A 
ATOM     82  C   UNL     1       2.866  -2.619   4.184  1.00  0.00     0.000 A 
ATOM     83  C   UNL     1       2.195  -3.671   4.795  1.00  0.00     0.000 A 
ENDBRANCH  77  78
BRANCH  77  84
ATOM     84  C   UNL     1       5.061   0.453   6.672  1.00  0.00     0.108 C 
BRANCH  84  85
ATOM     85  C   UNL     1       5.322   1.666   7.572  1.00  0.00    -0.036 A 
ATOM     86  C   UNL     1       5.585   1.536   8.944  1.00  0.00     0.004 A 
ATOM     87  C   UNL     1       5.219   2.962   7.035  1.00  0.00     0.004 A 
ATOM     88  C   UNL     1       5.664   2.664   9.765  1.00  0.00     0.000 A 
ATOM     89  C   UNL     1       5.321   4.089   7.854  1.00  0.00     0.000 A 
ATOM     90  C   UNL     1       5.526   3.939   9.222  1.00  0.00     0.000 A 
ENDBRANCH  84  85
BRANCH  84  91
ATOM     91  C   UNL     1       6.375  -0.185   6.211  1.00  0.00     0.171 C 
ATOM     92  O   UNL     1       7.197  -0.671   6.983  1.00  0.00    -0.293 OA
BRANCH  91  93
ATOM     93  C   UNL     1       6.591  -0.319   4.739  1.00  0.00     0.018 A 
ATOM     94  C   UNL     1       7.051  -1.545   4.250  1.00  0.00     0.012 A 
ATOM     95  C   UNL     1       6.216   0.692   3.842  1.00  0.00     0.012 A 
ATOM     96  C   UNL     1       7.074  -1.780   2.874  1.00  0.00     0.001 A 
ATOM     97  C   UNL     1       6.231   0.448   2.468  1.00  0.00     0.001 A 
ATOM     98  C   UNL     1       6.649  -0.792   1.986  1.00  0.00     0.000 A 
ENDBRANCH  91  93
ENDBRANCH  84  91
ENDBRANCH  77  84
ENDBRANCH  74  77
ENDBRANCH  72  73
ENDBRANCH   1  72
TORSDOF 15
