REMARK SMILES C[C@H]1c2ccc(O)cc2OC(=O)[C@@H]1CC(=O)N[C@@H](CC1=c2ccccc2=NC1)C(=O)NCCCNC(=O)c1ccc(-c2c3nc(c(-c4c(F)c(F)c(F)c(F)c4F)c4ccc([nH]4)c(-c4c(F)c(F)c(F)c(F)c4F)c4nc(c(-c5c(F)c(F)c(F)c(F)c5F)c5ccc2[nH]5)C=C4)C=C3)cc1
REMARK SMILES IDX 32 1 31 2 29 3 30 4 18 6 17 7 15 8 16 9 14 11 13 12 1 13
REMARK SMILES IDX 2 14 3 15 4 16 9 17 11 18 5 19 8 20 10 21 12 22 6 23 7 24
REMARK SMILES IDX 19 26 20 27 21 28 28 29 22 30 26 31 27 32 23 33 25 34 24 35
REMARK SMILES IDX 33 36 34 37 35 38 36 39 37 41 38 42 39 43 100 44 40 45 99 46
REMARK SMILES IDX 41 47 42 48 43 49 93 50 44 51 98 52 92 53 94 54 45 55 97 56
REMARK SMILES IDX 91 57 90 58 46 60 78 61 58 62 77 63 59 64 62 65 76 66 95 67
REMARK SMILES IDX 60 68 61 69 75 71 96 72 63 73 47 74 48 75 56 76 49 77 50 78
REMARK SMILES IDX 54 79 57 80 51 81 52 82 55 83 53 84 79 85 80 86 88 87 81 88
REMARK SMILES IDX 82 89 86 90 89 91 83 92 84 93 87 94 85 95 64 96 65 97 73 98
REMARK SMILES IDX 66 99 67 100 71 101 74 102 68 103 69 104 72 105 70 106
REMARK H PARENT 31 5 17 10 7 25 35 40 94 59 62 70
REMARK Flexibility Score: inf
ROOT
ATOM      1  C   UNL     1      -0.327   7.481  -3.807  1.00  0.00     0.117 C 
ENDROOT
BRANCH   1   2
ATOM      2  N   UNL     1      -0.243   7.223  -2.399  1.00  0.00    -0.354 N 
ATOM      3  C   UNL     1       0.691   6.364  -1.873  1.00  0.00     0.242 C 
ATOM      4  O   UNL     1       1.250   6.721  -0.830  1.00  0.00    -0.273 OA
ATOM      5  H   UNL     1      -0.874   7.675  -1.792  1.00  0.00     0.163 HD
BRANCH   3   6
ATOM      6  C   UNL     1       1.102   5.022  -2.566  1.00  0.00     0.175 C 
BRANCH   6   7
ATOM      7  N   UNL     1       0.057   4.256  -3.255  1.00  0.00    -0.344 N 
ATOM      8  C   UNL     1      -0.713   3.223  -2.803  1.00  0.00     0.221 C 
ATOM      9  O   UNL     1      -1.453   2.651  -3.606  1.00  0.00    -0.275 OA
ATOM     10  H   UNL     1      -0.115   4.528  -4.186  1.00  0.00     0.164 HD
BRANCH   8  11
ATOM     11  C   UNL     1      -0.686   2.798  -1.343  1.00  0.00     0.116 C 
BRANCH  11  12
ATOM     12  C   UNL     1       0.340   1.684  -1.030  1.00  0.00     0.116 C 
ATOM     13  C   UNL     1       0.955  -0.311   0.441  1.00  0.00     0.014 C 
ATOM     14  C   UNL     1       0.027   0.898   0.264  1.00  0.00     0.034 C 
ATOM     15  C   UNL     1       0.142   1.833   1.442  1.00  0.00    -0.001 A 
ATOM     16  C   UNL     1      -0.614   1.663   2.604  1.00  0.00     0.011 A 
ATOM     17  C   UNL     1       0.995   2.937   1.353  1.00  0.00     0.138 A 
ATOM     18  C   UNL     1       1.722   2.259  -0.846  1.00  0.00     0.315 C 
ATOM     19  C   UNL     1      -0.568   2.626   3.617  1.00  0.00     0.047 A 
ATOM     20  C   UNL     1       1.024   3.923   2.333  1.00  0.00     0.093 A 
ATOM     21  O   UNL     1       1.881   3.071   0.270  1.00  0.00    -0.426 OA
ATOM     22  O   UNL     1       2.627   2.088  -1.655  1.00  0.00    -0.251 OA
ATOM     23  C   UNL     1       0.225   3.762   3.457  1.00  0.00     0.119 A 
BRANCH  23  24
ATOM     24  O   UNL     1       0.249   4.748   4.399  1.00  0.00    -0.508 OA
ATOM     25  H   UNL     1      -0.278   4.671   5.170  1.00  0.00     0.293 HD
ENDBRANCH  23  24
ENDBRANCH  11  12
ENDBRANCH   8  11
ENDBRANCH   6   7
BRANCH   6  26
ATOM     26  C   UNL     1       2.499   4.932  -3.272  1.00  0.00     0.068 C 
BRANCH  26  27
ATOM     27  C   UNL     1       2.732   5.436  -4.691  1.00  0.00    -0.037 C 
ATOM     28  C   UNL     1       2.245   4.809  -5.777  1.00  0.00     0.001 A 
ATOM     29  C   UNL     1       2.707   6.914  -4.904  1.00  0.00     0.174 C 
ATOM     30  C   UNL     1       2.995   4.380  -6.961  1.00  0.00     0.010 A 
ATOM     31  C   UNL     1       1.344   5.907  -6.242  1.00  0.00     0.065 A 
ATOM     32  N   UNL     1       1.570   7.112  -5.829  1.00  0.00    -0.280 NA
ATOM     33  C   UNL     1       2.332   4.335  -8.138  1.00  0.00     0.001 A 
ATOM     34  C   UNL     1       0.366   5.463  -7.252  1.00  0.00     0.028 A 
ATOM     35  C   UNL     1       0.906   4.659  -8.183  1.00  0.00     0.002 A 
ENDBRANCH  26  27
ENDBRANCH   6  26
ENDBRANCH   3   6
ENDBRANCH   1   2
BRANCH   1  36
ATOM     36  C   UNL     1      -1.437   8.360  -4.342  1.00  0.00     0.042 C 
BRANCH  36  37
ATOM     37  C   UNL     1      -1.084   9.849  -4.336  1.00  0.00     0.118 C 
BRANCH  37  38
ATOM     38  N   UNL     1       0.078  10.238  -5.149  1.00  0.00    -0.352 N 
ATOM     39  C   UNL     1       0.269  10.790  -6.402  1.00  0.00     0.251 C 
ATOM     40  H   UNL     1       0.930  10.063  -4.687  1.00  0.00     0.163 HD
ATOM     41  O   UNL     1       1.405  11.012  -6.790  1.00  0.00    -0.269 OA
BRANCH  39  42
ATOM     42  C   UNL     1      -0.864  11.063  -7.318  1.00  0.00     0.039 A 
ATOM     43  C   UNL     1      -2.106  11.431  -6.838  1.00  0.00     0.014 A 
ATOM     44  C   UNL     1      -0.690  10.918  -8.702  1.00  0.00     0.014 A 
ATOM     45  C   UNL     1      -3.218  11.320  -7.655  1.00  0.00     0.010 A 
ATOM     46  C   UNL     1      -1.794  10.994  -9.564  1.00  0.00     0.010 A 
ATOM     47  C   UNL     1      -3.086  11.100  -9.035  1.00  0.00    -0.014 A 
BRANCH  47  48
ATOM     48  C   UNL     1      -4.323  10.963  -9.858  1.00  0.00     0.031 A 
ATOM     49  C   UNL     1      -4.575   9.730 -10.689  1.00  0.00     0.074 A 
ATOM     50  C   UNL     1      -5.283  11.906  -9.762  1.00  0.00     0.049 A 
ATOM     51  N   UNL     1      -5.616   9.434 -11.429  1.00  0.00    -0.248 NA
ATOM     52  C   UNL     1      -3.525   8.700 -10.711  1.00  0.00     0.031 C 
ATOM     53  C   UNL     1      -5.167  13.147  -8.992  1.00  0.00     0.029 A 
ATOM     54  N   UNL     1      -6.562  11.948 -10.258  1.00  0.00    -0.354 N 
ATOM     55  C   UNL     1      -5.321   8.223 -12.042  1.00  0.00     0.074 A 
ATOM     56  C   UNL     1      -4.000   7.838 -11.598  1.00  0.00     0.031 C 
ATOM     57  C   UNL     1      -6.354  13.764  -8.966  1.00  0.00     0.029 A 
ATOM     58  C   UNL     1      -7.285  13.030  -9.816  1.00  0.00     0.049 A 
ATOM     59  H   UNL     1      -6.927  11.269 -10.870  1.00  0.00     0.167 HD
ATOM     60  C   UNL     1      -6.085   7.496 -12.891  1.00  0.00     0.037 A 
ATOM     61  C   UNL     1      -8.548  13.414 -10.077  1.00  0.00     0.037 A 
ATOM     62  C   UNL     1      -7.428   7.847 -13.275  1.00  0.00     0.049 A 
ATOM     63  C   UNL     1      -9.378  12.588 -11.012  1.00  0.00     0.074 A 
ATOM     64  C   UNL     1      -8.302   7.146 -14.089  1.00  0.00     0.029 A 
ATOM     65  N   UNL     1      -8.096   8.991 -12.863  1.00  0.00    -0.354 N 
ATOM     66  N   UNL     1      -9.074  11.457 -11.600  1.00  0.00    -0.248 NA
ATOM     67  C   UNL     1     -10.712  13.104 -11.345  1.00  0.00     0.031 C 
ATOM     68  C   UNL     1      -9.481   7.888 -14.206  1.00  0.00     0.029 A 
ATOM     69  C   UNL     1      -9.362   9.028 -13.427  1.00  0.00     0.049 A 
ATOM     70  H   UNL     1      -7.726   9.675 -12.260  1.00  0.00     0.167 HD
ATOM     71  C   UNL     1     -10.169  11.131 -12.384  1.00  0.00     0.074 A 
ATOM     72  C   UNL     1     -11.161  12.166 -12.169  1.00  0.00     0.031 C 
ATOM     73  C   UNL     1     -10.330  10.075 -13.218  1.00  0.00     0.037 A 
BRANCH  60  74
ATOM     74  C   UNL     1      -5.486   6.255 -13.491  1.00  0.00     0.064 A 
ATOM     75  C   UNL     1      -5.276   5.089 -12.740  1.00  0.00     0.173 A 
ATOM     76  C   UNL     1      -5.168   6.219 -14.858  1.00  0.00     0.173 A 
ATOM     77  F   UNL     1      -5.551   5.073 -11.427  1.00  0.00    -0.203 F 
ATOM     78  C   UNL     1      -4.751   3.942 -13.330  1.00  0.00     0.198 A 
ATOM     79  C   UNL     1      -4.670   5.061 -15.451  1.00  0.00     0.198 A 
ATOM     80  F   UNL     1      -5.356   7.304 -15.625  1.00  0.00    -0.203 F 
ATOM     81  F   UNL     1      -4.520   2.852 -12.584  1.00  0.00    -0.200 F 
ATOM     82  C   UNL     1      -4.456   3.926 -14.686  1.00  0.00     0.200 A 
ATOM     83  F   UNL     1      -4.400   5.045 -16.764  1.00  0.00    -0.200 F 
ATOM     84  F   UNL     1      -3.962   2.817 -15.253  1.00  0.00    -0.200 F 
ENDBRANCH  60  74
BRANCH  61  85
ATOM     85  C   UNL     1      -9.069  14.658  -9.454  1.00  0.00     0.064 A 
ATOM     86  C   UNL     1     -10.039  14.610  -8.445  1.00  0.00     0.173 A 
ATOM     87  C   UNL     1      -8.541  15.913  -9.796  1.00  0.00     0.173 A 
ATOM     88  F   UNL     1     -10.588  13.437  -8.098  1.00  0.00    -0.203 F 
ATOM     89  C   UNL     1     -10.449  15.770  -7.790  1.00  0.00     0.198 A 
ATOM     90  C   UNL     1      -8.928  17.066  -9.118  1.00  0.00     0.198 A 
ATOM     91  F   UNL     1      -7.605  16.009 -10.752  1.00  0.00    -0.203 F 
ATOM     92  F   UNL     1     -11.385  15.701  -6.834  1.00  0.00    -0.200 F 
ATOM     93  C   UNL     1      -9.882  16.993  -8.115  1.00  0.00     0.200 A 
ATOM     94  F   UNL     1      -8.357  18.240  -9.420  1.00  0.00    -0.200 F 
ATOM     95  F   UNL     1     -10.250  18.102  -7.459  1.00  0.00    -0.200 F 
ENDBRANCH  61  85
BRANCH  73  96
ATOM     96  C   UNL     1     -11.621   9.989 -13.973  1.00  0.00     0.064 A 
ATOM     97  C   UNL     1     -11.883  10.834 -15.062  1.00  0.00     0.173 A 
ATOM     98  C   UNL     1     -12.578   9.018 -13.646  1.00  0.00     0.173 A 
ATOM     99  F   UNL     1     -11.004  11.789 -15.402  1.00  0.00    -0.203 F 
ATOM    100  C   UNL     1     -13.065  10.717 -15.787  1.00  0.00     0.198 A 
ATOM    101  C   UNL     1     -13.747   8.887 -14.390  1.00  0.00     0.198 A 
ATOM    102  F   UNL     1     -12.369   8.183 -12.616  1.00  0.00    -0.203 F 
ATOM    103  F   UNL     1     -13.311  11.556 -16.803  1.00  0.00    -0.200 F 
ATOM    104  C   UNL     1     -13.991   9.739 -15.457  1.00  0.00     0.200 A 
ATOM    105  F   UNL     1     -14.635   7.934 -14.077  1.00  0.00    -0.200 F 
ATOM    106  F   UNL     1     -15.123   9.620 -16.164  1.00  0.00    -0.200 F 
ENDBRANCH  73  96
ENDBRANCH  47  48
ENDBRANCH  39  42
ENDBRANCH  37  38
ENDBRANCH  36  37
ENDBRANCH   1  36
TORSDOF 16
