REMARK SMILES O=C(NCCCNC(=O)[C@H]1C[C@H](O)CN1S(=O)(=O)c1ccc2c(c1)OCCO2)c1ccc(-c2c3nc(c(-c4c(F)c(F)c(F)c(F)c4F)c4ccc([nH]4)c(-c4c(F)c(F)c(F)c(F)c4F)c4nc(c(-c5c(F)c(F)c(F)c(F)c5F)c5ccc2[nH]5)C=C4)C=C3)cc1
REMARK SMILES IDX 5 1 4 2 3 3 1 4 2 5 29 7 30 8 91 9 31 10 90 11 32 12 33 13
REMARK SMILES IDX 34 14 84 15 35 16 89 17 83 18 85 19 36 20 88 21 82 22 81 23
REMARK SMILES IDX 37 25 69 26 49 27 68 28 50 29 53 30 67 31 86 32 51 33 52 34
REMARK SMILES IDX 66 36 87 37 54 38 38 39 39 40 47 41 40 42 41 43 45 44 48 45
REMARK SMILES IDX 42 46 43 47 46 48 44 49 70 50 71 51 79 52 72 53 73 54 77 55
REMARK SMILES IDX 80 56 74 57 75 58 78 59 76 60 55 61 56 62 64 63 57 64 58 65
REMARK SMILES IDX 62 66 65 67 59 68 60 69 63 70 61 71 6 72 7 73 8 74 9 76
REMARK SMILES IDX 10 77 11 78 15 79 12 80 14 81 16 82 17 83 18 84 19 85 20 86
REMARK SMILES IDX 24 87 21 88 23 89 22 90 25 91 28 92 26 93 27 94 13 95
REMARK H PARENT 3 6 85 24 53 35 7 75 13 96
REMARK Flexibility Score: inf
ROOT
ATOM      1  C   UNL     1       4.717   1.397  -1.857  1.00  0.00     0.042 C 
ENDROOT
BRANCH   1   2
ATOM      2  C   UNL     1       4.443   1.175  -0.384  1.00  0.00     0.118 C 
BRANCH   2   3
ATOM      3  N   UNL     1       3.018   1.011  -0.109  1.00  0.00    -0.352 N 
ATOM      4  O   UNL     1       1.114  -0.124   0.335  1.00  0.00    -0.269 OA
ATOM      5  C   UNL     1       2.340  -0.090   0.357  1.00  0.00     0.251 C 
ATOM      6  H   UNL     1       2.462   1.804  -0.284  1.00  0.00     0.163 HD
BRANCH   5   7
ATOM      7  C   UNL     1       3.103  -1.244   0.874  1.00  0.00     0.039 A 
ATOM      8  C   UNL     1       4.235  -1.030   1.658  1.00  0.00     0.014 A 
ATOM      9  C   UNL     1       2.691  -2.545   0.574  1.00  0.00     0.014 A 
ATOM     10  C   UNL     1       5.058  -2.094   1.979  1.00  0.00     0.010 A 
ATOM     11  C   UNL     1       3.449  -3.631   1.022  1.00  0.00     0.010 A 
ATOM     12  C   UNL     1       4.653  -3.411   1.708  1.00  0.00    -0.014 A 
BRANCH  12  13
ATOM     13  C   UNL     1       5.472  -4.515   2.265  1.00  0.00     0.031 A 
ATOM     14  C   UNL     1       6.169  -5.505   1.381  1.00  0.00     0.074 A 
ATOM     15  C   UNL     1       5.635  -4.551   3.603  1.00  0.00     0.049 A 
ATOM     16  N   UNL     1       6.972  -6.482   1.721  1.00  0.00    -0.248 NA
ATOM     17  C   UNL     1       5.936  -5.399  -0.067  1.00  0.00     0.031 C 
ATOM     18  C   UNL     1       4.982  -3.643   4.552  1.00  0.00     0.029 A 
ATOM     19  N   UNL     1       6.426  -5.339   4.395  1.00  0.00    -0.354 N 
ATOM     20  C   UNL     1       7.323  -7.118   0.538  1.00  0.00     0.074 A 
ATOM     21  C   UNL     1       6.631  -6.430  -0.531  1.00  0.00     0.031 C 
ATOM     22  C   UNL     1       5.462  -3.867   5.781  1.00  0.00     0.029 A 
ATOM     23  C   UNL     1       6.388  -4.989   5.723  1.00  0.00     0.049 A 
ATOM     24  H   UNL     1       6.969  -6.083   4.048  1.00  0.00     0.167 HD
ATOM     25  C   UNL     1       8.151  -8.176   0.369  1.00  0.00     0.037 A 
ATOM     26  C   UNL     1       7.016  -5.524   6.784  1.00  0.00     0.037 A 
ATOM     27  C   UNL     1       8.845  -8.841   1.444  1.00  0.00     0.049 A 
ATOM     28  C   UNL     1       7.930  -6.691   6.559  1.00  0.00     0.074 A 
ATOM     29  C   UNL     1       9.710  -9.919   1.379  1.00  0.00     0.029 A 
ATOM     30  N   UNL     1       8.755  -8.483   2.783  1.00  0.00    -0.354 N 
ATOM     31  N   UNL     1       8.253  -7.279   5.433  1.00  0.00    -0.248 NA
ATOM     32  C   UNL     1       8.556  -7.275   7.750  1.00  0.00     0.031 C 
ATOM     33  C   UNL     1      10.116 -10.236   2.680  1.00  0.00     0.029 A 
ATOM     34  C   UNL     1       9.539  -9.328   3.553  1.00  0.00     0.049 A 
ATOM     35  H   UNL     1       8.214  -7.739   3.134  1.00  0.00     0.167 HD
ATOM     36  C   UNL     1       9.118  -8.306   5.778  1.00  0.00     0.074 A 
ATOM     37  C   UNL     1       9.302  -8.231   7.214  1.00  0.00     0.031 C 
ATOM     38  C   UNL     1       9.695  -9.238   4.982  1.00  0.00     0.037 A 
BRANCH  25  39
ATOM     39  C   UNL     1       8.350  -8.697  -1.024  1.00  0.00     0.064 A 
ATOM     40  C   UNL     1       9.123  -8.002  -1.966  1.00  0.00     0.173 A 
ATOM     41  C   UNL     1       7.819  -9.940  -1.401  1.00  0.00     0.173 A 
ATOM     42  F   UNL     1       9.643  -6.804  -1.661  1.00  0.00    -0.203 F 
ATOM     43  C   UNL     1       9.349  -8.528  -3.236  1.00  0.00     0.198 A 
ATOM     44  C   UNL     1       8.067 -10.474  -2.664  1.00  0.00     0.198 A 
ATOM     45  F   UNL     1       7.076 -10.648  -0.537  1.00  0.00    -0.203 F 
ATOM     46  F   UNL     1      10.068  -7.833  -4.129  1.00  0.00    -0.200 F 
ATOM     47  C   UNL     1       8.829  -9.767  -3.581  1.00  0.00     0.200 A 
ATOM     48  F   UNL     1       7.573 -11.676  -2.991  1.00  0.00    -0.200 F 
ATOM     49  F   UNL     1       9.060 -10.277  -4.798  1.00  0.00    -0.200 F 
ENDBRANCH  25  39
BRANCH  26  50
ATOM     50  C   UNL     1       6.776  -4.974   8.143  1.00  0.00     0.064 A 
ATOM     51  C   UNL     1       7.794  -4.327   8.855  1.00  0.00     0.173 A 
ATOM     52  C   UNL     1       5.516  -5.077   8.753  1.00  0.00     0.173 A 
ATOM     53  F   UNL     1       9.020  -4.218   8.321  1.00  0.00    -0.203 F 
ATOM     54  C   UNL     1       7.566  -3.820  10.133  1.00  0.00     0.198 A 
ATOM     55  C   UNL     1       5.280  -4.538  10.015  1.00  0.00     0.198 A 
ATOM     56  F   UNL     1       4.505  -5.680   8.111  1.00  0.00    -0.203 F 
ATOM     57  F   UNL     1       8.569  -3.246  10.811  1.00  0.00    -0.200 F 
ATOM     58  C   UNL     1       6.308  -3.919  10.708  1.00  0.00     0.200 A 
ATOM     59  F   UNL     1       4.057  -4.618  10.557  1.00  0.00    -0.200 F 
ATOM     60  F   UNL     1       6.088  -3.423  11.933  1.00  0.00    -0.200 F 
ENDBRANCH  26  50
BRANCH  38  61
ATOM     61  C   UNL     1      10.578 -10.241   5.661  1.00  0.00     0.064 A 
ATOM     62  C   UNL     1      10.043 -11.253   6.472  1.00  0.00     0.173 A 
ATOM     63  C   UNL     1      11.970 -10.185   5.505  1.00  0.00     0.173 A 
ATOM     64  F   UNL     1       8.718 -11.333   6.666  1.00  0.00    -0.203 F 
ATOM     65  C   UNL     1      10.874 -12.153   7.131  1.00  0.00     0.198 A 
ATOM     66  C   UNL     1      12.797 -11.105   6.143  1.00  0.00     0.198 A 
ATOM     67  F   UNL     1      12.528  -9.237   4.738  1.00  0.00    -0.203 F 
ATOM     68  F   UNL     1      10.346 -13.075   7.949  1.00  0.00    -0.200 F 
ATOM     69  C   UNL     1      12.249 -12.081   6.963  1.00  0.00     0.200 A 
ATOM     70  F   UNL     1      14.124 -11.040   5.974  1.00  0.00    -0.200 F 
ATOM     71  F   UNL     1      13.049 -12.945   7.603  1.00  0.00    -0.200 F 
ENDBRANCH  38  61
ENDBRANCH  12  13
ENDBRANCH   5   7
ENDBRANCH   2   3
ENDBRANCH   1   2
BRANCH   1  72
ATOM     72  C   UNL     1       4.328   2.796  -2.284  1.00  0.00     0.117 C 
BRANCH  72  73
ATOM     73  N   UNL     1       5.317   3.777  -1.887  1.00  0.00    -0.355 N 
ATOM     74  C   UNL     1       6.128   4.580  -2.625  1.00  0.00     0.238 C 
ATOM     75  H   UNL     1       5.421   3.879  -0.913  1.00  0.00     0.163 HD
ATOM     76  O   UNL     1       6.931   5.279  -1.996  1.00  0.00    -0.273 OA
BRANCH  74  77
ATOM     77  C   UNL     1       6.102   4.625  -4.149  1.00  0.00     0.165 C 
ATOM     78  C   UNL     1       6.342   3.274  -4.843  1.00  0.00     0.063 C 
ATOM     79  N   UNL     1       4.993   5.311  -4.905  1.00  0.00    -0.183 NA
ATOM     80  C   UNL     1       5.188   3.113  -5.820  1.00  0.00     0.131 C 
ATOM     81  C   UNL     1       4.825   4.550  -6.169  1.00  0.00     0.135 C 
BRANCH  79  82
ATOM     82  S   UNL     1       3.607   5.756  -4.031  1.00  0.00     0.244 S 
ATOM     83  O   UNL     1       2.804   4.570  -3.832  1.00  0.00    -0.207 OA
ATOM     84  O   UNL     1       4.018   6.574  -2.911  1.00  0.00    -0.207 OA
BRANCH  82  85
ATOM     85  C   UNL     1       2.675   6.787  -5.129  1.00  0.00     0.086 A 
ATOM     86  C   UNL     1       2.706   8.178  -5.002  1.00  0.00     0.026 A 
ATOM     87  C   UNL     1       1.790   6.169  -6.017  1.00  0.00     0.072 A 
ATOM     88  C   UNL     1       1.859   8.954  -5.798  1.00  0.00     0.052 A 
ATOM     89  C   UNL     1       0.993   6.947  -6.840  1.00  0.00     0.162 A 
ATOM     90  C   UNL     1       1.002   8.339  -6.713  1.00  0.00     0.161 A 
ATOM     91  O   UNL     1       0.218   6.272  -7.746  1.00  0.00    -0.486 OA
ATOM     92  O   UNL     1       0.190   9.157  -7.456  1.00  0.00    -0.486 OA
ATOM     93  C   UNL     1      -0.261   7.157  -8.761  1.00  0.00     0.271 C 
ATOM     94  C   UNL     1      -0.837   8.412  -8.126  1.00  0.00     0.271 C 
ENDBRANCH  82  85
ENDBRANCH  79  82
BRANCH  80  95
ATOM     95  O   UNL     1       5.549   2.331  -6.947  1.00  0.00    -0.392 OA
ATOM     96  H   UNL     1       6.307   2.739  -7.394  1.00  0.00     0.211 HD
ENDBRANCH  80  95
ENDBRANCH  74  77
ENDBRANCH  72  73
ENDBRANCH   1  72
TORSDOF 13
