REMARK SMILES CC[C@@](C)(NC(=O)N1CCC[C@H]1C1CCCC1)C(=O)NCCCNC(=O)c1ccc(-c2c3nc(c(-c4c(F)c(F)c(F)c(F)c4F)c4ccc([nH]4)c(-c4c(F)c(F)c(F)c(F)c4F)c4nc(c(-c5c(F)c(F)c(F)c(F)c5F)c5ccc2[nH]5)C=C4)C=C3)cc1
REMARK SMILES IDX 21 1 20 2 18 3 19 4 3 6 4 7 2 8 1 9 5 10 6 11 7 13 8 14 9 15
REMARK SMILES IDX 12 16 10 17 11 18 13 19 14 20 17 21 15 22 16 23 22 24 23 25
REMARK SMILES IDX 24 26 25 27 26 29 27 30 28 31 89 32 29 33 88 34 30 35 31 36
REMARK SMILES IDX 32 37 82 38 33 39 87 40 81 41 83 42 34 43 86 44 80 45 79 46
REMARK SMILES IDX 35 48 67 49 47 50 66 51 48 52 51 53 65 54 84 55 49 56 50 57
REMARK SMILES IDX 64 59 85 60 52 61 36 62 37 63 45 64 38 65 39 66 43 67 46 68
REMARK SMILES IDX 40 69 41 70 44 71 42 72 68 73 69 74 77 75 70 76 71 77 75 78
REMARK SMILES IDX 78 79 72 80 73 81 76 82 74 83 53 84 54 85 62 86 55 87 56 88
REMARK SMILES IDX 60 89 63 90 57 91 58 92 61 93 59 94
REMARK H PARENT 20 5 5 12 24 28 83 47 51 58
REMARK Flexibility Score: inf
ROOT
ATOM      1  C   UNL     1       2.172  -0.087   5.405  1.00  0.00     0.117 C 
ENDROOT
BRANCH   1   2
ATOM      2  N   UNL     1       2.718   0.237   4.098  1.00  0.00    -0.354 N 
ATOM      3  C   UNL     1       2.257   0.058   2.822  1.00  0.00     0.245 C 
ATOM      4  O   UNL     1       2.813   0.761   1.970  1.00  0.00    -0.272 OA
ATOM      5  H   UNL     1       3.599   0.674   4.139  1.00  0.00     0.163 HD
BRANCH   3   6
ATOM      6  C   UNL     1       1.064  -0.878   2.451  1.00  0.00     0.117 C 
ATOM      7  C   UNL     1      -0.217  -0.107   2.871  1.00  0.00     0.045 C 
BRANCH   6   8
ATOM      8  C   UNL     1       0.938  -1.169   0.918  1.00  0.00     0.035 C 
ATOM      9  C   UNL     1       0.866   0.019  -0.040  1.00  0.00     0.007 C 
ENDBRANCH   6   8
BRANCH   6  10
ATOM     10  N   UNL     1       1.060  -2.199   3.156  1.00  0.00    -0.324 N 
ATOM     11  C   UNL     1       1.703  -3.370   2.925  1.00  0.00     0.318 C 
ATOM     12  H   UNL     1       0.472  -2.221   3.945  1.00  0.00     0.166 HD
ATOM     13  O   UNL     1       0.967  -4.361   2.914  1.00  0.00    -0.249 OA
BRANCH  11  14
ATOM     14  N   UNL     1       3.052  -3.485   2.784  1.00  0.00    -0.322 N 
ATOM     15  C   UNL     1       4.068  -2.465   2.718  1.00  0.00     0.122 C 
ATOM     16  C   UNL     1       3.697  -4.800   2.569  1.00  0.00     0.090 C 
ATOM     17  C   UNL     1       5.048  -2.965   1.687  1.00  0.00     0.024 C 
ATOM     18  C   UNL     1       5.076  -4.458   1.944  1.00  0.00     0.027 C 
BRANCH  16  19
ATOM     19  C   UNL     1       3.932  -5.683   3.827  1.00  0.00     0.012 C 
ATOM     20  C   UNL     1       4.506  -4.971   5.050  1.00  0.00     0.006 C 
ATOM     21  C   UNL     1       2.715  -6.380   4.432  1.00  0.00     0.006 C 
ATOM     22  C   UNL     1       4.381  -5.993   6.173  1.00  0.00     0.000 C 
ATOM     23  C   UNL     1       3.195  -6.876   5.797  1.00  0.00     0.000 C 
ENDBRANCH  16  19
ENDBRANCH  11  14
ENDBRANCH   6  10
ENDBRANCH   3   6
ENDBRANCH   1   2
BRANCH   1  24
ATOM     24  C   UNL     1       2.645  -1.385   6.051  1.00  0.00     0.042 C 
BRANCH  24  25
ATOM     25  C   UNL     1       4.137  -1.530   6.345  1.00  0.00     0.118 C 
BRANCH  25  26
ATOM     26  N   UNL     1       4.678  -0.625   7.334  1.00  0.00    -0.352 N 
ATOM     27  C   UNL     1       5.492  -0.878   8.414  1.00  0.00     0.251 C 
ATOM     28  H   UNL     1       4.424   0.319   7.216  1.00  0.00     0.163 HD
ATOM     29  O   UNL     1       5.878   0.070   9.093  1.00  0.00    -0.269 OA
BRANCH  27  30
ATOM     30  C   UNL     1       5.874  -2.257   8.827  1.00  0.00     0.039 A 
ATOM     31  C   UNL     1       5.790  -2.557  10.190  1.00  0.00     0.014 A 
ATOM     32  C   UNL     1       6.370  -3.230   7.953  1.00  0.00     0.014 A 
ATOM     33  C   UNL     1       6.146  -3.825  10.666  1.00  0.00     0.010 A 
ATOM     34  C   UNL     1       6.673  -4.521   8.426  1.00  0.00     0.010 A 
ATOM     35  C   UNL     1       6.559  -4.841   9.788  1.00  0.00    -0.014 A 
BRANCH  35  36
ATOM     36  C   UNL     1       6.829  -6.214  10.326  1.00  0.00     0.031 A 
ATOM     37  C   UNL     1       8.197  -6.846  10.255  1.00  0.00     0.074 A 
ATOM     38  C   UNL     1       5.832  -6.903  10.922  1.00  0.00     0.049 A 
ATOM     39  N   UNL     1       8.620  -7.968  10.791  1.00  0.00    -0.248 NA
ATOM     40  C   UNL     1       9.218  -6.144   9.467  1.00  0.00     0.031 C 
ATOM     41  C   UNL     1       4.439  -6.463  11.008  1.00  0.00     0.029 A 
ATOM     42  N   UNL     1       5.838  -8.108  11.588  1.00  0.00    -0.354 N 
ATOM     43  C   UNL     1       9.950  -8.101  10.410  1.00  0.00     0.074 A 
ATOM     44  C   UNL     1      10.245  -6.978   9.544  1.00  0.00     0.031 C 
ATOM     45  C   UNL     1       3.740  -7.349  11.734  1.00  0.00     0.029 A 
ATOM     46  C   UNL     1       4.622  -8.441  12.139  1.00  0.00     0.049 A 
ATOM     47  H   UNL     1       6.637  -8.678  11.662  1.00  0.00     0.167 HD
ATOM     48  C   UNL     1      10.852  -9.050  10.765  1.00  0.00     0.037 A 
ATOM     49  C   UNL     1       4.254  -9.493  12.897  1.00  0.00     0.037 A 
ATOM     50  C   UNL     1      10.573 -10.170  11.632  1.00  0.00     0.049 A 
ATOM     51  C   UNL     1       5.276 -10.529  13.285  1.00  0.00     0.074 A 
ATOM     52  C   UNL     1      11.445 -11.146  12.090  1.00  0.00     0.029 A 
ATOM     53  N   UNL     1       9.329 -10.473  12.164  1.00  0.00    -0.354 N 
ATOM     54  N   UNL     1       6.553 -10.584  12.998  1.00  0.00    -0.248 NA
ATOM     55  C   UNL     1       4.803 -11.643  14.120  1.00  0.00     0.031 C 
ATOM     56  C   UNL     1      10.717 -12.069  12.849  1.00  0.00     0.029 A 
ATOM     57  C   UNL     1       9.405 -11.633  12.922  1.00  0.00     0.049 A 
ATOM     58  H   UNL     1       8.511  -9.943  12.023  1.00  0.00     0.167 HD
ATOM     59  C   UNL     1       7.041 -11.717  13.639  1.00  0.00     0.074 A 
ATOM     60  C   UNL     1       5.927 -12.305  14.352  1.00  0.00     0.031 C 
ATOM     61  C   UNL     1       8.299 -12.222  13.634  1.00  0.00     0.037 A 
BRANCH  48  62
ATOM     62  C   UNL     1      12.249  -8.922  10.219  1.00  0.00     0.064 A 
ATOM     63  C   UNL     1      13.108  -7.890  10.630  1.00  0.00     0.173 A 
ATOM     64  C   UNL     1      12.756  -9.872   9.318  1.00  0.00     0.173 A 
ATOM     65  F   UNL     1      12.676  -6.954  11.488  1.00  0.00    -0.203 F 
ATOM     66  C   UNL     1      14.406  -7.794  10.134  1.00  0.00     0.198 A 
ATOM     67  C   UNL     1      14.066  -9.793   8.851  1.00  0.00     0.198 A 
ATOM     68  F   UNL     1      11.986 -10.888   8.901  1.00  0.00    -0.203 F 
ATOM     69  F   UNL     1      15.188  -6.770  10.502  1.00  0.00    -0.200 F 
ATOM     70  C   UNL     1      14.886  -8.749   9.251  1.00  0.00     0.200 A 
ATOM     71  F   UNL     1      14.535 -10.728   8.013  1.00  0.00    -0.200 F 
ATOM     72  F   UNL     1      16.139  -8.661   8.782  1.00  0.00    -0.200 F 
ENDBRANCH  48  62
BRANCH  49  73
ATOM     73  C   UNL     1       2.849  -9.611  13.377  1.00  0.00     0.064 A 
ATOM     74  C   UNL     1       2.537  -9.495  14.739  1.00  0.00     0.173 A 
ATOM     75  C   UNL     1       1.796  -9.868  12.487  1.00  0.00     0.173 A 
ATOM     76  F   UNL     1       3.511  -9.275  15.634  1.00  0.00    -0.203 F 
ATOM     77  C   UNL     1       1.230  -9.660  15.196  1.00  0.00     0.198 A 
ATOM     78  C   UNL     1       0.485  -9.998  12.941  1.00  0.00     0.198 A 
ATOM     79  F   UNL     1       2.040  -9.986  11.174  1.00  0.00    -0.203 F 
ATOM     80  F   UNL     1       0.970  -9.604  16.509  1.00  0.00    -0.200 F 
ATOM     81  C   UNL     1       0.205  -9.905  14.296  1.00  0.00     0.200 A 
ATOM     82  F   UNL     1      -0.505 -10.219  12.066  1.00  0.00    -0.200 F 
ATOM     83  F   UNL     1      -1.052 -10.062  14.734  1.00  0.00    -0.200 F 
ENDBRANCH  49  73
BRANCH  61  84
ATOM     84  C   UNL     1       8.552 -13.455  14.460  1.00  0.00     0.064 A 
ATOM     85  C   UNL     1       7.992 -14.699  14.131  1.00  0.00     0.173 A 
ATOM     86  C   UNL     1       9.368 -13.391  15.601  1.00  0.00     0.173 A 
ATOM     87  F   UNL     1       7.194 -14.818  13.058  1.00  0.00    -0.203 F 
ATOM     88  C   UNL     1       8.199 -15.817  14.936  1.00  0.00     0.198 A 
ATOM     89  C   UNL     1       9.604 -14.519  16.383  1.00  0.00     0.198 A 
ATOM     90  F   UNL     1       9.939 -12.231  15.961  1.00  0.00    -0.203 F 
ATOM     91  F   UNL     1       7.593 -16.976  14.639  1.00  0.00    -0.200 F 
ATOM     92  C   UNL     1       9.008 -15.728  16.058  1.00  0.00     0.200 A 
ATOM     93  F   UNL     1      10.400 -14.434  17.458  1.00  0.00    -0.200 F 
ATOM     94  F   UNL     1       9.203 -16.803  16.834  1.00  0.00    -0.200 F 
ENDBRANCH  61  84
ENDBRANCH  35  36
ENDBRANCH  27  30
ENDBRANCH  25  26
ENDBRANCH  24  25
ENDBRANCH   1  24
TORSDOF 14
