REMARK SMILES CCn1cc(S(=O)(=O)N2CCC(CCc3ccc(C(=O)NCCCNC(=O)c4ccc(-c5c6nc(c(-c7c(F)c(F)c(F)c(F)c7F)c7ccc([nH]7)c(-c7c(F)c(F)c(F)c(F)c7F)c7nc(c(-c8c(F)c(F)c(F)c(F)c8F)c8ccc5[nH]8)C=C7)C=C6)cc4)cc3)CC2)cn1
REMARK SMILES IDX 19 1 20 2 21 3 18 5 15 6 16 7 92 8 17 9 91 10 14 11 13 12
REMARK SMILES IDX 12 13 9 14 10 15 94 16 11 17 93 18 6 19 7 20 8 21 5 22 3 23
REMARK SMILES IDX 4 24 96 25 95 26 2 27 1 28 22 29 23 30 24 31 25 32 26 33
REMARK SMILES IDX 27 35 28 36 29 37 90 38 30 39 89 40 31 41 32 42 33 43 83 44
REMARK SMILES IDX 34 45 88 46 82 47 84 48 35 49 87 50 81 51 80 52 36 54 68 55
REMARK SMILES IDX 48 56 67 57 49 58 52 59 66 60 85 61 50 62 51 63 65 65 86 66
REMARK SMILES IDX 53 67 37 68 38 69 46 70 39 71 40 72 44 73 47 74 41 75 42 76
REMARK SMILES IDX 45 77 43 78 69 79 70 80 78 81 71 82 72 83 76 84 79 85 73 86
REMARK SMILES IDX 74 87 77 88 75 89 54 90 55 91 63 92 56 93 57 94 61 95 64 96
REMARK SMILES IDX 58 97 59 98 62 99 60 100
REMARK H PARENT 21 4 25 34 84 53 52 64
REMARK Flexibility Score: inf
ROOT
ATOM      1  C   UNL     1      -0.744   6.901   1.654  1.00  0.00     0.251 C 
ATOM      2  O   UNL     1      -0.763   7.742   2.554  1.00  0.00    -0.269 OA
ATOM      3  N   UNL     1      -1.066   5.611   2.003  1.00  0.00    -0.352 N 
ATOM      4  H   UNL     1      -1.337   5.519   2.945  1.00  0.00     0.163 HD
ENDROOT
BRANCH   1   5
ATOM      5  C   UNL     1      -0.407   7.331   0.265  1.00  0.00     0.039 A 
ATOM      6  C   UNL     1       0.231   8.253  -2.341  1.00  0.00    -0.048 A 
ATOM      7  C   UNL     1       0.017   9.162  -1.302  1.00  0.00     0.004 A 
ATOM      8  C   UNL     1      -0.006   6.911  -2.077  1.00  0.00     0.004 A 
ATOM      9  C   UNL     1      -0.334   8.705  -0.019  1.00  0.00     0.014 A 
ATOM     10  C   UNL     1      -0.181   6.453  -0.782  1.00  0.00     0.014 A 
BRANCH   6  11
ATOM     11  C   UNL     1       0.750   8.661  -3.701  1.00  0.00     0.036 C 
BRANCH  11  12
ATOM     12  C   UNL     1       2.129   8.036  -4.071  1.00  0.00     0.008 C 
BRANCH  12  13
ATOM     13  C   UNL     1       2.172   6.499  -4.245  1.00  0.00    -0.008 C 
ATOM     14  N   UNL     1       2.494   3.878  -5.452  1.00  0.00    -0.198 NA
ATOM     15  C   UNL     1       1.145   4.474  -5.336  1.00  0.00     0.103 C 
ATOM     16  C   UNL     1       3.515   4.397  -4.510  1.00  0.00     0.103 C 
ATOM     17  C   UNL     1       1.215   5.996  -5.333  1.00  0.00     0.020 C 
ATOM     18  C   UNL     1       3.566   5.933  -4.538  1.00  0.00     0.020 C 
BRANCH  14  19
ATOM     19  S   UNL     1       2.519   2.192  -5.730  1.00  0.00     0.246 S 
ATOM     20  O   UNL     1       3.886   1.748  -5.790  1.00  0.00    -0.207 OA
ATOM     21  O   UNL     1       1.567   1.899  -6.789  1.00  0.00    -0.207 OA
BRANCH  19  22
ATOM     22  C   UNL     1       1.873   1.335  -4.391  1.00  0.00     0.120 A 
ATOM     23  N   UNL     1       1.033   0.673  -2.487  1.00  0.00    -0.272 N 
ATOM     24  C   UNL     1       1.474   1.785  -3.151  1.00  0.00     0.130 A 
ATOM     25  N   UNL     1       1.106  -0.453  -3.215  1.00  0.00    -0.180 NA
ATOM     26  C   UNL     1       1.636  -0.049  -4.374  1.00  0.00     0.156 A 
BRANCH  23  27
ATOM     27  C   UNL     1       0.516   0.625  -1.136  1.00  0.00     0.141 C 
ATOM     28  C   UNL     1       1.290  -0.311  -0.228  1.00  0.00     0.029 C 
ENDBRANCH  23  27
ENDBRANCH  19  22
ENDBRANCH  14  19
ENDBRANCH  12  13
ENDBRANCH  11  12
ENDBRANCH   6  11
ENDBRANCH   1   5
BRANCH   3  29
ATOM     29  C   UNL     1      -1.090   4.357   1.274  1.00  0.00     0.118 C 
BRANCH  29  30
ATOM     30  C   UNL     1       0.301   3.709   1.260  1.00  0.00     0.042 C 
BRANCH  30  31
ATOM     31  C   UNL     1       0.398   2.606   2.296  1.00  0.00     0.118 C 
BRANCH  31  32
ATOM     32  N   UNL     1      -0.560   1.512   2.063  1.00  0.00    -0.352 N 
ATOM     33  C   UNL     1      -0.818   0.400   2.849  1.00  0.00     0.251 C 
ATOM     34  H   UNL     1      -1.089   1.579   1.236  1.00  0.00     0.163 HD
ATOM     35  O   UNL     1      -1.381  -0.583   2.386  1.00  0.00    -0.269 OA
BRANCH  33  36
ATOM     36  C   UNL     1      -0.406   0.443   4.257  1.00  0.00     0.039 A 
ATOM     37  C   UNL     1       0.187  -0.636   4.917  1.00  0.00     0.014 A 
ATOM     38  C   UNL     1      -0.555   1.671   4.883  1.00  0.00     0.014 A 
ATOM     39  C   UNL     1       0.703  -0.424   6.194  1.00  0.00     0.010 A 
ATOM     40  C   UNL     1       0.199   1.942   5.981  1.00  0.00     0.010 A 
ATOM     41  C   UNL     1       0.720   0.882   6.705  1.00  0.00    -0.014 A 
BRANCH  41  42
ATOM     42  C   UNL     1       1.378   1.240   7.953  1.00  0.00     0.031 A 
ATOM     43  C   UNL     1       2.821   0.890   7.974  1.00  0.00     0.074 A 
ATOM     44  C   UNL     1       0.775   2.061   8.847  1.00  0.00     0.049 A 
ATOM     45  N   UNL     1       3.410   0.036   8.742  1.00  0.00    -0.248 NA
ATOM     46  C   UNL     1       3.688   1.415   6.901  1.00  0.00     0.031 C 
ATOM     47  C   UNL     1      -0.542   2.708   8.734  1.00  0.00     0.029 A 
ATOM     48  N   UNL     1       1.263   2.608   9.995  1.00  0.00    -0.354 N 
ATOM     49  C   UNL     1       4.761   0.104   8.414  1.00  0.00     0.074 A 
ATOM     50  C   UNL     1       4.832   0.771   7.143  1.00  0.00     0.031 C 
ATOM     51  C   UNL     1      -0.636   3.726   9.616  1.00  0.00     0.029 A 
ATOM     52  C   UNL     1       0.529   3.697  10.474  1.00  0.00     0.049 A 
ATOM     53  H   UNL     1       2.066   2.265  10.449  1.00  0.00     0.167 HD
ATOM     54  C   UNL     1       5.707  -0.106   9.371  1.00  0.00     0.037 A 
ATOM     55  C   UNL     1       0.890   4.531  11.485  1.00  0.00     0.037 A 
ATOM     56  C   UNL     1       5.126  -0.773  10.513  1.00  0.00     0.049 A 
ATOM     57  C   UNL     1       1.941   3.830  12.266  1.00  0.00     0.074 A 
ATOM     58  C   UNL     1       4.463  -1.970  10.708  1.00  0.00     0.029 A 
ATOM     59  N   UNL     1       4.825   0.002  11.606  1.00  0.00    -0.354 N 
ATOM     60  N   UNL     1       1.721   2.749  12.962  1.00  0.00    -0.248 NA
ATOM     61  C   UNL     1       3.320   4.047  11.861  1.00  0.00     0.031 C 
ATOM     62  C   UNL     1       3.431  -1.673  11.647  1.00  0.00     0.029 A 
ATOM     63  C   UNL     1       3.577  -0.346  12.051  1.00  0.00     0.049 A 
ATOM     64  H   UNL     1       5.407   0.690  12.003  1.00  0.00     0.167 HD
ATOM     65  C   UNL     1       2.813   1.936  12.693  1.00  0.00     0.074 A 
ATOM     66  C   UNL     1       3.797   2.817  12.066  1.00  0.00     0.031 C 
ATOM     67  C   UNL     1       2.690   0.576  12.722  1.00  0.00     0.037 A 
BRANCH  54  68
ATOM     68  C   UNL     1       7.005   0.669   9.476  1.00  0.00     0.064 A 
ATOM     69  C   UNL     1       7.912   0.323  10.499  1.00  0.00     0.173 A 
ATOM     70  C   UNL     1       7.254   1.910   8.847  1.00  0.00     0.173 A 
ATOM     71  F   UNL     1       7.774  -0.829  11.173  1.00  0.00    -0.203 F 
ATOM     72  C   UNL     1       8.915   1.196  10.927  1.00  0.00     0.198 A 
ATOM     73  C   UNL     1       8.290   2.755   9.243  1.00  0.00     0.198 A 
ATOM     74  F   UNL     1       6.454   2.418   7.905  1.00  0.00    -0.203 F 
ATOM     75  F   UNL     1       9.657   0.881  11.998  1.00  0.00    -0.200 F 
ATOM     76  C   UNL     1       9.097   2.417  10.306  1.00  0.00     0.200 A 
ATOM     77  F   UNL     1       8.436   3.942   8.636  1.00  0.00    -0.200 F 
ATOM     78  F   UNL     1      10.010   3.285  10.758  1.00  0.00    -0.200 F 
ENDBRANCH  54  68
BRANCH  55  79
ATOM     79  C   UNL     1       0.654   5.992  11.618  1.00  0.00     0.064 A 
ATOM     80  C   UNL     1       0.865   6.651  12.843  1.00  0.00     0.173 A 
ATOM     81  C   UNL     1       0.510   6.817  10.486  1.00  0.00     0.173 A 
ATOM     82  F   UNL     1       1.058   5.941  13.964  1.00  0.00    -0.203 F 
ATOM     83  C   UNL     1       0.960   8.045  12.923  1.00  0.00     0.198 A 
ATOM     84  C   UNL     1       0.600   8.209  10.568  1.00  0.00     0.198 A 
ATOM     85  F   UNL     1       0.381   6.286   9.262  1.00  0.00    -0.203 F 
ATOM     86  F   UNL     1       1.230   8.632  14.098  1.00  0.00    -0.200 F 
ATOM     87  C   UNL     1       0.840   8.822  11.783  1.00  0.00     0.200 A 
ATOM     88  F   UNL     1       0.522   8.946   9.451  1.00  0.00    -0.200 F 
ATOM     89  F   UNL     1       0.999  10.152  11.848  1.00  0.00    -0.200 F 
ENDBRANCH  55  79
BRANCH  67  90
ATOM     90  C   UNL     1       1.441  -0.004  13.329  1.00  0.00     0.064 A 
ATOM     91  C   UNL     1       0.140   0.194  12.832  1.00  0.00     0.173 A 
ATOM     92  C   UNL     1       1.591  -0.908  14.389  1.00  0.00     0.173 A 
ATOM     93  F   UNL     1      -0.082   0.963  11.759  1.00  0.00    -0.203 F 
ATOM     94  C   UNL     1      -0.959  -0.449  13.403  1.00  0.00     0.198 A 
ATOM     95  C   UNL     1       0.499  -1.578  14.931  1.00  0.00     0.198 A 
ATOM     96  F   UNL     1       2.814  -1.178  14.870  1.00  0.00    -0.203 F 
ATOM     97  F   UNL     1      -2.192  -0.231  12.922  1.00  0.00    -0.200 F 
ATOM     98  C   UNL     1      -0.777  -1.339  14.448  1.00  0.00     0.200 A 
ATOM     99  F   UNL     1       0.690  -2.475  15.908  1.00  0.00    -0.200 F 
ATOM    100  F   UNL     1      -1.826  -1.986  14.974  1.00  0.00    -0.200 F 
ENDBRANCH  67  90
ENDBRANCH  41  42
ENDBRANCH  33  36
ENDBRANCH  31  32
ENDBRANCH  30  31
ENDBRANCH  29  30
ENDBRANCH   3  29
TORSDOF 16
