REMARK SMILES Cc1n[nH]c(CCC(=O)NCCCNC(=O)c2ccc(-c3c4nc(c(-c5c(F)c(F)c(F)c(F)c5F)c5ccc([nH]5)c(-c5c(F)c(F)c(F)c(F)c5F)c5nc(c(-c6c(F)c(F)c(F)c(F)c6F)c6ccc3[nH]6)C=C5)C=C4)cc2)c1C
REMARK SMILES IDX 12 1 11 2 10 3 8 4 9 5 7 7 6 8 5 9 1 10 2 11 3 12 80 13 4 14
REMARK SMILES IDX 81 15 13 17 14 18 15 19 16 21 17 22 18 23 79 24 19 25 78 26
REMARK SMILES IDX 20 27 21 28 22 29 72 30 23 31 77 32 71 33 73 34 24 35 76 36
REMARK SMILES IDX 70 37 69 38 25 40 57 41 37 42 56 43 38 44 41 45 55 46 74 47
REMARK SMILES IDX 39 48 40 49 54 51 75 52 42 53 26 54 27 55 35 56 28 57 29 58
REMARK SMILES IDX 33 59 36 60 30 61 31 62 34 63 32 64 58 65 59 66 67 67 60 68
REMARK SMILES IDX 61 69 65 70 68 71 62 72 63 73 66 74 64 75 43 76 44 77 52 78
REMARK SMILES IDX 45 79 46 80 50 81 53 82 47 83 48 84 51 85 49 86
REMARK H PARENT 10 6 4 16 14 20 73 39 41 50
REMARK Flexibility Score: inf
ROOT
ATOM      1  C   UNL     1      -1.065   1.444   0.303  1.00  0.00     0.042 C 
ENDROOT
BRANCH   1   2
ATOM      2  C   UNL     1      -1.705   2.820   0.430  1.00  0.00     0.117 C 
BRANCH   2   3
ATOM      3  N   UNL     1      -0.741   3.891   0.653  1.00  0.00    -0.356 N 
ATOM      4  C   UNL     1      -0.232   4.827  -0.197  1.00  0.00     0.220 C 
ATOM      5  O   UNL     1       0.585   5.633   0.253  1.00  0.00    -0.275 OA
ATOM      6  H   UNL     1      -0.399   3.948   1.574  1.00  0.00     0.163 HD
BRANCH   4   7
ATOM      7  C   UNL     1      -0.666   4.889  -1.647  1.00  0.00     0.106 C 
BRANCH   7   8
ATOM      8  C   UNL     1       0.464   4.525  -2.612  1.00  0.00     0.066 C 
BRANCH   8   9
ATOM      9  C   UNL     1       0.751   3.060  -2.638  1.00  0.00     0.039 A 
ATOM     10  C   UNL     1       1.853  -0.321  -1.732  1.00  0.00     0.069 C 
ATOM     11  C   UNL     1       1.337   0.944  -2.316  1.00  0.00     0.062 A 
ATOM     12  N   UNL     1       0.349   0.907  -3.218  1.00  0.00    -0.181 NA
ATOM     13  C   UNL     1       1.664   2.282  -1.946  1.00  0.00    -0.007 A 
ATOM     14  N   UNL     1       0.043   2.194  -3.426  1.00  0.00    -0.282 N 
ATOM     15  C   UNL     1       2.680   2.726  -0.960  1.00  0.00     0.048 C 
ATOM     16  H   UNL     1      -0.627   2.489  -4.083  1.00  0.00     0.190 HD
ENDBRANCH   8   9
ENDBRANCH   7   8
ENDBRANCH   4   7
ENDBRANCH   2   3
ENDBRANCH   1   2
BRANCH   1  17
ATOM     17  C   UNL     1      -0.288   1.014   1.528  1.00  0.00     0.118 C 
BRANCH  17  18
ATOM     18  N   UNL     1      -0.719  -0.263   2.088  1.00  0.00    -0.352 N 
ATOM     19  C   UNL     1      -0.003  -1.258   2.711  1.00  0.00     0.251 C 
ATOM     20  H   UNL     1      -1.684  -0.442   2.005  1.00  0.00     0.163 HD
ATOM     21  O   UNL     1      -0.573  -2.325   2.983  1.00  0.00    -0.269 OA
BRANCH  19  22
ATOM     22  C   UNL     1       1.424  -1.091   3.069  1.00  0.00     0.039 A 
ATOM     23  C   UNL     1       2.211  -2.192   3.436  1.00  0.00     0.014 A 
ATOM     24  C   UNL     1       1.999   0.176   3.082  1.00  0.00     0.014 A 
ATOM     25  C   UNL     1       3.517  -1.977   3.876  1.00  0.00     0.010 A 
ATOM     26  C   UNL     1       3.341   0.345   3.223  1.00  0.00     0.010 A 
ATOM     27  C   UNL     1       4.045  -0.683   3.805  1.00  0.00    -0.014 A 
BRANCH  27  28
ATOM     28  C   UNL     1       5.357  -0.320   4.301  1.00  0.00     0.031 A 
ATOM     29  C   UNL     1       6.455  -0.974   3.570  1.00  0.00     0.074 A 
ATOM     30  C   UNL     1       5.546   0.714   5.155  1.00  0.00     0.049 A 
ATOM     31  N   UNL     1       7.259  -1.872   4.024  1.00  0.00    -0.248 NA
ATOM     32  C   UNL     1       6.567  -0.736   2.123  1.00  0.00     0.031 C 
ATOM     33  C   UNL     1       4.555   1.663   5.683  1.00  0.00     0.029 A 
ATOM     34  N   UNL     1       6.711   1.207   5.652  1.00  0.00    -0.354 N 
ATOM     35  C   UNL     1       8.123  -2.158   2.978  1.00  0.00     0.074 A 
ATOM     36  C   UNL     1       7.519  -1.610   1.792  1.00  0.00     0.031 C 
ATOM     37  C   UNL     1       5.187   2.725   6.231  1.00  0.00     0.029 A 
ATOM     38  C   UNL     1       6.615   2.471   6.228  1.00  0.00     0.049 A 
ATOM     39  H   UNL     1       7.559   0.708   5.608  1.00  0.00     0.167 HD
ATOM     40  C   UNL     1       9.393  -2.571   3.235  1.00  0.00     0.037 A 
ATOM     41  C   UNL     1       7.651   3.254   6.626  1.00  0.00     0.037 A 
ATOM     42  C   UNL     1       9.525  -2.997   4.610  1.00  0.00     0.049 A 
ATOM     43  C   UNL     1       8.835   2.366   6.774  1.00  0.00     0.074 A 
ATOM     44  C   UNL     1       8.898  -3.952   5.389  1.00  0.00     0.029 A 
ATOM     45  N   UNL     1      10.120  -2.130   5.496  1.00  0.00    -0.354 N 
ATOM     46  N   UNL     1       8.942   1.454   7.700  1.00  0.00    -0.248 NA
ATOM     47  C   UNL     1       9.677   2.169   5.604  1.00  0.00     0.031 C 
ATOM     48  C   UNL     1       8.734  -3.339   6.667  1.00  0.00     0.029 A 
ATOM     49  C   UNL     1       9.341  -2.084   6.625  1.00  0.00     0.049 A 
ATOM     50  H   UNL     1      10.955  -1.631   5.347  1.00  0.00     0.167 HD
ATOM     51  C   UNL     1       9.495   0.361   7.050  1.00  0.00     0.074 A 
ATOM     52  C   UNL     1      10.007   0.887   5.786  1.00  0.00     0.031 C 
ATOM     53  C   UNL     1       9.213  -0.912   7.458  1.00  0.00     0.037 A 
BRANCH  40  54
ATOM     54  C   UNL     1      10.588  -2.217   2.384  1.00  0.00     0.064 A 
ATOM     55  C   UNL     1      11.830  -2.802   2.696  1.00  0.00     0.173 A 
ATOM     56  C   UNL     1      10.638  -1.126   1.488  1.00  0.00     0.173 A 
ATOM     57  F   UNL     1      11.903  -3.839   3.545  1.00  0.00    -0.203 F 
ATOM     58  C   UNL     1      13.033  -2.273   2.225  1.00  0.00     0.198 A 
ATOM     59  C   UNL     1      11.837  -0.638   0.974  1.00  0.00     0.198 A 
ATOM     60  F   UNL     1       9.557  -0.412   1.159  1.00  0.00    -0.203 F 
ATOM     61  F   UNL     1      14.195  -2.777   2.662  1.00  0.00    -0.200 F 
ATOM     62  C   UNL     1      13.036  -1.186   1.371  1.00  0.00     0.200 A 
ATOM     63  F   UNL     1      11.817   0.427   0.160  1.00  0.00    -0.200 F 
ATOM     64  F   UNL     1      14.189  -0.636   0.972  1.00  0.00    -0.200 F 
ENDBRANCH  40  54
BRANCH  41  65
ATOM     65  C   UNL     1       7.778   4.734   6.587  1.00  0.00     0.064 A 
ATOM     66  C   UNL     1       8.835   5.388   7.247  1.00  0.00     0.173 A 
ATOM     67  C   UNL     1       7.048   5.511   5.666  1.00  0.00     0.173 A 
ATOM     68  F   UNL     1       9.607   4.717   8.114  1.00  0.00    -0.203 F 
ATOM     69  C   UNL     1       9.167   6.720   6.970  1.00  0.00     0.198 A 
ATOM     70  C   UNL     1       7.376   6.842   5.396  1.00  0.00     0.198 A 
ATOM     71  F   UNL     1       6.065   4.969   4.935  1.00  0.00    -0.203 F 
ATOM     72  F   UNL     1      10.227   7.284   7.566  1.00  0.00    -0.200 F 
ATOM     73  C   UNL     1       8.445   7.441   6.034  1.00  0.00     0.200 A 
ATOM     74  F   UNL     1       6.690   7.518   4.463  1.00  0.00    -0.200 F 
ATOM     75  F   UNL     1       8.805   8.693   5.716  1.00  0.00    -0.200 F 
ENDBRANCH  41  65
BRANCH  53  76
ATOM     76  C   UNL     1       8.518  -1.083   8.782  1.00  0.00     0.064 A 
ATOM     77  C   UNL     1       7.242  -0.571   9.083  1.00  0.00     0.173 A 
ATOM     78  C   UNL     1       9.120  -1.903   9.745  1.00  0.00     0.173 A 
ATOM     79  F   UNL     1       6.548   0.132   8.181  1.00  0.00    -0.203 F 
ATOM     80  C   UNL     1       6.631  -0.819  10.312  1.00  0.00     0.198 A 
ATOM     81  C   UNL     1       8.491  -2.183  10.955  1.00  0.00     0.198 A 
ATOM     82  F   UNL     1      10.311  -2.469   9.494  1.00  0.00    -0.203 F 
ATOM     83  F   UNL     1       5.425  -0.297  10.581  1.00  0.00    -0.200 F 
ATOM     84  C   UNL     1       7.255  -1.629  11.244  1.00  0.00     0.200 A 
ATOM     85  F   UNL     1       9.076  -3.010  11.832  1.00  0.00    -0.200 F 
ATOM     86  F   UNL     1       6.654  -1.897  12.413  1.00  0.00    -0.200 F 
ENDBRANCH  53  76
ENDBRANCH  27  28
ENDBRANCH  19  22
ENDBRANCH  17  18
ENDBRANCH   1  17
TORSDOF 12
