REMARK SMILES C[C@@H]1Cc2ccccc2N1c1ccc(F)cc1C(=O)NCCCNC(=O)c1ccc(-c2c3nc(c(-c4c(F)c(F)c(F)c(F)c4F)c4ccc([nH]4)c(-c4c(F)c(F)c(F)c(F)c4F)c4nc(c(-c5c(F)c(F)c(F)c(F)c5F)c5ccc2[nH]5)C=C4)C=C3)cc1
REMARK SMILES IDX 22 1 21 2 20 3 18 4 19 5 17 7 11 8 12 9 13 10 16 11 14 12
REMARK SMILES IDX 15 13 10 14 1 15 2 16 3 17 4 18 9 19 5 20 8 21 6 22 7 23
REMARK SMILES IDX 23 24 24 25 25 26 26 28 27 29 28 30 89 31 29 32 88 33 30 34
REMARK SMILES IDX 31 35 32 36 82 37 33 38 87 39 81 40 83 41 34 42 86 43 80 44
REMARK SMILES IDX 79 45 35 47 67 48 47 49 66 50 48 51 51 52 65 53 84 54 49 55
REMARK SMILES IDX 50 56 64 58 85 59 52 60 36 61 37 62 45 63 38 64 39 65 43 66
REMARK SMILES IDX 46 67 40 68 41 69 44 70 42 71 68 72 69 73 77 74 70 75 71 76
REMARK SMILES IDX 75 77 78 78 72 79 73 80 76 81 74 82 53 83 54 84 62 85 55 86
REMARK SMILES IDX 56 87 60 88 63 89 57 90 58 91 61 92 59 93
REMARK H PARENT 20 6 24 27 83 46 51 57
REMARK Flexibility Score: inf
ROOT
ATOM      1  C   UNL     1      -1.085  -0.272   4.981  1.00  0.00     0.042 C 
ENDROOT
BRANCH   1   2
ATOM      2  C   UNL     1      -0.684   0.637   3.826  1.00  0.00     0.118 C 
BRANCH   2   3
ATOM      3  N   UNL     1      -1.784   1.147   3.041  1.00  0.00    -0.352 N 
ATOM      4  C   UNL     1      -1.802   2.043   2.006  1.00  0.00     0.253 C 
ATOM      5  O   UNL     1      -2.875   2.161   1.406  1.00  0.00    -0.269 OA
ATOM      6  H   UNL     1      -2.667   0.792   3.292  1.00  0.00     0.163 HD
BRANCH   4   7
ATOM      7  C   UNL     1      -0.683   2.947   1.616  1.00  0.00     0.066 A 
ATOM      8  C   UNL     1       0.674   2.620   1.387  1.00  0.00     0.054 A 
ATOM      9  C   UNL     1       1.530   3.638   0.903  1.00  0.00     0.030 A 
ATOM     10  C   UNL     1       1.080   4.939   0.679  1.00  0.00     0.041 A 
ATOM     11  C   UNL     1      -1.121   4.269   1.380  1.00  0.00     0.055 A 
ATOM     12  C   UNL     1      -0.244   5.244   0.930  1.00  0.00     0.124 A 
ATOM     13  F   UNL     1      -0.685   6.493   0.735  1.00  0.00    -0.207 F 
BRANCH   8  14
ATOM     14  N   UNL     1       1.246   1.387   1.676  1.00  0.00    -0.337 N 
ATOM     15  C   UNL     1       0.041  -0.153   0.094  1.00  0.00     0.032 C 
ATOM     16  C   UNL     1       1.372   0.274   0.702  1.00  0.00     0.089 C 
ATOM     17  C   UNL     1       2.030  -0.909   1.477  1.00  0.00     0.063 C 
ATOM     18  C   UNL     1       2.656  -0.207   2.637  1.00  0.00    -0.022 A 
ATOM     19  C   UNL     1       2.222   1.118   2.672  1.00  0.00     0.045 A 
ATOM     20  C   UNL     1       3.447  -0.733   3.647  1.00  0.00     0.006 A 
ATOM     21  C   UNL     1       2.631   1.967   3.691  1.00  0.00     0.026 A 
ATOM     22  C   UNL     1       3.839   0.112   4.689  1.00  0.00     0.000 A 
ATOM     23  C   UNL     1       3.447   1.458   4.703  1.00  0.00     0.002 A 
ENDBRANCH   8  14
ENDBRANCH   4   7
ENDBRANCH   2   3
ENDBRANCH   1   2
BRANCH   1  24
ATOM     24  C   UNL     1      -1.897  -1.488   4.532  1.00  0.00     0.118 C 
BRANCH  24  25
ATOM     25  N   UNL     1      -1.158  -2.471   3.747  1.00  0.00    -0.352 N 
ATOM     26  C   UNL     1      -0.302  -3.504   4.040  1.00  0.00     0.251 C 
ATOM     27  H   UNL     1      -1.307  -2.369   2.779  1.00  0.00     0.163 HD
ATOM     28  O   UNL     1       0.176  -4.134   3.094  1.00  0.00    -0.269 OA
BRANCH  26  29
ATOM     29  C   UNL     1       0.131  -3.853   5.420  1.00  0.00     0.039 A 
ATOM     30  C   UNL     1      -0.611  -3.552   6.553  1.00  0.00     0.014 A 
ATOM     31  C   UNL     1       1.353  -4.526   5.590  1.00  0.00     0.014 A 
ATOM     32  C   UNL     1      -0.058  -3.700   7.821  1.00  0.00     0.010 A 
ATOM     33  C   UNL     1       1.855  -4.797   6.872  1.00  0.00     0.010 A 
ATOM     34  C   UNL     1       1.187  -4.319   8.005  1.00  0.00    -0.014 A 
BRANCH  34  35
ATOM     35  C   UNL     1       1.749  -4.391   9.384  1.00  0.00     0.031 A 
ATOM     36  C   UNL     1       3.055  -3.715   9.719  1.00  0.00     0.074 A 
ATOM     37  C   UNL     1       1.014  -4.945  10.371  1.00  0.00     0.049 A 
ATOM     38  N   UNL     1       3.644  -3.592  10.883  1.00  0.00    -0.248 NA
ATOM     39  C   UNL     1       3.804  -3.106   8.609  1.00  0.00     0.031 C 
ATOM     40  C   UNL     1      -0.270  -5.624  10.183  1.00  0.00     0.029 A 
ATOM     41  N   UNL     1       1.199  -4.965  11.732  1.00  0.00    -0.354 N 
ATOM     42  C   UNL     1       4.838  -2.925  10.639  1.00  0.00     0.074 A 
ATOM     43  C   UNL     1       4.908  -2.692   9.214  1.00  0.00     0.031 C 
ATOM     44  C   UNL     1      -0.811  -5.884  11.381  1.00  0.00     0.029 A 
ATOM     45  C   UNL     1       0.123  -5.471  12.424  1.00  0.00     0.049 A 
ATOM     46  H   UNL     1       2.022  -4.648  12.170  1.00  0.00     0.167 HD
ATOM     47  C   UNL     1       5.784  -2.528  11.523  1.00  0.00     0.037 A 
ATOM     48  C   UNL     1      -0.093  -5.589  13.748  1.00  0.00     0.037 A 
ATOM     49  C   UNL     1       5.695  -2.712  12.947  1.00  0.00     0.049 A 
ATOM     50  C   UNL     1       0.976  -5.149  14.706  1.00  0.00     0.074 A 
ATOM     51  C   UNL     1       6.601  -2.335  13.924  1.00  0.00     0.029 A 
ATOM     52  N   UNL     1       4.627  -3.308  13.601  1.00  0.00    -0.354 N 
ATOM     53  N   UNL     1       2.114  -4.551  14.453  1.00  0.00    -0.248 NA
ATOM     54  C   UNL     1       0.743  -5.426  16.130  1.00  0.00     0.031 C 
ATOM     55  C   UNL     1       6.096  -2.732  15.166  1.00  0.00     0.029 A 
ATOM     56  C   UNL     1       4.859  -3.321  14.967  1.00  0.00     0.049 A 
ATOM     57  H   UNL     1       3.824  -3.668  13.160  1.00  0.00     0.167 HD
ATOM     58  C   UNL     1       2.737  -4.387  15.681  1.00  0.00     0.074 A 
ATOM     59  C   UNL     1       1.836  -4.917  16.684  1.00  0.00     0.031 C 
ATOM     60  C   UNL     1       3.955  -3.858  15.950  1.00  0.00     0.037 A 
BRANCH  47  61
ATOM     61  C   UNL     1       7.011  -1.857  10.979  1.00  0.00     0.064 A 
ATOM     62  C   UNL     1       6.979  -0.540  10.498  1.00  0.00     0.173 A 
ATOM     63  C   UNL     1       8.248  -2.520  10.995  1.00  0.00     0.173 A 
ATOM     64  F   UNL     1       5.818   0.131  10.446  1.00  0.00    -0.203 F 
ATOM     65  C   UNL     1       8.137   0.083  10.039  1.00  0.00     0.198 A 
ATOM     66  C   UNL     1       9.408  -1.885  10.560  1.00  0.00     0.198 A 
ATOM     67  F   UNL     1       8.334  -3.779  11.450  1.00  0.00    -0.203 F 
ATOM     68  F   UNL     1       8.075   1.329   9.550  1.00  0.00    -0.200 F 
ATOM     69  C   UNL     1       9.351  -0.586  10.079  1.00  0.00     0.200 A 
ATOM     70  F   UNL     1      10.582  -2.529  10.609  1.00  0.00    -0.200 F 
ATOM     71  F   UNL     1      10.466   0.020   9.648  1.00  0.00    -0.200 F 
ENDBRANCH  47  61
BRANCH  48  72
ATOM     72  C   UNL     1      -1.380  -6.148  14.238  1.00  0.00     0.064 A 
ATOM     73  C   UNL     1      -2.309  -5.339  14.907  1.00  0.00     0.173 A 
ATOM     74  C   UNL     1      -1.723  -7.491  14.021  1.00  0.00     0.173 A 
ATOM     75  F   UNL     1      -2.018  -4.054  15.160  1.00  0.00    -0.203 F 
ATOM     76  C   UNL     1      -3.533  -5.851  15.335  1.00  0.00     0.198 A 
ATOM     77  C   UNL     1      -2.958  -7.994  14.423  1.00  0.00     0.198 A 
ATOM     78  F   UNL     1      -0.868  -8.307  13.387  1.00  0.00    -0.203 F 
ATOM     79  F   UNL     1      -4.393  -5.062  15.994  1.00  0.00    -0.200 F 
ATOM     80  C   UNL     1      -3.861  -7.175  15.083  1.00  0.00     0.200 A 
ATOM     81  F   UNL     1      -3.276  -9.269  14.162  1.00  0.00    -0.200 F 
ATOM     82  F   UNL     1      -5.045  -7.661  15.477  1.00  0.00    -0.200 F 
ENDBRANCH  48  72
BRANCH  60  83
ATOM     83  C   UNL     1       4.391  -3.831  17.383  1.00  0.00     0.064 A 
ATOM     84  C   UNL     1       4.819  -4.998  18.033  1.00  0.00     0.173 A 
ATOM     85  C   UNL     1       4.443  -2.623  18.092  1.00  0.00     0.173 A 
ATOM     86  F   UNL     1       4.774  -6.179  17.399  1.00  0.00    -0.203 F 
ATOM     87  C   UNL     1       5.271  -4.957  19.349  1.00  0.00     0.198 A 
ATOM     88  C   UNL     1       4.918  -2.582  19.400  1.00  0.00     0.198 A 
ATOM     89  F   UNL     1       4.051  -1.480  17.510  1.00  0.00    -0.203 F 
ATOM     90  F   UNL     1       5.646  -6.088  19.962  1.00  0.00    -0.200 F 
ATOM     91  C   UNL     1       5.328  -3.749  20.028  1.00  0.00     0.200 A 
ATOM     92  F   UNL     1       4.983  -1.413  20.052  1.00  0.00    -0.200 F 
ATOM     93  F   UNL     1       5.774  -3.709  21.291  1.00  0.00    -0.200 F 
ENDBRANCH  60  83
ENDBRANCH  34  35
ENDBRANCH  26  29
ENDBRANCH  24  25
ENDBRANCH   1  24
TORSDOF 11
