REMARK SMILES O=C(NCCCNC(=O)[C@@H]1CCCCC[C@H]1NC(=O)c1cc(Cl)ccc1F)c1ccc(-c2c3nc(c(-c4c(F)c(F)c(F)c(F)c4F)c4ccc([nH]4)c(-c4c(F)c(F)c(F)c(F)c4F)c4nc(c(-c5c(F)c(F)c(F)c(F)c5F)c5ccc2[nH]5)C=C4)C=C3)cc1
REMARK SMILES IDX 6 1 5 2 4 3 3 4 1 5 2 6 28 8 29 9 90 10 30 11 89 12 31 13
REMARK SMILES IDX 32 14 33 15 83 16 34 17 88 18 82 19 84 20 35 21 87 22 81 23
REMARK SMILES IDX 80 24 36 26 68 27 48 28 67 29 49 30 52 31 66 32 85 33 50 34
REMARK SMILES IDX 51 35 65 37 86 38 53 39 37 40 38 41 46 42 39 43 40 44 44 45
REMARK SMILES IDX 47 46 41 47 42 48 45 49 43 50 69 51 70 52 78 53 71 54 72 55
REMARK SMILES IDX 76 56 79 57 73 58 74 59 77 60 75 61 54 62 55 63 63 64 56 65
REMARK SMILES IDX 57 66 61 67 64 68 58 69 59 70 62 71 60 72 7 73 8 74 9 76
REMARK SMILES IDX 10 77 11 78 12 79 13 80 14 81 16 83 15 84 17 86 18 87 19 89
REMARK SMILES IDX 20 90 21 91 26 92 22 93 25 94 27 95 23 96 24 97
REMARK H PARENT 3 7 84 25 52 36 7 75 17 88
REMARK Flexibility Score: 90.00
ROOT
ATOM      1  C   UNL     1       3.949  -2.597  -3.050  1.00  0.00     0.117 C 
ENDROOT
BRANCH   1   2
ATOM      2  C   UNL     1       4.421  -1.992  -1.730  1.00  0.00     0.042 C 
BRANCH   2   3
ATOM      3  C   UNL     1       4.201  -0.489  -1.617  1.00  0.00     0.118 C 
BRANCH   3   4
ATOM      4  N   UNL     1       2.831  -0.155  -1.268  1.00  0.00    -0.352 N 
ATOM      5  O   UNL     1       1.052   0.301   0.015  1.00  0.00    -0.269 OA
ATOM      6  C   UNL     1       2.277   0.288  -0.091  1.00  0.00     0.251 C 
ATOM      7  H   UNL     1       2.186  -0.266  -2.004  1.00  0.00     0.163 HD
BRANCH   6   8
ATOM      8  C   UNL     1       3.107   0.731   1.057  1.00  0.00     0.039 A 
ATOM      9  C   UNL     1       4.300   1.435   0.888  1.00  0.00     0.014 A 
ATOM     10  C   UNL     1       2.628   0.509   2.355  1.00  0.00     0.014 A 
ATOM     11  C   UNL     1       5.077   1.779   1.993  1.00  0.00     0.010 A 
ATOM     12  C   UNL     1       3.359   0.947   3.467  1.00  0.00     0.010 A 
ATOM     13  C   UNL     1       4.609   1.558   3.299  1.00  0.00    -0.014 A 
BRANCH  13  14
ATOM     14  C   UNL     1       5.413   2.034   4.458  1.00  0.00     0.031 A 
ATOM     15  C   UNL     1       5.960   1.073   5.479  1.00  0.00     0.074 A 
ATOM     16  C   UNL     1       5.670   3.353   4.578  1.00  0.00     0.049 A 
ATOM     17  N   UNL     1       6.722   1.316   6.518  1.00  0.00    -0.248 NA
ATOM     18  C   UNL     1       5.599  -0.343   5.322  1.00  0.00     0.031 C 
ATOM     19  C   UNL     1       5.174   4.392   3.674  1.00  0.00     0.029 A 
ATOM     20  N   UNL     1       6.427   4.044   5.491  1.00  0.00    -0.354 N 
ATOM     21  C   UNL     1       6.913   0.093   7.147  1.00  0.00     0.074 A 
ATOM     22  C   UNL     1       6.163  -0.888   6.392  1.00  0.00     0.031 C 
ATOM     23  C   UNL     1       5.687   5.575   4.038  1.00  0.00     0.029 A 
ATOM     24  C   UNL     1       6.498   5.392   5.236  1.00  0.00     0.049 A 
ATOM     25  H   UNL     1       6.876   3.615   6.255  1.00  0.00     0.167 HD
ATOM     26  C   UNL     1       7.653  -0.187   8.249  1.00  0.00     0.037 A 
ATOM     27  C   UNL     1       7.139   6.376   5.895  1.00  0.00     0.037 A 
ATOM     28  C   UNL     1       8.414   0.788   8.989  1.00  0.00     0.049 A 
ATOM     29  C   UNL     1       7.940   6.037   7.120  1.00  0.00     0.074 A 
ATOM     30  C   UNL     1       9.239   0.589  10.084  1.00  0.00     0.029 A 
ATOM     31  N   UNL     1       8.435   2.148   8.718  1.00  0.00    -0.354 N 
ATOM     32  N   UNL     1       8.160   4.867   7.668  1.00  0.00    -0.248 NA
ATOM     33  C   UNL     1       8.580   7.159   7.819  1.00  0.00     0.031 C 
ATOM     34  C   UNL     1       9.715   1.835  10.508  1.00  0.00     0.029 A 
ATOM     35  C   UNL     1       9.235   2.804   9.643  1.00  0.00     0.049 A 
ATOM     36  H   UNL     1       7.954   2.584   7.978  1.00  0.00     0.167 HD
ATOM     37  C   UNL     1       8.985   5.106   8.758  1.00  0.00     0.074 A 
ATOM     38  C   UNL     1       9.240   6.532   8.783  1.00  0.00     0.031 C 
ATOM     39  C   UNL     1       9.486   4.223   9.656  1.00  0.00     0.037 A 
BRANCH  26  40
ATOM     40  C   UNL     1       7.663  -1.609   8.739  1.00  0.00     0.064 A 
ATOM     41  C   UNL     1       8.309  -2.633   8.031  1.00  0.00     0.173 A 
ATOM     42  C   UNL     1       7.053  -1.942   9.959  1.00  0.00     0.173 A 
ATOM     43  F   UNL     1       8.898  -2.373   6.854  1.00  0.00    -0.203 F 
ATOM     44  C   UNL     1       8.317  -3.942   8.509  1.00  0.00     0.198 A 
ATOM     45  C   UNL     1       7.090  -3.245  10.449  1.00  0.00     0.198 A 
ATOM     46  F   UNL     1       6.428  -1.000  10.682  1.00  0.00    -0.203 F 
ATOM     47  F   UNL     1       8.896  -4.913   7.789  1.00  0.00    -0.200 F 
ATOM     48  C   UNL     1       7.714  -4.245   9.720  1.00  0.00     0.200 A 
ATOM     49  F   UNL     1       6.517  -3.533  11.627  1.00  0.00    -0.200 F 
ATOM     50  F   UNL     1       7.727  -5.504  10.181  1.00  0.00    -0.200 F 
ENDBRANCH  26  40
BRANCH  27  51
ATOM     51  C   UNL     1       7.064   7.774   5.396  1.00  0.00     0.064 A 
ATOM     52  C   UNL     1       8.195   8.411   4.867  1.00  0.00     0.173 A 
ATOM     53  C   UNL     1       5.864   8.500   5.435  1.00  0.00     0.173 A 
ATOM     54  F   UNL     1       9.370   7.765   4.827  1.00  0.00    -0.203 F 
ATOM     55  C   UNL     1       8.133   9.726   4.412  1.00  0.00     0.198 A 
ATOM     56  C   UNL     1       5.796   9.804   4.951  1.00  0.00     0.198 A 
ATOM     57  F   UNL     1       4.753   7.934   5.928  1.00  0.00    -0.203 F 
ATOM     58  F   UNL     1       9.239  10.326   3.952  1.00  0.00    -0.200 F 
ATOM     59  C   UNL     1       6.932  10.419   4.447  1.00  0.00     0.200 A 
ATOM     60  F   UNL     1       4.630  10.464   4.972  1.00  0.00    -0.200 F 
ATOM     61  F   UNL     1       6.872  11.682   4.003  1.00  0.00    -0.200 F 
ENDBRANCH  27  51
BRANCH  39  62
ATOM     62  C   UNL     1      10.394   4.771  10.720  1.00  0.00     0.064 A 
ATOM     63  C   UNL     1       9.911   5.576  11.762  1.00  0.00     0.173 A 
ATOM     64  C   UNL     1      11.765   4.472  10.703  1.00  0.00     0.173 A 
ATOM     65  F   UNL     1       8.611   5.905  11.814  1.00  0.00    -0.203 F 
ATOM     66  C   UNL     1      10.772   6.090  12.729  1.00  0.00     0.198 A 
ATOM     67  C   UNL     1      12.618   4.960  11.690  1.00  0.00     0.198 A 
ATOM     68  F   UNL     1      12.278   3.702   9.732  1.00  0.00    -0.203 F 
ATOM     69  F   UNL     1      10.298   6.905  13.681  1.00  0.00    -0.200 F 
ATOM     70  C   UNL     1      12.123   5.776  12.695  1.00  0.00     0.200 A 
ATOM     71  F   UNL     1      13.920   4.645  11.663  1.00  0.00    -0.200 F 
ATOM     72  F   UNL     1      12.950   6.270  13.627  1.00  0.00    -0.200 F 
ENDBRANCH  39  62
ENDBRANCH  13  14
ENDBRANCH   6   8
ENDBRANCH   3   4
ENDBRANCH   2   3
ENDBRANCH   1   2
BRANCH   1  73
ATOM     73  N   UNL     1       4.859  -2.276  -4.133  1.00  0.00    -0.356 N 
ATOM     74  C   UNL     1       5.968  -2.867  -4.637  1.00  0.00     0.225 C 
ATOM     75  H   UNL     1       4.617  -1.447  -4.606  1.00  0.00     0.163 HD
ATOM     76  O   UNL     1       6.568  -2.200  -5.492  1.00  0.00    -0.275 OA
BRANCH  74  77
ATOM     77  C   UNL     1       6.460  -4.293  -4.334  1.00  0.00     0.101 C 
BRANCH  77  78
ATOM     78  C   UNL     1       5.895  -5.230  -5.411  1.00  0.00     0.015 C 
BRANCH  78  79
ATOM     79  C   UNL     1       6.490  -6.638  -5.374  1.00  0.00     0.001 C 
BRANCH  79  80
ATOM     80  C   UNL     1       5.692  -7.604  -4.507  1.00  0.00     0.000 C 
BRANCH  80  81
ATOM     81  C   UNL     1       5.735  -7.327  -3.010  1.00  0.00     0.002 CG0
ATOM     82  G   UNL     1       5.344  -5.908  -2.601  1.00  0.00     0.000 G0
ENDBRANCH  80  81
ENDBRANCH  79  80
ENDBRANCH  78  79
ENDBRANCH  77  78
BRANCH  77  83
ATOM     83  C   UNL     1       6.380  -4.798  -2.879  1.00  0.00     0.094 C 
BRANCH  83  84
ATOM     84  C   UNL     1       5.344  -5.908  -2.601  1.00  0.00     0.026 CG0
ATOM     85  G   UNL     1       5.735  -7.327  -3.010  1.00  0.00     0.000 G0
ENDBRANCH  83  84
BRANCH  83  86
ATOM     86  N   UNL     1       7.709  -5.216  -2.399  1.00  0.00    -0.348 N 
ATOM     87  C   UNL     1       8.490  -4.718  -1.391  1.00  0.00     0.254 C 
ATOM     88  H   UNL     1       8.099  -5.979  -2.882  1.00  0.00     0.164 HD
ATOM     89  O   UNL     1       9.630  -5.147  -1.219  1.00  0.00    -0.269 OA
BRANCH  87  90
ATOM     90  C   UNL     1       8.018  -3.620  -0.540  1.00  0.00     0.077 A 
ATOM     91  C   UNL     1       8.707  -2.404  -0.576  1.00  0.00     0.037 A 
ATOM     92  C   UNL     1       6.952  -3.796   0.340  1.00  0.00     0.136 A 
ATOM     93  C   UNL     1       8.287  -1.359   0.245  1.00  0.00     0.042 A 
ATOM     94  C   UNL     1       6.537  -2.751   1.162  1.00  0.00     0.041 A 
ATOM     95  F   UNL     1       6.294  -4.961   0.404  1.00  0.00    -0.206 F 
ATOM     96  Cl  UNL     1       9.097   0.156   0.187  1.00  0.00    -0.084 Cl
ATOM     97  C   UNL     1       7.205  -1.526   1.113  1.00  0.00     0.023 A 
ENDBRANCH  87  90
ENDBRANCH  83  86
ENDBRANCH  77  83
ENDBRANCH  74  77
ENDBRANCH   1  73
TORSDOF 12
