REMARK SMILES O=C(NCCCNC(=O)[C@@H]1C=C[C@H](NS(=O)(=O)c2ccc(Cl)cc2)C1)c1ccc(-c2c3nc(c(-c4c(F)c(F)c(F)c(F)c4F)c4ccc([nH]4)c(-c4c(F)c(F)c(F)c(F)c4F)c4nc(c(-c5c(F)c(F)c(F)c(F)c5F)c5ccc2[nH]5)C=C4)C=C3)cc1
REMARK SMILES IDX 5 1 4 2 3 3 1 4 2 5 26 7 27 8 88 9 28 10 87 11 29 12 30 13
REMARK SMILES IDX 31 14 81 15 32 16 86 17 80 18 82 19 33 20 85 21 79 22 78 23
REMARK SMILES IDX 34 25 66 26 46 27 65 28 47 29 50 30 64 31 83 32 48 33 49 34
REMARK SMILES IDX 63 36 84 37 51 38 35 39 36 40 44 41 37 42 38 43 42 44 45 45
REMARK SMILES IDX 39 46 40 47 43 48 41 49 67 50 68 51 76 52 69 53 70 54 74 55
REMARK SMILES IDX 77 56 71 57 72 58 75 59 73 60 52 61 53 62 61 63 54 64 55 65
REMARK SMILES IDX 59 66 62 67 56 68 57 69 60 70 58 71 6 72 7 73 8 74 9 76
REMARK SMILES IDX 10 77 11 78 25 79 12 80 13 81 14 82 15 84 16 85 17 86 18 87
REMARK SMILES IDX 19 88 24 89 20 90 23 91 21 92 22 93
REMARK H PARENT 3 6 82 24 50 35 7 75 14 83
REMARK Flexibility Score: inf
ROOT
ATOM      1  C   UNL     1       4.484  -3.222  -0.414  1.00  0.00     0.042 C 
ENDROOT
BRANCH   1   2
ATOM      2  C   UNL     1       5.687  -2.745   0.395  1.00  0.00     0.118 C 
BRANCH   2   3
ATOM      3  N   UNL     1       5.652  -1.329   0.730  1.00  0.00    -0.352 N 
ATOM      4  O   UNL     1       5.156   0.561   1.840  1.00  0.00    -0.269 OA
ATOM      5  C   UNL     1       5.221  -0.666   1.852  1.00  0.00     0.251 C 
ATOM      6  H   UNL     1       6.000  -0.740   0.022  1.00  0.00     0.163 HD
BRANCH   5   7
ATOM      7  C   UNL     1       4.793  -1.401   3.063  1.00  0.00     0.039 A 
ATOM      8  C   UNL     1       5.511  -2.491   3.548  1.00  0.00     0.014 A 
ATOM      9  C   UNL     1       3.663  -0.955   3.759  1.00  0.00     0.014 A 
ATOM     10  C   UNL     1       5.003  -3.245   4.602  1.00  0.00     0.010 A 
ATOM     11  C   UNL     1       3.207  -1.655   4.882  1.00  0.00     0.010 A 
ATOM     12  C   UNL     1       3.843  -2.839   5.282  1.00  0.00    -0.014 A 
BRANCH  12  13
ATOM     13  C   UNL     1       3.332  -3.663   6.410  1.00  0.00     0.031 A 
ATOM     14  C   UNL     1       1.990  -4.341   6.328  1.00  0.00     0.074 A 
ATOM     15  C   UNL     1       4.107  -3.841   7.497  1.00  0.00     0.049 A 
ATOM     16  N   UNL     1       1.419  -5.151   7.186  1.00  0.00    -0.248 NA
ATOM     17  C   UNL     1       1.177  -4.072   5.132  1.00  0.00     0.031 C 
ATOM     18  C   UNL     1       5.419  -3.225   7.704  1.00  0.00     0.029 A 
ATOM     19  N   UNL     1       3.922  -4.612   8.617  1.00  0.00    -0.354 N 
ATOM     20  C   UNL     1       0.178  -5.465   6.649  1.00  0.00     0.074 A 
ATOM     21  C   UNL     1       0.064  -4.740   5.402  1.00  0.00     0.031 C 
ATOM     22  C   UNL     1       5.946  -3.687   8.847  1.00  0.00     0.029 A 
ATOM     23  C   UNL     1       4.990  -4.588   9.481  1.00  0.00     0.049 A 
ATOM     24  H   UNL     1       3.104  -5.133   8.784  1.00  0.00     0.167 HD
ATOM     25  C   UNL     1      -0.776  -6.291   7.144  1.00  0.00     0.037 A 
ATOM     26  C   UNL     1       5.178  -5.219  10.655  1.00  0.00     0.037 A 
ATOM     27  C   UNL     1      -0.650  -7.035   8.372  1.00  0.00     0.049 A 
ATOM     28  C   UNL     1       4.102  -6.125  11.182  1.00  0.00     0.074 A 
ATOM     29  C   UNL     1      -1.539  -7.939   8.929  1.00  0.00     0.029 A 
ATOM     30  N   UNL     1       0.433  -6.958   9.236  1.00  0.00    -0.354 N 
ATOM     31  N   UNL     1       2.955  -6.451  10.638  1.00  0.00    -0.248 NA
ATOM     32  C   UNL     1       4.347  -6.748  12.489  1.00  0.00     0.031 C 
ATOM     33  C   UNL     1      -1.016  -8.373  10.152  1.00  0.00     0.029 A 
ATOM     34  C   UNL     1       0.222  -7.779  10.333  1.00  0.00     0.049 A 
ATOM     35  H   UNL     1       1.232  -6.402   9.091  1.00  0.00     0.167 HD
ATOM     36  C   UNL     1       2.352  -7.334  11.523  1.00  0.00     0.074 A 
ATOM     37  C   UNL     1       3.269  -7.506  12.631  1.00  0.00     0.031 C 
ATOM     38  C   UNL     1       1.146  -7.944  11.426  1.00  0.00     0.037 A 
BRANCH  25  39
ATOM     39  C   UNL     1      -2.056  -6.424   6.369  1.00  0.00     0.064 A 
ATOM     40  C   UNL     1      -2.114  -7.112   5.148  1.00  0.00     0.173 A 
ATOM     41  C   UNL     1      -3.251  -5.892   6.878  1.00  0.00     0.173 A 
ATOM     42  F   UNL     1      -0.999  -7.630   4.611  1.00  0.00    -0.203 F 
ATOM     43  C   UNL     1      -3.315  -7.240   4.454  1.00  0.00     0.198 A 
ATOM     44  C   UNL     1      -4.455  -6.046   6.195  1.00  0.00     0.198 A 
ATOM     45  F   UNL     1      -3.253  -5.230   8.045  1.00  0.00    -0.203 F 
ATOM     46  F   UNL     1      -3.338  -7.863   3.267  1.00  0.00    -0.200 F 
ATOM     47  C   UNL     1      -4.485  -6.713   4.981  1.00  0.00     0.200 A 
ATOM     48  F   UNL     1      -5.586  -5.546   6.713  1.00  0.00    -0.200 F 
ATOM     49  F   UNL     1      -5.640  -6.843   4.314  1.00  0.00    -0.200 F 
ENDBRANCH  25  39
BRANCH  26  50
ATOM     50  C   UNL     1       6.449  -5.027  11.400  1.00  0.00     0.064 A 
ATOM     51  C   UNL     1       7.373  -6.073  11.527  1.00  0.00     0.173 A 
ATOM     52  C   UNL     1       6.769  -3.797  11.992  1.00  0.00     0.173 A 
ATOM     53  F   UNL     1       7.102  -7.274  10.995  1.00  0.00    -0.203 F 
ATOM     54  C   UNL     1       8.564  -5.899  12.229  1.00  0.00     0.198 A 
ATOM     55  C   UNL     1       7.973  -3.616  12.669  1.00  0.00     0.198 A 
ATOM     56  F   UNL     1       5.918  -2.764  11.896  1.00  0.00    -0.203 F 
ATOM     57  F   UNL     1       9.412  -6.927  12.369  1.00  0.00    -0.200 F 
ATOM     58  C   UNL     1       8.866  -4.669  12.793  1.00  0.00     0.200 A 
ATOM     59  F   UNL     1       8.267  -2.421  13.199  1.00  0.00    -0.200 F 
ATOM     60  F   UNL     1      10.015  -4.500  13.461  1.00  0.00    -0.200 F 
ENDBRANCH  26  50
BRANCH  38  61
ATOM     61  C   UNL     1       0.766  -8.883  12.534  1.00  0.00     0.064 A 
ATOM     62  C   UNL     1       0.420  -8.414  13.810  1.00  0.00     0.173 A 
ATOM     63  C   UNL     1       0.732 -10.267  12.310  1.00  0.00     0.173 A 
ATOM     64  F   UNL     1       0.453  -7.100  14.079  1.00  0.00    -0.203 F 
ATOM     65  C   UNL     1       0.084  -9.300  14.830  1.00  0.00     0.198 A 
ATOM     66  C   UNL     1       0.368 -11.148  13.324  1.00  0.00     0.198 A 
ATOM     67  F   UNL     1       1.049 -10.766  11.106  1.00  0.00    -0.203 F 
ATOM     68  F   UNL     1      -0.190  -8.834  16.057  1.00  0.00    -0.200 F 
ATOM     69  C   UNL     1       0.053 -10.665  14.585  1.00  0.00     0.200 A 
ATOM     70  F   UNL     1       0.327 -12.466  13.083  1.00  0.00    -0.200 F 
ATOM     71  F   UNL     1      -0.271 -11.516  15.569  1.00  0.00    -0.200 F 
ENDBRANCH  38  61
ENDBRANCH  12  13
ENDBRANCH   5   7
ENDBRANCH   2   3
ENDBRANCH   1   2
BRANCH   1  72
ATOM     72  C   UNL     1       4.349  -2.598  -1.799  1.00  0.00     0.117 C 
BRANCH  72  73
ATOM     73  N   UNL     1       5.578  -2.609  -2.564  1.00  0.00    -0.356 N 
ATOM     74  C   UNL     1       5.890  -3.235  -3.729  1.00  0.00     0.226 C 
ATOM     75  H   UNL     1       6.309  -2.074  -2.176  1.00  0.00     0.163 HD
ATOM     76  O   UNL     1       6.818  -2.740  -4.371  1.00  0.00    -0.274 OA
BRANCH  74  77
ATOM     77  C   UNL     1       5.062  -4.406  -4.273  1.00  0.00     0.103 C 
ATOM     78  C   UNL     1       4.814  -5.547  -3.337  1.00  0.00    -0.016 C 
ATOM     79  C   UNL     1       5.778  -5.101  -5.460  1.00  0.00     0.042 C 
ATOM     80  C   UNL     1       5.304  -6.704  -3.791  1.00  0.00    -0.011 C 
ATOM     81  C   UNL     1       6.042  -6.561  -5.082  1.00  0.00     0.093 C 
BRANCH  81  82
ATOM     82  N   UNL     1       7.393  -7.016  -4.792  1.00  0.00    -0.204 NA
ATOM     83  H   UNL     1       7.433  -7.966  -5.159  1.00  0.00     0.142 HD
BRANCH  82  84
ATOM     84  S   UNL     1       8.823  -6.313  -5.273  1.00  0.00     0.241 S 
ATOM     85  O   UNL     1       9.835  -7.327  -5.064  1.00  0.00    -0.207 OA
ATOM     86  O   UNL     1       8.629  -5.697  -6.564  1.00  0.00    -0.207 OA
BRANCH  84  87
ATOM     87  C   UNL     1       9.105  -5.076  -4.035  1.00  0.00     0.082 A 
ATOM     88  C   UNL     1       9.603  -3.824  -4.401  1.00  0.00     0.023 A 
ATOM     89  C   UNL     1       8.793  -5.359  -2.699  1.00  0.00     0.023 A 
ATOM     90  C   UNL     1       9.754  -2.834  -3.425  1.00  0.00     0.022 A 
ATOM     91  C   UNL     1       8.944  -4.367  -1.730  1.00  0.00     0.022 A 
ATOM     92  C   UNL     1       9.409  -3.105  -2.099  1.00  0.00     0.041 A 
ATOM     93  Cl  UNL     1       9.521  -1.863  -0.913  1.00  0.00    -0.084 Cl
ENDBRANCH  84  87
ENDBRANCH  82  84
ENDBRANCH  81  82
ENDBRANCH  74  77
ENDBRANCH  72  73
ENDBRANCH   1  72
TORSDOF 13
