REMARK SMILES Cc1cc(Cl)c2c(c1)C=C(C(=O)NCCCNC(=O)c1ccc(-c3c4nc(c(-c5c(F)c(F)c(F)c(F)c5F)c5ccc([nH]5)c(-c5c(F)c(F)c(F)c(F)c5F)c5nc(c(-c6c(F)c(F)c(F)c(F)c6F)c6ccc3[nH]6)C=C5)C=C4)cc1)[C@@H](C(F)(F)F)O2
REMARK SMILES IDX 15 1 14 2 13 3 11 4 12 5 10 7 1 8 2 9 3 10 8 11 4 12 7 13
REMARK SMILES IDX 5 14 6 15 9 16 88 17 83 18 84 19 85 20 86 21 87 22 16 23
REMARK SMILES IDX 17 24 18 25 19 27 20 28 21 29 82 30 22 31 81 32 23 33 24 34
REMARK SMILES IDX 25 35 75 36 26 37 80 38 74 39 76 40 27 41 79 42 73 43 72 44
REMARK SMILES IDX 28 46 60 47 40 48 59 49 41 50 44 51 58 52 77 53 42 54 43 55
REMARK SMILES IDX 57 57 78 58 45 59 29 60 30 61 38 62 31 63 32 64 36 65 39 66
REMARK SMILES IDX 33 67 34 68 37 69 35 70 61 71 62 72 70 73 63 74 64 75 68 76
REMARK SMILES IDX 71 77 65 78 66 79 69 80 67 81 46 82 47 83 55 84 48 85 49 86
REMARK SMILES IDX 53 87 56 88 50 89 51 90 54 91 52 92
REMARK H PARENT 13 6 17 26 76 45 44 56
REMARK Flexibility Score: inf
ROOT
ATOM      1  C   UNL     1       0.113   9.832   0.838  1.00  0.00     0.042 C 
ENDROOT
BRANCH   1   2
ATOM      2  C   UNL     1       0.649   9.103  -0.386  1.00  0.00     0.118 C 
BRANCH   2   3
ATOM      3  N   UNL     1       1.838   8.326  -0.070  1.00  0.00    -0.352 N 
ATOM      4  C   UNL     1       2.161   7.023   0.093  1.00  0.00     0.251 C 
ATOM      5  O   UNL     1       3.340   6.813   0.395  1.00  0.00    -0.270 OA
ATOM      6  H   UNL     1       2.622   8.907   0.060  1.00  0.00     0.163 HD
BRANCH   4   7
ATOM      7  C   UNL     1       1.222   5.875  -0.063  1.00  0.00     0.067 C 
ATOM      8  C   UNL     1       1.172  -0.315  -0.010  1.00  0.00     0.044 C 
ATOM      9  C   UNL     1       0.603   1.072  -0.064  1.00  0.00    -0.049 A 
ATOM     10  C   UNL     1      -0.778   1.251  -0.220  1.00  0.00     0.028 A 
ATOM     11  C   UNL     1       1.428   2.196   0.074  1.00  0.00     0.015 A 
ATOM     12  C   UNL     1      -1.323   2.536  -0.248  1.00  0.00     0.084 A 
ATOM     13  C   UNL     1       0.885   3.486   0.036  1.00  0.00     0.019 A 
ATOM     14  Cl  UNL     1      -3.030   2.706  -0.443  1.00  0.00    -0.080 Cl
ATOM     15  C   UNL     1      -0.492   3.654  -0.130  1.00  0.00     0.146 A 
ATOM     16  C   UNL     1       1.735   4.660   0.202  1.00  0.00     0.025 C 
ATOM     17  O   UNL     1      -1.064   4.898  -0.128  1.00  0.00    -0.474 OA
ATOM     18  C   UNL     1      -0.203   6.000  -0.520  1.00  0.00     0.314 C 
BRANCH  18  19
ATOM     19  C   UNL     1      -0.326   6.237  -2.038  1.00  0.00     0.429 C 
ATOM     20  F   UNL     1      -1.553   6.727  -2.343  1.00  0.00    -0.167 F 
ATOM     21  F   UNL     1       0.571   7.143  -2.495  1.00  0.00    -0.167 F 
ATOM     22  F   UNL     1      -0.144   5.110  -2.760  1.00  0.00    -0.167 F 
ENDBRANCH  18  19
ENDBRANCH   4   7
ENDBRANCH   2   3
ENDBRANCH   1   2
BRANCH   1  23
ATOM     23  C   UNL     1       0.941  11.065   1.179  1.00  0.00     0.118 C 
BRANCH  23  24
ATOM     24  N   UNL     1       0.818  12.102   0.158  1.00  0.00    -0.352 N 
ATOM     25  C   UNL     1       0.096  13.269   0.165  1.00  0.00     0.251 C 
ATOM     26  H   UNL     1       1.333  11.938  -0.665  1.00  0.00     0.163 HD
ATOM     27  O   UNL     1      -0.098  13.879  -0.884  1.00  0.00    -0.269 OA
BRANCH  25  28
ATOM     28  C   UNL     1      -0.456  13.787   1.431  1.00  0.00     0.039 A 
ATOM     29  C   UNL     1      -1.748  14.317   1.451  1.00  0.00     0.014 A 
ATOM     30  C   UNL     1       0.314  13.764   2.596  1.00  0.00     0.014 A 
ATOM     31  C   UNL     1      -2.293  14.755   2.659  1.00  0.00     0.010 A 
ATOM     32  C   UNL     1      -0.263  14.106   3.811  1.00  0.00     0.010 A 
ATOM     33  C   UNL     1      -1.567  14.615   3.854  1.00  0.00    -0.014 A 
BRANCH  33  34
ATOM     34  C   UNL     1      -2.148  15.014   5.159  1.00  0.00     0.031 A 
ATOM     35  C   UNL     1      -1.514  16.119   5.955  1.00  0.00     0.074 A 
ATOM     36  C   UNL     1      -3.208  14.342   5.647  1.00  0.00     0.049 A 
ATOM     37  N   UNL     1      -1.843  16.582   7.134  1.00  0.00    -0.248 NA
ATOM     38  C   UNL     1      -0.333  16.772   5.365  1.00  0.00     0.031 C 
ATOM     39  C   UNL     1      -3.870  13.214   4.988  1.00  0.00     0.029 A 
ATOM     40  N   UNL     1      -3.917  14.509   6.810  1.00  0.00    -0.354 N 
ATOM     41  C   UNL     1      -0.910  17.567   7.425  1.00  0.00     0.074 A 
ATOM     42  C   UNL     1       0.041  17.590   6.337  1.00  0.00     0.031 C 
ATOM     43  C   UNL     1      -4.915  12.821   5.734  1.00  0.00     0.029 A 
ATOM     44  C   UNL     1      -4.976  13.643   6.938  1.00  0.00     0.049 A 
ATOM     45  H   UNL     1      -3.688  15.185   7.488  1.00  0.00     0.167 HD
ATOM     46  C   UNL     1      -0.873  18.405   8.487  1.00  0.00     0.037 A 
ATOM     47  C   UNL     1      -5.897  13.535   7.914  1.00  0.00     0.037 A 
ATOM     48  C   UNL     1      -1.845  18.403   9.545  1.00  0.00     0.049 A 
ATOM     49  C   UNL     1      -5.832  14.475   9.087  1.00  0.00     0.074 A 
ATOM     50  C   UNL     1      -1.932  19.248  10.636  1.00  0.00     0.029 A 
ATOM     51  N   UNL     1      -2.906  17.514   9.637  1.00  0.00    -0.354 N 
ATOM     52  N   UNL     1      -4.983  15.446   9.319  1.00  0.00    -0.248 NA
ATOM     53  C   UNL     1      -6.852  14.307  10.131  1.00  0.00     0.031 C 
ATOM     54  C   UNL     1      -3.024  18.847  11.410  1.00  0.00     0.029 A 
ATOM     55  C   UNL     1      -3.643  17.779  10.779  1.00  0.00     0.049 A 
ATOM     56  H   UNL     1      -3.104  16.801   8.988  1.00  0.00     0.167 HD
ATOM     57  C   UNL     1      -5.377  16.020  10.519  1.00  0.00     0.074 A 
ATOM     58  C   UNL     1      -6.550  15.295  10.964  1.00  0.00     0.031 C 
ATOM     59  C   UNL     1      -4.816  17.052  11.193  1.00  0.00     0.037 A 
BRANCH  46  60
ATOM     60  C   UNL     1       0.235  19.415   8.540  1.00  0.00     0.064 A 
ATOM     61  C   UNL     1       0.270  20.505   7.657  1.00  0.00     0.173 A 
ATOM     62  C   UNL     1       1.241  19.325   9.513  1.00  0.00     0.173 A 
ATOM     63  F   UNL     1      -0.662  20.629   6.701  1.00  0.00    -0.203 F 
ATOM     64  C   UNL     1       1.284  21.456   7.732  1.00  0.00     0.198 A 
ATOM     65  C   UNL     1       2.237  20.293   9.604  1.00  0.00     0.198 A 
ATOM     66  F   UNL     1       1.251  18.305  10.384  1.00  0.00    -0.203 F 
ATOM     67  F   UNL     1       1.320  22.465   6.851  1.00  0.00    -0.200 F 
ATOM     68  C   UNL     1       2.261  21.354   8.711  1.00  0.00     0.200 A 
ATOM     69  F   UNL     1       3.175  20.201  10.558  1.00  0.00    -0.200 F 
ATOM     70  F   UNL     1       3.230  22.277   8.790  1.00  0.00    -0.200 F 
ENDBRANCH  46  60
BRANCH  47  71
ATOM     71  C   UNL     1      -6.989  12.536   7.789  1.00  0.00     0.064 A 
ATOM     72  C   UNL     1      -8.304  12.947   7.528  1.00  0.00     0.173 A 
ATOM     73  C   UNL     1      -6.744  11.159   7.894  1.00  0.00     0.173 A 
ATOM     74  F   UNL     1      -8.590  14.253   7.435  1.00  0.00    -0.203 F 
ATOM     75  C   UNL     1      -9.334  12.019   7.386  1.00  0.00     0.198 A 
ATOM     76  C   UNL     1      -7.770  10.231   7.728  1.00  0.00     0.198 A 
ATOM     77  F   UNL     1      -5.502  10.715   8.136  1.00  0.00    -0.203 F 
ATOM     78  F   UNL     1     -10.586  12.440   7.165  1.00  0.00    -0.200 F 
ATOM     79  C   UNL     1      -9.065  10.662   7.478  1.00  0.00     0.200 A 
ATOM     80  F   UNL     1      -7.504   8.920   7.803  1.00  0.00    -0.200 F 
ATOM     81  F   UNL     1     -10.053   9.769   7.329  1.00  0.00    -0.200 F 
ENDBRANCH  47  71
BRANCH  59  82
ATOM     82  C   UNL     1      -5.462  17.482  12.475  1.00  0.00     0.064 A 
ATOM     83  C   UNL     1      -5.312  16.735  13.652  1.00  0.00     0.173 A 
ATOM     84  C   UNL     1      -6.141  18.708  12.551  1.00  0.00     0.173 A 
ATOM     85  F   UNL     1      -4.680  15.552  13.624  1.00  0.00    -0.203 F 
ATOM     86  C   UNL     1      -5.821  17.200  14.860  1.00  0.00     0.198 A 
ATOM     87  C   UNL     1      -6.625  19.181  13.766  1.00  0.00     0.198 A 
ATOM     88  F   UNL     1      -6.300  19.461  11.453  1.00  0.00    -0.203 F 
ATOM     89  F   UNL     1      -5.683  16.463  15.971  1.00  0.00    -0.200 F 
ATOM     90  C   UNL     1      -6.465  18.427  14.919  1.00  0.00     0.200 A 
ATOM     91  F   UNL     1      -7.233  20.374  13.824  1.00  0.00    -0.200 F 
ATOM     92  F   UNL     1      -6.930  18.886  16.090  1.00  0.00    -0.200 F 
ENDBRANCH  59  82
ENDBRANCH  33  34
ENDBRANCH  25  28
ENDBRANCH  23  24
ENDBRANCH   1  23
TORSDOF 11
