REMARK SMILES O=C(Cc1ccc(Cl)nc1)NCCCNC(=O)c1ccc(-c2c3nc(c(-c4c(F)c(F)c(F)c(F)c4F)c4ccc([nH]4)c(-c4c(F)c(F)c(F)c(F)c4F)c4nc(c(-c5c(F)c(F)c(F)c(F)c5F)c5ccc2[nH]5)C=C4)C=C3)cc1
REMARK SMILES IDX 13 1 12 2 11 3 1 4 2 5 3 7 4 8 5 9 10 10 6 11 9 12 7 13 8 14
REMARK SMILES IDX 14 15 15 16 16 17 17 19 18 20 19 21 80 22 20 23 79 24 21 25
REMARK SMILES IDX 22 26 23 27 73 28 24 29 78 30 72 31 74 32 25 33 77 34 71 35
REMARK SMILES IDX 70 36 26 38 58 39 38 40 57 41 39 42 42 43 56 44 75 45 40 46
REMARK SMILES IDX 41 47 55 49 76 50 43 51 27 52 28 53 36 54 29 55 30 56 34 57
REMARK SMILES IDX 37 58 31 59 32 60 35 61 33 62 59 63 60 64 68 65 61 66 62 67
REMARK SMILES IDX 66 68 69 69 63 70 64 71 67 72 65 73 44 74 45 75 53 76 46 77
REMARK SMILES IDX 47 78 51 79 54 80 48 81 49 82 52 83 50 84
REMARK H PARENT 11 6 15 18 74 37 42 48
REMARK Flexibility Score: inf
ROOT
ATOM      1  C   UNL     1       2.164   3.476  -0.784  1.00  0.00     0.042 C 
ENDROOT
BRANCH   1   2
ATOM      2  C   UNL     1       1.958   2.053  -1.292  1.00  0.00     0.117 C 
BRANCH   2   3
ATOM      3  N   UNL     1       2.680   1.067  -0.511  1.00  0.00    -0.356 N 
ATOM      4  O   UNL     1       0.969  -0.469  -0.423  1.00  0.00    -0.275 OA
ATOM      5  C   UNL     1       2.130  -0.155  -0.179  1.00  0.00     0.224 C 
ATOM      6  H   UNL     1       3.593   1.276  -0.208  1.00  0.00     0.163 HD
BRANCH   5   7
ATOM      7  C   UNL     1       3.103  -1.105   0.498  1.00  0.00     0.137 C 
BRANCH   7   8
ATOM      8  C   UNL     1       3.873  -1.934  -0.495  1.00  0.00    -0.020 A 
ATOM      9  C   UNL     1       3.575  -3.282  -0.708  1.00  0.00     0.009 A 
ATOM     10  C   UNL     1       4.900  -1.379  -1.257  1.00  0.00     0.117 A 
ATOM     11  C   UNL     1       4.299  -4.009  -1.650  1.00  0.00     0.041 A 
ATOM     12  N   UNL     1       5.619  -2.055  -2.177  1.00  0.00    -0.244 NA
ATOM     13  C   UNL     1       5.296  -3.352  -2.350  1.00  0.00     0.129 A 
ATOM     14  Cl  UNL     1       6.231  -4.169  -3.532  1.00  0.00    -0.062 Cl
ENDBRANCH   7   8
ENDBRANCH   5   7
ENDBRANCH   2   3
ENDBRANCH   1   2
BRANCH   1  15
ATOM     15  C   UNL     1       3.609   3.967  -0.775  1.00  0.00     0.118 C 
BRANCH  15  16
ATOM     16  N   UNL     1       4.220   4.013  -2.092  1.00  0.00    -0.352 N 
ATOM     17  C   UNL     1       5.006   4.983  -2.662  1.00  0.00     0.251 C 
ATOM     18  H   UNL     1       4.043   3.231  -2.663  1.00  0.00     0.163 HD
ATOM     19  O   UNL     1       5.333   4.872  -3.846  1.00  0.00    -0.269 OA
BRANCH  17  20
ATOM     20  C   UNL     1       5.447   6.172  -1.897  1.00  0.00     0.039 A 
ATOM     21  C   UNL     1       5.467   7.409  -2.550  1.00  0.00     0.014 A 
ATOM     22  C   UNL     1       5.888   6.082  -0.573  1.00  0.00     0.014 A 
ATOM     23  C   UNL     1       5.886   8.556  -1.869  1.00  0.00     0.010 A 
ATOM     24  C   UNL     1       6.244   7.237   0.126  1.00  0.00     0.010 A 
ATOM     25  C   UNL     1       6.259   8.484  -0.518  1.00  0.00    -0.014 A 
BRANCH  25  26
ATOM     26  C   UNL     1       6.696   9.701   0.215  1.00  0.00     0.031 A 
ATOM     27  C   UNL     1       8.118   9.834   0.686  1.00  0.00     0.074 A 
ATOM     28  C   UNL     1       5.807  10.675   0.485  1.00  0.00     0.049 A 
ATOM     29  N   UNL     1       8.683  10.812   1.351  1.00  0.00    -0.248 NA
ATOM     30  C   UNL     1       9.020   8.710   0.394  1.00  0.00     0.031 C 
ATOM     31  C   UNL     1       4.388  10.648   0.129  1.00  0.00     0.029 A 
ATOM     32  N   UNL     1       5.966  11.879   1.126  1.00  0.00    -0.354 N 
ATOM     33  C   UNL     1       9.996  10.414   1.568  1.00  0.00     0.074 A 
ATOM     34  C   UNL     1      10.132   9.086   1.008  1.00  0.00     0.031 C 
ATOM     35  C   UNL     1       3.812  11.792   0.533  1.00  0.00     0.029 A 
ATOM     36  C   UNL     1       4.814  12.623   1.195  1.00  0.00     0.049 A 
ATOM     37  H   UNL     1       6.825  12.181   1.500  1.00  0.00     0.167 HD
ATOM     38  C   UNL     1      11.004  11.100   2.158  1.00  0.00     0.037 A 
ATOM     39  C   UNL     1       4.593  13.842   1.724  1.00  0.00     0.037 A 
ATOM     40  C   UNL     1      10.881  12.434   2.685  1.00  0.00     0.049 A 
ATOM     41  C   UNL     1       5.738  14.600   2.339  1.00  0.00     0.074 A 
ATOM     42  C   UNL     1      11.857  13.231   3.259  1.00  0.00     0.029 A 
ATOM     43  N   UNL     1       9.707  13.172   2.694  1.00  0.00    -0.354 N 
ATOM     44  N   UNL     1       6.989  14.238   2.481  1.00  0.00    -0.248 NA
ATOM     45  C   UNL     1       5.441  15.945   2.852  1.00  0.00     0.031 C 
ATOM     46  C   UNL     1      11.267  14.441   3.642  1.00  0.00     0.029 A 
ATOM     47  C   UNL     1       9.933  14.413   3.269  1.00  0.00     0.049 A 
ATOM     48  H   UNL     1       8.841  12.861   2.344  1.00  0.00     0.167 HD
ATOM     49  C   UNL     1       7.636  15.319   3.065  1.00  0.00     0.074 A 
ATOM     50  C   UNL     1       6.640  16.355   3.243  1.00  0.00     0.031 C 
ATOM     51  C   UNL     1       8.938  15.442   3.421  1.00  0.00     0.037 A 
BRANCH  38  52
ATOM     52  C   UNL     1      12.337  10.419   2.258  1.00  0.00     0.064 A 
ATOM     53  C   UNL     1      13.139  10.209   1.126  1.00  0.00     0.173 A 
ATOM     54  C   UNL     1      12.832   9.998   3.501  1.00  0.00     0.173 A 
ATOM     55  F   UNL     1      12.705  10.581  -0.087  1.00  0.00    -0.203 F 
ATOM     56  C   UNL     1      14.375   9.576   1.232  1.00  0.00     0.198 A 
ATOM     57  C   UNL     1      14.081   9.391   3.607  1.00  0.00     0.198 A 
ATOM     58  F   UNL     1      12.107  10.180   4.615  1.00  0.00    -0.203 F 
ATOM     59  F   UNL     1      15.102   9.343   0.130  1.00  0.00    -0.200 F 
ATOM     60  C   UNL     1      14.848   9.174   2.472  1.00  0.00     0.200 A 
ATOM     61  F   UNL     1      14.541   9.012   4.807  1.00  0.00    -0.200 F 
ATOM     62  F   UNL     1      16.039   8.569   2.572  1.00  0.00    -0.200 F 
ENDBRANCH  38  52
BRANCH  39  63
ATOM     63  C   UNL     1       3.239  14.446   1.650  1.00  0.00     0.064 A 
ATOM     64  C   UNL     1       2.980  15.523   0.790  1.00  0.00     0.173 A 
ATOM     65  C   UNL     1       2.182  13.968   2.437  1.00  0.00     0.173 A 
ATOM     66  F   UNL     1       3.966  16.027   0.034  1.00  0.00    -0.203 F 
ATOM     67  C   UNL     1       1.719  16.112   0.736  1.00  0.00     0.198 A 
ATOM     68  C   UNL     1       0.915  14.543   2.364  1.00  0.00     0.198 A 
ATOM     69  F   UNL     1       2.379  12.937   3.272  1.00  0.00    -0.203 F 
ATOM     70  F   UNL     1       1.510  17.168  -0.062  1.00  0.00    -0.200 F 
ATOM     71  C   UNL     1       0.686  15.619   1.519  1.00  0.00     0.200 A 
ATOM     72  F   UNL     1      -0.083  14.057   3.113  1.00  0.00    -0.200 F 
ATOM     73  F   UNL     1      -0.526  16.186   1.466  1.00  0.00    -0.200 F 
ENDBRANCH  39  63
BRANCH  51  74
ATOM     74  C   UNL     1       9.372  16.759   3.991  1.00  0.00     0.064 A 
ATOM     75  C   UNL     1       9.012  17.156   5.287  1.00  0.00     0.173 A 
ATOM     76  C   UNL     1      10.183  17.622   3.239  1.00  0.00     0.173 A 
ATOM     77  F   UNL     1       8.226  16.372   6.040  1.00  0.00    -0.203 F 
ATOM     78  C   UNL     1       9.426  18.383   5.799  1.00  0.00     0.198 A 
ATOM     79  C   UNL     1      10.617  18.836   3.764  1.00  0.00     0.198 A 
ATOM     80  F   UNL     1      10.559  17.285   1.996  1.00  0.00    -0.203 F 
ATOM     81  F   UNL     1       9.032  18.764   7.022  1.00  0.00    -0.200 F 
ATOM     82  C   UNL     1      10.232  19.219   5.040  1.00  0.00     0.200 A 
ATOM     83  F   UNL     1      11.403  19.638   3.033  1.00  0.00    -0.200 F 
ATOM     84  F   UNL     1      10.630  20.399   5.536  1.00  0.00    -0.200 F 
ENDBRANCH  51  74
ENDBRANCH  25  26
ENDBRANCH  17  20
ENDBRANCH  15  16
ENDBRANCH   1  15
TORSDOF 11
