REMARK SMILES C[C@H](C(=O)NCCCNC(=O)c1ccc(-c2c3nc(c(-c4c(F)c(F)c(F)c(F)c4F)c4ccc([nH]4)c(-c4c(F)c(F)c(F)c(F)c4F)c4nc(c(-c5c(F)c(F)c(F)c(F)c5F)c5ccc2[nH]5)C=C4)C=C3)cc1)c1ccc2c(c1)OCCO2
REMARK SMILES IDX 7 1 6 2 5 3 3 4 4 5 2 7 1 8 75 9 76 10 80 11 77 12 79 13
REMARK SMILES IDX 78 14 81 15 84 16 82 17 83 18 8 19 9 20 10 21 11 23 12 24
REMARK SMILES IDX 13 25 74 26 14 27 73 28 15 29 16 30 17 31 67 32 18 33 72 34
REMARK SMILES IDX 66 35 68 36 19 37 71 38 65 39 64 40 20 42 52 43 32 44 51 45
REMARK SMILES IDX 33 46 36 47 50 48 69 49 34 50 35 51 49 53 70 54 37 55 21 56
REMARK SMILES IDX 22 57 30 58 23 59 24 60 28 61 31 62 25 63 26 64 29 65 27 66
REMARK SMILES IDX 53 67 54 68 62 69 55 70 56 71 60 72 63 73 57 74 58 75 61 76
REMARK SMILES IDX 59 77 38 78 39 79 47 80 40 81 41 82 45 83 48 84 42 85 43 86
REMARK SMILES IDX 46 87 44 88
REMARK H PARENT 5 6 9 22 68 41 36 52
REMARK Flexibility Score: inf
ROOT
ATOM      1  C   UNL     1      -1.313   2.451  -0.521  1.00  0.00     0.042 C 
ENDROOT
BRANCH   1   2
ATOM      2  C   UNL     1       0.137   2.228  -0.936  1.00  0.00     0.117 C 
BRANCH   2   3
ATOM      3  N   UNL     1       0.863   1.481   0.072  1.00  0.00    -0.356 N 
ATOM      4  C   UNL     1       1.045   0.131   0.186  1.00  0.00     0.227 C 
ATOM      5  O   UNL     1       1.587  -0.282   1.212  1.00  0.00    -0.274 OA
ATOM      6  H   UNL     1       1.286   2.025   0.776  1.00  0.00     0.163 HD
BRANCH   4   7
ATOM      7  C   UNL     1       0.614  -0.792  -0.955  1.00  0.00     0.105 C 
ATOM      8  C   UNL     1       1.507  -2.048  -1.000  1.00  0.00     0.023 C 
BRANCH   7   9
ATOM      9  C   UNL     1      -0.858  -1.187  -0.910  1.00  0.00    -0.032 A 
ATOM     10  C   UNL     1      -1.767  -0.611  -1.821  1.00  0.00     0.008 A 
ATOM     11  C   UNL     1      -1.289  -2.251  -0.106  1.00  0.00     0.055 A 
ATOM     12  C   UNL     1      -3.046  -1.134  -1.991  1.00  0.00     0.051 A 
ATOM     13  C   UNL     1      -2.502  -2.866  -0.389  1.00  0.00     0.161 A 
ATOM     14  C   UNL     1      -3.365  -2.313  -1.337  1.00  0.00     0.161 A 
ATOM     15  O   UNL     1      -2.720  -4.090   0.181  1.00  0.00    -0.486 OA
ATOM     16  O   UNL     1      -4.460  -3.012  -1.781  1.00  0.00    -0.486 OA
ATOM     17  C   UNL     1      -3.579  -4.937  -0.598  1.00  0.00     0.271 C 
ATOM     18  C   UNL     1      -4.002  -4.359  -1.947  1.00  0.00     0.271 C 
ENDBRANCH   7   9
ENDBRANCH   4   7
ENDBRANCH   2   3
ENDBRANCH   1   2
BRANCH   1  19
ATOM     19  C   UNL     1      -1.472   3.502   0.568  1.00  0.00     0.118 C 
BRANCH  19  20
ATOM     20  N   UNL     1      -1.225   4.844   0.065  1.00  0.00    -0.352 N 
ATOM     21  C   UNL     1      -2.058   5.931  -0.010  1.00  0.00     0.251 C 
ATOM     22  H   UNL     1      -0.314   4.997  -0.276  1.00  0.00     0.163 HD
ATOM     23  O   UNL     1      -1.719   6.899  -0.684  1.00  0.00    -0.269 OA
BRANCH  21  24
ATOM     24  C   UNL     1      -3.358   5.952   0.701  1.00  0.00     0.039 A 
ATOM     25  C   UNL     1      -4.434   6.617   0.102  1.00  0.00     0.014 A 
ATOM     26  C   UNL     1      -3.514   5.391   1.971  1.00  0.00     0.014 A 
ATOM     27  C   UNL     1      -5.666   6.686   0.758  1.00  0.00     0.010 A 
ATOM     28  C   UNL     1      -4.765   5.383   2.584  1.00  0.00     0.010 A 
ATOM     29  C   UNL     1      -5.848   6.051   1.996  1.00  0.00    -0.014 A 
BRANCH  29  30
ATOM     30  C   UNL     1      -7.152   6.109   2.705  1.00  0.00     0.031 A 
ATOM     31  C   UNL     1      -7.257   6.802   4.037  1.00  0.00     0.074 A 
ATOM     32  C   UNL     1      -8.230   5.501   2.174  1.00  0.00     0.049 A 
ATOM     33  N   UNL     1      -8.289   6.915   4.835  1.00  0.00    -0.248 NA
ATOM     34  C   UNL     1      -6.030   7.428   4.556  1.00  0.00     0.031 C 
ATOM     35  C   UNL     1      -8.246   4.761   0.912  1.00  0.00     0.029 A 
ATOM     36  N   UNL     1      -9.519   5.404   2.634  1.00  0.00    -0.354 N 
ATOM     37  C   UNL     1      -7.832   7.602   5.951  1.00  0.00     0.074 A 
ATOM     38  C   UNL     1      -6.418   7.836   5.755  1.00  0.00     0.031 C 
ATOM     39  C   UNL     1      -9.489   4.308   0.685  1.00  0.00     0.029 A 
ATOM     40  C   UNL     1     -10.348   4.693   1.801  1.00  0.00     0.049 A 
ATOM     41  H   UNL     1      -9.821   5.805   3.480  1.00  0.00     0.167 HD
ATOM     42  C   UNL     1      -8.532   8.023   7.032  1.00  0.00     0.037 A 
ATOM     43  C   UNL     1     -11.652   4.384   1.926  1.00  0.00     0.037 A 
ATOM     44  C   UNL     1      -9.946   7.818   7.210  1.00  0.00     0.049 A 
ATOM     45  C   UNL     1     -12.408   4.866   3.135  1.00  0.00     0.074 A 
ATOM     46  C   UNL     1     -10.761   8.261   8.236  1.00  0.00     0.029 A 
ATOM     47  N   UNL     1     -10.755   7.107   6.335  1.00  0.00    -0.354 N 
ATOM     48  N   UNL     1     -11.980   5.575   4.151  1.00  0.00    -0.248 NA
ATOM     49  C   UNL     1     -13.831   4.508   3.210  1.00  0.00     0.031 C 
ATOM     50  C   UNL     1     -12.054   7.781   8.006  1.00  0.00     0.029 A 
ATOM     51  C   UNL     1     -12.056   7.082   6.810  1.00  0.00     0.049 A 
ATOM     52  H   UNL     1     -10.450   6.684   5.500  1.00  0.00     0.167 HD
ATOM     53  C   UNL     1     -13.084   5.775   4.969  1.00  0.00     0.074 A 
ATOM     54  C   UNL     1     -14.205   5.123   4.323  1.00  0.00     0.031 C 
ATOM     55  C   UNL     1     -13.162   6.437   6.149  1.00  0.00     0.037 A 
BRANCH  42  56
ATOM     56  C   UNL     1      -7.778   8.750   8.109  1.00  0.00     0.064 A 
ATOM     57  C   UNL     1      -7.265  10.040   7.906  1.00  0.00     0.173 A 
ATOM     58  C   UNL     1      -7.594   8.164   9.370  1.00  0.00     0.173 A 
ATOM     59  F   UNL     1      -7.403  10.643   6.715  1.00  0.00    -0.203 F 
ATOM     60  C   UNL     1      -6.568  10.702   8.913  1.00  0.00     0.198 A 
ATOM     61  C   UNL     1      -6.925   8.841  10.386  1.00  0.00     0.198 A 
ATOM     62  F   UNL     1      -8.071   6.935   9.621  1.00  0.00    -0.203 F 
ATOM     63  F   UNL     1      -6.041  11.912   8.678  1.00  0.00    -0.200 F 
ATOM     64  C   UNL     1      -6.404  10.106  10.154  1.00  0.00     0.200 A 
ATOM     65  F   UNL     1      -6.779   8.269  11.589  1.00  0.00    -0.200 F 
ATOM     66  F   UNL     1      -5.739  10.747  11.125  1.00  0.00    -0.200 F 
ENDBRANCH  42  56
BRANCH  43  67
ATOM     67  C   UNL     1     -12.336   3.604   0.862  1.00  0.00     0.064 A 
ATOM     68  C   UNL     1     -13.297   4.205   0.038  1.00  0.00     0.173 A 
ATOM     69  C   UNL     1     -12.048   2.249   0.649  1.00  0.00     0.173 A 
ATOM     70  F   UNL     1     -13.622   5.494   0.217  1.00  0.00    -0.203 F 
ATOM     71  C   UNL     1     -13.960   3.475  -0.947  1.00  0.00     0.198 A 
ATOM     72  C   UNL     1     -12.691   1.526  -0.355  1.00  0.00     0.198 A 
ATOM     73  F   UNL     1     -11.133   1.628   1.408  1.00  0.00    -0.203 F 
ATOM     74  F   UNL     1     -14.907   4.062  -1.690  1.00  0.00    -0.200 F 
ATOM     75  C   UNL     1     -13.652   2.138  -1.146  1.00  0.00     0.200 A 
ATOM     76  F   UNL     1     -12.381   0.238  -0.554  1.00  0.00    -0.200 F 
ATOM     77  F   UNL     1     -14.287   1.436  -2.095  1.00  0.00    -0.200 F 
ENDBRANCH  43  67
BRANCH  55  78
ATOM     78  C   UNL     1     -14.513   6.525   6.799  1.00  0.00     0.064 A 
ATOM     79  C   UNL     1     -15.117   5.410   7.396  1.00  0.00     0.173 A 
ATOM     80  C   UNL     1     -15.194   7.751   6.854  1.00  0.00     0.173 A 
ATOM     81  F   UNL     1     -14.513   4.212   7.357  1.00  0.00    -0.203 F 
ATOM     82  C   UNL     1     -16.367   5.512   8.001  1.00  0.00     0.198 A 
ATOM     83  C   UNL     1     -16.430   7.856   7.486  1.00  0.00     0.198 A 
ATOM     84  F   UNL     1     -14.656   8.849   6.303  1.00  0.00    -0.203 F 
ATOM     85  F   UNL     1     -16.948   4.422   8.522  1.00  0.00    -0.200 F 
ATOM     86  C   UNL     1     -17.018   6.735   8.052  1.00  0.00     0.200 A 
ATOM     87  F   UNL     1     -17.051   9.041   7.546  1.00  0.00    -0.200 F 
ATOM     88  F   UNL     1     -18.219   6.833   8.639  1.00  0.00    -0.200 F 
ENDBRANCH  55  78
ENDBRANCH  29  30
ENDBRANCH  21  24
ENDBRANCH  19  20
ENDBRANCH   1  19
TORSDOF 11
