REMARK SMILES Cc1nc(-c2ccccc2Cl)sc1C(=O)NC[C@H]1CC[C@@H](C(=O)NCCCNC(=O)c2ccc(-c3c4nc(c(-c5c(F)c(F)c(F)c(F)c5F)c5ccc([nH]5)c(-c5c(F)c(F)c(F)c(F)c5F)c5nc(c(-c6c(F)c(F)c(F)c(F)c6F)c6ccc3[nH]6)C=C5)C=C4)cc2)CC1
REMARK SMILES IDX 25 1 24 2 22 3 23 4 21 6 18 7 19 8 95 9 20 10 94 11 17 12
REMARK SMILES IDX 16 13 14 14 15 15 13 17 1 18 2 19 3 20 4 21 12 22 5 23 6 24
REMARK SMILES IDX 10 25 7 26 9 27 11 28 8 29 26 30 27 31 28 32 29 33 30 35
REMARK SMILES IDX 31 36 32 37 93 38 33 39 92 40 34 41 35 42 36 43 86 44 37 45
REMARK SMILES IDX 91 46 85 47 87 48 38 49 90 50 84 51 83 52 39 54 71 55 51 56
REMARK SMILES IDX 70 57 52 58 55 59 69 60 88 61 53 62 54 63 68 65 89 66 56 67
REMARK SMILES IDX 40 68 41 69 49 70 42 71 43 72 47 73 50 74 44 75 45 76 48 77
REMARK SMILES IDX 46 78 72 79 73 80 81 81 74 82 75 83 79 84 82 85 76 86 77 87
REMARK SMILES IDX 80 88 78 89 57 90 58 91 66 92 59 93 60 94 64 95 67 96 61 97
REMARK SMILES IDX 62 98 65 99 63 100
REMARK H PARENT 24 5 16 16 28 34 87 53 55 64
REMARK Flexibility Score: inf
ROOT
ATOM      1  C   UNL     1      -6.006  -3.181   0.776  1.00  0.00     0.117 C 
ENDROOT
BRANCH   1   2
ATOM      2  N   UNL     1      -7.204  -3.279  -0.018  1.00  0.00    -0.356 N 
ATOM      3  C   UNL     1      -7.408  -3.441  -1.348  1.00  0.00     0.223 C 
ATOM      4  O   UNL     1      -8.584  -3.651  -1.673  1.00  0.00    -0.275 OA
ATOM      5  H   UNL     1      -8.034  -3.217   0.507  1.00  0.00     0.163 HD
BRANCH   3   6
ATOM      6  C   UNL     1      -6.332  -3.361  -2.446  1.00  0.00     0.078 C 
ATOM      7  C   UNL     1      -3.423  -2.952  -1.659  1.00  0.00     0.008 C 
ATOM      8  C   UNL     1      -4.027  -4.370  -1.796  1.00  0.00     0.006 C 
ATOM      9  C   UNL     1      -4.414  -1.783  -1.837  1.00  0.00     0.006 C 
ATOM     10  C   UNL     1      -5.330  -4.502  -2.575  1.00  0.00     0.014 C 
ATOM     11  C   UNL     1      -5.673  -2.010  -2.645  1.00  0.00     0.014 C 
BRANCH   7  12
ATOM     12  C   UNL     1      -2.651  -2.835  -0.304  1.00  0.00     0.119 C 
BRANCH  12  13
ATOM     13  N   UNL     1      -1.234  -3.021  -0.439  1.00  0.00    -0.351 N 
ATOM     14  C   UNL     1      -0.128  -2.236  -0.258  1.00  0.00     0.263 C 
ATOM     15  O   UNL     1       0.906  -2.921  -0.258  1.00  0.00    -0.268 OA
ATOM     16  H   UNL     1      -1.002  -3.932  -0.731  1.00  0.00     0.163 HD
BRANCH  14  17
ATOM     17  C   UNL     1      -0.092  -0.779  -0.104  1.00  0.00     0.115 A 
ATOM     18  C   UNL     1      -2.417   0.493  -0.093  1.00  0.00     0.068 C 
ATOM     19  C   UNL     1      -0.952   0.321  -0.042  1.00  0.00     0.062 A 
ATOM     20  N   UNL     1      -0.334   1.555   0.076  1.00  0.00    -0.240 NA
ATOM     21  C   UNL     1       0.966   1.450   0.009  1.00  0.00     0.125 A 
ATOM     22  S   UNL     1       1.550  -0.139   0.022  1.00  0.00    -0.108 S 
BRANCH  21  23
ATOM     23  C   UNL     1       1.831   2.622   0.022  1.00  0.00     0.029 A 
ATOM     24  C   UNL     1       1.671   3.525   1.089  1.00  0.00     0.013 A 
ATOM     25  C   UNL     1       2.689   2.966  -1.033  1.00  0.00     0.051 A 
ATOM     26  C   UNL     1       2.353   4.739   1.109  1.00  0.00     0.001 A 
ATOM     27  C   UNL     1       3.372   4.186  -1.008  1.00  0.00     0.021 A 
ATOM     28  Cl  UNL     1       2.894   1.977  -2.438  1.00  0.00    -0.084 Cl
ATOM     29  C   UNL     1       3.200   5.071   0.057  1.00  0.00     0.002 A 
ENDBRANCH  21  23
ENDBRANCH  14  17
ENDBRANCH  12  13
ENDBRANCH   7  12
ENDBRANCH   3   6
ENDBRANCH   1   2
BRANCH   1  30
ATOM     30  C   UNL     1      -5.799  -1.809   1.400  1.00  0.00     0.042 C 
BRANCH  30  31
ATOM     31  C   UNL     1      -6.195  -1.746   2.862  1.00  0.00     0.118 C 
BRANCH  31  32
ATOM     32  N   UNL     1      -5.323  -2.560   3.706  1.00  0.00    -0.352 N 
ATOM     33  C   UNL     1      -4.466  -2.220   4.726  1.00  0.00     0.251 C 
ATOM     34  H   UNL     1      -5.355  -3.524   3.509  1.00  0.00     0.163 HD
ATOM     35  O   UNL     1      -3.696  -3.068   5.164  1.00  0.00    -0.269 OA
BRANCH  33  36
ATOM     36  C   UNL     1      -4.445  -0.849   5.284  1.00  0.00     0.039 A 
ATOM     37  C   UNL     1      -3.238  -0.323   5.756  1.00  0.00     0.014 A 
ATOM     38  C   UNL     1      -5.607  -0.084   5.369  1.00  0.00     0.014 A 
ATOM     39  C   UNL     1      -3.192   0.986   6.244  1.00  0.00     0.010 A 
ATOM     40  C   UNL     1      -5.534   1.257   5.719  1.00  0.00     0.010 A 
ATOM     41  C   UNL     1      -4.332   1.802   6.188  1.00  0.00    -0.014 A 
BRANCH  41  42
ATOM     42  C   UNL     1      -4.310   3.215   6.646  1.00  0.00     0.031 A 
ATOM     43  C   UNL     1      -5.240   3.662   7.745  1.00  0.00     0.074 A 
ATOM     44  C   UNL     1      -3.516   4.107   6.024  1.00  0.00     0.049 A 
ATOM     45  N   UNL     1      -5.441   4.864   8.225  1.00  0.00    -0.248 NA
ATOM     46  C   UNL     1      -6.092   2.628   8.357  1.00  0.00     0.031 C 
ATOM     47  C   UNL     1      -2.622   3.810   4.904  1.00  0.00     0.029 A 
ATOM     48  N   UNL     1      -3.340   5.451   6.240  1.00  0.00    -0.354 N 
ATOM     49  C   UNL     1      -6.453   4.729   9.168  1.00  0.00     0.074 A 
ATOM     50  C   UNL     1      -6.878   3.349   9.140  1.00  0.00     0.031 C 
ATOM     51  C   UNL     1      -1.967   4.928   4.554  1.00  0.00     0.029 A 
ATOM     52  C   UNL     1      -2.426   6.030   5.394  1.00  0.00     0.049 A 
ATOM     53  H   UNL     1      -3.824   5.953   6.936  1.00  0.00     0.167 HD
ATOM     54  C   UNL     1      -6.959   5.664  10.006  1.00  0.00     0.037 A 
ATOM     55  C   UNL     1      -2.011   7.308   5.304  1.00  0.00     0.037 A 
ATOM     56  C   UNL     1      -6.502   7.027  10.054  1.00  0.00     0.049 A 
ATOM     57  C   UNL     1      -2.578   8.327   6.255  1.00  0.00     0.074 A 
ATOM     58  C   UNL     1      -6.891   8.039  10.913  1.00  0.00     0.029 A 
ATOM     59  N   UNL     1      -5.550   7.569   9.202  1.00  0.00    -0.354 N 
ATOM     60  N   UNL     1      -3.476   8.171   7.198  1.00  0.00    -0.248 NA
ATOM     61  C   UNL     1      -2.067   9.699   6.135  1.00  0.00     0.031 C 
ATOM     62  C   UNL     1      -6.218   9.207  10.544  1.00  0.00     0.029 A 
ATOM     63  C   UNL     1      -5.359   8.908   9.497  1.00  0.00     0.049 A 
ATOM     64  H   UNL     1      -5.080   7.074   8.492  1.00  0.00     0.167 HD
ATOM     65  C   UNL     1      -3.617   9.413   7.801  1.00  0.00     0.074 A 
ATOM     66  C   UNL     1      -2.698  10.308   7.129  1.00  0.00     0.031 C 
ATOM     67  C   UNL     1      -4.433   9.781   8.820  1.00  0.00     0.037 A 
BRANCH  54  68
ATOM     68  C   UNL     1      -8.057   5.241  10.942  1.00  0.00     0.064 A 
ATOM     69  C   UNL     1      -7.831   4.328  11.985  1.00  0.00     0.173 A 
ATOM     70  C   UNL     1      -9.350   5.771  10.808  1.00  0.00     0.173 A 
ATOM     71  F   UNL     1      -6.618   3.780  12.152  1.00  0.00    -0.203 F 
ATOM     72  C   UNL     1      -8.864   3.932  12.831  1.00  0.00     0.198 A 
ATOM     73  C   UNL     1     -10.371   5.402  11.680  1.00  0.00     0.198 A 
ATOM     74  F   UNL     1      -9.623   6.651   9.833  1.00  0.00    -0.203 F 
ATOM     75  F   UNL     1      -8.637   3.011  13.777  1.00  0.00    -0.200 F 
ATOM     76  C   UNL     1     -10.131   4.475  12.683  1.00  0.00     0.200 A 
ATOM     77  F   UNL     1     -11.592   5.938  11.544  1.00  0.00    -0.200 F 
ATOM     78  F   UNL     1     -11.123   4.098  13.501  1.00  0.00    -0.200 F 
ENDBRANCH  54  68
BRANCH  55  79
ATOM     79  C   UNL     1      -0.980   7.684   4.300  1.00  0.00     0.064 A 
ATOM     80  C   UNL     1       0.309   8.063   4.700  1.00  0.00     0.173 A 
ATOM     81  C   UNL     1      -1.256   7.667   2.925  1.00  0.00     0.173 A 
ATOM     82  F   UNL     1       0.619   8.110   6.004  1.00  0.00    -0.203 F 
ATOM     83  C   UNL     1       1.276   8.429   3.766  1.00  0.00     0.198 A 
ATOM     84  C   UNL     1      -0.279   8.003   1.990  1.00  0.00     0.198 A 
ATOM     85  F   UNL     1      -2.470   7.303   2.488  1.00  0.00    -0.203 F 
ATOM     86  F   UNL     1       2.487   8.825   4.179  1.00  0.00    -0.200 F 
ATOM     87  C   UNL     1       0.983   8.392   2.411  1.00  0.00     0.200 A 
ATOM     88  F   UNL     1      -0.558   7.946   0.681  1.00  0.00    -0.200 F 
ATOM     89  F   UNL     1       1.920   8.726   1.513  1.00  0.00    -0.200 F 
ENDBRANCH  55  79
BRANCH  67  90
ATOM     90  C   UNL     1      -4.343  11.202   9.296  1.00  0.00     0.064 A 
ATOM     91  C   UNL     1      -4.811  12.273   8.521  1.00  0.00     0.173 A 
ATOM     92  C   UNL     1      -3.821  11.490  10.567  1.00  0.00     0.173 A 
ATOM     93  F   UNL     1      -5.306  12.052   7.294  1.00  0.00    -0.203 F 
ATOM     94  C   UNL     1      -4.733  13.582   8.988  1.00  0.00     0.198 A 
ATOM     95  C   UNL     1      -3.778  12.796  11.046  1.00  0.00     0.198 A 
ATOM     96  F   UNL     1      -3.369  10.501  11.353  1.00  0.00    -0.203 F 
ATOM     97  F   UNL     1      -5.137  14.594   8.209  1.00  0.00    -0.200 F 
ATOM     98  C   UNL     1      -4.225  13.841  10.253  1.00  0.00     0.200 A 
ATOM     99  F   UNL     1      -3.304  13.042  12.275  1.00  0.00    -0.200 F 
ATOM    100  F   UNL     1      -4.161  15.101  10.705  1.00  0.00    -0.200 F 
ENDBRANCH  67  90
ENDBRANCH  41  42
ENDBRANCH  33  36
ENDBRANCH  31  32
ENDBRANCH  30  31
ENDBRANCH   1  30
TORSDOF 14
