REMARK SMILES C=CCN(CC(=O)NCCCNC(=O)c1ccc(-c2c3nc(c(-c4c(F)c(F)c(F)c(F)c4F)c4ccc([nH]4)c(-c4c(F)c(F)c(F)c(F)c4F)c4nc(c(-c5c(F)c(F)c(F)c(F)c5F)c5ccc2[nH]5)C=C4)C=C3)cc1)C(=O)[C@@H](C[NH3+])C(C)C
REMARK SMILES IDX 6 1 7 2 8 3 5 5 4 6 3 7 2 8 1 9 78 10 79 11 80 12 81 13
REMARK SMILES IDX 82 14 83 18 84 19 85 20 9 21 10 22 11 23 12 24 13 25 14 27
REMARK SMILES IDX 15 28 16 29 77 30 17 31 76 32 18 33 19 34 20 35 70 36 21 37
REMARK SMILES IDX 75 38 69 39 71 40 22 41 74 42 68 43 67 44 23 46 55 47 35 48
REMARK SMILES IDX 54 49 36 50 39 51 53 52 72 53 37 54 38 55 52 57 73 58 40 59
REMARK SMILES IDX 24 60 25 61 33 62 26 63 27 64 31 65 34 66 28 67 29 68 32 69
REMARK SMILES IDX 30 70 56 71 57 72 65 73 58 74 59 75 63 76 66 77 60 78 61 79
REMARK SMILES IDX 64 80 62 81 41 82 42 83 50 84 43 85 44 86 48 87 51 88 45 89
REMARK SMILES IDX 46 90 49 91 47 92
REMARK H PARENT 8 4 82 15 82 16 82 17 12 26 71 45 39 56
REMARK Flexibility Score: inf
ROOT
ATOM      1  C   UNL     1      -4.142  -2.904   1.350  1.00  0.00     0.239 C 
ATOM      2  O   UNL     1      -4.758  -3.913   1.709  1.00  0.00    -0.273 OA
ATOM      3  N   UNL     1      -4.897  -1.849   0.948  1.00  0.00    -0.354 N 
ATOM      4  H   UNL     1      -5.795  -2.075   0.613  1.00  0.00     0.163 HD
ENDROOT
BRANCH   1   5
ATOM      5  C   UNL     1      -2.616  -2.818   1.505  1.00  0.00     0.219 C 
BRANCH   5   6
ATOM      6  N   UNL     1      -1.797  -2.208   0.439  1.00  0.00    -0.329 N 
BRANCH   6   7
ATOM      7  C   UNL     1      -1.200  -0.905   0.750  1.00  0.00     0.147 C 
BRANCH   7   8
ATOM      8  C   UNL     1       0.290  -1.008   0.896  1.00  0.00    -0.014 C 
ATOM      9  C   UNL     1       1.144  -0.234   0.209  1.00  0.00     0.006 C 
ENDBRANCH   7   8
ENDBRANCH   6   7
BRANCH   6  10
ATOM     10  C   UNL     1      -1.503  -2.737  -0.815  1.00  0.00     0.232 C 
ATOM     11  O   UNL     1      -0.900  -2.033  -1.643  1.00  0.00    -0.274 OA
BRANCH  10  12
ATOM     12  C   UNL     1      -1.902  -4.147  -1.305  1.00  0.00     0.136 C 
BRANCH  12  13
ATOM     13  C   UNL     1      -1.090  -5.304  -0.686  1.00  0.00     0.272 C 
BRANCH  13  14
ATOM     14  N   UNL     1      -1.353  -5.672   0.697  1.00  0.00    -0.357 N 
ATOM     15  H   UNL     1      -1.095  -4.898   1.309  1.00  0.00     0.344 HD
ATOM     16  H   UNL     1      -0.804  -6.496   0.940  1.00  0.00     0.344 HD
ATOM     17  H   UNL     1      -2.345  -5.879   0.810  1.00  0.00     0.344 HD
ENDBRANCH  13  14
ENDBRANCH  12  13
BRANCH  12  18
ATOM     18  C   UNL     1      -3.418  -4.340  -1.547  1.00  0.00     0.001 C 
ATOM     19  C   UNL     1      -3.930  -3.305  -2.565  1.00  0.00     0.008 C 
ATOM     20  C   UNL     1      -3.792  -5.734  -2.058  1.00  0.00     0.008 C 
ENDBRANCH  12  18
ENDBRANCH  10  12
ENDBRANCH   6  10
ENDBRANCH   5   6
ENDBRANCH   1   5
BRANCH   3  21
ATOM     21  C   UNL     1      -4.570  -0.443   0.940  1.00  0.00     0.117 C 
BRANCH  21  22
ATOM     22  C   UNL     1      -4.414   0.133  -0.459  1.00  0.00     0.042 C 
BRANCH  22  23
ATOM     23  C   UNL     1      -5.670   0.016  -1.315  1.00  0.00     0.118 C 
BRANCH  23  24
ATOM     24  N   UNL     1      -6.809   0.717  -0.731  1.00  0.00    -0.352 N 
ATOM     25  C   UNL     1      -7.456   1.850  -1.150  1.00  0.00     0.251 C 
ATOM     26  H   UNL     1      -7.168   0.312   0.092  1.00  0.00     0.163 HD
ATOM     27  O   UNL     1      -8.243   2.423  -0.397  1.00  0.00    -0.269 OA
BRANCH  25  28
ATOM     28  C   UNL     1      -7.202   2.391  -2.498  1.00  0.00     0.039 A 
ATOM     29  C   UNL     1      -7.026   3.768  -2.661  1.00  0.00     0.014 A 
ATOM     30  C   UNL     1      -7.152   1.539  -3.604  1.00  0.00     0.014 A 
ATOM     31  C   UNL     1      -6.721   4.281  -3.924  1.00  0.00     0.010 A 
ATOM     32  C   UNL     1      -6.769   2.039  -4.842  1.00  0.00     0.010 A 
ATOM     33  C   UNL     1      -6.548   3.415  -5.015  1.00  0.00    -0.014 A 
BRANCH  33  34
ATOM     34  C   UNL     1      -6.135   3.910  -6.351  1.00  0.00     0.031 A 
ATOM     35  C   UNL     1      -7.047   3.726  -7.531  1.00  0.00     0.074 A 
ATOM     36  C   UNL     1      -4.904   4.429  -6.520  1.00  0.00     0.049 A 
ATOM     37  N   UNL     1      -6.816   3.945  -8.801  1.00  0.00    -0.248 NA
ATOM     38  C   UNL     1      -8.390   3.195  -7.248  1.00  0.00     0.031 C 
ATOM     39  C   UNL     1      -3.916   4.625  -5.458  1.00  0.00     0.029 A 
ATOM     40  N   UNL     1      -4.262   4.862  -7.654  1.00  0.00    -0.354 N 
ATOM     41  C   UNL     1      -7.972   3.558  -9.466  1.00  0.00     0.074 A 
ATOM     42  C   UNL     1      -8.885   3.046  -8.468  1.00  0.00     0.031 C 
ATOM     43  C   UNL     1      -2.798   5.147  -5.988  1.00  0.00     0.029 A 
ATOM     44  C   UNL     1      -2.970   5.274  -7.432  1.00  0.00     0.049 A 
ATOM     45  H   UNL     1      -4.688   4.877  -8.542  1.00  0.00     0.167 HD
ATOM     46  C   UNL     1      -8.251   3.641 -10.788  1.00  0.00     0.037 A 
ATOM     47  C   UNL     1      -2.024   5.683  -8.299  1.00  0.00     0.037 A 
ATOM     48  C   UNL     1      -7.345   4.173 -11.772  1.00  0.00     0.049 A 
ATOM     49  C   UNL     1      -2.351   5.741  -9.767  1.00  0.00     0.074 A 
ATOM     50  C   UNL     1      -7.554   4.356 -13.127  1.00  0.00     0.029 A 
ATOM     51  N   UNL     1      -6.053   4.602 -11.504  1.00  0.00    -0.354 N 
ATOM     52  N   UNL     1      -3.469   5.433 -10.379  1.00  0.00    -0.248 NA
ATOM     53  C   UNL     1      -1.285   6.204 -10.667  1.00  0.00     0.031 C 
ATOM     54  C   UNL     1      -6.371   4.843 -13.690  1.00  0.00     0.029 A 
ATOM     55  C   UNL     1      -5.444   5.024 -12.675  1.00  0.00     0.049 A 
ATOM     56  H   UNL     1      -5.631   4.606 -10.615  1.00  0.00     0.167 HD
ATOM     57  C   UNL     1      -3.254   5.697 -11.725  1.00  0.00     0.074 A 
ATOM     58  C   UNL     1      -1.901   6.199 -11.841  1.00  0.00     0.031 C 
ATOM     59  C   UNL     1      -4.102   5.539 -12.771  1.00  0.00     0.037 A 
BRANCH  46  60
ATOM     60  C   UNL     1      -9.589   3.141 -11.252  1.00  0.00     0.064 A 
ATOM     61  C   UNL     1     -10.780   3.807 -10.923  1.00  0.00     0.173 A 
ATOM     62  C   UNL     1      -9.679   2.007 -12.073  1.00  0.00     0.173 A 
ATOM     63  F   UNL     1     -10.752   4.891 -10.133  1.00  0.00    -0.203 F 
ATOM     64  C   UNL     1     -12.012   3.337 -11.372  1.00  0.00     0.198 A 
ATOM     65  C   UNL     1     -10.909   1.560 -12.548  1.00  0.00     0.198 A 
ATOM     66  F   UNL     1      -8.572   1.336 -12.425  1.00  0.00    -0.203 F 
ATOM     67  F   UNL     1     -13.140   3.960 -11.002  1.00  0.00    -0.200 F 
ATOM     68  C   UNL     1     -12.075   2.220 -12.191  1.00  0.00     0.200 A 
ATOM     69  F   UNL     1     -10.966   0.489 -13.353  1.00  0.00    -0.200 F 
ATOM     70  F   UNL     1     -13.260   1.776 -12.631  1.00  0.00    -0.200 F 
ENDBRANCH  46  60
BRANCH  47  71
ATOM     71  C   UNL     1      -0.679   6.077  -7.802  1.00  0.00     0.064 A 
ATOM     72  C   UNL     1      -0.249   7.409  -7.870  1.00  0.00     0.173 A 
ATOM     73  C   UNL     1       0.207   5.133  -7.261  1.00  0.00     0.173 A 
ATOM     74  F   UNL     1      -1.051   8.345  -8.397  1.00  0.00    -0.203 F 
ATOM     75  C   UNL     1       1.024   7.779  -7.439  1.00  0.00     0.198 A 
ATOM     76  C   UNL     1       1.468   5.510  -6.801  1.00  0.00     0.198 A 
ATOM     77  F   UNL     1      -0.156   3.846  -7.168  1.00  0.00    -0.203 F 
ATOM     78  F   UNL     1       1.428   9.050  -7.564  1.00  0.00    -0.200 F 
ATOM     79  C   UNL     1       1.879   6.830  -6.899  1.00  0.00     0.200 A 
ATOM     80  F   UNL     1       2.285   4.592  -6.265  1.00  0.00    -0.200 F 
ATOM     81  F   UNL     1       3.102   7.186  -6.483  1.00  0.00    -0.200 F 
ENDBRANCH  47  71
BRANCH  59  82
ATOM     82  C   UNL     1      -3.617   5.960 -14.128  1.00  0.00     0.064 A 
ATOM     83  C   UNL     1      -2.651   5.225 -14.829  1.00  0.00     0.173 A 
ATOM     84  C   UNL     1      -4.179   7.080 -14.761  1.00  0.00     0.173 A 
ATOM     85  F   UNL     1      -2.072   4.156 -14.262  1.00  0.00    -0.203 F 
ATOM     86  C   UNL     1      -2.252   5.606 -16.108  1.00  0.00     0.198 A 
ATOM     87  C   UNL     1      -3.802   7.438 -16.052  1.00  0.00     0.198 A 
ATOM     88  F   UNL     1      -5.113   7.813 -14.136  1.00  0.00    -0.203 F 
ATOM     89  F   UNL     1      -1.297   4.913 -16.744  1.00  0.00    -0.200 F 
ATOM     90  C   UNL     1      -2.836   6.705 -16.722  1.00  0.00     0.200 A 
ATOM     91  F   UNL     1      -4.380   8.489 -16.649  1.00  0.00    -0.200 F 
ATOM     92  F   UNL     1      -2.463   7.059 -17.959  1.00  0.00    -0.200 F 
ENDBRANCH  59  82
ENDBRANCH  33  34
ENDBRANCH  25  28
ENDBRANCH  23  24
ENDBRANCH  22  23
ENDBRANCH  21  22
ENDBRANCH   3  21
TORSDOF 18
