REMARK SMILES O=C(COC1CC[NH+](Cc2nccs2)CC1)NCCCNC(=O)c1ccc(-c2c3nc(c(-c4c(F)c(F)c(F)c(F)c4F)c4ccc([nH]4)c(-c4c(F)c(F)c(F)c(F)c4F)c4nc(c(-c5c(F)c(F)c(F)c(F)c5F)c5ccc2[nH]5)C=C4)C=C3)cc1
REMARK SMILES IDX 18 1 17 2 1 3 2 4 3 6 4 7 5 8 6 9 16 10 7 11 15 12 8 13 9 15
REMARK SMILES IDX 10 16 11 17 14 18 12 19 13 20 19 21 20 22 21 23 22 24 23 26
REMARK SMILES IDX 24 27 25 28 86 29 26 30 85 31 27 32 28 33 29 34 79 35 30 36
REMARK SMILES IDX 84 37 78 38 80 39 31 40 83 41 77 42 76 43 32 45 64 46 44 47
REMARK SMILES IDX 63 48 45 49 48 50 62 51 81 52 46 53 47 54 61 56 82 57 49 58
REMARK SMILES IDX 33 59 34 60 42 61 35 62 36 63 40 64 43 65 37 66 38 67 41 68
REMARK SMILES IDX 39 69 65 70 66 71 74 72 67 73 68 74 72 75 75 76 69 77 70 78
REMARK SMILES IDX 73 79 71 80 50 81 51 82 59 83 52 84 53 85 57 86 60 87 54 88
REMARK SMILES IDX 55 89 58 90 56 91
REMARK H PARENT 17 5 8 14 21 25 80 44 48 55
REMARK Flexibility Score: inf
ROOT
ATOM      1  C   UNL     1       2.152   1.544   1.737  1.00  0.00     0.117 C 
ENDROOT
BRANCH   1   2
ATOM      2  N   UNL     1       2.837   0.597   0.883  1.00  0.00    -0.354 N 
ATOM      3  O   UNL     1       1.031  -0.781   0.497  1.00  0.00    -0.272 OA
ATOM      4  C   UNL     1       2.166  -0.411   0.217  1.00  0.00     0.246 C 
ATOM      5  H   UNL     1       3.812   0.673   0.773  1.00  0.00     0.163 HD
BRANCH   4   6
ATOM      6  C   UNL     1       2.973  -1.003  -0.941  1.00  0.00     0.260 C 
BRANCH   6   7
ATOM      7  O   UNL     1       3.626  -0.030  -1.756  1.00  0.00    -0.368 OA
BRANCH   7   8
ATOM      8  C   UNL     1       2.753   0.695  -2.643  1.00  0.00     0.130 C 
ATOM      9  C   UNL     1       3.566   1.121  -3.869  1.00  0.00     0.093 C 
ATOM     10  C   UNL     1       2.201   1.966  -1.994  1.00  0.00     0.093 C 
ATOM     11  C   UNL     1       4.654   2.134  -3.497  1.00  0.00     0.265 C 
ATOM     12  C   UNL     1       3.338   2.912  -1.602  1.00  0.00     0.265 C 
ATOM     13  N   UNL     1       4.112   3.302  -2.781  1.00  0.00    -0.329 N 
ATOM     14  H   UNL     1       3.464   3.764  -3.419  1.00  0.00     0.348 HD
BRANCH  13  15
ATOM     15  C   UNL     1       5.169   4.292  -2.452  1.00  0.00     0.331 C 
BRANCH  15  16
ATOM     16  C   UNL     1       6.346   3.776  -1.649  1.00  0.00     0.147 A 
ATOM     17  N   UNL     1       7.323   3.042  -2.150  1.00  0.00    -0.244 NA
ATOM     18  S   UNL     1       6.495   4.134   0.030  1.00  0.00    -0.122 S 
ATOM     19  C   UNL     1       8.215   2.699  -1.157  1.00  0.00     0.123 A 
ATOM     20  C   UNL     1       7.935   3.207   0.092  1.00  0.00     0.087 A 
ENDBRANCH  15  16
ENDBRANCH  13  15
ENDBRANCH   7   8
ENDBRANCH   6   7
ENDBRANCH   4   6
ENDBRANCH   1   2
BRANCH   1  21
ATOM     21  C   UNL     1       2.493   1.392   3.208  1.00  0.00     0.042 C 
BRANCH  21  22
ATOM     22  C   UNL     1       3.969   1.580   3.534  1.00  0.00     0.118 C 
BRANCH  22  23
ATOM     23  N   UNL     1       4.465   2.922   3.257  1.00  0.00    -0.352 N 
ATOM     24  C   UNL     1       5.173   3.786   4.056  1.00  0.00     0.251 C 
ATOM     25  H   UNL     1       4.262   3.262   2.356  1.00  0.00     0.163 HD
ATOM     26  O   UNL     1       5.399   4.929   3.659  1.00  0.00    -0.269 OA
BRANCH  24  27
ATOM     27  C   UNL     1       5.643   3.375   5.398  1.00  0.00     0.039 A 
ATOM     28  C   UNL     1       5.569   4.300   6.444  1.00  0.00     0.014 A 
ATOM     29  C   UNL     1       6.171   2.104   5.636  1.00  0.00     0.014 A 
ATOM     30  C   UNL     1       5.960   3.929   7.733  1.00  0.00     0.010 A 
ATOM     31  C   UNL     1       6.474   1.706   6.937  1.00  0.00     0.010 A 
ATOM     32  C   UNL     1       6.379   2.615   8.000  1.00  0.00    -0.014 A 
BRANCH  32  33
ATOM     33  C   UNL     1       6.714   2.189   9.385  1.00  0.00     0.031 A 
ATOM     34  C   UNL     1       8.106   1.733   9.732  1.00  0.00     0.074 A 
ATOM     35  C   UNL     1       5.751   2.176  10.328  1.00  0.00     0.049 A 
ATOM     36  N   UNL     1       8.582   1.326  10.883  1.00  0.00    -0.248 NA
ATOM     37  C   UNL     1       9.088   1.705   8.637  1.00  0.00     0.031 C 
ATOM     38  C   UNL     1       4.349   2.533  10.107  1.00  0.00     0.029 A 
ATOM     39  N   UNL     1       5.803   1.848  11.660  1.00  0.00    -0.354 N 
ATOM     40  C   UNL     1       9.909   0.990  10.648  1.00  0.00     0.074 A 
ATOM     41  C   UNL     1      10.147   1.178   9.233  1.00  0.00     0.031 C 
ATOM     42  C   UNL     1       3.683   2.443  11.269  1.00  0.00     0.029 A 
ATOM     43  C   UNL     1       4.600   1.985  12.309  1.00  0.00     0.049 A 
ATOM     44  H   UNL     1       6.625   1.544  12.108  1.00  0.00     0.167 HD
ATOM     45  C   UNL     1      10.852   0.589  11.534  1.00  0.00     0.037 A 
ATOM     46  C   UNL     1       4.272   1.768  13.597  1.00  0.00     0.037 A 
ATOM     47  C   UNL     1      10.618   0.418  12.945  1.00  0.00     0.049 A 
ATOM     48  C   UNL     1       5.338   1.322  14.561  1.00  0.00     0.074 A 
ATOM     49  C   UNL     1      11.522   0.071  13.935  1.00  0.00     0.029 A 
ATOM     50  N   UNL     1       9.388   0.578  13.568  1.00  0.00    -0.354 N 
ATOM     51  N   UNL     1       6.609   1.088  14.342  1.00  0.00    -0.248 NA
ATOM     52  C   UNL     1       4.924   1.123  15.957  1.00  0.00     0.031 C 
ATOM     53  C   UNL     1      10.829  -0.033  15.145  1.00  0.00     0.029 A 
ATOM     54  C   UNL     1       9.505   0.311  14.923  1.00  0.00     0.049 A 
ATOM     55  H   UNL     1       8.555   0.841  13.114  1.00  0.00     0.167 HD
ATOM     56  C   UNL     1       7.152   0.745  15.573  1.00  0.00     0.074 A 
ATOM     57  C   UNL     1       6.076   0.822  16.538  1.00  0.00     0.031 C 
ATOM     58  C   UNL     1       8.427   0.396  15.876  1.00  0.00     0.037 A 
BRANCH  45  59
ATOM     59  C   UNL     1      12.230   0.309  11.005  1.00  0.00     0.064 A 
ATOM     60  C   UNL     1      13.057   1.336  10.521  1.00  0.00     0.173 A 
ATOM     61  C   UNL     1      12.748  -0.995  11.016  1.00  0.00     0.173 A 
ATOM     62  F   UNL     1      12.608   2.600  10.477  1.00  0.00    -0.203 F 
ATOM     63  C   UNL     1      14.335   1.063  10.040  1.00  0.00     0.198 A 
ATOM     64  C   UNL     1      14.040  -1.259  10.566  1.00  0.00     0.198 A 
ATOM     65  F   UNL     1      12.006  -2.015  11.473  1.00  0.00    -0.203 F 
ATOM     66  F   UNL     1      15.083   2.053   9.534  1.00  0.00    -0.200 F 
ATOM     67  C   UNL     1      14.829  -0.232  10.071  1.00  0.00     0.200 A 
ATOM     68  F   UNL     1      14.521  -2.509  10.611  1.00  0.00    -0.200 F 
ATOM     69  F   UNL     1      16.062  -0.491   9.616  1.00  0.00    -0.200 F 
ENDBRANCH  45  59
BRANCH  46  70
ATOM     70  C   UNL     1       2.878   2.002  14.060  1.00  0.00     0.064 A 
ATOM     71  C   UNL     1       2.576   3.052  14.939  1.00  0.00     0.173 A 
ATOM     72  C   UNL     1       1.823   1.177  13.646  1.00  0.00     0.173 A 
ATOM     73  F   UNL     1       3.554   3.857  15.380  1.00  0.00    -0.203 F 
ATOM     74  C   UNL     1       1.279   3.251  15.406  1.00  0.00     0.198 A 
ATOM     75  C   UNL     1       0.520   1.396  14.088  1.00  0.00     0.198 A 
ATOM     76  F   UNL     1       2.056   0.161  12.801  1.00  0.00    -0.203 F 
ATOM     77  F   UNL     1       1.030   4.229  16.288  1.00  0.00    -0.200 F 
ATOM     78  C   UNL     1       0.251   2.427  14.976  1.00  0.00     0.200 A 
ATOM     79  F   UNL     1      -0.473   0.607  13.657  1.00  0.00    -0.200 F 
ATOM     80  F   UNL     1      -0.997   2.619  15.424  1.00  0.00    -0.200 F 
ENDBRANCH  46  70
BRANCH  58  81
ATOM     81  C   UNL     1       8.736   0.109  17.319  1.00  0.00     0.064 A 
ATOM     82  C   UNL     1       8.236  -1.028  17.971  1.00  0.00     0.173 A 
ATOM     83  C   UNL     1       9.559   0.976  18.053  1.00  0.00     0.173 A 
ATOM     84  F   UNL     1       7.434  -1.883  17.319  1.00  0.00    -0.203 F 
ATOM     85  C   UNL     1       8.517  -1.265  19.314  1.00  0.00     0.198 A 
ATOM     86  C   UNL     1       9.868   0.717  19.386  1.00  0.00     0.198 A 
ATOM     87  F   UNL     1      10.072   2.074  17.476  1.00  0.00    -0.203 F 
ATOM     88  F   UNL     1       7.977  -2.324  19.933  1.00  0.00    -0.200 F 
ATOM     89  C   UNL     1       9.337  -0.396  20.018  1.00  0.00     0.200 A 
ATOM     90  F   UNL     1      10.674   1.550  20.059  1.00  0.00    -0.200 F 
ATOM     91  F   UNL     1       9.608  -0.627  21.310  1.00  0.00    -0.200 F 
ENDBRANCH  58  81
ENDBRANCH  32  33
ENDBRANCH  24  27
ENDBRANCH  22  23
ENDBRANCH  21  22
ENDBRANCH   1  21
TORSDOF 14
