REMARK SMILES O=C(Nc1cccc(C(=O)NCCCNC(=O)c2ccc(-c3c4nc(c(-c5c(F)c(F)c(F)c(F)c5F)c5ccc([nH]5)c(-c5c(F)c(F)c(F)c(F)c5F)c5nc(c(-c6c(F)c(F)c(F)c(F)c6F)c6ccc3[nH]6)C=C5)C=C4)cc2)c1)Nc1cc(Cl)c(Cl)cc1Cl
REMARK SMILES IDX 13 1 12 2 11 3 9 4 10 5 8 7 4 8 5 9 81 10 6 11 7 12 3 13
REMARK SMILES IDX 1 14 2 15 82 16 83 19 84 20 90 21 85 22 89 23 91 24 86 25
REMARK SMILES IDX 87 26 88 27 14 28 15 29 16 30 17 32 18 33 19 34 80 35 20 36
REMARK SMILES IDX 79 37 21 38 22 39 23 40 73 41 24 42 78 43 72 44 74 45 25 46
REMARK SMILES IDX 77 47 71 48 70 49 26 51 58 52 38 53 57 54 39 55 42 56 56 57
REMARK SMILES IDX 75 58 40 59 41 60 55 62 76 63 43 64 27 65 28 66 36 67 29 68
REMARK SMILES IDX 30 69 34 70 37 71 31 72 32 73 35 74 33 75 59 76 60 77 68 78
REMARK SMILES IDX 61 79 62 80 66 81 69 82 63 83 64 84 67 85 65 86 44 87 45 88
REMARK SMILES IDX 53 89 46 90 47 91 51 92 54 93 48 94 49 95 52 96 50 97
REMARK H PARENT 11 6 3 17 82 18 15 31 74 50 42 61
REMARK Flexibility Score: inf
ROOT
ATOM      1  C   UNL     1       4.396   1.808  -3.500  1.00  0.00     0.042 C 
ENDROOT
BRANCH   1   2
ATOM      2  C   UNL     1       5.349   0.664  -3.155  1.00  0.00     0.118 C 
BRANCH   2   3
ATOM      3  N   UNL     1       6.605   1.163  -2.628  1.00  0.00    -0.352 N 
ATOM      4  C   UNL     1       7.084   1.369  -1.360  1.00  0.00     0.251 C 
ATOM      5  O   UNL     1       8.239   1.791  -1.272  1.00  0.00    -0.269 OA
ATOM      6  H   UNL     1       7.251   1.404  -3.330  1.00  0.00     0.163 HD
BRANCH   4   7
ATOM      7  C   UNL     1       6.325   1.086  -0.105  1.00  0.00     0.041 A 
ATOM      8  C   UNL     1       4.318   0.629   1.200  1.00  0.00     0.043 A 
ATOM      9  C   UNL     1       5.072   0.598   2.372  1.00  0.00     0.026 A 
ATOM     10  C   UNL     1       4.939   0.936  -0.017  1.00  0.00     0.040 A 
ATOM     11  C   UNL     1       6.452   0.775   2.312  1.00  0.00     0.003 A 
ATOM     12  C   UNL     1       7.073   1.001   1.081  1.00  0.00     0.014 A 
BRANCH   8  13
ATOM     13  N   UNL     1       2.938   0.376   1.291  1.00  0.00    -0.308 N 
ATOM     14  O   UNL     1       0.867  -0.075   0.542  1.00  0.00    -0.248 OA
ATOM     15  C   UNL     1       2.078  -0.141   0.352  1.00  0.00     0.323 C 
ATOM     16  N   UNL     1       2.675  -0.866  -0.653  1.00  0.00    -0.306 N 
ATOM     17  H   UNL     1       2.527   0.603   2.156  1.00  0.00     0.171 HD
ATOM     18  H   UNL     1       3.650  -0.996  -0.593  1.00  0.00     0.171 HD
BRANCH  16  19
ATOM     19  C   UNL     1       2.018  -1.440  -1.764  1.00  0.00     0.063 A 
ATOM     20  C   UNL     1       2.475  -2.707  -2.158  1.00  0.00     0.049 A 
ATOM     21  C   UNL     1       0.984  -0.834  -2.500  1.00  0.00     0.066 A 
ATOM     22  C   UNL     1       1.860  -3.398  -3.207  1.00  0.00     0.061 A 
ATOM     23  C   UNL     1       0.372  -1.528  -3.553  1.00  0.00     0.044 A 
ATOM     24  Cl  UNL     1       0.534   0.825  -2.311  1.00  0.00    -0.082 Cl
ATOM     25  Cl  UNL     1       2.463  -4.971  -3.591  1.00  0.00    -0.083 Cl
ATOM     26  C   UNL     1       0.796  -2.813  -3.896  1.00  0.00     0.061 A 
ATOM     27  Cl  UNL     1      -0.016  -3.610  -5.195  1.00  0.00    -0.083 Cl
ENDBRANCH  16  19
ENDBRANCH   8  13
ENDBRANCH   4   7
ENDBRANCH   2   3
ENDBRANCH   1   2
BRANCH   1  28
ATOM     28  C   UNL     1       4.730   2.491  -4.826  1.00  0.00     0.118 C 
BRANCH  28  29
ATOM     29  N   UNL     1       4.458   1.620  -5.962  1.00  0.00    -0.352 N 
ATOM     30  C   UNL     1       3.607   1.782  -7.024  1.00  0.00     0.251 C 
ATOM     31  H   UNL     1       4.969   0.778  -5.967  1.00  0.00     0.163 HD
ATOM     32  O   UNL     1       3.337   0.814  -7.729  1.00  0.00    -0.269 OA
BRANCH  30  33
ATOM     33  C   UNL     1       3.010   3.101  -7.332  1.00  0.00     0.039 A 
ATOM     34  C   UNL     1       1.691   3.147  -7.795  1.00  0.00     0.014 A 
ATOM     35  C   UNL     1       3.756   4.279  -7.239  1.00  0.00     0.014 A 
ATOM     36  C   UNL     1       1.105   4.375  -8.112  1.00  0.00     0.010 A 
ATOM     37  C   UNL     1       3.152   5.509  -7.495  1.00  0.00     0.010 A 
ATOM     38  C   UNL     1       1.822   5.569  -7.936  1.00  0.00    -0.014 A 
BRANCH  38  39
ATOM     39  C   UNL     1       1.190   6.888  -8.190  1.00  0.00     0.031 A 
ATOM     40  C   UNL     1       1.688   7.772  -9.299  1.00  0.00     0.074 A 
ATOM     41  C   UNL     1       0.210   7.317  -7.371  1.00  0.00     0.049 A 
ATOM     42  N   UNL     1       1.318   8.987  -9.618  1.00  0.00    -0.248 NA
ATOM     43  C   UNL     1       2.760   7.229 -10.146  1.00  0.00     0.031 C 
ATOM     44  C   UNL     1      -0.326   6.570  -6.233  1.00  0.00     0.029 A 
ATOM     45  N   UNL     1      -0.497   8.493  -7.360  1.00  0.00    -0.354 N 
ATOM     46  C   UNL     1       2.122   9.358 -10.688  1.00  0.00     0.074 A 
ATOM     47  C   UNL     1       3.027   8.257 -10.938  1.00  0.00     0.031 C 
ATOM     48  C   UNL     1      -1.288   7.297  -5.643  1.00  0.00     0.029 A 
ATOM     49  C   UNL     1      -1.410   8.575  -6.337  1.00  0.00     0.049 A 
ATOM     50  H   UNL     1      -0.363   9.210  -8.022  1.00  0.00     0.167 HD
ATOM     51  C   UNL     1       2.094  10.507 -11.407  1.00  0.00     0.037 A 
ATOM     52  C   UNL     1      -2.245   9.573  -5.992  1.00  0.00     0.037 A 
ATOM     53  C   UNL     1       1.172  11.588 -11.172  1.00  0.00     0.049 A 
ATOM     54  C   UNL     1      -2.259  10.834  -6.809  1.00  0.00     0.074 A 
ATOM     55  C   UNL     1       1.020  12.764 -11.886  1.00  0.00     0.029 A 
ATOM     56  N   UNL     1       0.245  11.625 -10.140  1.00  0.00    -0.354 N 
ATOM     57  N   UNL     1      -1.539  11.148  -7.858  1.00  0.00    -0.248 NA
ATOM     58  C   UNL     1      -3.207  11.879  -6.397  1.00  0.00     0.031 C 
ATOM     59  C   UNL     1       0.029  13.530 -11.263  1.00  0.00     0.029 A 
ATOM     60  C   UNL     1      -0.468  12.812 -10.187  1.00  0.00     0.049 A 
ATOM     61  H   UNL     1       0.113  10.912  -9.473  1.00  0.00     0.167 HD
ATOM     62  C   UNL     1      -1.959  12.412  -8.245  1.00  0.00     0.074 A 
ATOM     63  C   UNL     1      -3.010  12.802  -7.328  1.00  0.00     0.031 C 
ATOM     64  C   UNL     1      -1.513  13.183  -9.267  1.00  0.00     0.037 A 
BRANCH  51  65
ATOM     65  C   UNL     1       3.088  10.655 -12.522  1.00  0.00     0.064 A 
ATOM     66  C   UNL     1       2.980   9.909 -13.706  1.00  0.00     0.173 A 
ATOM     67  C   UNL     1       4.134  11.585 -12.425  1.00  0.00     0.173 A 
ATOM     68  F   UNL     1       2.004   9.000 -13.845  1.00  0.00    -0.203 F 
ATOM     69  C   UNL     1       3.898  10.071 -14.741  1.00  0.00     0.198 A 
ATOM     70  C   UNL     1       5.033  11.764 -13.473  1.00  0.00     0.198 A 
ATOM     71  F   UNL     1       4.278  12.329 -11.318  1.00  0.00    -0.203 F 
ATOM     72  F   UNL     1       3.801   9.317 -15.845  1.00  0.00    -0.200 F 
ATOM     73  C   UNL     1       4.919  11.003 -14.627  1.00  0.00     0.200 A 
ATOM     74  F   UNL     1       6.012  12.674 -13.367  1.00  0.00    -0.200 F 
ATOM     75  F   UNL     1       5.797  11.163 -15.627  1.00  0.00    -0.200 F 
ENDBRANCH  51  65
BRANCH  52  76
ATOM     76  C   UNL     1      -3.151   9.408  -4.826  1.00  0.00     0.064 A 
ATOM     77  C   UNL     1      -4.533   9.261  -5.007  1.00  0.00     0.173 A 
ATOM     78  C   UNL     1      -2.658   9.391  -3.514  1.00  0.00     0.173 A 
ATOM     79  F   UNL     1      -5.053   9.293  -6.243  1.00  0.00    -0.203 F 
ATOM     80  C   UNL     1      -5.390   9.121  -3.918  1.00  0.00     0.198 A 
ATOM     81  C   UNL     1      -3.513   9.224  -2.427  1.00  0.00     0.198 A 
ATOM     82  F   UNL     1      -1.343   9.524  -3.289  1.00  0.00    -0.203 F 
ATOM     83  F   UNL     1      -6.712   9.026  -4.117  1.00  0.00    -0.200 F 
ATOM     84  C   UNL     1      -4.879   9.097  -2.629  1.00  0.00     0.200 A 
ATOM     85  F   UNL     1      -3.014   9.189  -1.184  1.00  0.00    -0.200 F 
ATOM     86  F   UNL     1      -5.704   8.959  -1.582  1.00  0.00    -0.200 F 
ENDBRANCH  52  76
BRANCH  64  87
ATOM     87  C   UNL     1      -2.178  14.513  -9.463  1.00  0.00     0.064 A 
ATOM     88  C   UNL     1      -1.946  15.584  -8.588  1.00  0.00     0.173 A 
ATOM     89  C   UNL     1      -3.031  14.727 -10.556  1.00  0.00     0.173 A 
ATOM     90  F   UNL     1      -1.151  15.423  -7.519  1.00  0.00    -0.203 F 
ATOM     91  C   UNL     1      -2.562  16.816  -8.788  1.00  0.00     0.198 A 
ATOM     92  C   UNL     1      -3.624  15.969 -10.768  1.00  0.00     0.198 A 
ATOM     93  F   UNL     1      -3.281  13.736 -11.424  1.00  0.00    -0.203 F 
ATOM     94  F   UNL     1      -2.362  17.813  -7.915  1.00  0.00    -0.200 F 
ATOM     95  C   UNL     1      -3.395  17.009  -9.881  1.00  0.00     0.200 A 
ATOM     96  F   UNL     1      -4.419  16.157 -11.830  1.00  0.00    -0.200 F 
ATOM     97  F   UNL     1      -3.983  18.198 -10.074  1.00  0.00    -0.200 F 
ENDBRANCH  64  87
ENDBRANCH  38  39
ENDBRANCH  30  33
ENDBRANCH  28  29
ENDBRANCH   1  28
TORSDOF 12
