REMARK SMILES C[C@@H](Oc1ccc(/C=C2\C(=O)[NH+]=C(NCCCNC(=O)c3ccc(-c4c5nc(c(-c6c(F)c(F)c(F)c(F)c6F)c6ccc([nH]6)c(-c6c(F)c(F)c(F)c(F)c6F)c6nc(c(-c7c(F)c(F)c(F)c(F)c7F)c7ccc4[nH]7)C=C6)C=C5)cc3)N(c3ccc4c(c3)OCO4)C2=O)cc1)C(=O)[O-]
REMARK SMILES IDX 15 1 14 2 8 3 9 4 10 5 94 6 11 7 12 8 84 9 95 10 13 11 7 14
REMARK SMILES IDX 4 15 5 16 97 17 6 18 96 19 3 20 2 21 1 22 98 23 99 24 100 25
REMARK SMILES IDX 85 26 86 27 90 28 87 29 89 30 88 31 91 32 93 33 92 34 16 35
REMARK SMILES IDX 17 36 18 37 19 38 20 40 21 41 22 42 83 43 23 44 82 45 24 46
REMARK SMILES IDX 25 47 26 48 76 49 27 50 81 51 75 52 77 53 28 54 80 55 74 56
REMARK SMILES IDX 73 57 29 59 61 60 41 61 60 62 42 63 45 64 59 65 78 66 43 67
REMARK SMILES IDX 44 68 58 70 79 71 46 72 30 73 31 74 39 75 32 76 33 77 37 78
REMARK SMILES IDX 40 79 34 80 35 81 38 82 36 83 62 84 63 85 71 86 64 87 65 88
REMARK SMILES IDX 69 89 72 90 66 91 67 92 70 93 68 94 47 95 48 96 56 97 49 98
REMARK SMILES IDX 50 99 54 100 57 101 51 102 52 103 55 104 53 105
REMARK H PARENT 12 12 14 13 18 39 77 58 45 69
REMARK Flexibility Score: inf
ROOT
ATOM      1  C   UNL     1       7.729   9.349   1.903  1.00  0.00     0.199 C 
ENDROOT
BRANCH   1   2
ATOM      2  N   UNL     1       8.491   8.209   1.431  1.00  0.00    -0.277 N 
ATOM      3  C   UNL     1       6.204   3.576   0.166  1.00  0.00     0.031 C 
ATOM      4  C   UNL     1       6.881   4.511   0.860  1.00  0.00     0.138 C 
ATOM      5  C   UNL     1       6.361   5.381   1.928  1.00  0.00     0.321 C 
ATOM      6  C   UNL     1       8.305   4.681   0.512  1.00  0.00     0.328 C 
ATOM      7  O   UNL     1       5.538   4.996   2.744  1.00  0.00    -0.250 OA
ATOM      8  N   UNL     1       6.865   6.652   1.923  1.00  0.00    -0.210 N 
ATOM      9  N   UNL     1       8.819   5.929   0.842  1.00  0.00    -0.162 N 
ATOM     10  O   UNL     1       8.939   3.784  -0.044  1.00  0.00    -0.249 OA
ATOM     11  C   UNL     1       8.032   6.915   1.423  1.00  0.00     0.366 C 
ATOM     12  H   UNL     1       6.330   7.383   2.306  1.00  0.00     0.270 HD
ATOM     13  H   UNL     1       9.400   8.374   1.092  1.00  0.00     0.260 HD
BRANCH   3  14
ATOM     14  C   UNL     1       4.790   3.174   0.201  1.00  0.00    -0.024 A 
ATOM     15  C   UNL     1       2.124   2.282   0.055  1.00  0.00     0.120 A 
ATOM     16  C   UNL     1       2.406   3.587   0.450  1.00  0.00     0.047 A 
ATOM     17  C   UNL     1       3.163   1.437  -0.316  1.00  0.00     0.047 A 
ATOM     18  C   UNL     1       3.732   4.035   0.511  1.00  0.00     0.012 A 
ATOM     19  C   UNL     1       4.485   1.875  -0.230  1.00  0.00     0.012 A 
BRANCH  15  20
ATOM     20  O   UNL     1       0.815   1.928  -0.097  1.00  0.00    -0.485 OA
BRANCH  20  21
ATOM     21  C   UNL     1       0.385   0.862   0.762  1.00  0.00     0.216 C 
ATOM     22  C   UNL     1       0.589  -0.509   0.123  1.00  0.00     0.059 C 
BRANCH  21  23
ATOM     23  C   UNL     1      -1.109   1.032   1.014  1.00  0.00     0.082 C 
ATOM     24  O   UNL     1      -1.679   0.858   2.082  1.00  0.00    -0.546 OA
ATOM     25  O   UNL     1      -1.826   1.322  -0.092  1.00  0.00    -0.546 OA
ENDBRANCH  21  23
ENDBRANCH  20  21
ENDBRANCH  15  20
ENDBRANCH   3  14
BRANCH   9  26
ATOM     26  C   UNL     1      10.155   6.180   0.437  1.00  0.00     0.115 A 
ATOM     27  C   UNL     1      11.198   6.120   1.386  1.00  0.00     0.048 A 
ATOM     28  C   UNL     1      10.431   6.311  -0.930  1.00  0.00     0.094 A 
ATOM     29  C   UNL     1      12.532   6.131   0.964  1.00  0.00     0.054 A 
ATOM     30  C   UNL     1      11.751   6.297  -1.310  1.00  0.00     0.169 A 
ATOM     31  C   UNL     1      12.772   6.192  -0.394  1.00  0.00     0.166 A 
ATOM     32  O   UNL     1      12.202   6.307  -2.593  1.00  0.00    -0.453 OA
ATOM     33  O   UNL     1      13.988   6.101  -0.998  1.00  0.00    -0.454 OA
ATOM     34  C   UNL     1      13.581   5.949  -2.376  1.00  0.00     0.468 C 
ENDBRANCH   9  26
ENDBRANCH   1   2
BRANCH   1  35
ATOM     35  C   UNL     1       8.104   9.691   3.338  1.00  0.00     0.059 C 
BRANCH  35  36
ATOM     36  C   UNL     1       9.570  10.070   3.520  1.00  0.00     0.119 C 
BRANCH  36  37
ATOM     37  N   UNL     1       9.952  11.259   2.769  1.00  0.00    -0.352 N 
ATOM     38  C   UNL     1      10.487  12.448   3.197  1.00  0.00     0.251 C 
ATOM     39  H   UNL     1       9.801  11.200   1.798  1.00  0.00     0.163 HD
ATOM     40  O   UNL     1      10.581  13.387   2.411  1.00  0.00    -0.269 OA
BRANCH  38  41
ATOM     41  C   UNL     1      10.931  12.616   4.597  1.00  0.00     0.039 A 
ATOM     42  C   UNL     1      10.645  13.818   5.250  1.00  0.00     0.014 A 
ATOM     43  C   UNL     1      11.648  11.616   5.258  1.00  0.00     0.014 A 
ATOM     44  C   UNL     1      11.017  13.989   6.585  1.00  0.00     0.010 A 
ATOM     45  C   UNL     1      11.947  11.755   6.611  1.00  0.00     0.010 A 
ATOM     46  C   UNL     1      11.637  12.943   7.289  1.00  0.00    -0.014 A 
BRANCH  46  47
ATOM     47  C   UNL     1      11.958  13.074   8.734  1.00  0.00     0.031 A 
ATOM     48  C   UNL     1      13.386  13.023   9.204  1.00  0.00     0.074 A 
ATOM     49  C   UNL     1      10.957  13.177   9.630  1.00  0.00     0.049 A 
ATOM     50  N   UNL     1      13.858  13.054  10.425  1.00  0.00    -0.248 NA
ATOM     51  C   UNL     1      14.419  12.895   8.165  1.00  0.00     0.031 C 
ATOM     52  C   UNL     1       9.530  13.192   9.306  1.00  0.00     0.029 A 
ATOM     53  N   UNL     1      10.987  13.278  10.999  1.00  0.00    -0.354 N 
ATOM     54  C   UNL     1      15.236  12.937  10.301  1.00  0.00     0.074 A 
ATOM     55  C   UNL     1      15.521  12.778   8.891  1.00  0.00     0.031 C 
ATOM     56  C   UNL     1       8.822  13.319  10.439  1.00  0.00     0.029 A 
ATOM     57  C   UNL     1       9.741  13.351  11.573  1.00  0.00     0.049 A 
ATOM     58  H   UNL     1      11.822  13.296  11.521  1.00  0.00     0.167 HD
ATOM     59  C   UNL     1      16.180  12.981  11.272  1.00  0.00     0.037 A 
ATOM     60  C   UNL     1       9.378  13.424  12.868  1.00  0.00     0.037 A 
ATOM     61  C   UNL     1      15.893  13.157  12.672  1.00  0.00     0.049 A 
ATOM     62  C   UNL     1      10.446  13.453  13.928  1.00  0.00     0.074 A 
ATOM     63  C   UNL     1      16.782  13.272  13.727  1.00  0.00     0.029 A 
ATOM     64  N   UNL     1      14.618  13.239  13.214  1.00  0.00    -0.354 N 
ATOM     65  N   UNL     1      11.749  13.412  13.793  1.00  0.00    -0.248 NA
ATOM     66  C   UNL     1       9.991  13.546  15.322  1.00  0.00     0.031 C 
ATOM     67  C   UNL     1      16.045  13.366  14.913  1.00  0.00     0.029 A 
ATOM     68  C   UNL     1      14.697  13.374  14.592  1.00  0.00     0.049 A 
ATOM     69  H   UNL     1      13.781  13.205  12.697  1.00  0.00     0.167 HD
ATOM     70  C   UNL     1      12.269  13.506  15.078  1.00  0.00     0.074 A 
ATOM     71  C   UNL     1      11.140  13.622  15.977  1.00  0.00     0.031 C 
ATOM     72  C   UNL     1      13.565  13.497  15.476  1.00  0.00     0.037 A 
BRANCH  59  73
ATOM     73  C   UNL     1      17.616  12.835  10.855  1.00  0.00     0.064 A 
ATOM     74  C   UNL     1      18.274  13.830  10.115  1.00  0.00     0.173 A 
ATOM     75  C   UNL     1      18.356  11.705  11.233  1.00  0.00     0.173 A 
ATOM     76  F   UNL     1      17.610  14.927   9.718  1.00  0.00    -0.203 F 
ATOM     77  C   UNL     1      19.608  13.684   9.743  1.00  0.00     0.198 A 
ATOM     78  C   UNL     1      19.700  11.578  10.889  1.00  0.00     0.198 A 
ATOM     79  F   UNL     1      17.780  10.726  11.947  1.00  0.00    -0.203 F 
ATOM     80  F   UNL     1      20.198  14.623   8.991  1.00  0.00    -0.200 F 
ATOM     81  C   UNL     1      20.322  12.563  10.137  1.00  0.00     0.200 A 
ATOM     82  F   UNL     1      20.392  10.501  11.283  1.00  0.00    -0.200 F 
ATOM     83  F   UNL     1      21.608  12.428   9.785  1.00  0.00    -0.200 F 
ENDBRANCH  59  73
BRANCH  60  84
ATOM     84  C   UNL     1       7.939  13.493  13.235  1.00  0.00     0.064 A 
ATOM     85  C   UNL     1       7.393  14.658  13.793  1.00  0.00     0.173 A 
ATOM     86  C   UNL     1       7.083  12.398  13.046  1.00  0.00     0.173 A 
ATOM     87  F   UNL     1       8.176  15.725  14.012  1.00  0.00    -0.203 F 
ATOM     88  C   UNL     1       6.054  14.716  14.172  1.00  0.00     0.198 A 
ATOM     89  C   UNL     1       5.736  12.469  13.395  1.00  0.00     0.198 A 
ATOM     90  F   UNL     1       7.553  11.262  12.511  1.00  0.00    -0.203 F 
ATOM     91  F   UNL     1       5.572  15.824  14.751  1.00  0.00    -0.200 F 
ATOM     92  C   UNL     1       5.225  13.624  13.967  1.00  0.00     0.200 A 
ATOM     93  F   UNL     1       4.935  11.416  13.181  1.00  0.00    -0.200 F 
ATOM     94  F   UNL     1       3.936  13.681  14.329  1.00  0.00    -0.200 F 
ENDBRANCH  60  84
BRANCH  72  95
ATOM     95  C   UNL     1      13.837  13.659  16.944  1.00  0.00     0.064 A 
ATOM     96  C   UNL     1      13.534  12.649  17.869  1.00  0.00     0.173 A 
ATOM     97  C   UNL     1      14.442  14.830  17.428  1.00  0.00     0.173 A 
ATOM     98  F   UNL     1      12.941  11.516  17.461  1.00  0.00    -0.203 F 
ATOM     99  C   UNL     1      13.798  12.817  19.226  1.00  0.00     0.198 A 
ATOM    100  C   UNL     1      14.736  14.980  18.780  1.00  0.00     0.198 A 
ATOM    101  F   UNL     1      14.760  15.824  16.586  1.00  0.00    -0.203 F 
ATOM    102  F   UNL     1      13.449  11.861  20.098  1.00  0.00    -0.200 F 
ATOM    103  C   UNL     1      14.406  13.978  19.679  1.00  0.00     0.200 A 
ATOM    104  F   UNL     1      15.339  16.096  19.213  1.00  0.00    -0.200 F 
ATOM    105  F   UNL     1      14.666  14.135  20.984  1.00  0.00    -0.200 F 
ENDBRANCH  72  95
ENDBRANCH  46  47
ENDBRANCH  38  41
ENDBRANCH  36  37
ENDBRANCH  35  36
ENDBRANCH   1  35
TORSDOF 14
