REMARK SMILES COc1cccc([C@@H]2C[N@@H+](Cc3nccn3C)C[C@H]2C(=O)NCCCNC(=O)c2ccc(-c3c4nc(c(-c5c(F)c(F)c(F)c(F)c5F)c5ccc([nH]5)c(-c5c(F)c(F)c(F)c(F)c5F)c5nc(c(-c6c(F)c(F)c(F)c(F)c6F)c6ccc3[nH]6)C=C5)C=C4)cc2)c1
REMARK SMILES IDX 24 1 23 2 22 3 20 4 21 5 19 7 8 8 9 9 10 10 18 11 7 13 3 14
REMARK SMILES IDX 4 15 92 16 5 17 6 18 2 19 1 20 11 21 12 22 13 23 16 24 14 25
REMARK SMILES IDX 15 26 17 27 25 28 26 29 27 30 28 32 29 33 30 34 91 35 31 36
REMARK SMILES IDX 90 37 32 38 33 39 34 40 84 41 35 42 89 43 83 44 85 45 36 46
REMARK SMILES IDX 88 47 82 48 81 49 37 51 69 52 49 53 68 54 50 55 53 56 67 57
REMARK SMILES IDX 86 58 51 59 52 60 66 62 87 63 54 64 38 65 39 66 47 67 40 68
REMARK SMILES IDX 41 69 45 70 48 71 42 72 43 73 46 74 44 75 70 76 71 77 79 78
REMARK SMILES IDX 72 79 73 80 77 81 80 82 74 83 75 84 78 85 76 86 55 87 56 88
REMARK SMILES IDX 64 89 57 90 58 91 62 92 65 93 59 94 60 95 63 96 61 97
REMARK H PARENT 22 6 10 12 26 31 85 50 53 61
REMARK Flexibility Score: inf
ROOT
ATOM      1  C   UNL     1       4.495   8.194   2.350  1.00  0.00     0.042 C 
ENDROOT
BRANCH   1   2
ATOM      2  C   UNL     1       5.062   6.835   2.797  1.00  0.00     0.117 C 
BRANCH   2   3
ATOM      3  N   UNL     1       4.099   5.723   2.735  1.00  0.00    -0.356 N 
ATOM      4  C   UNL     1       3.837   4.507   2.217  1.00  0.00     0.229 C 
ATOM      5  O   UNL     1       2.953   3.953   2.906  1.00  0.00    -0.275 OA
ATOM      6  H   UNL     1       3.336   5.966   3.306  1.00  0.00     0.163 HD
BRANCH   4   7
ATOM      7  C   UNL     1       4.296   3.696   0.976  1.00  0.00     0.146 C 
ATOM      8  C   UNL     1       3.701   4.102  -0.378  1.00  0.00     0.092 C 
ATOM      9  C   UNL     1       4.568   3.342  -1.409  1.00  0.00     0.271 C 
ATOM     10  N   UNL     1       5.873   3.089  -0.784  1.00  0.00    -0.327 N 
ATOM     11  C   UNL     1       5.718   3.224   0.673  1.00  0.00     0.277 C 
ATOM     12  H   UNL     1       6.182   2.128  -0.935  1.00  0.00     0.348 HD
BRANCH   8  13
ATOM     13  C   UNL     1       2.234   3.732  -0.557  1.00  0.00    -0.035 A 
ATOM     14  C   UNL     1       0.474   2.037  -0.704  1.00  0.00     0.119 A 
ATOM     15  C   UNL     1      -0.446   3.034  -1.013  1.00  0.00     0.046 A 
ATOM     16  C   UNL     1       1.806   2.388  -0.483  1.00  0.00     0.050 A 
ATOM     17  C   UNL     1      -0.047   4.371  -1.072  1.00  0.00     0.004 A 
ATOM     18  C   UNL     1       1.287   4.719  -0.846  1.00  0.00     0.004 A 
BRANCH  14  19
ATOM     19  O   UNL     1      -0.019   0.761  -0.690  1.00  0.00    -0.497 OA
ATOM     20  C   UNL     1       0.710  -0.179   0.093  1.00  0.00     0.278 C 
ENDBRANCH  14  19
ENDBRANCH   8  13
BRANCH  10  21
ATOM     21  C   UNL     1       6.986   3.790  -1.444  1.00  0.00     0.339 C 
BRANCH  21  22
ATOM     22  C   UNL     1       6.743   5.257  -1.570  1.00  0.00     0.164 A 
ATOM     23  N   UNL     1       6.122   5.847  -2.579  1.00  0.00    -0.236 NA
ATOM     24  N   UNL     1       6.891   6.132  -0.529  1.00  0.00    -0.333 N 
ATOM     25  C   UNL     1       5.603   6.995  -2.060  1.00  0.00     0.131 A 
ATOM     26  C   UNL     1       6.004   7.140  -0.759  1.00  0.00     0.107 A 
ATOM     27  C   UNL     1       7.755   5.976   0.612  1.00  0.00     0.151 C 
ENDBRANCH  21  22
ENDBRANCH  10  21
ENDBRANCH   4   7
ENDBRANCH   2   3
ENDBRANCH   1   2
BRANCH   1  28
ATOM     28  C   UNL     1       4.518   9.321   3.388  1.00  0.00     0.118 C 
BRANCH  28  29
ATOM     29  N   UNL     1       5.819   9.991   3.492  1.00  0.00    -0.352 N 
ATOM     30  C   UNL     1       6.353  11.125   2.909  1.00  0.00     0.251 C 
ATOM     31  H   UNL     1       6.442   9.539   4.106  1.00  0.00     0.163 HD
ATOM     32  O   UNL     1       7.553  11.342   3.055  1.00  0.00    -0.269 OA
BRANCH  30  33
ATOM     33  C   UNL     1       5.549  12.078   2.096  1.00  0.00     0.039 A 
ATOM     34  C   UNL     1       6.171  12.803   1.066  1.00  0.00     0.014 A 
ATOM     35  C   UNL     1       4.210  12.335   2.371  1.00  0.00     0.014 A 
ATOM     36  C   UNL     1       5.436  13.710   0.285  1.00  0.00     0.010 A 
ATOM     37  C   UNL     1       3.451  13.130   1.515  1.00  0.00     0.010 A 
ATOM     38  C   UNL     1       4.054  13.851   0.476  1.00  0.00    -0.014 A 
BRANCH  38  39
ATOM     39  C   UNL     1       3.215  14.773  -0.345  1.00  0.00     0.031 A 
ATOM     40  C   UNL     1       2.397  15.848   0.329  1.00  0.00     0.074 A 
ATOM     41  C   UNL     1       3.103  14.588  -1.675  1.00  0.00     0.049 A 
ATOM     42  N   UNL     1       1.488  16.646  -0.174  1.00  0.00    -0.248 NA
ATOM     43  C   UNL     1       2.588  16.008   1.780  1.00  0.00     0.031 C 
ATOM     44  C   UNL     1       3.793  13.555  -2.448  1.00  0.00     0.029 A 
ATOM     45  N   UNL     1       2.355  15.256  -2.613  1.00  0.00    -0.354 N 
ATOM     46  C   UNL     1       0.972  17.359   0.902  1.00  0.00     0.074 A 
ATOM     47  C   UNL     1       1.616  16.849   2.092  1.00  0.00     0.031 C 
ATOM     48  C   UNL     1       3.470  13.684  -3.744  1.00  0.00     0.029 A 
ATOM     49  C   UNL     1       2.513  14.776  -3.890  1.00  0.00     0.049 A 
ATOM     50  H   UNL     1       1.760  16.009  -2.391  1.00  0.00     0.167 HD
ATOM     51  C   UNL     1       0.069  18.370   0.901  1.00  0.00     0.037 A 
ATOM     52  C   UNL     1       1.949  15.169  -5.048  1.00  0.00     0.037 A 
ATOM     53  C   UNL     1      -0.520  18.916  -0.293  1.00  0.00     0.049 A 
ATOM     54  C   UNL     1       0.961  16.304  -5.034  1.00  0.00     0.074 A 
ATOM     55  C   UNL     1      -1.363  20.005  -0.422  1.00  0.00     0.029 A 
ATOM     56  N   UNL     1      -0.319  18.411  -1.571  1.00  0.00    -0.354 N 
ATOM     57  N   UNL     1       0.536  17.019  -4.020  1.00  0.00    -0.248 NA
ATOM     58  C   UNL     1       0.373  16.685  -6.326  1.00  0.00     0.031 C 
ATOM     59  C   UNL     1      -1.712  20.129  -1.772  1.00  0.00     0.029 A 
ATOM     60  C   UNL     1      -1.047  19.147  -2.491  1.00  0.00     0.049 A 
ATOM     61  H   UNL     1       0.257  17.644  -1.790  1.00  0.00     0.167 HD
ATOM     62  C   UNL     1      -0.355  17.942  -4.550  1.00  0.00     0.074 A 
ATOM     63  C   UNL     1      -0.393  17.710  -5.980  1.00  0.00     0.031 C 
ATOM     64  C   UNL     1      -1.078  18.894  -3.910  1.00  0.00     0.037 A 
BRANCH  51  65
ATOM     65  C   UNL     1      -0.328  18.948   2.232  1.00  0.00     0.064 A 
ATOM     66  C   UNL     1       0.583  19.651   3.038  1.00  0.00     0.173 A 
ATOM     67  C   UNL     1      -1.636  18.791   2.716  1.00  0.00     0.173 A 
ATOM     68  F   UNL     1       1.849  19.826   2.630  1.00  0.00    -0.203 F 
ATOM     69  C   UNL     1       0.218  20.120   4.298  1.00  0.00     0.198 A 
ATOM     70  C   UNL     1      -2.009  19.296   3.960  1.00  0.00     0.198 A 
ATOM     71  F   UNL     1      -2.554  18.139   1.987  1.00  0.00    -0.203 F 
ATOM     72  F   UNL     1       1.130  20.714   5.079  1.00  0.00    -0.200 F 
ATOM     73  C   UNL     1      -1.078  19.946   4.756  1.00  0.00     0.200 A 
ATOM     74  F   UNL     1      -3.267  19.140   4.396  1.00  0.00    -0.200 F 
ATOM     75  F   UNL     1      -1.427  20.392   5.971  1.00  0.00    -0.200 F 
ENDBRANCH  51  65
BRANCH  52  76
ATOM     76  C   UNL     1       2.347  14.513  -6.322  1.00  0.00     0.064 A 
ATOM     77  C   UNL     1       3.137  15.197  -7.257  1.00  0.00     0.173 A 
ATOM     78  C   UNL     1       1.985  13.191  -6.617  1.00  0.00     0.173 A 
ATOM     79  F   UNL     1       3.490  16.471  -7.029  1.00  0.00    -0.203 F 
ATOM     80  C   UNL     1       3.547  14.586  -8.440  1.00  0.00     0.198 A 
ATOM     81  C   UNL     1       2.416  12.572  -7.790  1.00  0.00     0.198 A 
ATOM     82  F   UNL     1       1.233  12.492  -5.755  1.00  0.00    -0.203 F 
ATOM     83  F   UNL     1       4.279  15.273  -9.327  1.00  0.00    -0.200 F 
ATOM     84  C   UNL     1       3.194  13.271  -8.701  1.00  0.00     0.200 A 
ATOM     85  F   UNL     1       2.085  11.296  -8.032  1.00  0.00    -0.200 F 
ATOM     86  F   UNL     1       3.602  12.678  -9.831  1.00  0.00    -0.200 F 
ENDBRANCH  52  76
BRANCH  64  87
ATOM     87  C   UNL     1      -1.968  19.762  -4.751  1.00  0.00     0.064 A 
ATOM     88  C   UNL     1      -3.151  19.265  -5.316  1.00  0.00     0.173 A 
ATOM     89  C   UNL     1      -1.659  21.115  -4.953  1.00  0.00     0.173 A 
ATOM     90  F   UNL     1      -3.482  17.974  -5.164  1.00  0.00    -0.203 F 
ATOM     91  C   UNL     1      -3.984  20.088  -6.069  1.00  0.00     0.198 A 
ATOM     92  C   UNL     1      -2.509  21.942  -5.682  1.00  0.00     0.198 A 
ATOM     93  F   UNL     1      -0.542  21.640  -4.428  1.00  0.00    -0.203 F 
ATOM     94  F   UNL     1      -5.089  19.582  -6.635  1.00  0.00    -0.200 F 
ATOM     95  C   UNL     1      -3.667  21.427  -6.244  1.00  0.00     0.200 A 
ATOM     96  F   UNL     1      -2.209  23.239  -5.837  1.00  0.00    -0.200 F 
ATOM     97  F   UNL     1      -4.476  22.220  -6.960  1.00  0.00    -0.200 F 
ENDBRANCH  64  87
ENDBRANCH  38  39
ENDBRANCH  30  33
ENDBRANCH  28  29
ENDBRANCH   1  28
TORSDOF 14
