REMARK SMILES O=C(NCCCNC(=O)[C@H]1CCCN(C(=O)C2CCN(S(=O)(=O)c3ccccc3)CC2)C1)c1ccc(-c2c3nc(c(-c4c(F)c(F)c(F)c(F)c4F)c4ccc([nH]4)c(-c4c(F)c(F)c(F)c(F)c4F)c4nc(c(-c5c(F)c(F)c(F)c(F)c5F)c5ccc2[nH]5)C=C4)C=C3)cc1
REMARK SMILES IDX 6 1 5 2 4 3 3 4 1 5 2 6 33 8 34 9 95 10 35 11 94 12 36 13
REMARK SMILES IDX 37 14 38 15 88 16 39 17 93 18 87 19 89 20 40 21 92 22 86 23
REMARK SMILES IDX 85 24 41 26 73 27 53 28 72 29 54 30 57 31 71 32 90 33 55 34
REMARK SMILES IDX 56 35 70 37 91 38 58 39 42 40 43 41 51 42 44 43 45 44 49 45
REMARK SMILES IDX 52 46 46 47 47 48 50 49 48 50 74 51 75 52 83 53 76 54 77 55
REMARK SMILES IDX 81 56 84 57 78 58 79 59 82 60 80 61 59 62 60 63 68 64 61 65
REMARK SMILES IDX 62 66 66 67 69 68 63 69 64 70 67 71 65 72 7 73 8 74 9 76
REMARK SMILES IDX 10 77 11 78 32 79 12 80 14 81 13 82 15 83 16 84 17 85 18 86
REMARK SMILES IDX 31 87 19 88 30 89 20 90 21 91 22 92 23 93 24 94 25 95 29 96
REMARK SMILES IDX 26 97 28 98 27 99
REMARK H PARENT 3 7 89 25 57 36 7 75
REMARK Flexibility Score: inf
ROOT
ATOM      1  C   UNL     1       4.685   2.173  -6.960  1.00  0.00     0.117 C 
ENDROOT
BRANCH   1   2
ATOM      2  C   UNL     1       3.988   1.154  -6.060  1.00  0.00     0.042 C 
BRANCH   2   3
ATOM      3  C   UNL     1       2.569   0.836  -6.507  1.00  0.00     0.118 C 
BRANCH   3   4
ATOM      4  N   UNL     1       2.542   0.021  -7.714  1.00  0.00    -0.352 N 
ATOM      5  O   UNL     1       2.205  -1.807  -8.979  1.00  0.00    -0.269 OA
ATOM      6  C   UNL     1       1.943  -1.192  -7.949  1.00  0.00     0.251 C 
ATOM      7  H   UNL     1       3.030   0.399  -8.481  1.00  0.00     0.163 HD
BRANCH   6   8
ATOM      8  C   UNL     1       0.988  -1.765  -6.974  1.00  0.00     0.039 A 
ATOM      9  C   UNL     1       0.095  -0.946  -6.284  1.00  0.00     0.014 A 
ATOM     10  C   UNL     1       0.943  -3.152  -6.790  1.00  0.00     0.014 A 
ATOM     11  C   UNL     1      -0.739  -1.489  -5.318  1.00  0.00     0.010 A 
ATOM     12  C   UNL     1       0.023  -3.712  -5.897  1.00  0.00     0.010 A 
ATOM     13  C   UNL     1      -0.816  -2.881  -5.144  1.00  0.00    -0.014 A 
BRANCH  13  14
ATOM     14  C   UNL     1      -1.870  -3.413  -4.245  1.00  0.00     0.031 A 
ATOM     15  C   UNL     1      -1.531  -4.146  -2.982  1.00  0.00     0.074 A 
ATOM     16  C   UNL     1      -3.153  -3.146  -4.561  1.00  0.00     0.049 A 
ATOM     17  N   UNL     1      -2.337  -4.589  -2.050  1.00  0.00    -0.248 NA
ATOM     18  C   UNL     1      -0.111  -4.429  -2.729  1.00  0.00     0.031 C 
ATOM     19  C   UNL     1      -3.590  -2.464  -5.784  1.00  0.00     0.029 A 
ATOM     20  N   UNL     1      -4.318  -3.364  -3.874  1.00  0.00    -0.354 N 
ATOM     21  C   UNL     1      -1.528  -5.212  -1.110  1.00  0.00     0.074 A 
ATOM     22  C   UNL     1      -0.167  -5.112  -1.593  1.00  0.00     0.031 C 
ATOM     23  C   UNL     1      -4.910  -2.247  -5.723  1.00  0.00     0.029 A 
ATOM     24  C   UNL     1      -5.425  -2.837  -4.494  1.00  0.00     0.049 A 
ATOM     25  H   UNL     1      -4.358  -3.851  -3.019  1.00  0.00     0.167 HD
ATOM     26  C   UNL     1      -1.895  -5.804   0.052  1.00  0.00     0.037 A 
ATOM     27  C   UNL     1      -6.716  -2.834  -4.118  1.00  0.00     0.037 A 
ATOM     28  C   UNL     1      -3.254  -5.888   0.525  1.00  0.00     0.049 A 
ATOM     29  C   UNL     1      -7.085  -3.484  -2.817  1.00  0.00     0.074 A 
ATOM     30  C   UNL     1      -3.732  -6.469   1.686  1.00  0.00     0.029 A 
ATOM     31  N   UNL     1      -4.355  -5.368  -0.143  1.00  0.00    -0.354 N 
ATOM     32  N   UNL     1      -6.306  -4.061  -1.935  1.00  0.00    -0.248 NA
ATOM     33  C   UNL     1      -8.509  -3.489  -2.463  1.00  0.00     0.031 C 
ATOM     34  C   UNL     1      -5.125  -6.329   1.706  1.00  0.00     0.029 A 
ATOM     35  C   UNL     1      -5.511  -5.624   0.578  1.00  0.00     0.049 A 
ATOM     36  H   UNL     1      -4.320  -4.888  -1.002  1.00  0.00     0.167 HD
ATOM     37  C   UNL     1      -7.143  -4.505  -0.924  1.00  0.00     0.074 A 
ATOM     38  C   UNL     1      -8.485  -4.089  -1.282  1.00  0.00     0.031 C 
ATOM     39  C   UNL     1      -6.835  -5.210   0.191  1.00  0.00     0.037 A 
BRANCH  26  40
ATOM     40  C   UNL     1      -0.816  -6.420   0.894  1.00  0.00     0.064 A 
ATOM     41  C   UNL     1       0.083  -5.631   1.628  1.00  0.00     0.173 A 
ATOM     42  C   UNL     1      -0.716  -7.814   1.018  1.00  0.00     0.173 A 
ATOM     43  F   UNL     1       0.040  -4.294   1.534  1.00  0.00    -0.203 F 
ATOM     44  C   UNL     1       1.048  -6.216   2.445  1.00  0.00     0.198 A 
ATOM     45  C   UNL     1       0.235  -8.395   1.853  1.00  0.00     0.198 A 
ATOM     46  F   UNL     1      -1.552  -8.614   0.339  1.00  0.00    -0.203 F 
ATOM     47  F   UNL     1       1.917  -5.443   3.112  1.00  0.00    -0.200 F 
ATOM     48  C   UNL     1       1.118  -7.596   2.563  1.00  0.00     0.200 A 
ATOM     49  F   UNL     1       0.295  -9.729   1.973  1.00  0.00    -0.200 F 
ATOM     50  F   UNL     1       2.041  -8.156   3.358  1.00  0.00    -0.200 F 
ENDBRANCH  26  40
BRANCH  27  51
ATOM     51  C   UNL     1      -7.742  -2.209  -4.993  1.00  0.00     0.064 A 
ATOM     52  C   UNL     1      -8.426  -1.051  -4.600  1.00  0.00     0.173 A 
ATOM     53  C   UNL     1      -8.048  -2.752  -6.250  1.00  0.00     0.173 A 
ATOM     54  F   UNL     1      -8.180  -0.503  -3.401  1.00  0.00    -0.203 F 
ATOM     55  C   UNL     1      -9.389  -0.471  -5.423  1.00  0.00     0.198 A 
ATOM     56  C   UNL     1      -8.986  -2.152  -7.086  1.00  0.00     0.198 A 
ATOM     57  F   UNL     1      -7.417  -3.856  -6.677  1.00  0.00    -0.203 F 
ATOM     58  F   UNL     1     -10.060   0.611  -5.004  1.00  0.00    -0.200 F 
ATOM     59  C   UNL     1      -9.663  -1.017  -6.668  1.00  0.00     0.200 A 
ATOM     60  F   UNL     1      -9.232  -2.673  -8.296  1.00  0.00    -0.200 F 
ATOM     61  F   UNL     1     -10.582  -0.453  -7.462  1.00  0.00    -0.200 F 
ENDBRANCH  27  51
BRANCH  39  62
ATOM     62  C   UNL     1      -7.979  -5.571   1.091  1.00  0.00     0.064 A 
ATOM     63  C   UNL     1      -8.912  -6.553   0.725  1.00  0.00     0.173 A 
ATOM     64  C   UNL     1      -8.145  -4.928   2.325  1.00  0.00     0.173 A 
ATOM     65  F   UNL     1      -8.803  -7.180  -0.456  1.00  0.00    -0.203 F 
ATOM     66  C   UNL     1      -9.992  -6.853   1.549  1.00  0.00     0.198 A 
ATOM     67  C   UNL     1      -9.211  -5.251   3.159  1.00  0.00     0.198 A 
ATOM     68  F   UNL     1      -7.277  -3.985   2.720  1.00  0.00    -0.203 F 
ATOM     69  F   UNL     1     -10.904  -7.752   1.153  1.00  0.00    -0.200 F 
ATOM     70  C   UNL     1     -10.139  -6.205   2.766  1.00  0.00     0.200 A 
ATOM     71  F   UNL     1      -9.348  -4.631   4.340  1.00  0.00    -0.200 F 
ATOM     72  F   UNL     1     -11.182  -6.492   3.556  1.00  0.00    -0.200 F 
ENDBRANCH  39  62
ENDBRANCH  13  14
ENDBRANCH   6   8
ENDBRANCH   3   4
ENDBRANCH   2   3
ENDBRANCH   1   2
BRANCH   1  73
ATOM     73  N   UNL     1       4.396   3.551  -6.584  1.00  0.00    -0.356 N 
ATOM     74  C   UNL     1       4.878   4.426  -5.664  1.00  0.00     0.224 C 
ATOM     75  H   UNL     1       3.677   3.943  -7.130  1.00  0.00     0.163 HD
ATOM     76  O   UNL     1       4.407   5.569  -5.736  1.00  0.00    -0.275 OA
BRANCH  74  77
ATOM     77  C   UNL     1       5.929   4.133  -4.584  1.00  0.00     0.098 C 
ATOM     78  C   UNL     1       6.260   2.664  -4.313  1.00  0.00     0.017 C 
ATOM     79  C   UNL     1       7.155   5.074  -4.815  1.00  0.00     0.133 C 
ATOM     80  C   UNL     1       7.575   2.453  -3.607  1.00  0.00     0.022 C 
ATOM     81  N   UNL     1       8.396   4.609  -4.165  1.00  0.00    -0.342 N 
ATOM     82  C   UNL     1       8.630   3.217  -4.377  1.00  0.00     0.119 C 
BRANCH  81  83
ATOM     83  C   UNL     1       9.208   5.443  -3.418  1.00  0.00     0.225 C 
ATOM     84  O   UNL     1       8.904   6.637  -3.296  1.00  0.00    -0.275 OA
BRANCH  83  85
ATOM     85  C   UNL     1      10.513   4.958  -2.689  1.00  0.00     0.081 C 
ATOM     86  C   UNL     1      11.742   4.621  -3.520  1.00  0.00     0.030 C 
ATOM     87  C   UNL     1      10.403   4.001  -1.512  1.00  0.00     0.030 C 
ATOM     88  C   UNL     1      12.015   3.153  -3.825  1.00  0.00     0.103 C 
ATOM     89  C   UNL     1      10.542   2.520  -1.823  1.00  0.00     0.103 C 
ATOM     90  N   UNL     1      11.568   2.122  -2.814  1.00  0.00    -0.198 NA
BRANCH  90  91
ATOM     91  S   UNL     1      11.306   0.599  -3.656  1.00  0.00     0.243 S 
ATOM     92  O   UNL     1      10.195   0.791  -4.574  1.00  0.00    -0.207 OA
ATOM     93  O   UNL     1      12.595   0.209  -4.178  1.00  0.00    -0.207 OA
BRANCH  91  94
ATOM     94  C   UNL     1      10.753  -0.674  -2.535  1.00  0.00     0.082 A 
ATOM     95  C   UNL     1      11.415  -1.907  -2.559  1.00  0.00     0.022 A 
ATOM     96  C   UNL     1       9.513  -0.581  -1.888  1.00  0.00     0.022 A 
ATOM     97  C   UNL     1      10.852  -3.018  -1.923  1.00  0.00     0.001 A 
ATOM     98  C   UNL     1       8.971  -1.682  -1.223  1.00  0.00     0.001 A 
ATOM     99  C   UNL     1       9.638  -2.903  -1.248  1.00  0.00     0.000 A 
ENDBRANCH  91  94
ENDBRANCH  90  91
ENDBRANCH  83  85
ENDBRANCH  81  83
ENDBRANCH  74  77
ENDBRANCH   1  73
TORSDOF 14
