REMARK SMILES CC(=O)Nc1cccc(-c2ccc(F)c(C(=O)NCCCNC(=O)c3ccc(-c4c5nc(c(-c6c(F)c(F)c(F)c(F)c6F)c6ccc([nH]6)c(-c6c(F)c(F)c(F)c(F)c6F)c6nc(c(-c7c(F)c(F)c(F)c(F)c7F)c7ccc4[nH]7)C=C6)C=C5)cc3)c2)c1
REMARK SMILES IDX 20 1 19 2 18 3 16 4 17 5 15 7 10 8 11 9 88 10 12 11 13 12
REMARK SMILES IDX 14 13 9 14 5 15 6 16 89 17 7 18 8 19 4 20 1 21 2 22 3 23
REMARK SMILES IDX 21 25 22 26 23 27 24 29 25 30 26 31 87 32 27 33 86 34 28 35
REMARK SMILES IDX 29 36 30 37 80 38 31 39 85 40 79 41 81 42 32 43 84 44 78 45
REMARK SMILES IDX 77 46 33 48 65 49 45 50 64 51 46 52 49 53 63 54 82 55 47 56
REMARK SMILES IDX 48 57 62 59 83 60 50 61 34 62 35 63 43 64 36 65 37 66 41 67
REMARK SMILES IDX 44 68 38 69 39 70 42 71 40 72 66 73 67 74 75 75 68 76 69 77
REMARK SMILES IDX 73 78 76 79 70 80 71 81 74 82 72 83 51 84 52 85 60 86 53 87
REMARK SMILES IDX 54 88 58 89 61 90 55 91 56 92 59 93 57 94
REMARK H PARENT 18 6 4 24 22 28 81 47 49 58
REMARK Flexibility Score: inf
ROOT
ATOM      1  C   UNL     1       6.664   2.549   2.841  1.00  0.00     0.042 C 
ENDROOT
BRANCH   1   2
ATOM      2  C   UNL     1       6.499   2.050   1.406  1.00  0.00     0.118 C 
BRANCH   2   3
ATOM      3  N   UNL     1       7.608   1.210   0.981  1.00  0.00    -0.352 N 
ATOM      4  C   UNL     1       7.880  -0.135   0.904  1.00  0.00     0.254 C 
ATOM      5  O   UNL     1       8.979  -0.403   0.416  1.00  0.00    -0.269 OA
ATOM      6  H   UNL     1       8.367   1.749   0.664  1.00  0.00     0.163 HD
BRANCH   4   7
ATOM      7  C   UNL     1       6.982  -1.243   1.349  1.00  0.00     0.076 A 
ATOM      8  C   UNL     1       4.871  -2.125   2.277  1.00  0.00    -0.017 A 
ATOM      9  C   UNL     1       5.362  -3.427   2.174  1.00  0.00     0.012 A 
ATOM     10  C   UNL     1       5.702  -1.058   1.869  1.00  0.00     0.025 A 
ATOM     11  C   UNL     1       6.645  -3.644   1.672  1.00  0.00     0.041 A 
ATOM     12  C   UNL     1       7.439  -2.565   1.266  1.00  0.00     0.135 A 
ATOM     13  F   UNL     1       8.668  -2.860   0.816  1.00  0.00    -0.206 F 
BRANCH   8  14
ATOM     14  C   UNL     1       3.566  -1.794   2.875  1.00  0.00    -0.016 A 
ATOM     15  C   UNL     1       1.554  -0.398   2.853  1.00  0.00     0.041 A 
ATOM     16  C   UNL     1       1.334  -0.733   4.193  1.00  0.00     0.026 A 
ATOM     17  C   UNL     1       2.664  -0.939   2.203  1.00  0.00     0.034 A 
ATOM     18  C   UNL     1       2.173  -1.633   4.852  1.00  0.00     0.003 A 
ATOM     19  C   UNL     1       3.280  -2.164   4.195  1.00  0.00     0.009 A 
BRANCH  15  20
ATOM     20  N   UNL     1       0.692   0.558   2.290  1.00  0.00    -0.326 N 
ATOM     21  C   UNL     1       0.868   0.081  -0.154  1.00  0.00     0.114 C 
ATOM     22  C   UNL     1       0.431   0.931   1.004  1.00  0.00     0.221 C 
ATOM     23  O   UNL     1      -0.222   1.960   0.812  1.00  0.00    -0.275 OA
ATOM     24  H   UNL     1       0.171   1.060   2.958  1.00  0.00     0.169 HD
ENDBRANCH  15  20
ENDBRANCH   8  14
ENDBRANCH   4   7
ENDBRANCH   2   3
ENDBRANCH   1   2
BRANCH   1  25
ATOM     25  C   UNL     1       7.613   3.745   2.952  1.00  0.00     0.118 C 
BRANCH  25  26
ATOM     26  N   UNL     1       7.129   4.899   2.201  1.00  0.00    -0.352 N 
ATOM     27  C   UNL     1       6.659   6.121   2.603  1.00  0.00     0.251 C 
ATOM     28  H   UNL     1       7.142   4.776   1.225  1.00  0.00     0.163 HD
ATOM     29  O   UNL     1       6.051   6.817   1.796  1.00  0.00    -0.269 OA
BRANCH  27  30
ATOM     30  C   UNL     1       6.885   6.628   3.974  1.00  0.00     0.039 A 
ATOM     31  C   UNL     1       5.923   7.471   4.542  1.00  0.00     0.014 A 
ATOM     32  C   UNL     1       8.075   6.377   4.660  1.00  0.00     0.014 A 
ATOM     33  C   UNL     1       6.140   8.033   5.802  1.00  0.00     0.010 A 
ATOM     34  C   UNL     1       8.255   6.867   5.951  1.00  0.00     0.010 A 
ATOM     35  C   UNL     1       7.302   7.720   6.525  1.00  0.00    -0.014 A 
BRANCH  35  36
ATOM     36  C   UNL     1       7.555   8.311   7.863  1.00  0.00     0.031 A 
ATOM     37  C   UNL     1       8.731   9.226   8.074  1.00  0.00     0.074 A 
ATOM     38  C   UNL     1       6.760   7.979   8.898  1.00  0.00     0.049 A 
ATOM     39  N   UNL     1       9.156   9.790   9.177  1.00  0.00    -0.248 NA
ATOM     40  C   UNL     1       9.562   9.520   6.895  1.00  0.00     0.031 C 
ATOM     41  C   UNL     1       5.626   7.056   8.831  1.00  0.00     0.029 A 
ATOM     42  N   UNL     1       6.791   8.375  10.211  1.00  0.00    -0.354 N 
ATOM     43  C   UNL     1      10.313  10.476   8.830  1.00  0.00     0.074 A 
ATOM     44  C   UNL     1      10.554  10.219   7.427  1.00  0.00     0.031 C 
ATOM     45  C   UNL     1       5.054   6.975  10.043  1.00  0.00     0.029 A 
ATOM     46  C   UNL     1       5.797   7.816  10.976  1.00  0.00     0.049 A 
ATOM     47  H   UNL     1       7.461   9.000  10.570  1.00  0.00     0.167 HD
ATOM     48  C   UNL     1      11.091  11.269   9.605  1.00  0.00     0.037 A 
ATOM     49  C   UNL     1       5.517   7.969  12.284  1.00  0.00     0.037 A 
ATOM     50  C   UNL     1      10.821  11.561  10.988  1.00  0.00     0.049 A 
ATOM     51  C   UNL     1       6.363   8.900  13.108  1.00  0.00     0.074 A 
ATOM     52  C   UNL     1      11.505  12.406  11.844  1.00  0.00     0.029 A 
ATOM     53  N   UNL     1       9.771  11.020  11.715  1.00  0.00    -0.354 N 
ATOM     54  N   UNL     1       7.416   9.597  12.752  1.00  0.00    -0.248 NA
ATOM     55  C   UNL     1       5.972   9.079  14.513  1.00  0.00     0.031 C 
ATOM     56  C   UNL     1      10.889  12.351  13.099  1.00  0.00     0.029 A 
ATOM     57  C   UNL     1       9.794  11.505  13.012  1.00  0.00     0.049 A 
ATOM     58  H   UNL     1       9.107  10.384  11.361  1.00  0.00     0.167 HD
ATOM     59  C   UNL     1       7.796  10.315  13.877  1.00  0.00     0.074 A 
ATOM     60  C   UNL     1       6.848   9.985  14.922  1.00  0.00     0.031 C 
ATOM     61  C   UNL     1       8.836  11.169  14.034  1.00  0.00     0.037 A 
BRANCH  48  62
ATOM     62  C   UNL     1      12.304  11.887   8.970  1.00  0.00     0.064 A 
ATOM     63  C   UNL     1      12.196  12.901   8.007  1.00  0.00     0.173 A 
ATOM     64  C   UNL     1      13.592  11.481   9.351  1.00  0.00     0.173 A 
ATOM     65  F   UNL     1      10.988  13.317   7.598  1.00  0.00    -0.203 F 
ATOM     66  C   UNL     1      13.329  13.465   7.427  1.00  0.00     0.198 A 
ATOM     67  C   UNL     1      14.725  12.068   8.791  1.00  0.00     0.198 A 
ATOM     68  F   UNL     1      13.754  10.519  10.272  1.00  0.00    -0.203 F 
ATOM     69  F   UNL     1      13.199  14.396   6.472  1.00  0.00    -0.200 F 
ATOM     70  C   UNL     1      14.592  13.053   7.824  1.00  0.00     0.200 A 
ATOM     71  F   UNL     1      15.945  11.678   9.185  1.00  0.00    -0.200 F 
ATOM     72  F   UNL     1      15.683  13.601   7.270  1.00  0.00    -0.200 F 
ENDBRANCH  48  62
BRANCH  49  73
ATOM     73  C   UNL     1       4.358   7.259  12.882  1.00  0.00     0.064 A 
ATOM     74  C   UNL     1       3.208   7.960  13.270  1.00  0.00     0.173 A 
ATOM     75  C   UNL     1       4.375   5.871  13.080  1.00  0.00     0.173 A 
ATOM     76  F   UNL     1       3.153   9.292  13.116  1.00  0.00    -0.203 F 
ATOM     77  C   UNL     1       2.127   7.304  13.854  1.00  0.00     0.198 A 
ATOM     78  C   UNL     1       3.282   5.212  13.639  1.00  0.00     0.198 A 
ATOM     79  F   UNL     1       5.448   5.153  12.717  1.00  0.00    -0.203 F 
ATOM     80  F   UNL     1       1.059   8.006  14.257  1.00  0.00    -0.200 F 
ATOM     81  C   UNL     1       2.163   5.930  14.034  1.00  0.00     0.200 A 
ATOM     82  F   UNL     1       3.313   3.882  13.798  1.00  0.00    -0.200 F 
ATOM     83  F   UNL     1       1.122   5.299  14.594  1.00  0.00    -0.200 F 
ENDBRANCH  49  73
BRANCH  61  84
ATOM     84  C   UNL     1       8.980  11.830  15.373  1.00  0.00     0.064 A 
ATOM     85  C   UNL     1       9.403  11.116  16.504  1.00  0.00     0.173 A 
ATOM     86  C   UNL     1       8.708  13.198  15.522  1.00  0.00     0.173 A 
ATOM     87  F   UNL     1       9.660   9.802  16.415  1.00  0.00    -0.203 F 
ATOM     88  C   UNL     1       9.515  11.741  17.743  1.00  0.00     0.198 A 
ATOM     89  C   UNL     1       8.850  13.826  16.756  1.00  0.00     0.198 A 
ATOM     90  F   UNL     1       8.307  13.926  14.469  1.00  0.00    -0.203 F 
ATOM     91  F   UNL     1       9.867  11.027  18.821  1.00  0.00    -0.200 F 
ATOM     92  C   UNL     1       9.244  13.095  17.866  1.00  0.00     0.200 A 
ATOM     93  F   UNL     1       8.598  15.137  16.871  1.00  0.00    -0.200 F 
ATOM     94  F   UNL     1       9.352  13.695  19.060  1.00  0.00    -0.200 F 
ENDBRANCH  61  84
ENDBRANCH  35  36
ENDBRANCH  27  30
ENDBRANCH  25  26
ENDBRANCH   1  25
TORSDOF 12
