REMARK SMILES O=C(NCCCNC(=O)c1cc(-c2ccc(Cl)cc2)nc2c3c(C4CC4)cc(C(F)(F)F)nc3nn12)c1ccc(-c2c3nc(c(-c4c(F)c(F)c(F)c(F)c4F)c4ccc([nH]4)c(-c4c(F)c(F)c(F)c(F)c4F)c4nc(c(-c5c(F)c(F)c(F)c(F)c5F)c5ccc2[nH]5)C=C4)C=C3)cc1
REMARK SMILES IDX 4 1 3 2 1 3 2 4 37 6 38 7 99 8 39 9 98 10 40 11 41 12 42 13
REMARK SMILES IDX 92 14 43 15 97 16 91 17 93 18 44 19 96 20 90 21 89 22 45 24
REMARK SMILES IDX 77 25 57 26 76 27 58 28 61 29 75 30 94 31 59 32 60 33 74 35
REMARK SMILES IDX 95 36 62 37 46 38 47 39 55 40 48 41 49 42 53 43 56 44 50 45
REMARK SMILES IDX 51 46 54 47 52 48 78 49 79 50 87 51 80 52 81 53 85 54 88 55
REMARK SMILES IDX 82 56 83 57 86 58 84 59 63 60 64 61 72 62 65 63 66 64 70 65
REMARK SMILES IDX 73 66 67 67 68 68 71 69 69 70 5 71 6 72 7 73 8 74 9 76 10 77
REMARK SMILES IDX 11 78 36 79 12 80 21 81 35 82 20 83 22 84 34 85 23 86 33 87
REMARK SMILES IDX 27 88 28 89 13 90 14 91 19 92 15 93 18 94 16 95 17 96 24 97
REMARK SMILES IDX 25 98 26 99 29 100 30 101 31 102 32 103
REMARK H PARENT 3 5 93 23 61 34 7 75
REMARK Flexibility Score: inf
ROOT
ATOM      1  C   UNL     1       4.626  -1.428   0.264  1.00  0.00     0.118 C 
ENDROOT
BRANCH   1   2
ATOM      2  N   UNL     1       3.333  -0.825  -0.012  1.00  0.00    -0.352 N 
ATOM      3  O   UNL     1       1.898   0.898  -0.346  1.00  0.00    -0.269 OA
ATOM      4  C   UNL     1       3.046   0.503  -0.220  1.00  0.00     0.251 C 
ATOM      5  H   UNL     1       2.569  -1.443  -0.056  1.00  0.00     0.163 HD
BRANCH   4   6
ATOM      6  C   UNL     1       4.166   1.461  -0.247  1.00  0.00     0.039 A 
ATOM      7  C   UNL     1       5.151   1.369  -1.235  1.00  0.00     0.014 A 
ATOM      8  C   UNL     1       4.234   2.431   0.751  1.00  0.00     0.014 A 
ATOM      9  C   UNL     1       6.252   2.218  -1.189  1.00  0.00     0.010 A 
ATOM     10  C   UNL     1       5.327   3.291   0.785  1.00  0.00     0.010 A 
ATOM     11  C   UNL     1       6.339   3.188  -0.184  1.00  0.00    -0.014 A 
BRANCH  11  12
ATOM     12  C   UNL     1       7.429   4.174  -0.249  1.00  0.00     0.031 A 
ATOM     13  C   UNL     1       6.990   5.594  -0.250  1.00  0.00     0.074 A 
ATOM     14  C   UNL     1       8.696   3.909   0.124  1.00  0.00     0.049 A 
ATOM     15  N   UNL     1       6.692   6.218   0.851  1.00  0.00    -0.248 NA
ATOM     16  C   UNL     1       6.639   6.322  -1.466  1.00  0.00     0.031 C 
ATOM     17  C   UNL     1       9.100   2.793   0.984  1.00  0.00     0.029 A 
ATOM     18  N   UNL     1       9.829   4.680   0.010  1.00  0.00    -0.354 N 
ATOM     19  C   UNL     1       6.031   7.371   0.492  1.00  0.00     0.074 A 
ATOM     20  C   UNL     1       6.063   7.422  -0.954  1.00  0.00     0.031 C 
ATOM     21  C   UNL     1      10.329   3.054   1.475  1.00  0.00     0.029 A 
ATOM     22  C   UNL     1      10.858   4.263   0.846  1.00  0.00     0.049 A 
ATOM     23  H   UNL     1       9.903   5.449  -0.601  1.00  0.00     0.167 HD
ATOM     24  C   UNL     1       5.456   8.194   1.405  1.00  0.00     0.037 A 
ATOM     25  C   UNL     1      11.782   5.072   1.431  1.00  0.00     0.037 A 
ATOM     26  C   UNL     1       5.538   7.773   2.771  1.00  0.00     0.049 A 
ATOM     27  C   UNL     1      10.924   6.014   2.238  1.00  0.00     0.074 A 
ATOM     28  C   UNL     1       4.774   7.000   3.619  1.00  0.00     0.029 A 
ATOM     29  N   UNL     1       6.683   8.050   3.481  1.00  0.00    -0.354 N 
ATOM     30  N   UNL     1      10.405   5.761   3.410  1.00  0.00    -0.248 NA
ATOM     31  C   UNL     1      10.371   7.192   1.566  1.00  0.00     0.031 C 
ATOM     32  C   UNL     1       5.685   6.482   4.592  1.00  0.00     0.029 A 
ATOM     33  C   UNL     1       6.954   6.931   4.232  1.00  0.00     0.049 A 
ATOM     34  H   UNL     1       7.205   8.884   3.455  1.00  0.00     0.167 HD
ATOM     35  C   UNL     1       9.290   6.597   3.507  1.00  0.00     0.074 A 
ATOM     36  C   UNL     1       9.349   7.476   2.360  1.00  0.00     0.031 C 
ATOM     37  C   UNL     1       8.286   6.406   4.409  1.00  0.00     0.037 A 
BRANCH  24  38
ATOM     38  C   UNL     1       4.857   9.491   1.069  1.00  0.00     0.064 A 
ATOM     39  C   UNL     1       5.618  10.648   1.278  1.00  0.00     0.173 A 
ATOM     40  C   UNL     1       3.514   9.627   0.713  1.00  0.00     0.173 A 
ATOM     41  F   UNL     1       6.909  10.544   1.636  1.00  0.00    -0.203 F 
ATOM     42  C   UNL     1       5.046  11.908   1.163  1.00  0.00     0.198 A 
ATOM     43  C   UNL     1       2.942  10.892   0.595  1.00  0.00     0.198 A 
ATOM     44  F   UNL     1       2.753   8.541   0.515  1.00  0.00    -0.203 F 
ATOM     45  F   UNL     1       5.786  12.999   1.400  1.00  0.00    -0.200 F 
ATOM     46  C   UNL     1       3.705  12.029   0.830  1.00  0.00     0.200 A 
ATOM     47  F   UNL     1       1.645  11.013   0.278  1.00  0.00    -0.200 F 
ATOM     48  F   UNL     1       3.146  13.243   0.747  1.00  0.00    -0.200 F 
ENDBRANCH  24  38
BRANCH  25  49
ATOM     49  C   UNL     1      12.884   5.544   0.527  1.00  0.00     0.064 A 
ATOM     50  C   UNL     1      13.533   4.612  -0.312  1.00  0.00     0.173 A 
ATOM     51  C   UNL     1      13.357   6.863   0.455  1.00  0.00     0.173 A 
ATOM     52  F   UNL     1      13.234   3.306  -0.233  1.00  0.00    -0.203 F 
ATOM     53  C   UNL     1      14.499   4.999  -1.244  1.00  0.00     0.198 A 
ATOM     54  C   UNL     1      14.303   7.256  -0.496  1.00  0.00     0.198 A 
ATOM     55  F   UNL     1      12.910   7.806   1.295  1.00  0.00    -0.203 F 
ATOM     56  F   UNL     1      15.066   4.081  -2.039  1.00  0.00    -0.200 F 
ATOM     57  C   UNL     1      14.862   6.328  -1.355  1.00  0.00     0.200 A 
ATOM     58  F   UNL     1      14.658   8.546  -0.585  1.00  0.00    -0.200 F 
ATOM     59  F   UNL     1      15.755   6.711  -2.278  1.00  0.00    -0.200 F 
ENDBRANCH  25  49
BRANCH  37  60
ATOM     60  C   UNL     1       8.548   5.380   5.453  1.00  0.00     0.064 A 
ATOM     61  C   UNL     1       9.379   5.684   6.538  1.00  0.00     0.173 A 
ATOM     62  C   UNL     1       7.951   4.112   5.408  1.00  0.00     0.173 A 
ATOM     63  F   UNL     1       9.966   6.888   6.625  1.00  0.00    -0.203 F 
ATOM     64  C   UNL     1       9.584   4.760   7.558  1.00  0.00     0.198 A 
ATOM     65  C   UNL     1       8.145   3.198   6.439  1.00  0.00     0.198 A 
ATOM     66  F   UNL     1       7.156   3.763   4.384  1.00  0.00    -0.203 F 
ATOM     67  F   UNL     1      10.371   5.074   8.597  1.00  0.00    -0.200 F 
ATOM     68  C   UNL     1       8.958   3.523   7.514  1.00  0.00     0.200 A 
ATOM     69  F   UNL     1       7.529   2.007   6.402  1.00  0.00    -0.200 F 
ATOM     70  F   UNL     1       9.129   2.647   8.514  1.00  0.00    -0.200 F 
ENDBRANCH  37  60
ENDBRANCH  11  12
ENDBRANCH   4   6
ENDBRANCH   1   2
BRANCH   1  71
ATOM     71  C   UNL     1       4.959  -1.451   1.753  1.00  0.00     0.042 C 
BRANCH  71  72
ATOM     72  C   UNL     1       4.341  -2.639   2.481  1.00  0.00     0.118 C 
BRANCH  72  73
ATOM     73  N   UNL     1       4.847  -3.904   1.957  1.00  0.00    -0.351 N 
ATOM     74  C   UNL     1       5.644  -4.849   2.521  1.00  0.00     0.270 C 
ATOM     75  H   UNL     1       4.562  -4.107   1.037  1.00  0.00     0.163 HD
ATOM     76  O   UNL     1       6.111  -5.740   1.812  1.00  0.00    -0.268 OA
BRANCH  74  77
ATOM     77  C   UNL     1       5.998  -4.771   3.949  1.00  0.00     0.134 A 
ATOM     78  C   UNL     1       7.304  -4.873   4.238  1.00  0.00     0.063 A 
ATOM     79  N   UNL     1       5.055  -4.644   4.965  1.00  0.00    -0.207 N 
ATOM     80  C   UNL     1       7.641  -4.853   5.690  1.00  0.00     0.075 A 
ATOM     81  C   UNL     1       5.467  -4.535   6.308  1.00  0.00     0.166 A 
ATOM     82  N   UNL     1       3.708  -4.577   4.834  1.00  0.00    -0.145 NA
ATOM     83  N   UNL     1       6.786  -4.698   6.661  1.00  0.00    -0.228 NA
ATOM     84  C   UNL     1       4.321  -4.193   7.002  1.00  0.00     0.069 A 
ATOM     85  C   UNL     1       3.276  -4.221   6.034  1.00  0.00     0.184 A 
ATOM     86  C   UNL     1       4.189  -3.848   8.355  1.00  0.00    -0.028 A 
ATOM     87  N   UNL     1       1.997  -3.895   6.321  1.00  0.00    -0.222 NA
ATOM     88  C   UNL     1       2.846  -3.494   8.614  1.00  0.00     0.038 A 
ATOM     89  C   UNL     1       1.817  -3.525   7.627  1.00  0.00     0.147 A 
BRANCH  80  90
ATOM     90  C   UNL     1       9.075  -5.080   5.980  1.00  0.00     0.000 A 
ATOM     91  C   UNL     1       9.442  -6.200   6.732  1.00  0.00     0.012 A 
ATOM     92  C   UNL     1      10.052  -4.233   5.442  1.00  0.00     0.012 A 
ATOM     93  C   UNL     1      10.796  -6.491   6.921  1.00  0.00     0.021 A 
ATOM     94  C   UNL     1      11.404  -4.523   5.643  1.00  0.00     0.021 A 
ATOM     95  C   UNL     1      11.770  -5.655   6.372  1.00  0.00     0.041 A 
ATOM     96  Cl  UNL     1      13.435  -6.028   6.586  1.00  0.00    -0.084 Cl
ENDBRANCH  80  90
BRANCH  86  97
ATOM     97  C   UNL     1       5.329  -3.858   9.322  1.00  0.00     0.020 C 
ATOM     98  C   UNL     1       5.162  -3.503  10.782  1.00  0.00     0.009 C 
ATOM     99  C   UNL     1       5.362  -4.934  10.384  1.00  0.00     0.009 C 
ENDBRANCH  86  97
BRANCH  89 100
ATOM    100  C   UNL     1       0.410  -3.084   8.023  1.00  0.00     0.433 C 
ATOM    101  F   UNL     1       0.048  -1.903   7.444  1.00  0.00    -0.165 F 
ATOM    102  F   UNL     1      -0.554  -3.985   7.681  1.00  0.00    -0.165 F 
ATOM    103  F   UNL     1       0.262  -2.888   9.367  1.00  0.00    -0.165 F 
ENDBRANCH  89 100
ENDBRANCH  74  77
ENDBRANCH  72  73
ENDBRANCH  71  72
ENDBRANCH   1  71
TORSDOF 13
