REMARK SMILES COc1cc2c(cc1OC)[C@H](C(=O)NCCCNC(=O)c1ccc(-c3c4nc(c(-c5c(F)c(F)c(F)c(F)c5F)c5ccc([nH]5)c(-c5c(F)c(F)c(F)c(F)c5F)c5nc(c(-c6c(F)c(F)c(F)c(F)c6F)c6ccc3[nH]6)C=C5)C=C4)cc1)[C@@H](c1ccc(SC)cc1)N(C)C2=O
REMARK SMILES IDX 16 1 15 2 14 3 12 4 13 5 11 7 3 8 4 9 8 10 5 11 7 12 6 13
REMARK SMILES IDX 95 14 93 15 96 16 84 17 94 18 2 19 1 20 9 21 10 22 85 23
REMARK SMILES IDX 86 24 92 25 87 26 91 27 88 28 89 29 90 30 17 31 18 32 19 33
REMARK SMILES IDX 20 35 21 36 22 37 83 38 23 39 82 40 24 41 25 42 26 43 76 44
REMARK SMILES IDX 27 45 81 46 75 47 77 48 28 49 80 50 74 51 73 52 29 54 61 55
REMARK SMILES IDX 41 56 60 57 42 58 45 59 59 60 78 61 43 62 44 63 58 65 79 66
REMARK SMILES IDX 46 67 30 68 31 69 39 70 32 71 33 72 37 73 40 74 34 75 35 76
REMARK SMILES IDX 38 77 36 78 62 79 63 80 71 81 64 82 65 83 69 84 72 85 66 86
REMARK SMILES IDX 67 87 70 88 68 89 47 90 48 91 56 92 49 93 50 94 54 95 57 96
REMARK SMILES IDX 51 97 52 98 55 99 53 100
REMARK H PARENT 14 6 18 34 77 53 45 64
REMARK Flexibility Score: inf
ROOT
ATOM      1  C   UNL     1      -1.980   1.085  -7.337  1.00  0.00     0.042 C 
ENDROOT
BRANCH   1   2
ATOM      2  C   UNL     1      -0.958   0.262  -6.580  1.00  0.00     0.117 C 
BRANCH   2   3
ATOM      3  N   UNL     1      -0.206  -0.673  -7.410  1.00  0.00    -0.355 N 
ATOM      4  C   UNL     1       1.083  -1.124  -7.223  1.00  0.00     0.230 C 
ATOM      5  O   UNL     1       1.437  -2.139  -7.819  1.00  0.00    -0.274 OA
ATOM      6  H   UNL     1      -0.677  -1.025  -8.199  1.00  0.00     0.163 HD
BRANCH   4   7
ATOM      7  C   UNL     1       1.992  -0.349  -6.274  1.00  0.00     0.136 C 
ATOM      8  C   UNL     1       1.143  -0.776  -2.034  1.00  0.00     0.161 A 
ATOM      9  C   UNL     1       2.328  -0.185  -2.488  1.00  0.00     0.064 A 
ATOM     10  C   UNL     1       0.287  -1.373  -2.965  1.00  0.00     0.161 A 
ATOM     11  C   UNL     1       2.623  -0.120  -3.861  1.00  0.00     0.048 A 
ATOM     12  C   UNL     1       0.622  -1.356  -4.325  1.00  0.00     0.056 A 
ATOM     13  C   UNL     1       1.740  -0.656  -4.801  1.00  0.00    -0.016 A 
ATOM     14  C   UNL     1       3.895   0.517  -4.298  1.00  0.00     0.254 C 
ATOM     15  N   UNL     1       4.278   0.360  -5.634  1.00  0.00    -0.334 N 
ATOM     16  O   UNL     1       4.553   1.139  -3.469  1.00  0.00    -0.269 OA
ATOM     17  C   UNL     1       3.507  -0.526  -6.567  1.00  0.00     0.132 C 
ATOM     18  C   UNL     1       5.602   0.852  -6.002  1.00  0.00     0.147 C 
BRANCH   8  19
ATOM     19  O   UNL     1       0.827  -0.872  -0.706  1.00  0.00    -0.493 OA
ATOM     20  C   UNL     1       1.235   0.228   0.103  1.00  0.00     0.278 C 
ENDBRANCH   8  19
BRANCH  10  21
ATOM     21  O   UNL     1      -0.900  -2.006  -2.705  1.00  0.00    -0.493 OA
ATOM     22  C   UNL     1      -1.699  -1.434  -1.673  1.00  0.00     0.278 C 
ENDBRANCH  10  21
BRANCH  17  23
ATOM     23  C   UNL     1       3.926  -0.331  -8.031  1.00  0.00    -0.024 A 
ATOM     24  C   UNL     1       3.277   0.547  -8.910  1.00  0.00     0.007 A 
ATOM     25  C   UNL     1       5.038  -1.041  -8.523  1.00  0.00     0.007 A 
ATOM     26  C   UNL     1       3.716   0.690 -10.235  1.00  0.00     0.015 A 
ATOM     27  C   UNL     1       5.492  -0.873  -9.838  1.00  0.00     0.015 A 
ATOM     28  C   UNL     1       4.836  -0.004 -10.708  1.00  0.00     0.007 A 
BRANCH  28  29
ATOM     29  S   UNL     1       5.306   0.251 -12.414  1.00  0.00    -0.130 SA
ATOM     30  C   UNL     1       7.086  -0.095 -12.395  1.00  0.00     0.091 C 
ENDBRANCH  28  29
ENDBRANCH  17  23
ENDBRANCH   4   7
ENDBRANCH   2   3
ENDBRANCH   1   2
BRANCH   1  31
ATOM     31  C   UNL     1      -3.046   0.270  -8.053  1.00  0.00     0.118 C 
BRANCH  31  32
ATOM     32  N   UNL     1      -3.849  -0.569  -7.172  1.00  0.00    -0.352 N 
ATOM     33  C   UNL     1      -5.210  -0.596  -6.953  1.00  0.00     0.251 C 
ATOM     34  H   UNL     1      -3.335  -1.224  -6.647  1.00  0.00     0.163 HD
ATOM     35  O   UNL     1      -5.676  -1.328  -6.093  1.00  0.00    -0.269 OA
BRANCH  33  36
ATOM     36  C   UNL     1      -6.104   0.298  -7.723  1.00  0.00     0.039 A 
ATOM     37  C   UNL     1      -7.124   0.974  -7.046  1.00  0.00     0.014 A 
ATOM     38  C   UNL     1      -5.926   0.497  -9.091  1.00  0.00     0.014 A 
ATOM     39  C   UNL     1      -7.890   1.928  -7.721  1.00  0.00     0.010 A 
ATOM     40  C   UNL     1      -6.612   1.522  -9.734  1.00  0.00     0.010 A 
ATOM     41  C   UNL     1      -7.598   2.253  -9.056  1.00  0.00    -0.014 A 
BRANCH  41  42
ATOM     42  C   UNL     1      -8.305   3.350  -9.766  1.00  0.00     0.031 A 
ATOM     43  C   UNL     1      -9.086   3.053 -11.018  1.00  0.00     0.074 A 
ATOM     44  C   UNL     1      -8.176   4.622  -9.338  1.00  0.00     0.049 A 
ATOM     45  N   UNL     1      -9.662   3.881 -11.853  1.00  0.00    -0.248 NA
ATOM     46  C   UNL     1      -9.204   1.637 -11.401  1.00  0.00     0.031 C 
ATOM     47  C   UNL     1      -7.405   5.050  -8.168  1.00  0.00     0.029 A 
ATOM     48  N   UNL     1      -8.680   5.794  -9.847  1.00  0.00    -0.354 N 
ATOM     49  C   UNL     1     -10.193   3.088 -12.862  1.00  0.00     0.074 A 
ATOM     50  C   UNL     1      -9.816   1.722 -12.572  1.00  0.00     0.031 C 
ATOM     51  C   UNL     1      -7.507   6.383  -8.036  1.00  0.00     0.029 A 
ATOM     52  C   UNL     1      -8.312   6.909  -9.133  1.00  0.00     0.049 A 
ATOM     53  H   UNL     1      -9.250   5.831 -10.648  1.00  0.00     0.167 HD
ATOM     54  C   UNL     1     -10.954   3.460 -13.918  1.00  0.00     0.037 A 
ATOM     55  C   UNL     1      -8.585   8.210  -9.347  1.00  0.00     0.037 A 
ATOM     56  C   UNL     1     -11.356   4.815 -14.189  1.00  0.00     0.049 A 
ATOM     57  C   UNL     1      -9.430   8.597 -10.532  1.00  0.00     0.074 A 
ATOM     58  C   UNL     1     -12.155   5.291 -15.213  1.00  0.00     0.029 A 
ATOM     59  N   UNL     1     -10.994   5.911 -13.420  1.00  0.00    -0.354 N 
ATOM     60  N   UNL     1      -9.967   7.832 -11.451  1.00  0.00    -0.248 NA
ATOM     61  C   UNL     1      -9.711  10.029 -10.706  1.00  0.00     0.031 C 
ATOM     62  C   UNL     1     -12.253   6.680 -15.082  1.00  0.00     0.029 A 
ATOM     63  C   UNL     1     -11.549   7.064 -13.952  1.00  0.00     0.049 A 
ATOM     64  H   UNL     1     -10.427   5.876 -12.617  1.00  0.00     0.167 HD
ATOM     65  C   UNL     1     -10.675   8.682 -12.289  1.00  0.00     0.074 A 
ATOM     66  C   UNL     1     -10.511  10.021 -11.762  1.00  0.00     0.031 C 
ATOM     67  C   UNL     1     -11.394   8.383 -13.398  1.00  0.00     0.037 A 
BRANCH  54  68
ATOM     68  C   UNL     1     -11.423   2.379 -14.848  1.00  0.00     0.064 A 
ATOM     69  C   UNL     1     -12.385   1.439 -14.448  1.00  0.00     0.173 A 
ATOM     70  C   UNL     1     -10.934   2.299 -16.160  1.00  0.00     0.173 A 
ATOM     71  F   UNL     1     -12.874   1.464 -13.198  1.00  0.00    -0.203 F 
ATOM     72  C   UNL     1     -12.820   0.443 -15.317  1.00  0.00     0.198 A 
ATOM     73  C   UNL     1     -11.394   1.320 -17.037  1.00  0.00     0.198 A 
ATOM     74  F   UNL     1     -10.016   3.175 -16.595  1.00  0.00    -0.203 F 
ATOM     75  F   UNL     1     -13.703  -0.473 -14.896  1.00  0.00    -0.200 F 
ATOM     76  C   UNL     1     -12.330   0.389 -16.613  1.00  0.00     0.200 A 
ATOM     77  F   UNL     1     -10.929   1.276 -18.293  1.00  0.00    -0.200 F 
ATOM     78  F   UNL     1     -12.756  -0.566 -17.452  1.00  0.00    -0.200 F 
ENDBRANCH  54  68
BRANCH  55  79
ATOM     79  C   UNL     1      -8.075   9.249  -8.413  1.00  0.00     0.064 A 
ATOM     80  C   UNL     1      -8.953   9.970  -7.591  1.00  0.00     0.173 A 
ATOM     81  C   UNL     1      -6.710   9.565  -8.343  1.00  0.00     0.173 A 
ATOM     82  F   UNL     1     -10.270   9.718  -7.638  1.00  0.00    -0.203 F 
ATOM     83  C   UNL     1      -8.491  10.987  -6.759  1.00  0.00     0.198 A 
ATOM     84  C   UNL     1      -6.245  10.562  -7.488  1.00  0.00     0.198 A 
ATOM     85  F   UNL     1      -5.827   8.902  -9.103  1.00  0.00    -0.203 F 
ATOM     86  F   UNL     1      -9.361  11.698  -6.028  1.00  0.00    -0.200 F 
ATOM     87  C   UNL     1      -7.137  11.280  -6.706  1.00  0.00     0.200 A 
ATOM     88  F   UNL     1      -4.935  10.834  -7.429  1.00  0.00    -0.200 F 
ATOM     89  F   UNL     1      -6.694  12.262  -5.909  1.00  0.00    -0.200 F 
ENDBRANCH  55  79
BRANCH  67  90
ATOM     90  C   UNL     1     -12.098   9.515 -14.087  1.00  0.00     0.064 A 
ATOM     91  C   UNL     1     -11.396  10.475 -14.831  1.00  0.00     0.173 A 
ATOM     92  C   UNL     1     -13.496   9.616 -14.033  1.00  0.00     0.173 A 
ATOM     93  F   UNL     1     -10.057  10.430 -14.899  1.00  0.00    -0.203 F 
ATOM     94  C   UNL     1     -12.069  11.510 -15.475  1.00  0.00     0.198 A 
ATOM     95  C   UNL     1     -14.167  10.634 -14.702  1.00  0.00     0.198 A 
ATOM     96  F   UNL     1     -14.212   8.718 -13.339  1.00  0.00    -0.203 F 
ATOM     97  F   UNL     1     -11.376  12.443 -16.142  1.00  0.00    -0.200 F 
ATOM     98  C   UNL     1     -13.453  11.584 -15.417  1.00  0.00     0.200 A 
ATOM     99  F   UNL     1     -15.505  10.698 -14.655  1.00  0.00    -0.200 F 
ATOM    100  F   UNL     1     -14.098  12.577 -16.044  1.00  0.00    -0.200 F 
ENDBRANCH  67  90
ENDBRANCH  41  42
ENDBRANCH  33  36
ENDBRANCH  31  32
ENDBRANCH   1  31
TORSDOF 14
