REMARK SMILES CC[C@@H]1CCCN1C(=O)N[C@H]1C=C[C@@H](C(=O)NCCCNC(=O)c2ccc(-c3c4nc(c(-c5c(F)c(F)c(F)c(F)c5F)c5ccc([nH]5)c(-c5c(F)c(F)c(F)c(F)c5F)c5nc(c(-c6c(F)c(F)c(F)c(F)c6F)c6ccc3[nH]6)C=C5)C=C4)cc2)C1
REMARK SMILES IDX 18 1 17 2 15 3 16 4 14 6 11 7 12 8 87 9 13 10 10 11 8 12
REMARK SMILES IDX 9 13 7 15 3 16 4 17 5 18 6 19 2 20 1 21 19 22 20 23 21 24
REMARK SMILES IDX 22 25 23 27 24 28 25 29 86 30 26 31 85 32 27 33 28 34 29 35
REMARK SMILES IDX 79 36 30 37 84 38 78 39 80 40 31 41 83 42 77 43 76 44 32 46
REMARK SMILES IDX 64 47 44 48 63 49 45 50 48 51 62 52 81 53 46 54 47 55 61 57
REMARK SMILES IDX 82 58 49 59 33 60 34 61 42 62 35 63 36 64 40 65 43 66 37 67
REMARK SMILES IDX 38 68 41 69 39 70 65 71 66 72 74 73 67 74 68 75 72 76 75 77
REMARK SMILES IDX 69 78 70 79 73 80 71 81 50 82 51 83 59 84 52 85 53 86 57 87
REMARK SMILES IDX 60 88 54 89 55 90 58 91 56 92
REMARK H PARENT 17 5 10 14 21 26 80 45 48 56
REMARK Flexibility Score: inf
ROOT
ATOM      1  C   UNL     1      -0.800  -0.883  -2.966  1.00  0.00     0.117 C 
ENDROOT
BRANCH   1   2
ATOM      2  N   UNL     1       0.068  -1.769  -3.719  1.00  0.00    -0.356 N 
ATOM      3  C   UNL     1       1.313  -2.247  -3.467  1.00  0.00     0.227 C 
ATOM      4  O   UNL     1       1.829  -2.934  -4.356  1.00  0.00    -0.274 OA
ATOM      5  H   UNL     1      -0.317  -2.080  -4.570  1.00  0.00     0.163 HD
BRANCH   3   6
ATOM      6  C   UNL     1       2.070  -2.003  -2.157  1.00  0.00     0.103 C 
ATOM      7  C   UNL     1       2.114  -0.313  -0.321  1.00  0.00     0.107 C 
ATOM      8  C   UNL     1       1.370  -1.554   0.030  1.00  0.00    -0.006 C 
ATOM      9  C   UNL     1       2.442  -0.555  -1.825  1.00  0.00     0.047 C 
ATOM     10  C   UNL     1       1.324  -2.460  -0.952  1.00  0.00    -0.016 C 
BRANCH   7  11
ATOM     11  N   UNL     1       1.306   0.894  -0.191  1.00  0.00    -0.332 N 
ATOM     12  C   UNL     1       1.141   1.808   0.778  1.00  0.00     0.318 C 
ATOM     13  O   UNL     1       1.224   2.979   0.384  1.00  0.00    -0.249 OA
ATOM     14  H   UNL     1       0.763   1.079  -0.991  1.00  0.00     0.165 HD
BRANCH  12  15
ATOM     15  N   UNL     1       0.815   1.528   2.063  1.00  0.00    -0.322 N 
ATOM     16  C   UNL     1       0.389   0.300   2.750  1.00  0.00     0.086 C 
ATOM     17  C   UNL     1       0.177   0.735   4.226  1.00  0.00     0.027 C 
ATOM     18  C   UNL     1       0.915   2.050   4.369  1.00  0.00     0.024 C 
ATOM     19  C   UNL     1       0.785   2.655   2.989  1.00  0.00     0.122 C 
BRANCH  16  20
ATOM     20  C   UNL     1      -0.913  -0.396   2.274  1.00  0.00     0.022 C 
ATOM     21  C   UNL     1      -1.662   0.225   1.110  1.00  0.00     0.006 C 
ENDBRANCH  16  20
ENDBRANCH  12  15
ENDBRANCH   7  11
ENDBRANCH   3   6
ENDBRANCH   1   2
BRANCH   1  22
ATOM     22  C   UNL     1      -0.884   0.498  -3.604  1.00  0.00     0.042 C 
BRANCH  22  23
ATOM     23  C   UNL     1      -1.474   0.499  -5.010  1.00  0.00     0.118 C 
BRANCH  23  24
ATOM     24  N   UNL     1      -2.905   0.227  -5.037  1.00  0.00    -0.352 N 
ATOM     25  C   UNL     1      -3.906   0.945  -5.649  1.00  0.00     0.251 C 
ATOM     26  H   UNL     1      -3.195  -0.580  -4.552  1.00  0.00     0.163 HD
ATOM     27  O   UNL     1      -5.084   0.653  -5.468  1.00  0.00    -0.269 OA
BRANCH  25  28
ATOM     28  C   UNL     1      -3.553   2.099  -6.504  1.00  0.00     0.039 A 
ATOM     29  C   UNL     1      -4.210   3.317  -6.313  1.00  0.00     0.014 A 
ATOM     30  C   UNL     1      -2.546   1.984  -7.465  1.00  0.00     0.014 A 
ATOM     31  C   UNL     1      -3.799   4.445  -7.031  1.00  0.00     0.010 A 
ATOM     32  C   UNL     1      -2.085   3.122  -8.115  1.00  0.00     0.010 A 
ATOM     33  C   UNL     1      -2.705   4.365  -7.907  1.00  0.00    -0.014 A 
BRANCH  33  34
ATOM     34  C   UNL     1      -2.192   5.548  -8.646  1.00  0.00     0.031 A 
ATOM     35  C   UNL     1      -2.205   5.535 -10.151  1.00  0.00     0.074 A 
ATOM     36  C   UNL     1      -1.619   6.572  -7.982  1.00  0.00     0.049 A 
ATOM     37  N   UNL     1      -1.632   6.355 -10.994  1.00  0.00    -0.248 NA
ATOM     38  C   UNL     1      -2.933   4.427 -10.793  1.00  0.00     0.031 C 
ATOM     39  C   UNL     1      -1.519   6.692  -6.527  1.00  0.00     0.029 A 
ATOM     40  N   UNL     1      -0.981   7.696  -8.450  1.00  0.00    -0.354 N 
ATOM     41  C   UNL     1      -1.897   5.841 -12.257  1.00  0.00     0.074 A 
ATOM     42  C   UNL     1      -2.650   4.621 -12.073  1.00  0.00     0.031 C 
ATOM     43  C   UNL     1      -0.863   7.823  -6.222  1.00  0.00     0.029 A 
ATOM     44  C   UNL     1      -0.448   8.483  -7.457  1.00  0.00     0.049 A 
ATOM     45  H   UNL     1      -0.912   7.917  -9.407  1.00  0.00     0.167 HD
ATOM     46  C   UNL     1      -1.553   6.352 -13.462  1.00  0.00     0.037 A 
ATOM     47  C   UNL     1       0.314   9.592  -7.535  1.00  0.00     0.037 A 
ATOM     48  C   UNL     1      -0.847   7.592 -13.640  1.00  0.00     0.049 A 
ATOM     49  C   UNL     1       0.684  10.135  -8.893  1.00  0.00     0.074 A 
ATOM     50  C   UNL     1      -0.516   8.230 -14.823  1.00  0.00     0.029 A 
ATOM     51  N   UNL     1      -0.370   8.384 -12.608  1.00  0.00    -0.354 N 
ATOM     52  N   UNL     1       0.378   9.673 -10.081  1.00  0.00    -0.248 NA
ATOM     53  C   UNL     1       1.504  11.355  -8.923  1.00  0.00     0.031 C 
ATOM     54  C   UNL     1       0.208   9.382 -14.507  1.00  0.00     0.029 A 
ATOM     55  C   UNL     1       0.271   9.495 -13.128  1.00  0.00     0.049 A 
ATOM     56  H   UNL     1      -0.471   8.186 -11.649  1.00  0.00     0.167 HD
ATOM     57  C   UNL     1       0.922  10.569 -10.992  1.00  0.00     0.074 A 
ATOM     58  C   UNL     1       1.579  11.602 -10.223  1.00  0.00     0.031 C 
ATOM     59  C   UNL     1       0.877  10.540 -12.345  1.00  0.00     0.037 A 
BRANCH  46  60
ATOM     60  C   UNL     1      -1.932   5.581 -14.692  1.00  0.00     0.064 A 
ATOM     61  C   UNL     1      -3.263   5.487 -15.122  1.00  0.00     0.173 A 
ATOM     62  C   UNL     1      -0.939   4.999 -15.495  1.00  0.00     0.173 A 
ATOM     63  F   UNL     1      -4.251   6.017 -14.385  1.00  0.00    -0.203 F 
ATOM     64  C   UNL     1      -3.588   4.826 -16.304  1.00  0.00     0.198 A 
ATOM     65  C   UNL     1      -1.264   4.367 -16.691  1.00  0.00     0.198 A 
ATOM     66  F   UNL     1       0.351   5.066 -15.131  1.00  0.00    -0.203 F 
ATOM     67  F   UNL     1      -4.870   4.719 -16.679  1.00  0.00    -0.200 F 
ATOM     68  C   UNL     1      -2.588   4.277 -17.093  1.00  0.00     0.200 A 
ATOM     69  F   UNL     1      -0.294   3.852 -17.460  1.00  0.00    -0.200 F 
ATOM     70  F   UNL     1      -2.901   3.662 -18.241  1.00  0.00    -0.200 F 
ENDBRANCH  46  60
BRANCH  47  71
ATOM     71  C   UNL     1       0.791  10.272  -6.300  1.00  0.00     0.064 A 
ATOM     72  C   UNL     1       0.347  11.561  -5.969  1.00  0.00     0.173 A 
ATOM     73  C   UNL     1       1.738   9.675  -5.454  1.00  0.00     0.173 A 
ATOM     74  F   UNL     1      -0.540  12.185  -6.758  1.00  0.00    -0.203 F 
ATOM     75  C   UNL     1       0.861  12.241  -4.867  1.00  0.00     0.198 A 
ATOM     76  C   UNL     1       2.225  10.343  -4.332  1.00  0.00     0.198 A 
ATOM     77  F   UNL     1       2.195   8.443  -5.720  1.00  0.00    -0.203 F 
ATOM     78  F   UNL     1       0.472  13.499  -4.618  1.00  0.00    -0.200 F 
ATOM     79  C   UNL     1       1.798  11.631  -4.047  1.00  0.00     0.200 A 
ATOM     80  F   UNL     1       3.122   9.744  -3.535  1.00  0.00    -0.200 F 
ATOM     81  F   UNL     1       2.300  12.289  -2.994  1.00  0.00    -0.200 F 
ENDBRANCH  47  71
BRANCH  59  82
ATOM     82  C   UNL     1       1.475  11.695 -13.094  1.00  0.00     0.064 A 
ATOM     83  C   UNL     1       2.861  11.874 -13.200  1.00  0.00     0.173 A 
ATOM     84  C   UNL     1       0.640  12.582 -13.791  1.00  0.00     0.173 A 
ATOM     85  F   UNL     1       3.700  11.060 -12.542  1.00  0.00    -0.203 F 
ATOM     86  C   UNL     1       3.389  12.907 -13.969  1.00  0.00     0.198 A 
ATOM     87  C   UNL     1       1.172  13.594 -14.584  1.00  0.00     0.198 A 
ATOM     88  F   UNL     1      -0.693  12.447 -13.728  1.00  0.00    -0.203 F 
ATOM     89  F   UNL     1       4.717  13.080 -14.033  1.00  0.00    -0.200 F 
ATOM     90  C   UNL     1       2.546  13.757 -14.670  1.00  0.00     0.200 A 
ATOM     91  F   UNL     1       0.356  14.402 -15.274  1.00  0.00    -0.200 F 
ATOM     92  F   UNL     1       3.058  14.736 -15.429  1.00  0.00    -0.200 F 
ENDBRANCH  59  82
ENDBRANCH  33  34
ENDBRANCH  25  28
ENDBRANCH  23  24
ENDBRANCH  22  23
ENDBRANCH   1  22
TORSDOF 13
