REMARK SMILES NC(=O)c1ccc(C[N@H+]2CCC[C@@H](C(=O)NCCCNC(=O)c3ccc(-c4c5nc(c(-c6c(F)c(F)c(F)c(F)c6F)c6ccc([nH]6)c(-c6c(F)c(F)c(F)c(F)c6F)c6nc(c(-c7c(F)c(F)c(F)c(F)c7F)c7ccc4[nH]7)C=C6)C=C5)cc3)C2)cc1
REMARK SMILES IDX 17 1 16 2 14 3 15 4 13 6 9 7 10 8 86 9 11 11 12 12 8 13 7 14
REMARK SMILES IDX 4 15 5 16 88 17 6 18 87 19 2 20 1 21 3 24 18 25 19 26 20 27
REMARK SMILES IDX 21 28 22 30 23 31 24 32 85 33 25 34 84 35 26 36 27 37 28 38
REMARK SMILES IDX 78 39 29 40 83 41 77 42 79 43 30 44 82 45 76 46 75 47 31 49
REMARK SMILES IDX 63 50 43 51 62 52 44 53 47 54 61 55 80 56 45 57 46 58 60 60
REMARK SMILES IDX 81 61 48 62 32 63 33 64 41 65 34 66 35 67 39 68 42 69 36 70
REMARK SMILES IDX 37 71 40 72 38 73 64 74 65 75 73 76 66 77 67 78 71 79 74 80
REMARK SMILES IDX 68 81 69 82 72 83 70 84 49 85 50 86 58 87 51 88 52 89 56 90
REMARK SMILES IDX 59 91 53 92 54 93 57 94 55 95
REMARK H PARENT 16 5 9 10 1 22 1 23 20 29 79 48 47 59
REMARK Flexibility Score: inf
ROOT
ATOM      1  C   UNL     1      -3.114   7.059   4.360  1.00  0.00     0.117 C 
ENDROOT
BRANCH   1   2
ATOM      2  N   UNL     1      -2.408   6.609   5.544  1.00  0.00    -0.356 N 
ATOM      3  C   UNL     1      -1.117   6.657   5.946  1.00  0.00     0.228 C 
ATOM      4  O   UNL     1      -0.913   6.242   7.095  1.00  0.00    -0.275 OA
ATOM      5  H   UNL     1      -2.998   6.173   6.200  1.00  0.00     0.163 HD
BRANCH   3   6
ATOM      6  C   UNL     1       0.080   7.086   5.092  1.00  0.00     0.133 C 
ATOM      7  N   UNL     1       2.150   6.078   4.070  1.00  0.00    -0.331 N 
ATOM      8  C   UNL     1       1.909   6.785   2.812  1.00  0.00     0.262 C 
ATOM      9  C   UNL     1       0.909   5.819   4.819  1.00  0.00     0.276 C 
ATOM     10  H   UNL     1       2.700   6.713   4.648  1.00  0.00     0.348 HD
ATOM     11  C   UNL     1       1.173   8.101   3.072  1.00  0.00     0.062 C 
ATOM     12  C   UNL     1      -0.147   7.843   3.790  1.00  0.00     0.025 C 
BRANCH   7  13
ATOM     13  C   UNL     1       2.987   4.874   3.906  1.00  0.00     0.299 C 
BRANCH  13  14
ATOM     14  C   UNL     1       2.375   3.732   3.115  1.00  0.00     0.006 A 
ATOM     15  C   UNL     1       1.092   1.729   1.623  1.00  0.00     0.039 A 
ATOM     16  C   UNL     1       0.785   1.896   2.974  1.00  0.00     0.014 A 
ATOM     17  C   UNL     1       2.059   2.539   1.017  1.00  0.00     0.014 A 
ATOM     18  C   UNL     1       1.447   2.869   3.720  1.00  0.00     0.010 A 
ATOM     19  C   UNL     1       2.690   3.542   1.760  1.00  0.00     0.010 A 
BRANCH  15  20
ATOM     20  C   UNL     1       0.337   0.711   0.860  1.00  0.00     0.248 C 
ATOM     21  N   UNL     1       1.040  -0.021  -0.052  1.00  0.00    -0.366 N 
ATOM     22  H   UNL     1       0.585  -0.711  -0.586  1.00  0.00     0.159 HD
ATOM     23  H   UNL     1       2.003   0.142  -0.176  1.00  0.00     0.159 HD
ATOM     24  O   UNL     1      -0.853   0.515   1.065  1.00  0.00    -0.270 OA
ENDBRANCH  15  20
ENDBRANCH  13  14
ENDBRANCH   7  13
ENDBRANCH   3   6
ENDBRANCH   1   2
BRANCH   1  25
ATOM     25  C   UNL     1      -3.403   5.924   3.381  1.00  0.00     0.042 C 
BRANCH  25  26
ATOM     26  C   UNL     1      -4.598   5.062   3.791  1.00  0.00     0.118 C 
BRANCH  26  27
ATOM     27  N   UNL     1      -5.839   5.832   3.839  1.00  0.00    -0.352 N 
ATOM     28  C   UNL     1      -6.956   5.788   3.045  1.00  0.00     0.251 C 
ATOM     29  H   UNL     1      -5.880   6.496   4.566  1.00  0.00     0.163 HD
ATOM     30  O   UNL     1      -7.763   6.712   3.083  1.00  0.00    -0.269 OA
BRANCH  28  31
ATOM     31  C   UNL     1      -7.201   4.641   2.149  1.00  0.00     0.039 A 
ATOM     32  C   UNL     1      -7.735   4.875   0.878  1.00  0.00     0.014 A 
ATOM     33  C   UNL     1      -6.959   3.334   2.578  1.00  0.00     0.014 A 
ATOM     34  C   UNL     1      -7.952   3.804   0.009  1.00  0.00     0.010 A 
ATOM     35  C   UNL     1      -7.111   2.275   1.690  1.00  0.00     0.010 A 
ATOM     36  C   UNL     1      -7.600   2.501   0.394  1.00  0.00    -0.014 A 
BRANCH  36  37
ATOM     37  C   UNL     1      -7.681   1.364  -0.554  1.00  0.00     0.031 A 
ATOM     38  C   UNL     1      -8.606   0.214  -0.288  1.00  0.00     0.074 A 
ATOM     39  C   UNL     1      -6.828   1.323  -1.595  1.00  0.00     0.049 A 
ATOM     40  N   UNL     1      -8.723  -0.920  -0.931  1.00  0.00    -0.248 NA
ATOM     41  C   UNL     1      -9.498   0.344   0.873  1.00  0.00     0.031 C 
ATOM     42  C   UNL     1      -5.842   2.357  -1.916  1.00  0.00     0.029 A 
ATOM     43  N   UNL     1      -6.627   0.362  -2.554  1.00  0.00    -0.354 N 
ATOM     44  C   UNL     1      -9.682  -1.648  -0.240  1.00  0.00     0.074 A 
ATOM     45  C   UNL     1     -10.088  -0.843   0.893  1.00  0.00     0.031 C 
ATOM     46  C   UNL     1      -5.139   1.974  -2.991  1.00  0.00     0.029 A 
ATOM     47  C   UNL     1      -5.591   0.650  -3.407  1.00  0.00     0.049 A 
ATOM     48  H   UNL     1      -7.173  -0.454  -2.623  1.00  0.00     0.167 HD
ATOM     49  C   UNL     1     -10.184  -2.871  -0.535  1.00  0.00     0.037 A 
ATOM     50  C   UNL     1      -5.043  -0.082  -4.394  1.00  0.00     0.037 A 
ATOM     51  C   UNL     1      -9.780  -3.654  -1.674  1.00  0.00     0.049 A 
ATOM     52  C   UNL     1      -5.608  -1.440  -4.698  1.00  0.00     0.074 A 
ATOM     53  C   UNL     1     -10.300  -4.855  -2.125  1.00  0.00     0.029 A 
ATOM     54  N   UNL     1      -8.740  -3.323  -2.532  1.00  0.00    -0.354 N 
ATOM     55  N   UNL     1      -6.588  -2.078  -4.104  1.00  0.00    -0.248 NA
ATOM     56  C   UNL     1      -4.993  -2.182  -5.806  1.00  0.00     0.031 C 
ATOM     57  C   UNL     1      -9.532  -5.282  -3.214  1.00  0.00     0.029 A 
ATOM     58  C   UNL     1      -8.569  -4.321  -3.479  1.00  0.00     0.049 A 
ATOM     59  H   UNL     1      -8.202  -2.500  -2.475  1.00  0.00     0.167 HD
ATOM     60  C   UNL     1      -6.710  -3.292  -4.764  1.00  0.00     0.074 A 
ATOM     61  C   UNL     1      -5.721  -3.291  -5.823  1.00  0.00     0.031 C 
ATOM     62  C   UNL     1      -7.561  -4.316  -4.511  1.00  0.00     0.037 A 
BRANCH  49  63
ATOM     63  C   UNL     1     -11.210  -3.445   0.401  1.00  0.00     0.064 A 
ATOM     64  C   UNL     1     -12.494  -2.892   0.525  1.00  0.00     0.173 A 
ATOM     65  C   UNL     1     -10.909  -4.576   1.175  1.00  0.00     0.173 A 
ATOM     66  F   UNL     1     -12.834  -1.807  -0.187  1.00  0.00    -0.203 F 
ATOM     67  C   UNL     1     -13.421  -3.422   1.419  1.00  0.00     0.198 A 
ATOM     68  C   UNL     1     -11.850  -5.124   2.044  1.00  0.00     0.198 A 
ATOM     69  F   UNL     1      -9.701  -5.153   1.091  1.00  0.00    -0.203 F 
ATOM     70  F   UNL     1     -14.619  -2.838   1.565  1.00  0.00    -0.200 F 
ATOM     71  C   UNL     1     -13.100  -4.540   2.174  1.00  0.00     0.200 A 
ATOM     72  F   UNL     1     -11.543  -6.214   2.761  1.00  0.00    -0.200 F 
ATOM     73  F   UNL     1     -13.993  -5.049   3.034  1.00  0.00    -0.200 F 
ENDBRANCH  49  63
BRANCH  50  74
ATOM     74  C   UNL     1      -3.892   0.468  -5.153  1.00  0.00     0.064 A 
ATOM     75  C   UNL     1      -4.041   0.900  -6.477  1.00  0.00     0.173 A 
ATOM     76  C   UNL     1      -2.632   0.619  -4.554  1.00  0.00     0.173 A 
ATOM     77  F   UNL     1      -5.220   0.757  -7.099  1.00  0.00    -0.203 F 
ATOM     78  C   UNL     1      -2.974   1.463  -7.174  1.00  0.00     0.198 A 
ATOM     79  C   UNL     1      -1.573   1.207  -5.242  1.00  0.00     0.198 A 
ATOM     80  F   UNL     1      -2.437   0.221  -3.288  1.00  0.00    -0.203 F 
ATOM     81  F   UNL     1      -3.135   1.845  -8.448  1.00  0.00    -0.200 F 
ATOM     82  C   UNL     1      -1.744   1.625  -6.552  1.00  0.00     0.200 A 
ATOM     83  F   UNL     1      -0.391   1.375  -4.633  1.00  0.00    -0.200 F 
ATOM     84  F   UNL     1      -0.723   2.183  -7.217  1.00  0.00    -0.200 F 
ENDBRANCH  50  74
BRANCH  62  85
ATOM     85  C   UNL     1      -7.452  -5.531  -5.386  1.00  0.00     0.064 A 
ATOM     86  C   UNL     1      -6.368  -6.415  -5.275  1.00  0.00     0.173 A 
ATOM     87  C   UNL     1      -8.463  -5.844  -6.307  1.00  0.00     0.173 A 
ATOM     88  F   UNL     1      -5.366  -6.151  -4.423  1.00  0.00    -0.203 F 
ATOM     89  C   UNL     1      -6.293  -7.559  -6.064  1.00  0.00     0.198 A 
ATOM     90  C   UNL     1      -8.400  -7.005  -7.073  1.00  0.00     0.198 A 
ATOM     91  F   UNL     1      -9.522  -5.034  -6.450  1.00  0.00    -0.203 F 
ATOM     92  F   UNL     1      -5.229  -8.368  -5.970  1.00  0.00    -0.200 F 
ATOM     93  C   UNL     1      -7.314  -7.858  -6.955  1.00  0.00     0.200 A 
ATOM     94  F   UNL     1      -9.393  -7.299  -7.923  1.00  0.00    -0.200 F 
ATOM     95  F   UNL     1      -7.246  -8.967  -7.705  1.00  0.00    -0.200 F 
ENDBRANCH  62  85
ENDBRANCH  36  37
ENDBRANCH  28  31
ENDBRANCH  26  27
ENDBRANCH  25  26
ENDBRANCH   1  25
TORSDOF 13
