REMARK SMILES C=CCCCOc1ccc(C(=O)NCCCNC(=O)c2ccc(-c3c4nc(c(-c5c(F)c(F)c(F)c(F)c5F)c5ccc([nH]5)c(-c5c(F)c(F)c(F)c(F)c5F)c5nc(c(-c6c(F)c(F)c(F)c(F)c6F)c6ccc3[nH]6)C=C5)C=C4)cc2)cc1[N+](=O)[O-]
REMARK SMILES IDX 11 1 12 2 13 3 10 5 7 6 8 7 84 8 9 9 83 10 6 11 5 12 4 13
REMARK SMILES IDX 3 14 2 15 1 16 85 17 86 18 87 19 14 20 15 21 16 22 17 23
REMARK SMILES IDX 18 24 19 26 20 27 21 28 82 29 22 30 81 31 23 32 24 33 25 34
REMARK SMILES IDX 75 35 26 36 80 37 74 38 76 39 27 40 79 41 73 42 72 43 28 45
REMARK SMILES IDX 60 46 40 47 59 48 41 49 44 50 58 51 77 52 42 53 43 54 57 56
REMARK SMILES IDX 78 57 45 58 29 59 30 60 38 61 31 62 32 63 36 64 39 65 33 66
REMARK SMILES IDX 34 67 37 68 35 69 61 70 62 71 70 72 63 73 64 74 68 75 71 76
REMARK SMILES IDX 65 77 66 78 69 79 67 80 46 81 47 82 55 83 48 84 49 85 53 86
REMARK SMILES IDX 56 87 50 88 51 89 54 90 52 91
REMARK H PARENT 13 4 17 25 76 44 44 55
REMARK Flexibility Score: inf
ROOT
ATOM      1  C   UNL     1      -0.846  -4.412   3.363  1.00  0.00     0.251 C 
ATOM      2  O   UNL     1      -0.645  -5.564   3.744  1.00  0.00    -0.269 OA
ATOM      3  N   UNL     1      -0.601  -3.361   4.212  1.00  0.00    -0.352 N 
ATOM      4  H   UNL     1      -0.420  -3.617   5.146  1.00  0.00     0.163 HD
ENDROOT
BRANCH   1   5
ATOM      5  C   UNL     1      -1.302  -4.179   1.976  1.00  0.00     0.046 A 
ATOM      6  C   UNL     1      -1.955  -3.622  -0.693  1.00  0.00     0.197 A 
ATOM      7  C   UNL     1      -1.010  -4.608  -0.395  1.00  0.00     0.055 A 
ATOM      8  C   UNL     1      -2.665  -3.029   0.354  1.00  0.00     0.311 A 
ATOM      9  C   UNL     1      -0.678  -4.880   0.936  1.00  0.00     0.018 A 
ATOM     10  C   UNL     1      -2.347  -3.303   1.689  1.00  0.00     0.103 A 
BRANCH   6  11
ATOM     11  O   UNL     1      -2.194  -3.260  -1.986  1.00  0.00    -0.487 OA
BRANCH  11  12
ATOM     12  C   UNL     1      -1.067  -2.652  -2.639  1.00  0.00     0.230 C 
BRANCH  12  13
ATOM     13  C   UNL     1      -1.126  -1.122  -2.546  1.00  0.00     0.046 C 
BRANCH  13  14
ATOM     14  C   UNL     1      -0.577  -0.529  -1.240  1.00  0.00     0.030 C 
BRANCH  14  15
ATOM     15  C   UNL     1       0.913  -0.641  -1.080  1.00  0.00    -0.035 C 
ATOM     16  C   UNL     1       1.627   0.215  -0.339  1.00  0.00     0.004 C 
ENDBRANCH  14  15
ENDBRANCH  13  14
ENDBRANCH  12  13
ENDBRANCH  11  12
ENDBRANCH   6  11
BRANCH   8  17
ATOM     17  N   UNL     1      -3.673  -2.012   0.093  1.00  0.00     0.066 N 
ATOM     18  O   UNL     1      -3.613  -0.983   0.786  1.00  0.00    -0.258 OA
ATOM     19  O   UNL     1      -4.532  -2.242  -0.765  1.00  0.00    -0.258 OA
ENDBRANCH   8  17
ENDBRANCH   1   5
BRANCH   3  20
ATOM     20  C   UNL     1      -0.567  -1.927   3.951  1.00  0.00     0.118 C 
BRANCH  20  21
ATOM     21  C   UNL     1      -1.771  -1.200   4.544  1.00  0.00     0.042 C 
BRANCH  21  22
ATOM     22  C   UNL     1      -1.771  -1.131   6.067  1.00  0.00     0.118 C 
BRANCH  22  23
ATOM     23  N   UNL     1      -0.772  -0.210   6.585  1.00  0.00    -0.352 N 
ATOM     24  C   UNL     1      -0.917   0.901   7.380  1.00  0.00     0.251 C 
ATOM     25  H   UNL     1       0.155  -0.414   6.325  1.00  0.00     0.163 HD
ATOM     26  O   UNL     1       0.042   1.649   7.549  1.00  0.00    -0.269 OA
BRANCH  24  27
ATOM     27  C   UNL     1      -2.214   1.221   8.021  1.00  0.00     0.039 A 
ATOM     28  C   UNL     1      -2.611   2.561   8.095  1.00  0.00     0.014 A 
ATOM     29  C   UNL     1      -3.017   0.230   8.592  1.00  0.00     0.014 A 
ATOM     30  C   UNL     1      -3.831   2.898   8.687  1.00  0.00     0.010 A 
ATOM     31  C   UNL     1      -4.268   0.558   9.112  1.00  0.00     0.010 A 
ATOM     32  C   UNL     1      -4.685   1.896   9.173  1.00  0.00    -0.014 A 
BRANCH  32  33
ATOM     33  C   UNL     1      -6.013   2.230   9.751  1.00  0.00     0.031 A 
ATOM     34  C   UNL     1      -6.306   1.949  11.199  1.00  0.00     0.074 A 
ATOM     35  C   UNL     1      -6.977   2.734   8.957  1.00  0.00     0.049 A 
ATOM     36  N   UNL     1      -7.418   2.119  11.869  1.00  0.00    -0.248 NA
ATOM     37  C   UNL     1      -5.210   1.374  11.993  1.00  0.00     0.031 C 
ATOM     38  C   UNL     1      -6.832   3.014   7.529  1.00  0.00     0.029 A 
ATOM     39  N   UNL     1      -8.272   3.094   9.238  1.00  0.00    -0.354 N 
ATOM     40  C   UNL     1      -7.160   1.659  13.154  1.00  0.00     0.074 A 
ATOM     41  C   UNL     1      -5.805   1.152  13.155  1.00  0.00     0.031 C 
ATOM     42  C   UNL     1      -7.982   3.527   7.063  1.00  0.00     0.029 A 
ATOM     43  C   UNL     1      -8.956   3.576   8.149  1.00  0.00     0.049 A 
ATOM     44  H   UNL     1      -8.671   3.013  10.134  1.00  0.00     0.167 HD
ATOM     45  C   UNL     1      -7.971   1.678  14.240  1.00  0.00     0.037 A 
ATOM     46  C   UNL     1     -10.227   4.006   8.039  1.00  0.00     0.037 A 
ATOM     47  C   UNL     1      -9.314   2.199  14.239  1.00  0.00     0.049 A 
ATOM     48  C   UNL     1     -11.114   4.003   9.253  1.00  0.00     0.074 A 
ATOM     49  C   UNL     1     -10.195   2.321  15.300  1.00  0.00     0.029 A 
ATOM     50  N   UNL     1      -9.973   2.681  13.117  1.00  0.00    -0.354 N 
ATOM     51  N   UNL     1     -10.838   3.630  10.479  1.00  0.00    -0.248 NA
ATOM     52  C   UNL     1     -12.489   4.486   9.068  1.00  0.00     0.031 C 
ATOM     53  C   UNL     1     -11.404   2.828  14.810  1.00  0.00     0.029 A 
ATOM     54  C   UNL     1     -11.259   3.075  13.454  1.00  0.00     0.049 A 
ATOM     55  H   UNL     1      -9.585   2.735  12.214  1.00  0.00     0.167 HD
ATOM     56  C   UNL     1     -11.992   3.857  11.216  1.00  0.00     0.074 A 
ATOM     57  C   UNL     1     -12.968   4.414  10.302  1.00  0.00     0.031 C 
ATOM     58  C   UNL     1     -12.221   3.627  12.533  1.00  0.00     0.037 A 
BRANCH  45  59
ATOM     59  C   UNL     1      -7.425   1.108  15.519  1.00  0.00     0.064 A 
ATOM     60  C   UNL     1      -6.383   1.735  16.221  1.00  0.00     0.173 A 
ATOM     61  C   UNL     1      -7.955  -0.074  16.057  1.00  0.00     0.173 A 
ATOM     62  F   UNL     1      -5.833   2.863  15.747  1.00  0.00    -0.203 F 
ATOM     63  C   UNL     1      -5.865   1.177  17.387  1.00  0.00     0.198 A 
ATOM     64  C   UNL     1      -7.458  -0.611  17.242  1.00  0.00     0.198 A 
ATOM     65  F   UNL     1      -8.958  -0.712  15.433  1.00  0.00    -0.203 F 
ATOM     66  F   UNL     1      -4.827   1.761  18.003  1.00  0.00    -0.200 F 
ATOM     67  C   UNL     1      -6.405   0.008  17.899  1.00  0.00     0.200 A 
ATOM     68  F   UNL     1      -7.991  -1.734  17.743  1.00  0.00    -0.200 F 
ATOM     69  F   UNL     1      -5.905  -0.528  19.021  1.00  0.00    -0.200 F 
ENDBRANCH  45  59
BRANCH  46  70
ATOM     70  C   UNL     1     -10.721   4.512   6.732  1.00  0.00     0.064 A 
ATOM     71  C   UNL     1     -10.973   5.878   6.543  1.00  0.00     0.173 A 
ATOM     72  C   UNL     1     -10.931   3.652   5.644  1.00  0.00     0.173 A 
ATOM     73  F   UNL     1     -10.807   6.735   7.561  1.00  0.00    -0.203 F 
ATOM     74  C   UNL     1     -11.427   6.363   5.319  1.00  0.00     0.198 A 
ATOM     75  C   UNL     1     -11.360   4.142   4.413  1.00  0.00     0.198 A 
ATOM     76  F   UNL     1     -10.701   2.337   5.774  1.00  0.00    -0.203 F 
ATOM     77  F   UNL     1     -11.694   7.669   5.176  1.00  0.00    -0.200 F 
ATOM     78  C   UNL     1     -11.613   5.497   4.253  1.00  0.00     0.200 A 
ATOM     79  F   UNL     1     -11.525   3.304   3.381  1.00  0.00    -0.200 F 
ATOM     80  F   UNL     1     -12.039   5.966   3.072  1.00  0.00    -0.200 F 
ENDBRANCH  46  70
BRANCH  58  81
ATOM     81  C   UNL     1     -13.570   4.007  13.073  1.00  0.00     0.064 A 
ATOM     82  C   UNL     1     -14.725   3.279  12.749  1.00  0.00     0.173 A 
ATOM     83  C   UNL     1     -13.703   5.093  13.952  1.00  0.00     0.173 A 
ATOM     84  F   UNL     1     -14.654   2.243  11.901  1.00  0.00    -0.203 F 
ATOM     85  C   UNL     1     -15.967   3.641  13.266  1.00  0.00     0.198 A 
ATOM     86  C   UNL     1     -14.941   5.432  14.491  1.00  0.00     0.198 A 
ATOM     87  F   UNL     1     -12.629   5.818  14.298  1.00  0.00    -0.203 F 
ATOM     88  F   UNL     1     -17.064   2.962  12.904  1.00  0.00    -0.200 F 
ATOM     89  C   UNL     1     -16.073   4.711  14.141  1.00  0.00     0.200 A 
ATOM     90  F   UNL     1     -15.039   6.458  15.347  1.00  0.00    -0.200 F 
ATOM     91  F   UNL     1     -17.267   5.054  14.642  1.00  0.00    -0.200 F 
ENDBRANCH  58  81
ENDBRANCH  32  33
ENDBRANCH  24  27
ENDBRANCH  22  23
ENDBRANCH  21  22
ENDBRANCH  20  21
ENDBRANCH   3  20
TORSDOF 16
