REMARK SMILES O=C(COc1ccccc1/C=C1/SC(=S)N(c2ccc(F)c(Cl)c2)C1=O)NCCCNC(=O)c1ccc(-c2c3nc(c(-c4c(F)c(F)c(F)c(F)c4F)c4ccc([nH]4)c(-c4c(F)c(F)c(F)c(F)c4F)c4nc(c(-c5c(F)c(F)c(F)c(F)c5F)c5ccc2[nH]5)C=C4)C=C3)cc1
REMARK SMILES IDX 28 1 27 2 1 3 2 4 3 6 4 7 5 8 6 9 10 10 7 11 9 12 8 13 11 14
REMARK SMILES IDX 12 15 13 16 25 17 14 18 16 19 26 20 15 21 17 22 18 23 24 24
REMARK SMILES IDX 19 25 22 26 20 27 23 28 21 29 29 30 30 31 31 32 32 33 33 35
REMARK SMILES IDX 34 36 35 37 96 38 36 39 95 40 37 41 38 42 39 43 89 44 40 45
REMARK SMILES IDX 94 46 88 47 90 48 41 49 93 50 87 51 86 52 42 54 74 55 54 56
REMARK SMILES IDX 73 57 55 58 58 59 72 60 91 61 56 62 57 63 71 65 92 66 59 67
REMARK SMILES IDX 43 68 44 69 52 70 45 71 46 72 50 73 53 74 47 75 48 76 51 77
REMARK SMILES IDX 49 78 75 79 76 80 84 81 77 82 78 83 82 84 85 85 79 86 80 87
REMARK SMILES IDX 83 88 81 89 60 90 61 91 69 92 62 93 63 94 67 95 70 96 64 97
REMARK SMILES IDX 65 98 68 99 66 100
REMARK H PARENT 27 5 31 34 90 53 58 64
REMARK Flexibility Score: inf
ROOT
ATOM      1  C   UNL     1       1.303   1.042   2.142  1.00  0.00     0.117 C 
ENDROOT
BRANCH   1   2
ATOM      2  N   UNL     1       2.164   0.358   1.192  1.00  0.00    -0.353 N 
ATOM      3  O   UNL     1       0.443  -0.259  -0.206  1.00  0.00    -0.271 OA
ATOM      4  C   UNL     1       1.647  -0.200   0.032  1.00  0.00     0.257 C 
ATOM      5  H   UNL     1       3.129   0.290   1.374  1.00  0.00     0.163 HD
BRANCH   4   6
ATOM      6  C   UNL     1       2.694  -0.755  -0.940  1.00  0.00     0.329 C 
BRANCH   6   7
ATOM      7  O   UNL     1       3.569   0.252  -1.451  1.00  0.00    -0.483 OA
BRANCH   7   8
ATOM      8  C   UNL     1       3.033   0.859  -2.565  1.00  0.00     0.127 A 
ATOM      9  C   UNL     1       3.178   0.255  -3.815  1.00  0.00     0.047 A 
ATOM     10  C   UNL     1       2.458   2.137  -2.462  1.00  0.00     0.018 A 
ATOM     11  C   UNL     1       2.679   0.890  -4.954  1.00  0.00     0.004 A 
ATOM     12  C   UNL     1       1.915   2.741  -3.601  1.00  0.00     0.012 A 
ATOM     13  C   UNL     1       2.027   2.118  -4.845  1.00  0.00     0.001 A 
BRANCH  10  14
ATOM     14  C   UNL     1       2.464   2.892  -1.207  1.00  0.00     0.033 C 
ATOM     15  C   UNL     1       3.589   3.290  -0.596  1.00  0.00     0.081 C 
ATOM     16  S   UNL     1       3.592   4.041   0.956  1.00  0.00    -0.054 SA
ATOM     17  C   UNL     1       4.999   3.088  -1.060  1.00  0.00     0.270 C 
ATOM     18  C   UNL     1       5.324   3.822   1.159  1.00  0.00     0.152 C 
ATOM     19  N   UNL     1       5.850   3.235   0.022  1.00  0.00    -0.261 N 
ATOM     20  O   UNL     1       5.334   2.886  -2.218  1.00  0.00    -0.268 OA
ATOM     21  S   UNL     1       6.152   4.306   2.529  1.00  0.00    -0.051 S 
BRANCH  19  22
ATOM     22  C   UNL     1       7.234   2.987  -0.105  1.00  0.00     0.052 A 
ATOM     23  C   UNL     1       8.052   3.967  -0.679  1.00  0.00     0.030 A 
ATOM     24  C   UNL     1       7.797   1.886   0.556  1.00  0.00     0.050 A 
ATOM     25  C   UNL     1       9.435   3.882  -0.527  1.00  0.00     0.043 A 
ATOM     26  C   UNL     1       9.181   1.805   0.694  1.00  0.00     0.078 A 
ATOM     27  C   UNL     1       9.991   2.812   0.172  1.00  0.00     0.141 A 
ATOM     28  Cl  UNL     1       9.863   0.489   1.571  1.00  0.00    -0.081 Cl
ATOM     29  F   UNL     1      11.318   2.786   0.358  1.00  0.00    -0.205 F 
ENDBRANCH  19  22
ENDBRANCH  10  14
ENDBRANCH   7   8
ENDBRANCH   6   7
ENDBRANCH   4   6
ENDBRANCH   1   2
BRANCH   1  30
ATOM     30  C   UNL     1       1.648   0.790   3.607  1.00  0.00     0.042 C 
BRANCH  30  31
ATOM     31  C   UNL     1       2.954   1.405   4.104  1.00  0.00     0.118 C 
BRANCH  31  32
ATOM     32  N   UNL     1       2.951   2.856   4.136  1.00  0.00    -0.352 N 
ATOM     33  C   UNL     1       3.669   3.765   4.878  1.00  0.00     0.251 C 
ATOM     34  H   UNL     1       2.314   3.267   3.507  1.00  0.00     0.163 HD
ATOM     35  O   UNL     1       3.393   4.955   4.720  1.00  0.00    -0.269 OA
BRANCH  33  36
ATOM     36  C   UNL     1       4.702   3.385   5.890  1.00  0.00     0.039 A 
ATOM     37  C   UNL     1       5.025   4.347   6.861  1.00  0.00     0.014 A 
ATOM     38  C   UNL     1       5.328   2.138   5.961  1.00  0.00     0.014 A 
ATOM     39  C   UNL     1       5.813   4.011   7.965  1.00  0.00     0.010 A 
ATOM     40  C   UNL     1       6.053   1.772   7.099  1.00  0.00     0.010 A 
ATOM     41  C   UNL     1       6.240   2.688   8.140  1.00  0.00    -0.014 A 
BRANCH  41  42
ATOM     42  C   UNL     1       6.657   2.214   9.484  1.00  0.00     0.031 A 
ATOM     43  C   UNL     1       8.044   1.735   9.775  1.00  0.00     0.074 A 
ATOM     44  C   UNL     1       5.702   2.138  10.435  1.00  0.00     0.049 A 
ATOM     45  N   UNL     1       8.546   1.315  10.910  1.00  0.00    -0.248 NA
ATOM     46  C   UNL     1       8.986   1.694   8.649  1.00  0.00     0.031 C 
ATOM     47  C   UNL     1       4.290   2.477  10.235  1.00  0.00     0.029 A 
ATOM     48  N   UNL     1       5.764   1.752  11.749  1.00  0.00    -0.354 N 
ATOM     49  C   UNL     1       9.860   0.962  10.639  1.00  0.00     0.074 A 
ATOM     50  C   UNL     1      10.065   1.174   9.220  1.00  0.00     0.031 C 
ATOM     51  C   UNL     1       3.629   2.322  11.391  1.00  0.00     0.029 A 
ATOM     52  C   UNL     1       4.561   1.849  12.406  1.00  0.00     0.049 A 
ATOM     53  H   UNL     1       6.591   1.437  12.181  1.00  0.00     0.167 HD
ATOM     54  C   UNL     1      10.806   0.518  11.502  1.00  0.00     0.037 A 
ATOM     55  C   UNL     1       4.243   1.598  13.688  1.00  0.00     0.037 A 
ATOM     56  C   UNL     1      10.590   0.311  12.913  1.00  0.00     0.049 A 
ATOM     57  C   UNL     1       5.323   1.160  14.631  1.00  0.00     0.074 A 
ATOM     58  C   UNL     1      11.501  -0.076  13.881  1.00  0.00     0.029 A 
ATOM     59  N   UNL     1       9.370   0.466  13.556  1.00  0.00    -0.354 N 
ATOM     60  N   UNL     1       6.589   0.931  14.385  1.00  0.00    -0.248 NA
ATOM     61  C   UNL     1       4.935   0.961  16.033  1.00  0.00     0.031 C 
ATOM     62  C   UNL     1      10.825  -0.189  15.102  1.00  0.00     0.029 A 
ATOM     63  C   UNL     1       9.501   0.167  14.904  1.00  0.00     0.049 A 
ATOM     64  H   UNL     1       8.533   0.748  13.120  1.00  0.00     0.167 HD
ATOM     65  C   UNL     1       7.155   0.582  15.601  1.00  0.00     0.074 A 
ATOM     66  C   UNL     1       6.097   0.648  16.588  1.00  0.00     0.031 C 
ATOM     67  C   UNL     1       8.437   0.235  15.873  1.00  0.00     0.037 A 
BRANCH  54  68
ATOM     68  C   UNL     1      12.172   0.234  10.947  1.00  0.00     0.064 A 
ATOM     69  C   UNL     1      13.025   1.272  10.541  1.00  0.00     0.173 A 
ATOM     70  C   UNL     1      12.656  -1.080  10.868  1.00  0.00     0.173 A 
ATOM     71  F   UNL     1      12.609   2.546  10.592  1.00  0.00    -0.203 F 
ATOM     72  C   UNL     1      14.302   1.002  10.053  1.00  0.00     0.198 A 
ATOM     73  C   UNL     1      13.942  -1.345  10.403  1.00  0.00     0.198 A 
ATOM     74  F   UNL     1      11.885  -2.109  11.252  1.00  0.00    -0.203 F 
ATOM     75  F   UNL     1      15.084   2.007   9.636  1.00  0.00    -0.200 F 
ATOM     76  C   UNL     1      14.761  -0.305   9.991  1.00  0.00     0.200 A 
ATOM     77  F   UNL     1      14.390  -2.607  10.356  1.00  0.00    -0.200 F 
ATOM     78  F   UNL     1      15.993  -0.562   9.529  1.00  0.00    -0.200 F 
ENDBRANCH  54  68
BRANCH  55  79
ATOM     79  C   UNL     1       2.852   1.821  14.156  1.00  0.00     0.064 A 
ATOM     80  C   UNL     1       2.540   2.914  14.976  1.00  0.00     0.173 A 
ATOM     81  C   UNL     1       1.806   0.973  13.767  1.00  0.00     0.173 A 
ATOM     82  F   UNL     1       3.511   3.744  15.383  1.00  0.00    -0.203 F 
ATOM     83  C   UNL     1       1.234   3.140  15.405  1.00  0.00     0.198 A 
ATOM     84  C   UNL     1       0.496   1.215  14.176  1.00  0.00     0.198 A 
ATOM     85  F   UNL     1       2.053  -0.078  12.972  1.00  0.00    -0.203 F 
ATOM     86  F   UNL     1       0.969   4.173  16.217  1.00  0.00    -0.200 F 
ATOM     87  C   UNL     1       0.213   2.295  15.000  1.00  0.00     0.200 A 
ATOM     88  F   UNL     1      -0.491   0.406  13.770  1.00  0.00    -0.200 F 
ATOM     89  F   UNL     1      -1.044   2.519  15.405  1.00  0.00    -0.200 F 
ENDBRANCH  55  79
BRANCH  67  90
ATOM     90  C   UNL     1       8.760  -0.081  17.302  1.00  0.00     0.064 A 
ATOM     91  C   UNL     1       8.327  -1.271  17.906  1.00  0.00     0.173 A 
ATOM     92  C   UNL     1       9.516   0.813  18.074  1.00  0.00     0.173 A 
ATOM     93  F   UNL     1       7.585  -2.147  17.213  1.00  0.00    -0.203 F 
ATOM     94  C   UNL     1       8.614  -1.540  19.241  1.00  0.00     0.198 A 
ATOM     95  C   UNL     1       9.823   0.529  19.402  1.00  0.00     0.198 A 
ATOM     96  F   UNL     1       9.954   1.964  17.542  1.00  0.00    -0.203 F 
ATOM     97  F   UNL     1       8.146  -2.658  19.812  1.00  0.00    -0.200 F 
ATOM     98  C   UNL     1       9.365  -0.643  19.986  1.00  0.00     0.200 A 
ATOM     99  F   UNL     1      10.554   1.393  20.119  1.00  0.00    -0.200 F 
ATOM    100  F   UNL     1       9.638  -0.903  21.272  1.00  0.00    -0.200 F 
ENDBRANCH  67  90
ENDBRANCH  41  42
ENDBRANCH  33  36
ENDBRANCH  31  32
ENDBRANCH  30  31
ENDBRANCH   1  30
TORSDOF 14
