REMARK SMILES COc1nc(-c2ccccc2)nc(C)c1CC(=O)NCCCNC(=O)c1ccc(-c2c3nc(c(-c4c(F)c(F)c(F)c(F)c4F)c4ccc([nH]4)c(-c4c(F)c(F)c(F)c(F)c4F)c4nc(c(-c5c(F)c(F)c(F)c(F)c5F)c5ccc2[nH]5)C=C4)C=C3)cc1
REMARK SMILES IDX 21 1 20 2 19 3 17 4 18 5 16 7 15 8 3 9 4 10 5 11 13 12 12 13
REMARK SMILES IDX 14 14 2 15 1 16 6 17 7 18 11 19 8 20 10 21 9 22 22 23 23 24
REMARK SMILES IDX 24 25 25 27 26 28 27 29 88 30 28 31 87 32 29 33 30 34 31 35
REMARK SMILES IDX 81 36 32 37 86 38 80 39 82 40 33 41 85 42 79 43 78 44 34 46
REMARK SMILES IDX 66 47 46 48 65 49 47 50 50 51 64 52 83 53 48 54 49 55 63 57
REMARK SMILES IDX 84 58 51 59 35 60 36 61 44 62 37 63 38 64 42 65 45 66 39 67
REMARK SMILES IDX 40 68 43 69 41 70 67 71 68 72 76 73 69 74 70 75 74 76 77 77
REMARK SMILES IDX 71 78 72 79 75 80 73 81 52 82 53 83 61 84 54 85 55 86 59 87
REMARK SMILES IDX 62 88 56 89 57 90 60 91 58 92
REMARK H PARENT 19 6 23 26 82 45 50 56
REMARK Flexibility Score: inf
ROOT
ATOM      1  C   UNL     1       2.104   4.013  -0.929  1.00  0.00     0.042 C 
ENDROOT
BRANCH   1   2
ATOM      2  C   UNL     1       3.433   3.300  -0.684  1.00  0.00     0.117 C 
BRANCH   2   3
ATOM      3  N   UNL     1       3.297   2.128   0.160  1.00  0.00    -0.356 N 
ATOM      4  C   UNL     1       3.308   0.801  -0.152  1.00  0.00     0.224 C 
ATOM      5  O   UNL     1       3.255   0.004   0.788  1.00  0.00    -0.275 OA
ATOM      6  H   UNL     1       3.178   2.324   1.118  1.00  0.00     0.163 HD
BRANCH   4   7
ATOM      7  C   UNL     1       3.448   0.313  -1.587  1.00  0.00     0.143 C 
BRANCH   7   8
ATOM      8  C   UNL     1       2.377   0.795  -2.526  1.00  0.00     0.045 A 
ATOM      9  C   UNL     1       1.042   0.477  -2.298  1.00  0.00     0.220 A 
ATOM     10  N   UNL     1      -0.003   0.931  -3.014  1.00  0.00    -0.193 NA
ATOM     11  C   UNL     1       0.322   1.698  -4.064  1.00  0.00     0.163 A 
ATOM     12  C   UNL     1       2.598   1.578  -3.647  1.00  0.00     0.049 A 
ATOM     13  N   UNL     1       1.581   2.028  -4.410  1.00  0.00    -0.233 NA
ATOM     14  C   UNL     1       3.945   2.008  -4.146  1.00  0.00     0.067 C 
BRANCH   9  15
ATOM     15  O   UNL     1       0.777  -0.517  -1.382  1.00  0.00    -0.481 OA
ATOM     16  C   UNL     1       0.108  -0.017  -0.232  1.00  0.00     0.280 C 
ENDBRANCH   9  15
BRANCH  11  17
ATOM     17  C   UNL     1      -0.735   2.238  -4.929  1.00  0.00     0.019 A 
ATOM     18  C   UNL     1      -0.607   2.175  -6.332  1.00  0.00     0.012 A 
ATOM     19  C   UNL     1      -1.864   2.888  -4.406  1.00  0.00     0.012 A 
ATOM     20  C   UNL     1      -1.562   2.743  -7.178  1.00  0.00     0.001 A 
ATOM     21  C   UNL     1      -2.814   3.474  -5.252  1.00  0.00     0.001 A 
ATOM     22  C   UNL     1      -2.662   3.400  -6.636  1.00  0.00     0.000 A 
ENDBRANCH  11  17
ENDBRANCH   7   8
ENDBRANCH   4   7
ENDBRANCH   2   3
ENDBRANCH   1   2
BRANCH   1  23
ATOM     23  C   UNL     1       1.476   4.629   0.320  1.00  0.00     0.118 C 
BRANCH  23  24
ATOM     24  N   UNL     1       2.314   5.653   0.927  1.00  0.00    -0.352 N 
ATOM     25  C   UNL     1       2.100   6.993   1.127  1.00  0.00     0.251 C 
ATOM     26  H   UNL     1       3.185   5.327   1.250  1.00  0.00     0.163 HD
ATOM     27  O   UNL     1       3.036   7.701   1.488  1.00  0.00    -0.269 OA
BRANCH  25  28
ATOM     28  C   UNL     1       0.769   7.604   0.909  1.00  0.00     0.039 A 
ATOM     29  C   UNL     1       0.706   8.880   0.337  1.00  0.00     0.014 A 
ATOM     30  C   UNL     1      -0.406   6.971   1.320  1.00  0.00     0.014 A 
ATOM     31  C   UNL     1      -0.532   9.490   0.121  1.00  0.00     0.010 A 
ATOM     32  C   UNL     1      -1.645   7.550   1.043  1.00  0.00     0.010 A 
ATOM     33  C   UNL     1      -1.721   8.816   0.443  1.00  0.00    -0.014 A 
BRANCH  33  34
ATOM     34  C   UNL     1      -3.049   9.415   0.150  1.00  0.00     0.031 A 
ATOM     35  C   UNL     1      -3.987   9.772   1.268  1.00  0.00     0.074 A 
ATOM     36  C   UNL     1      -3.437   9.573  -1.131  1.00  0.00     0.049 A 
ATOM     37  N   UNL     1      -5.215  10.224   1.208  1.00  0.00    -0.248 NA
ATOM     38  C   UNL     1      -3.489   9.570   2.637  1.00  0.00     0.031 C 
ATOM     39  C   UNL     1      -2.635   9.225  -2.305  1.00  0.00     0.029 A 
ATOM     40  N   UNL     1      -4.609  10.053  -1.659  1.00  0.00    -0.354 N 
ATOM     41  C   UNL     1      -5.641  10.342   2.524  1.00  0.00     0.074 A 
ATOM     42  C   UNL     1      -4.557   9.873   3.361  1.00  0.00     0.031 C 
ATOM     43  C   UNL     1      -3.331   9.518  -3.414  1.00  0.00     0.029 A 
ATOM     44  C   UNL     1      -4.641  10.037  -3.032  1.00  0.00     0.049 A 
ATOM     45  H   UNL     1      -5.357  10.377  -1.106  1.00  0.00     0.167 HD
ATOM     46  C   UNL     1      -6.820  10.818   2.993  1.00  0.00     0.037 A 
ATOM     47  C   UNL     1      -5.619  10.392  -3.886  1.00  0.00     0.037 A 
ATOM     48  C   UNL     1      -7.886  11.309   2.158  1.00  0.00     0.049 A 
ATOM     49  C   UNL     1      -6.919  10.917  -3.341  1.00  0.00     0.074 A 
ATOM     50  C   UNL     1      -9.093  11.869   2.540  1.00  0.00     0.029 A 
ATOM     51  N   UNL     1      -7.872  11.297   0.771  1.00  0.00    -0.354 N 
ATOM     52  N   UNL     1      -7.285  11.084  -2.094  1.00  0.00    -0.248 NA
ATOM     53  C   UNL     1      -7.940  11.306  -4.324  1.00  0.00     0.031 C 
ATOM     54  C   UNL     1      -9.828  12.156   1.384  1.00  0.00     0.029 A 
ATOM     55  C   UNL     1      -9.059  11.820   0.282  1.00  0.00     0.049 A 
ATOM     56  H   UNL     1      -7.129  10.966   0.216  1.00  0.00     0.167 HD
ATOM     57  C   UNL     1      -8.564  11.621  -2.140  1.00  0.00     0.074 A 
ATOM     58  C   UNL     1      -8.906  11.765  -3.540  1.00  0.00     0.031 C 
ATOM     59  C   UNL     1      -9.382  11.963  -1.115  1.00  0.00     0.037 A 
BRANCH  46  60
ATOM     60  C   UNL     1      -7.022  10.831   4.481  1.00  0.00     0.064 A 
ATOM     61  C   UNL     1      -6.318  11.716   5.311  1.00  0.00     0.173 A 
ATOM     62  C   UNL     1      -7.958   9.974   5.080  1.00  0.00     0.173 A 
ATOM     63  F   UNL     1      -5.405  12.549   4.789  1.00  0.00    -0.203 F 
ATOM     64  C   UNL     1      -6.521  11.722   6.689  1.00  0.00     0.198 A 
ATOM     65  C   UNL     1      -8.180  10.003   6.455  1.00  0.00     0.198 A 
ATOM     66  F   UNL     1      -8.664   9.112   4.332  1.00  0.00    -0.203 F 
ATOM     67  F   UNL     1      -5.801  12.542   7.467  1.00  0.00    -0.200 F 
ATOM     68  C   UNL     1      -7.456  10.871   7.258  1.00  0.00     0.200 A 
ATOM     69  F   UNL     1      -9.093   9.189   7.002  1.00  0.00    -0.200 F 
ATOM     70  F   UNL     1      -7.654  10.882   8.584  1.00  0.00    -0.200 F 
ENDBRANCH  46  60
BRANCH  47  71
ATOM     71  C   UNL     1      -5.395  10.285  -5.351  1.00  0.00     0.064 A 
ATOM     72  C   UNL     1      -5.259  11.434  -6.142  1.00  0.00     0.173 A 
ATOM     73  C   UNL     1      -5.310   9.039  -5.989  1.00  0.00     0.173 A 
ATOM     74  F   UNL     1      -5.354  12.648  -5.580  1.00  0.00    -0.203 F 
ATOM     75  C   UNL     1      -5.064  11.342  -7.518  1.00  0.00     0.198 A 
ATOM     76  C   UNL     1      -5.088   8.947  -7.361  1.00  0.00     0.198 A 
ATOM     77  F   UNL     1      -5.429   7.909  -5.276  1.00  0.00    -0.203 F 
ATOM     78  F   UNL     1      -4.980  12.457  -8.257  1.00  0.00    -0.200 F 
ATOM     79  C   UNL     1      -4.973  10.098  -8.126  1.00  0.00     0.200 A 
ATOM     80  F   UNL     1      -4.987   7.744  -7.942  1.00  0.00    -0.200 F 
ATOM     81  F   UNL     1      -4.781  10.010  -9.449  1.00  0.00    -0.200 F 
ENDBRANCH  47  71
BRANCH  59  82
ATOM     82  C   UNL     1     -10.714  12.557  -1.468  1.00  0.00     0.064 A 
ATOM     83  C   UNL     1     -11.749  11.777  -2.005  1.00  0.00     0.173 A 
ATOM     84  C   UNL     1     -10.971  13.916  -1.229  1.00  0.00     0.173 A 
ATOM     85  F   UNL     1     -11.547  10.477  -2.267  1.00  0.00    -0.203 F 
ATOM     86  C   UNL     1     -12.984  12.342  -2.313  1.00  0.00     0.198 A 
ATOM     87  C   UNL     1     -12.216  14.471  -1.512  1.00  0.00     0.198 A 
ATOM     88  F   UNL     1     -10.017  14.704  -0.711  1.00  0.00    -0.203 F 
ATOM     89  F   UNL     1     -13.943  11.588  -2.869  1.00  0.00    -0.200 F 
ATOM     90  C   UNL     1     -13.219  13.685  -2.060  1.00  0.00     0.200 A 
ATOM     91  F   UNL     1     -12.445  15.766  -1.255  1.00  0.00    -0.200 F 
ATOM     92  F   UNL     1     -14.410  14.225  -2.351  1.00  0.00    -0.200 F 
ENDBRANCH  59  82
ENDBRANCH  33  34
ENDBRANCH  25  28
ENDBRANCH  23  24
ENDBRANCH   1  23
TORSDOF 13
