REMARK SMILES CCc1cc(OC(F)(F)F)cc2c1O[C@H](C(F)(F)F)C(C(=O)NCCCNC(=O)c1ccc(-c3c4nc(c(-c5c(F)c(F)c(F)c(F)c5F)c5ccc([nH]5)c(-c5c(F)c(F)c(F)c(F)c5F)c5nc(c(-c6c(F)c(F)c(F)c(F)c6F)c6ccc3[nH]6)C=C5)C=C4)cc1)=C2
REMARK SMILES IDX 25 1 24 2 23 3 21 4 22 5 20 7 3 8 4 9 13 10 5 11 12 12 14 13
REMARK SMILES IDX 11 14 93 15 15 16 2 17 1 18 6 19 7 20 8 21 9 22 10 23 16 24
REMARK SMILES IDX 17 25 18 26 19 27 26 28 27 29 28 30 29 32 30 33 31 34 92 35
REMARK SMILES IDX 32 36 91 37 33 38 34 39 35 40 85 41 36 42 90 43 84 44 86 45
REMARK SMILES IDX 37 46 89 47 83 48 82 49 38 51 70 52 50 53 69 54 51 55 54 56
REMARK SMILES IDX 68 57 87 58 52 59 53 60 67 62 88 63 55 64 39 65 40 66 48 67
REMARK SMILES IDX 41 68 42 69 46 70 49 71 43 72 44 73 47 74 45 75 71 76 72 77
REMARK SMILES IDX 80 78 73 79 74 80 78 81 81 82 75 83 76 84 79 85 77 86 56 87
REMARK SMILES IDX 57 88 65 89 58 90 59 91 63 92 66 93 60 94 61 95 64 96 62 97
REMARK H PARENT 23 6 27 31 86 50 54 61
REMARK Flexibility Score: inf
ROOT
ATOM      1  C   UNL     1       3.138  -0.231   8.260  1.00  0.00     0.042 C 
ENDROOT
BRANCH   1   2
ATOM      2  C   UNL     1       2.046   0.629   7.624  1.00  0.00     0.118 C 
BRANCH   2   3
ATOM      3  N   UNL     1       2.620   1.671   6.792  1.00  0.00    -0.352 N 
ATOM      4  C   UNL     1       2.874   1.756   5.463  1.00  0.00     0.251 C 
ATOM      5  O   UNL     1       3.321   2.822   5.044  1.00  0.00    -0.270 OA
ATOM      6  H   UNL     1       2.875   2.478   7.293  1.00  0.00     0.163 HD
BRANCH   4   7
ATOM      7  C   UNL     1       2.541   0.676   4.494  1.00  0.00     0.067 C 
ATOM      8  C   UNL     1       0.964  -1.836   1.506  1.00  0.00    -0.002 A 
ATOM      9  C   UNL     1       0.918  -3.225   1.765  1.00  0.00     0.054 A 
ATOM     10  C   UNL     1       1.481  -0.994   2.501  1.00  0.00     0.131 A 
ATOM     11  C   UNL     1       1.388  -3.762   2.965  1.00  0.00     0.130 A 
ATOM     12  C   UNL     1       1.970  -1.526   3.703  1.00  0.00     0.021 A 
ATOM     13  O   UNL     1       1.421   0.361   2.315  1.00  0.00    -0.475 OA
ATOM     14  C   UNL     1       1.924  -2.905   3.925  1.00  0.00     0.058 A 
ATOM     15  C   UNL     1       2.428  -0.631   4.764  1.00  0.00     0.025 C 
ATOM     16  C   UNL     1       2.374   1.161   3.065  1.00  0.00     0.314 C 
BRANCH   8  17
ATOM     17  C   UNL     1       0.378  -1.368   0.186  1.00  0.00     0.036 C 
ATOM     18  C   UNL     1       0.877  -0.057  -0.407  1.00  0.00     0.009 C 
ENDBRANCH   8  17
BRANCH  11  19
ATOM     19  O   UNL     1       1.370  -5.076   3.334  1.00  0.00    -0.406 OA
BRANCH  19  20
ATOM     20  C   UNL     1       0.803  -6.013   2.434  1.00  0.00     0.573 C 
ATOM     21  F   UNL     1      -0.490  -5.723   2.177  1.00  0.00    -0.132 F 
ATOM     22  F   UNL     1       1.497  -6.054   1.277  1.00  0.00    -0.132 F 
ATOM     23  F   UNL     1       0.853  -7.239   3.000  1.00  0.00    -0.132 F 
ENDBRANCH  19  20
ENDBRANCH  11  19
BRANCH  16  24
ATOM     24  C   UNL     1       3.713   1.257   2.303  1.00  0.00     0.429 C 
ATOM     25  F   UNL     1       4.367   0.069   2.268  1.00  0.00    -0.167 F 
ATOM     26  F   UNL     1       3.512   1.635   1.015  1.00  0.00    -0.167 F 
ATOM     27  F   UNL     1       4.567   2.157   2.838  1.00  0.00    -0.167 F 
ENDBRANCH  16  24
ENDBRANCH   4   7
ENDBRANCH   2   3
ENDBRANCH   1   2
BRANCH   1  28
ATOM     28  C   UNL     1       3.873   0.473   9.398  1.00  0.00     0.118 C 
BRANCH  28  29
ATOM     29  N   UNL     1       3.025   0.638  10.569  1.00  0.00    -0.352 N 
ATOM     30  C   UNL     1       3.202   0.200  11.856  1.00  0.00     0.251 C 
ATOM     31  H   UNL     1       2.193   1.142  10.413  1.00  0.00     0.163 HD
ATOM     32  O   UNL     1       2.260   0.239  12.642  1.00  0.00    -0.269 OA
BRANCH  30  33
ATOM     33  C   UNL     1       4.510  -0.323  12.308  1.00  0.00     0.039 A 
ATOM     34  C   UNL     1       4.529  -1.416  13.180  1.00  0.00     0.014 A 
ATOM     35  C   UNL     1       5.708   0.293  11.934  1.00  0.00     0.014 A 
ATOM     36  C   UNL     1       5.746  -1.916  13.644  1.00  0.00     0.010 A 
ATOM     37  C   UNL     1       6.925  -0.247  12.344  1.00  0.00     0.010 A 
ATOM     38  C   UNL     1       6.955  -1.349  13.212  1.00  0.00    -0.014 A 
BRANCH  38  39
ATOM     39  C   UNL     1       8.260  -1.891  13.666  1.00  0.00     0.031 A 
ATOM     40  C   UNL     1       9.166  -1.060  14.530  1.00  0.00     0.074 A 
ATOM     41  C   UNL     1       8.656  -3.105  13.244  1.00  0.00     0.049 A 
ATOM     42  N   UNL     1      10.369  -1.331  14.970  1.00  0.00    -0.248 NA
ATOM     43  C   UNL     1       8.665   0.265  14.926  1.00  0.00     0.031 C 
ATOM     44  C   UNL     1       7.888  -3.980  12.357  1.00  0.00     0.029 A 
ATOM     45  N   UNL     1       9.810  -3.805  13.488  1.00  0.00    -0.354 N 
ATOM     46  C   UNL     1      10.773  -0.208  15.680  1.00  0.00     0.074 A 
ATOM     47  C   UNL     1       9.709   0.767  15.568  1.00  0.00     0.031 C 
ATOM     48  C   UNL     1       8.589  -5.103  12.135  1.00  0.00     0.029 A 
ATOM     49  C   UNL     1       9.865  -5.014  12.841  1.00  0.00     0.049 A 
ATOM     50  H   UNL     1      10.529  -3.473  14.072  1.00  0.00     0.167 HD
ATOM     51  C   UNL     1      11.917  -0.016  16.380  1.00  0.00     0.037 A 
ATOM     52  C   UNL     1      10.839  -5.943  12.811  1.00  0.00     0.037 A 
ATOM     53  C   UNL     1      12.963  -0.998  16.505  1.00  0.00     0.049 A 
ATOM     54  C   UNL     1      12.091  -5.720  13.612  1.00  0.00     0.074 A 
ATOM     55  C   UNL     1      14.131  -0.929  17.244  1.00  0.00     0.029 A 
ATOM     56  N   UNL     1      12.966  -2.230  15.867  1.00  0.00    -0.354 N 
ATOM     57  N   UNL     1      12.431  -4.686  14.341  1.00  0.00    -0.248 NA
ATOM     58  C   UNL     1      13.088  -6.799  13.596  1.00  0.00     0.031 C 
ATOM     59  C   UNL     1      14.860  -2.103  17.020  1.00  0.00     0.029 A 
ATOM     60  C   UNL     1      14.126  -2.923  16.178  1.00  0.00     0.049 A 
ATOM     61  H   UNL     1      12.251  -2.564  15.279  1.00  0.00     0.167 HD
ATOM     62  C   UNL     1      13.672  -4.991  14.882  1.00  0.00     0.074 A 
ATOM     63  C   UNL     1      14.015  -6.318  14.413  1.00  0.00     0.031 C 
ATOM     64  C   UNL     1      14.456  -4.240  15.694  1.00  0.00     0.037 A 
BRANCH  51  65
ATOM     65  C   UNL     1      12.091   1.310  17.063  1.00  0.00     0.064 A 
ATOM     66  C   UNL     1      11.306   1.679  18.167  1.00  0.00     0.173 A 
ATOM     67  C   UNL     1      13.059   2.222  16.615  1.00  0.00     0.173 A 
ATOM     68  F   UNL     1      10.359   0.848  18.629  1.00  0.00    -0.203 F 
ATOM     69  C   UNL     1      11.454   2.925  18.769  1.00  0.00     0.198 A 
ATOM     70  C   UNL     1      13.225   3.456  17.239  1.00  0.00     0.198 A 
ATOM     71  F   UNL     1      13.841   1.919  15.569  1.00  0.00    -0.203 F 
ATOM     72  F   UNL     1      10.650   3.278  19.782  1.00  0.00    -0.200 F 
ATOM     73  C   UNL     1      12.416   3.811  18.308  1.00  0.00     0.200 A 
ATOM     74  F   UNL     1      14.163   4.307  16.800  1.00  0.00    -0.200 F 
ATOM     75  F   UNL     1      12.555   5.012  18.886  1.00  0.00    -0.200 F 
ENDBRANCH  51  65
BRANCH  52  76
ATOM     76  C   UNL     1      10.645  -7.177  12.008  1.00  0.00     0.064 A 
ATOM     77  C   UNL     1      10.399  -8.409  12.629  1.00  0.00     0.173 A 
ATOM     78  C   UNL     1      10.661  -7.141  10.606  1.00  0.00     0.173 A 
ATOM     79  F   UNL     1      10.390  -8.494  13.967  1.00  0.00    -0.203 F 
ATOM     80  C   UNL     1      10.185  -9.562  11.876  1.00  0.00     0.198 A 
ATOM     81  C   UNL     1      10.423  -8.290   9.855  1.00  0.00     0.198 A 
ATOM     82  F   UNL     1      10.883  -5.983   9.967  1.00  0.00    -0.203 F 
ATOM     83  F   UNL     1       9.980 -10.733  12.494  1.00  0.00    -0.200 F 
ATOM     84  C   UNL     1      10.190  -9.500  10.491  1.00  0.00     0.200 A 
ATOM     85  F   UNL     1      10.411  -8.222   8.517  1.00  0.00    -0.200 F 
ATOM     86  F   UNL     1       9.969 -10.606   9.768  1.00  0.00    -0.200 F 
ENDBRANCH  52  76
BRANCH  64  87
ATOM     87  C   UNL     1      15.757  -4.842  16.136  1.00  0.00     0.064 A 
ATOM     88  C   UNL     1      16.839  -4.977  15.254  1.00  0.00     0.173 A 
ATOM     89  C   UNL     1      15.935  -5.256  17.465  1.00  0.00     0.173 A 
ATOM     90  F   UNL     1      16.712  -4.611  13.969  1.00  0.00    -0.203 F 
ATOM     91  C   UNL     1      18.045  -5.526  15.681  1.00  0.00     0.198 A 
ATOM     92  C   UNL     1      17.151  -5.779  17.894  1.00  0.00     0.198 A 
ATOM     93  F   UNL     1      14.932  -5.143  18.348  1.00  0.00    -0.203 F 
ATOM     94  F   UNL     1      19.051  -5.686  14.810  1.00  0.00    -0.200 F 
ATOM     95  C   UNL     1      18.202  -5.920  17.001  1.00  0.00     0.200 A 
ATOM     96  F   UNL     1      17.305  -6.150  19.173  1.00  0.00    -0.200 F 
ATOM     97  F   UNL     1      19.366  -6.443  17.411  1.00  0.00    -0.200 F 
ENDBRANCH  64  87
ENDBRANCH  38  39
ENDBRANCH  30  33
ENDBRANCH  28  29
ENDBRANCH   1  28
TORSDOF 14
