REMARK SMILES Cc1ccc(Oc2ccc(NC(=O)CCCC(=O)NCCCNC(=O)c3ccc(-c4c5nc(c(-c6c(F)c(F)c(F)c(F)c6F)c6ccc([nH]6)c(-c6c(F)c(F)c(F)c(F)c6F)c6nc(c(-c7c(F)c(F)c(F)c(F)c7F)c7ccc4[nH]7)C=C6)C=C5)cc3)cc2)cc1C
REMARK SMILES IDX 17 1 18 2 19 3 16 5 15 6 14 7 12 8 11 9 13 11 10 12 7 13
REMARK SMILES IDX 8 14 90 15 9 16 89 17 6 18 5 19 1 20 2 21 3 22 92 23 4 24
REMARK SMILES IDX 91 25 93 26 20 27 21 28 22 29 23 30 24 31 25 33 26 34 27 35
REMARK SMILES IDX 88 36 28 37 87 38 29 39 30 40 31 41 81 42 32 43 86 44 80 45
REMARK SMILES IDX 82 46 33 47 85 48 79 49 78 50 34 52 66 53 46 54 65 55 47 56
REMARK SMILES IDX 50 57 64 58 83 59 48 60 49 61 63 63 84 64 51 65 35 66 36 67
REMARK SMILES IDX 44 68 37 69 38 70 42 71 45 72 39 73 40 74 43 75 41 76 67 77
REMARK SMILES IDX 68 78 76 79 69 80 70 81 74 82 77 83 71 84 72 85 75 86 73 87
REMARK SMILES IDX 52 88 53 89 61 90 54 91 55 92 59 93 62 94 56 95 57 96 60 97
REMARK SMILES IDX 58 98
REMARK H PARENT 19 4 11 10 23 32 82 51 50 62
REMARK Flexibility Score: inf
ROOT
ATOM      1  C   UNL     1      -7.200  -2.118   2.620  1.00  0.00     0.220 C 
ATOM      2  O   UNL     1      -6.928  -3.108   3.315  1.00  0.00    -0.275 OA
ATOM      3  N   UNL     1      -6.794  -0.944   3.154  1.00  0.00    -0.356 N 
ATOM      4  H   UNL     1      -6.364  -1.086   4.028  1.00  0.00     0.163 HD
ENDROOT
BRANCH   1   5
ATOM      5  C   UNL     1      -7.826  -2.351   1.245  1.00  0.00     0.100 C 
BRANCH   5   6
ATOM      6  C   UNL     1      -9.146  -1.721   0.811  1.00  0.00     0.020 C 
BRANCH   6   7
ATOM      7  C   UNL     1      -9.320  -0.221   0.608  1.00  0.00     0.101 C 
BRANCH   7   8
ATOM      8  C   UNL     1      -9.143   0.464  -0.747  1.00  0.00     0.224 C 
ATOM      9  N   UNL     1      -8.017   0.675  -1.472  1.00  0.00    -0.326 N 
ATOM     10  H   UNL     1      -8.228   1.178  -2.292  1.00  0.00     0.169 HD
ATOM     11  O   UNL     1     -10.162   0.966  -1.256  1.00  0.00    -0.275 OA
BRANCH   9  12
ATOM     12  C   UNL     1      -6.644   0.396  -1.411  1.00  0.00     0.041 A 
ATOM     13  C   UNL     1      -3.907  -0.291  -1.484  1.00  0.00     0.127 A 
ATOM     14  C   UNL     1      -4.660  -0.563  -0.358  1.00  0.00     0.049 A 
ATOM     15  C   UNL     1      -4.493   0.361  -2.565  1.00  0.00     0.049 A 
ATOM     16  C   UNL     1      -6.009  -0.207  -0.347  1.00  0.00     0.030 A 
ATOM     17  C   UNL     1      -5.851   0.720  -2.518  1.00  0.00     0.030 A 
BRANCH  13  18
ATOM     18  O   UNL     1      -2.654  -0.824  -1.602  1.00  0.00    -0.457 OA
BRANCH  18  19
ATOM     19  C   UNL     1      -1.606  -0.212  -0.953  1.00  0.00     0.127 A 
ATOM     20  C   UNL     1       2.088   1.547   0.403  1.00  0.00     0.044 C 
ATOM     21  C   UNL     1       0.795   0.886   0.014  1.00  0.00    -0.048 A 
ATOM     22  C   UNL     1      -0.360   1.676  -0.126  1.00  0.00     0.007 A 
ATOM     23  C   UNL     1       0.723  -0.490  -0.271  1.00  0.00    -0.045 A 
ATOM     24  C   UNL     1      -1.555   1.133  -0.605  1.00  0.00     0.047 A 
ATOM     25  C   UNL     1      -0.486  -1.022  -0.749  1.00  0.00     0.050 A 
ATOM     26  C   UNL     1       1.878  -1.433  -0.066  1.00  0.00     0.045 C 
ENDBRANCH  18  19
ENDBRANCH  13  18
ENDBRANCH   9  12
ENDBRANCH   7   8
ENDBRANCH   6   7
ENDBRANCH   5   6
ENDBRANCH   1   5
BRANCH   3  27
ATOM     27  C   UNL     1      -6.810   0.469   2.806  1.00  0.00     0.117 C 
BRANCH  27  28
ATOM     28  C   UNL     1      -7.688   1.267   3.752  1.00  0.00     0.042 C 
BRANCH  28  29
ATOM     29  C   UNL     1      -6.849   2.145   4.654  1.00  0.00     0.118 C 
BRANCH  29  30
ATOM     30  N   UNL     1      -6.352   3.348   3.990  1.00  0.00    -0.352 N 
ATOM     31  C   UNL     1      -6.291   4.624   4.510  1.00  0.00     0.251 C 
ATOM     32  H   UNL     1      -6.025   3.235   3.068  1.00  0.00     0.163 HD
ATOM     33  O   UNL     1      -5.957   5.580   3.820  1.00  0.00    -0.269 OA
BRANCH  31  34
ATOM     34  C   UNL     1      -6.694   4.814   5.918  1.00  0.00     0.039 A 
ATOM     35  C   UNL     1      -7.680   5.750   6.231  1.00  0.00     0.014 A 
ATOM     36  C   UNL     1      -6.206   3.940   6.890  1.00  0.00     0.014 A 
ATOM     37  C   UNL     1      -8.248   5.741   7.506  1.00  0.00     0.010 A 
ATOM     38  C   UNL     1      -6.863   3.846   8.107  1.00  0.00     0.010 A 
ATOM     39  C   UNL     1      -7.883   4.752   8.435  1.00  0.00    -0.014 A 
BRANCH  39  40
ATOM     40  C   UNL     1      -8.525   4.649   9.771  1.00  0.00     0.031 A 
ATOM     41  C   UNL     1      -7.668   4.726  11.007  1.00  0.00     0.074 A 
ATOM     42  C   UNL     1      -9.843   4.391   9.876  1.00  0.00     0.049 A 
ATOM     43  N   UNL     1      -7.993   4.524  12.258  1.00  0.00    -0.248 NA
ATOM     44  C   UNL     1      -6.237   5.012  10.801  1.00  0.00     0.031 C 
ATOM     45  C   UNL     1     -10.770   4.215   8.756  1.00  0.00     0.029 A 
ATOM     46  N   UNL     1     -10.633   4.219  10.986  1.00  0.00    -0.354 N 
ATOM     47  C   UNL     1      -6.806   4.616  12.972  1.00  0.00     0.074 A 
ATOM     48  C   UNL     1      -5.744   4.817  12.013  1.00  0.00     0.031 C 
ATOM     49  C   UNL     1     -12.006   4.000   9.235  1.00  0.00     0.029 A 
ATOM     50  C   UNL     1     -11.955   3.984  10.693  1.00  0.00     0.049 A 
ATOM     51  H   UNL     1     -10.285   4.261  11.906  1.00  0.00     0.167 HD
ATOM     52  C   UNL     1      -6.619   4.578  14.312  1.00  0.00     0.037 A 
ATOM     53  C   UNL     1     -13.005   3.782  11.513  1.00  0.00     0.037 A 
ATOM     54  C   UNL     1      -7.686   4.453  15.265  1.00  0.00     0.049 A 
ATOM     55  C   UNL     1     -12.782   3.804  13.002  1.00  0.00     0.074 A 
ATOM     56  C   UNL     1      -7.620   4.493  16.646  1.00  0.00     0.029 A 
ATOM     57  N   UNL     1      -9.021   4.280  14.930  1.00  0.00    -0.354 N 
ATOM     58  N   UNL     1     -11.665   3.965  13.669  1.00  0.00    -0.248 NA
ATOM     59  C   UNL     1     -13.968   3.624  13.851  1.00  0.00     0.031 C 
ATOM     60  C   UNL     1      -8.914   4.314  17.148  1.00  0.00     0.029 A 
ATOM     61  C   UNL     1      -9.789   4.204  16.079  1.00  0.00     0.049 A 
ATOM     62  H   UNL     1      -9.370   4.221  14.011  1.00  0.00     0.167 HD
ATOM     63  C   UNL     1     -12.015   3.934  15.012  1.00  0.00     0.074 A 
ATOM     64  C   UNL     1     -13.451   3.753  15.065  1.00  0.00     0.031 C 
ATOM     65  C   UNL     1     -11.220   4.041  16.104  1.00  0.00     0.037 A 
BRANCH  52  66
ATOM     66  C   UNL     1      -5.211   4.698  14.817  1.00  0.00     0.064 A 
ATOM     67  C   UNL     1      -4.486   5.895  14.699  1.00  0.00     0.173 A 
ATOM     68  C   UNL     1      -4.579   3.608  15.434  1.00  0.00     0.173 A 
ATOM     69  F   UNL     1      -5.038   6.962  14.102  1.00  0.00    -0.203 F 
ATOM     70  C   UNL     1      -3.170   5.983  15.142  1.00  0.00     0.198 A 
ATOM     71  C   UNL     1      -3.274   3.711  15.908  1.00  0.00     0.198 A 
ATOM     72  F   UNL     1      -5.227   2.442  15.576  1.00  0.00    -0.203 F 
ATOM     73  F   UNL     1      -2.478   7.116  14.959  1.00  0.00    -0.200 F 
ATOM     74  C   UNL     1      -2.567   4.894  15.752  1.00  0.00     0.200 A 
ATOM     75  F   UNL     1      -2.695   2.661  16.507  1.00  0.00    -0.200 F 
ATOM     76  F   UNL     1      -1.300   4.981  16.180  1.00  0.00    -0.200 F 
ENDBRANCH  52  66
BRANCH  53  77
ATOM     77  C   UNL     1     -14.367   3.592  10.949  1.00  0.00     0.064 A 
ATOM     78  C   UNL     1     -15.343   4.589  11.086  1.00  0.00     0.173 A 
ATOM     79  C   UNL     1     -14.725   2.419  10.270  1.00  0.00     0.173 A 
ATOM     80  F   UNL     1     -15.055   5.721  11.745  1.00  0.00    -0.203 F 
ATOM     81  C   UNL     1     -16.631   4.411  10.585  1.00  0.00     0.198 A 
ATOM     82  C   UNL     1     -16.006   2.252   9.747  1.00  0.00     0.198 A 
ATOM     83  F   UNL     1     -13.826   1.437  10.106  1.00  0.00    -0.203 F 
ATOM     84  F   UNL     1     -17.557   5.363  10.770  1.00  0.00    -0.200 F 
ATOM     85  C   UNL     1     -16.960   3.245   9.912  1.00  0.00     0.200 A 
ATOM     86  F   UNL     1     -16.317   1.130   9.085  1.00  0.00    -0.200 F 
ATOM     87  F   UNL     1     -18.199   3.075   9.428  1.00  0.00    -0.200 F 
ENDBRANCH  53  77
BRANCH  65  88
ATOM     88  C   UNL     1     -11.887   4.006  17.447  1.00  0.00     0.064 A 
ATOM     89  C   UNL     1     -12.396   2.815  17.982  1.00  0.00     0.173 A 
ATOM     90  C   UNL     1     -11.968   5.169  18.227  1.00  0.00     0.173 A 
ATOM     91  F   UNL     1     -12.353   1.681  17.266  1.00  0.00    -0.203 F 
ATOM     92  C   UNL     1     -12.983   2.794  19.244  1.00  0.00     0.198 A 
ATOM     93  C   UNL     1     -12.530   5.138  19.499  1.00  0.00     0.198 A 
ATOM     94  F   UNL     1     -11.487   6.332  17.761  1.00  0.00    -0.203 F 
ATOM     95  F   UNL     1     -13.501   1.653  19.720  1.00  0.00    -0.200 F 
ATOM     96  C   UNL     1     -13.042   3.953  20.004  1.00  0.00     0.200 A 
ATOM     97  F   UNL     1     -12.574   6.255  20.238  1.00  0.00    -0.200 F 
ATOM     98  F   UNL     1     -13.599   3.927  21.223  1.00  0.00    -0.200 F 
ENDBRANCH  65  88
ENDBRANCH  39  40
ENDBRANCH  31  34
ENDBRANCH  29  30
ENDBRANCH  28  29
ENDBRANCH  27  28
ENDBRANCH   3  27
TORSDOF 16
