REMARK SMILES C[C@@H]1C[N@@H+](C[C@]2(C(=O)NCCCNC(=O)c3ccc(-c4c5nc(c(-c6c(F)c(F)c(F)c(F)c6F)c6ccc([nH]6)c(-c6c(F)c(F)c(F)c(F)c6F)c6nc(c(-c7c(F)c(F)c(F)c(F)c7F)c7ccc4[nH]7)C=C6)C=C5)cc3)CCOC2)C[C@@H]1C
REMARK SMILES IDX 11 1 10 2 9 3 7 4 8 5 6 7 79 8 82 9 80 10 81 11 5 12 4 13
REMARK SMILES IDX 1 14 2 15 3 16 84 17 83 18 85 19 12 21 13 22 14 23 15 25
REMARK SMILES IDX 16 26 17 27 78 28 18 29 77 30 19 31 20 32 21 33 71 34 22 35
REMARK SMILES IDX 76 36 70 37 72 38 23 39 75 40 69 41 68 42 24 44 56 45 36 46
REMARK SMILES IDX 55 47 37 48 40 49 54 50 73 51 38 52 39 53 53 55 74 56 41 57
REMARK SMILES IDX 25 58 26 59 34 60 27 61 28 62 32 63 35 64 29 65 30 66 33 67
REMARK SMILES IDX 31 68 57 69 58 70 66 71 59 72 60 73 64 74 67 75 61 76 62 77
REMARK SMILES IDX 65 78 63 79 42 80 43 81 51 82 44 83 45 84 49 85 52 86 46 87
REMARK SMILES IDX 47 88 50 89 48 90
REMARK H PARENT 9 6 4 20 13 24 72 43 40 54
REMARK Flexibility Score: inf
ROOT
ATOM      1  C   UNL     1       0.350   1.770   0.644  1.00  0.00     0.042 C 
ENDROOT
BRANCH   1   2
ATOM      2  C   UNL     1      -0.522   2.605  -0.274  1.00  0.00     0.117 C 
BRANCH   2   3
ATOM      3  N   UNL     1       0.070   3.891  -0.624  1.00  0.00    -0.355 N 
ATOM      4  C   UNL     1       0.527   4.398  -1.810  1.00  0.00     0.234 C 
ATOM      5  O   UNL     1       0.916   5.570  -1.775  1.00  0.00    -0.274 OA
ATOM      6  H   UNL     1       0.156   4.511   0.136  1.00  0.00     0.163 HD
BRANCH   4   7
ATOM      7  C   UNL     1       0.614   3.550  -3.101  1.00  0.00     0.123 C 
ATOM      8  C   UNL     1       1.568   2.393  -2.835  1.00  0.00     0.054 C 
ATOM      9  C   UNL     1      -0.737   2.903  -3.371  1.00  0.00     0.183 C 
ATOM     10  C   UNL     1       0.823   1.159  -3.273  1.00  0.00     0.161 C 
ATOM     11  O   UNL     1      -0.569   1.476  -3.329  1.00  0.00    -0.380 OA
BRANCH   7  12
ATOM     12  C   UNL     1       1.077   4.480  -4.281  1.00  0.00     0.281 C 
BRANCH  12  13
ATOM     13  N   UNL     1       1.191   4.063  -5.685  1.00  0.00    -0.333 N 
ATOM     14  C   UNL     1      -0.997   1.811  -7.696  1.00  0.00     0.014 C 
ATOM     15  C   UNL     1       0.005   2.313  -6.674  1.00  0.00     0.049 C 
ATOM     16  C   UNL     1      -0.013   3.821  -6.467  1.00  0.00     0.265 C 
ATOM     17  C   UNL     1       1.491   2.018  -6.914  1.00  0.00     0.049 C 
ATOM     18  C   UNL     1       2.211   3.104  -6.089  1.00  0.00     0.265 C 
ATOM     19  C   UNL     1       1.910   2.053  -8.379  1.00  0.00     0.014 C 
ATOM     20  H   UNL     1       1.542   4.990  -5.926  1.00  0.00     0.348 HD
ENDBRANCH  12  13
ENDBRANCH   7  12
ENDBRANCH   4   7
ENDBRANCH   2   3
ENDBRANCH   1   2
BRANCH   1  21
ATOM     21  C   UNL     1       0.361   2.293   2.065  1.00  0.00     0.118 C 
BRANCH  21  22
ATOM     22  N   UNL     1      -0.955   2.201   2.687  1.00  0.00    -0.352 N 
ATOM     23  C   UNL     1      -1.419   1.346   3.656  1.00  0.00     0.251 C 
ATOM     24  H   UNL     1      -1.615   2.855   2.361  1.00  0.00     0.163 HD
ATOM     25  O   UNL     1      -2.624   1.242   3.855  1.00  0.00    -0.269 OA
BRANCH  23  26
ATOM     26  C   UNL     1      -0.466   0.548   4.451  1.00  0.00     0.039 A 
ATOM     27  C   UNL     1      -0.796  -0.763   4.804  1.00  0.00     0.014 A 
ATOM     28  C   UNL     1       0.749   1.099   4.862  1.00  0.00     0.014 A 
ATOM     29  C   UNL     1       0.124  -1.537   5.513  1.00  0.00     0.010 A 
ATOM     30  C   UNL     1       1.708   0.293   5.457  1.00  0.00     0.010 A 
ATOM     31  C   UNL     1       1.399  -1.027   5.810  1.00  0.00    -0.014 A 
BRANCH  31  32
ATOM     32  C   UNL     1       2.418  -1.838   6.517  1.00  0.00     0.031 A 
ATOM     33  C   UNL     1       2.962  -1.365   7.839  1.00  0.00     0.074 A 
ATOM     34  C   UNL     1       2.912  -2.946   5.931  1.00  0.00     0.049 A 
ATOM     35  N   UNL     1       3.924  -1.871   8.567  1.00  0.00    -0.248 NA
ATOM     36  C   UNL     1       2.374  -0.137   8.401  1.00  0.00     0.031 C 
ATOM     37  C   UNL     1       2.511  -3.464   4.621  1.00  0.00     0.029 A 
ATOM     38  N   UNL     1       3.874  -3.829   6.354  1.00  0.00    -0.354 N 
ATOM     39  C   UNL     1       4.075  -1.009   9.646  1.00  0.00     0.074 A 
ATOM     40  C   UNL     1       3.144   0.080   9.456  1.00  0.00     0.031 C 
ATOM     41  C   UNL     1       3.205  -4.582   4.357  1.00  0.00     0.029 A 
ATOM     42  C   UNL     1       4.130  -4.837   5.456  1.00  0.00     0.049 A 
ATOM     43  H   UNL     1       4.336  -3.748   7.220  1.00  0.00     0.167 HD
ATOM     44  C   UNL     1       4.899  -1.131  10.711  1.00  0.00     0.037 A 
ATOM     45  C   UNL     1       5.023  -5.844   5.510  1.00  0.00     0.037 A 
ATOM     46  C   UNL     1       5.780  -2.248  10.920  1.00  0.00     0.049 A 
ATOM     47  C   UNL     1       5.904  -5.970   6.725  1.00  0.00     0.074 A 
ATOM     48  C   UNL     1       6.579  -2.521  12.015  1.00  0.00     0.029 A 
ATOM     49  N   UNL     1       5.978  -3.277  10.011  1.00  0.00    -0.354 N 
ATOM     50  N   UNL     1       5.966  -5.202   7.787  1.00  0.00    -0.248 NA
ATOM     51  C   UNL     1       6.833  -7.108   6.756  1.00  0.00     0.031 C 
ATOM     52  C   UNL     1       7.306  -3.683  11.745  1.00  0.00     0.029 A 
ATOM     53  C   UNL     1       6.912  -4.170  10.508  1.00  0.00     0.049 A 
ATOM     54  H   UNL     1       5.522  -3.360   9.142  1.00  0.00     0.167 HD
ATOM     55  C   UNL     1       6.913  -5.779   8.621  1.00  0.00     0.074 A 
ATOM     56  C   UNL     1       7.386  -6.973   7.952  1.00  0.00     0.031 C 
ATOM     57  C   UNL     1       7.356  -5.360   9.831  1.00  0.00     0.037 A 
BRANCH  44  58
ATOM     58  C   UNL     1       4.890  -0.041  11.743  1.00  0.00     0.064 A 
ATOM     59  C   UNL     1       3.800   0.156  12.603  1.00  0.00     0.173 A 
ATOM     60  C   UNL     1       6.020   0.773  11.920  1.00  0.00     0.173 A 
ATOM     61  F   UNL     1       2.690  -0.586  12.468  1.00  0.00    -0.203 F 
ATOM     62  C   UNL     1       3.835   1.136  13.592  1.00  0.00     0.198 A 
ATOM     63  C   UNL     1       6.064   1.730  12.929  1.00  0.00     0.198 A 
ATOM     64  F   UNL     1       7.091   0.625  11.125  1.00  0.00    -0.203 F 
ATOM     65  F   UNL     1       2.767   1.330  14.379  1.00  0.00    -0.200 F 
ATOM     66  C   UNL     1       4.970   1.914  13.762  1.00  0.00     0.200 A 
ATOM     67  F   UNL     1       7.167   2.471  13.101  1.00  0.00    -0.200 F 
ATOM     68  F   UNL     1       5.010   2.842  14.727  1.00  0.00    -0.200 F 
ENDBRANCH  44  58
BRANCH  45  69
ATOM     69  C   UNL     1       5.131  -6.814   4.388  1.00  0.00     0.064 A 
ATOM     70  C   UNL     1       4.778  -8.161   4.558  1.00  0.00     0.173 A 
ATOM     71  C   UNL     1       5.620  -6.424   3.132  1.00  0.00     0.173 A 
ATOM     72  F   UNL     1       4.321  -8.588   5.744  1.00  0.00    -0.203 F 
ATOM     73  C   UNL     1       4.948  -9.086   3.530  1.00  0.00     0.198 A 
ATOM     74  C   UNL     1       5.756  -7.344   2.094  1.00  0.00     0.198 A 
ATOM     75  F   UNL     1       5.964  -5.147   2.911  1.00  0.00    -0.203 F 
ATOM     76  F   UNL     1       4.665 -10.379   3.743  1.00  0.00    -0.200 F 
ATOM     77  C   UNL     1       5.434  -8.677   2.298  1.00  0.00     0.200 A 
ATOM     78  F   UNL     1       6.209  -6.940   0.899  1.00  0.00    -0.200 F 
ATOM     79  F   UNL     1       5.602  -9.568   1.312  1.00  0.00    -0.200 F 
ENDBRANCH  45  69
BRANCH  57  80
ATOM     80  C   UNL     1       8.371  -6.217  10.529  1.00  0.00     0.064 A 
ATOM     81  C   UNL     1       9.694  -6.314  10.074  1.00  0.00     0.173 A 
ATOM     82  C   UNL     1       8.025  -6.915  11.696  1.00  0.00     0.173 A 
ATOM     83  F   UNL     1      10.071  -5.676   8.955  1.00  0.00    -0.203 F 
ATOM     84  C   UNL     1      10.625  -7.100  10.745  1.00  0.00     0.198 A 
ATOM     85  C   UNL     1       8.967  -7.672  12.385  1.00  0.00     0.198 A 
ATOM     86  F   UNL     1       6.775  -6.848  12.179  1.00  0.00    -0.203 F 
ATOM     87  F   UNL     1      11.870  -7.220  10.263  1.00  0.00    -0.200 F 
ATOM     88  C   UNL     1      10.264  -7.771  11.905  1.00  0.00     0.200 A 
ATOM     89  F   UNL     1       8.621  -8.304  13.515  1.00  0.00    -0.200 F 
ATOM     90  F   UNL     1      11.165  -8.519  12.556  1.00  0.00    -0.200 F 
ENDBRANCH  57  80
ENDBRANCH  31  32
ENDBRANCH  23  26
ENDBRANCH  21  22
ENDBRANCH   1  21
TORSDOF 12
