REMARK SMILES CCc1ccc(C[NH+]2CCC(Oc3ccccc3OC)(C(=O)NCCCNC(=O)c3ccc(-c4c5nc(c(-c6c(F)c(F)c(F)c(F)c6F)c6ccc([nH]6)c(-c6c(F)c(F)c(F)c(F)c6F)c6nc(c(-c7c(F)c(F)c(F)c(F)c7F)c7ccc4[nH]7)C=C6)C=C5)cc3)CC2)nc1
REMARK SMILES IDX 24 1 23 2 21 3 22 4 11 6 8 7 9 8 94 9 10 11 93 12 7 13 6 14
REMARK SMILES IDX 3 15 4 16 96 17 5 18 95 19 2 20 1 21 12 22 13 23 14 24 18 25
REMARK SMILES IDX 15 26 17 27 16 28 19 29 20 30 25 31 26 32 27 33 28 34 29 36
REMARK SMILES IDX 30 37 31 38 92 39 32 40 91 41 33 42 34 43 35 44 85 45 36 46
REMARK SMILES IDX 90 47 84 48 86 49 37 50 89 51 83 52 82 53 38 55 70 56 50 57
REMARK SMILES IDX 69 58 51 59 54 60 68 61 87 62 52 63 53 64 67 66 88 67 55 68
REMARK SMILES IDX 39 69 40 70 48 71 41 72 42 73 46 74 49 75 43 76 44 77 47 78
REMARK SMILES IDX 45 79 71 80 72 81 80 82 73 83 74 84 78 85 81 86 75 87 76 88
REMARK SMILES IDX 79 89 77 90 56 91 57 92 65 93 58 94 59 95 63 96 66 97 60 98
REMARK SMILES IDX 61 99 64 100 62 101
REMARK H PARENT 23 5 8 10 27 35 86 54 54 65
REMARK Flexibility Score: inf
ROOT
ATOM      1  C   UNL     1      -3.962  -0.117   7.692  1.00  0.00     0.118 C 
ENDROOT
BRANCH   1   2
ATOM      2  N   UNL     1      -2.778  -0.783   7.164  1.00  0.00    -0.353 N 
ATOM      3  C   UNL     1      -1.449  -0.656   7.474  1.00  0.00     0.264 C 
ATOM      4  O   UNL     1      -0.713  -1.533   7.009  1.00  0.00    -0.270 OA
ATOM      5  H   UNL     1      -2.967  -1.443   6.458  1.00  0.00     0.163 HD
BRANCH   3   6
ATOM      6  C   UNL     1      -0.892   0.538   8.312  1.00  0.00     0.197 C 
ATOM      7  N   UNL     1       1.247   1.877   6.780  1.00  0.00    -0.330 N 
ATOM      8  C   UNL     1      -0.137   1.928   6.314  1.00  0.00     0.267 C 
ATOM      9  C   UNL     1       1.522   0.561   7.379  1.00  0.00     0.267 C 
ATOM     10  H   UNL     1       1.378   2.581   7.506  1.00  0.00     0.348 HD
ATOM     11  C   UNL     1      -1.055   1.832   7.513  1.00  0.00     0.120 C 
ATOM     12  C   UNL     1       0.615   0.323   8.606  1.00  0.00     0.120 C 
BRANCH   7  13
ATOM     13  C   UNL     1       2.207   2.236   5.705  1.00  0.00     0.319 C 
BRANCH  13  14
ATOM     14  C   UNL     1       1.947   1.598   4.350  1.00  0.00     0.095 A 
ATOM     15  C   UNL     1       1.014   0.256   2.131  1.00  0.00    -0.030 A 
ATOM     16  C   UNL     1       0.777   1.625   2.254  1.00  0.00     0.007 A 
ATOM     17  C   UNL     1       1.773  -0.352   3.126  1.00  0.00     0.115 A 
ATOM     18  C   UNL     1       1.252   2.308   3.369  1.00  0.00     0.030 A 
ATOM     19  N   UNL     1       2.248   0.286   4.216  1.00  0.00    -0.255 NA
BRANCH  15  20
ATOM     20  C   UNL     1       0.429  -0.554   1.010  1.00  0.00     0.034 C 
ATOM     21  C   UNL     1       0.920  -0.116  -0.360  1.00  0.00     0.009 C 
ENDBRANCH  15  20
ENDBRANCH  13  14
ENDBRANCH   7  13
BRANCH   6  22
ATOM     22  O   UNL     1      -1.783   0.565   9.457  1.00  0.00    -0.473 OA
BRANCH  22  23
ATOM     23  C   UNL     1      -1.417   1.106  10.649  1.00  0.00     0.162 A 
ATOM     24  C   UNL     1      -0.638   0.322  11.507  1.00  0.00     0.050 A 
ATOM     25  C   UNL     1      -2.031   2.260  11.159  1.00  0.00     0.160 A 
ATOM     26  C   UNL     1      -0.386   0.731  12.818  1.00  0.00     0.004 A 
ATOM     27  C   UNL     1      -1.738   2.691  12.459  1.00  0.00     0.050 A 
ATOM     28  C   UNL     1      -0.908   1.933  13.284  1.00  0.00     0.004 A 
BRANCH  25  29
ATOM     29  O   UNL     1      -3.128   2.863  10.595  1.00  0.00    -0.493 OA
ATOM     30  C   UNL     1      -2.852   3.663   9.459  1.00  0.00     0.278 C 
ENDBRANCH  25  29
ENDBRANCH  22  23
ENDBRANCH   6  22
ENDBRANCH   3   6
ENDBRANCH   1   2
BRANCH   1  31
ATOM     31  C   UNL     1      -4.643   0.797   6.681  1.00  0.00     0.042 C 
BRANCH  31  32
ATOM     32  C   UNL     1      -5.287   0.063   5.514  1.00  0.00     0.118 C 
BRANCH  32  33
ATOM     33  N   UNL     1      -6.431  -0.740   5.922  1.00  0.00    -0.352 N 
ATOM     34  C   UNL     1      -7.770  -0.571   5.677  1.00  0.00     0.251 C 
ATOM     35  H   UNL     1      -6.208  -1.534   6.460  1.00  0.00     0.163 HD
ATOM     36  O   UNL     1      -8.592  -1.255   6.290  1.00  0.00    -0.269 OA
BRANCH  34  37
ATOM     37  C   UNL     1      -8.245   0.438   4.707  1.00  0.00     0.039 A 
ATOM     38  C   UNL     1      -9.357   1.220   5.037  1.00  0.00     0.014 A 
ATOM     39  C   UNL     1      -7.621   0.606   3.469  1.00  0.00     0.014 A 
ATOM     40  C   UNL     1      -9.782   2.229   4.168  1.00  0.00     0.010 A 
ATOM     41  C   UNL     1      -7.997   1.659   2.637  1.00  0.00     0.010 A 
ATOM     42  C   UNL     1      -9.071   2.492   2.987  1.00  0.00    -0.014 A 
BRANCH  42  43
ATOM     43  C   UNL     1      -9.391   3.667   2.134  1.00  0.00     0.031 A 
ATOM     44  C   UNL     1      -9.857   3.479   0.718  1.00  0.00     0.074 A 
ATOM     45  C   UNL     1      -9.166   4.907   2.615  1.00  0.00     0.049 A 
ATOM     46  N   UNL     1     -10.061   4.380  -0.211  1.00  0.00    -0.248 NA
ATOM     47  C   UNL     1     -10.108   2.098   0.277  1.00  0.00     0.031 C 
ATOM     48  C   UNL     1      -8.679   5.217   3.961  1.00  0.00     0.029 A 
ATOM     49  N   UNL     1      -9.293   6.139   2.019  1.00  0.00    -0.354 N 
ATOM     50  C   UNL     1     -10.444   3.677  -1.345  1.00  0.00     0.074 A 
ATOM     51  C   UNL     1     -10.417   2.272  -1.001  1.00  0.00     0.031 C 
ATOM     52  C   UNL     1      -8.552   6.546   4.089  1.00  0.00     0.029 A 
ATOM     53  C   UNL     1      -8.895   7.182   2.822  1.00  0.00     0.049 A 
ATOM     54  H   UNL     1      -9.635   6.263   1.104  1.00  0.00     0.167 HD
ATOM     55  C   UNL     1     -10.797   4.165  -2.558  1.00  0.00     0.037 A 
ATOM     56  C   UNL     1      -8.787   8.498   2.557  1.00  0.00     0.037 A 
ATOM     57  C   UNL     1     -10.853   5.567  -2.884  1.00  0.00     0.049 A 
ATOM     58  C   UNL     1      -9.158   9.003   1.187  1.00  0.00     0.074 A 
ATOM     59  C   UNL     1     -11.286   6.159  -4.058  1.00  0.00     0.029 A 
ATOM     60  N   UNL     1     -10.453   6.593  -2.042  1.00  0.00    -0.354 N 
ATOM     61  N   UNL     1      -9.606   8.335   0.152  1.00  0.00    -0.248 NA
ATOM     62  C   UNL     1      -9.006  10.445   0.947  1.00  0.00     0.031 C 
ATOM     63  C   UNL     1     -11.085   7.538  -3.952  1.00  0.00     0.029 A 
ATOM     64  C   UNL     1     -10.585   7.811  -2.690  1.00  0.00     0.049 A 
ATOM     65  H   UNL     1     -10.125   6.474  -1.122  1.00  0.00     0.167 HD
ATOM     66  C   UNL     1      -9.812   9.275  -0.849  1.00  0.00     0.074 A 
ATOM     67  C   UNL     1      -9.464  10.564  -0.290  1.00  0.00     0.031 C 
ATOM     68  C   UNL     1     -10.242   9.088  -2.120  1.00  0.00     0.037 A 
BRANCH  55  69
ATOM     69  C   UNL     1     -11.152   3.191  -3.643  1.00  0.00     0.064 A 
ATOM     70  C   UNL     1     -12.356   2.474  -3.626  1.00  0.00     0.173 A 
ATOM     71  C   UNL     1     -10.322   3.057  -4.768  1.00  0.00     0.173 A 
ATOM     72  F   UNL     1     -13.180   2.562  -2.571  1.00  0.00    -0.203 F 
ATOM     73  C   UNL     1     -12.715   1.653  -4.693  1.00  0.00     0.198 A 
ATOM     74  C   UNL     1     -10.697   2.257  -5.844  1.00  0.00     0.198 A 
ATOM     75  F   UNL     1      -9.162   3.727  -4.836  1.00  0.00    -0.203 F 
ATOM     76  F   UNL     1     -13.861   0.960  -4.647  1.00  0.00    -0.200 F 
ATOM     77  C   UNL     1     -11.892   1.555  -5.805  1.00  0.00     0.200 A 
ATOM     78  F   UNL     1      -9.908   2.178  -6.924  1.00  0.00    -0.200 F 
ATOM     79  F   UNL     1     -12.252   0.786  -6.842  1.00  0.00    -0.200 F 
ENDBRANCH  55  69
BRANCH  56  80
ATOM     80  C   UNL     1      -8.279   9.438   3.593  1.00  0.00     0.064 A 
ATOM     81  C   UNL     1      -9.098  10.447   4.120  1.00  0.00     0.173 A 
ATOM     82  C   UNL     1      -6.949   9.383   4.038  1.00  0.00     0.173 A 
ATOM     83  F   UNL     1     -10.371  10.557   3.710  1.00  0.00    -0.203 F 
ATOM     84  C   UNL     1      -8.597  11.388   5.018  1.00  0.00     0.198 A 
ATOM     85  C   UNL     1      -6.460  10.301   4.965  1.00  0.00     0.198 A 
ATOM     86  F   UNL     1      -6.122   8.436   3.572  1.00  0.00    -0.203 F 
ATOM     87  F   UNL     1      -9.383  12.385   5.447  1.00  0.00    -0.200 F 
ATOM     88  C   UNL     1      -7.280  11.312   5.442  1.00  0.00     0.200 A 
ATOM     89  F   UNL     1      -5.191  10.213   5.385  1.00  0.00    -0.200 F 
ATOM     90  F   UNL     1      -6.795  12.222   6.299  1.00  0.00    -0.200 F 
ENDBRANCH  56  80
BRANCH  68  91
ATOM     91  C   UNL     1     -10.386  10.305  -2.987  1.00  0.00     0.064 A 
ATOM     92  C   UNL     1      -9.266  11.003  -3.463  1.00  0.00     0.173 A 
ATOM     93  C   UNL     1     -11.656  10.751  -3.384  1.00  0.00     0.173 A 
ATOM     94  F   UNL     1      -8.031  10.627  -3.099  1.00  0.00    -0.203 F 
ATOM     95  C   UNL     1      -9.414  12.117  -4.285  1.00  0.00     0.198 A 
ATOM     96  C   UNL     1     -11.798  11.845  -4.234  1.00  0.00     0.198 A 
ATOM     97  F   UNL     1     -12.759  10.115  -2.962  1.00  0.00    -0.203 F 
ATOM     98  F   UNL     1      -8.332  12.798  -4.687  1.00  0.00    -0.200 F 
ATOM     99  C   UNL     1     -10.678  12.531  -4.677  1.00  0.00     0.200 A 
ATOM    100  F   UNL     1     -13.020  12.232  -4.625  1.00  0.00    -0.200 F 
ATOM    101  F   UNL     1     -10.817  13.596  -5.478  1.00  0.00    -0.200 F 
ENDBRANCH  68  91
ENDBRANCH  42  43
ENDBRANCH  34  37
ENDBRANCH  32  33
ENDBRANCH  31  32
ENDBRANCH   1  31
TORSDOF 16
