REMARK SMILES CN1C(=O)/C(=C\c2ccc(C(=O)Nc3ccc(O)cc3C(=O)NCCCNC(=O)c3ccc(-c4c5nc(c(-c6c(F)c(F)c(F)c(F)c6F)c6ccc([nH]6)c(-c6c(F)c(F)c(F)c(F)c6F)c6nc(c(-c7c(F)c(F)c(F)c(F)c7F)c7ccc4[nH]7)C=C6)C=C5)cc3)cc2)SC1=S
REMARK SMILES IDX 24 1 23 2 21 3 22 4 20 6 14 7 15 8 16 9 19 10 17 11 13 12
REMARK SMILES IDX 11 13 12 14 10 16 7 17 8 18 94 19 9 20 93 21 6 22 1 23 2 24
REMARK SMILES IDX 3 25 96 26 4 27 5 28 95 29 97 30 18 31 25 33 26 34 27 35
REMARK SMILES IDX 28 36 29 38 30 39 31 40 92 41 32 42 91 43 33 44 34 45 35 46
REMARK SMILES IDX 85 47 36 48 90 49 84 50 86 51 37 52 89 53 83 54 82 55 38 57
REMARK SMILES IDX 70 58 50 59 69 60 51 61 54 62 68 63 87 64 52 65 53 66 67 68
REMARK SMILES IDX 88 69 55 70 39 71 40 72 48 73 41 74 42 75 46 76 49 77 43 78
REMARK SMILES IDX 44 79 47 80 45 81 71 82 72 83 80 84 73 85 74 86 78 87 81 88
REMARK SMILES IDX 75 89 76 90 79 91 77 92 56 93 57 94 65 95 58 96 59 97 63 98
REMARK SMILES IDX 66 99 60 100 61 101 64 102 62 103
REMARK H PARENT 23 5 13 15 18 32 27 37 86 56 54 67
REMARK Flexibility Score: inf
ROOT
ATOM      1  C   UNL     1      -1.987   1.919  -8.972  1.00  0.00     0.118 C 
ENDROOT
BRANCH   1   2
ATOM      2  N   UNL     1      -2.363   3.005  -8.097  1.00  0.00    -0.352 N 
ATOM      3  C   UNL     1      -3.129   2.993  -6.959  1.00  0.00     0.253 C 
ATOM      4  O   UNL     1      -3.237   4.061  -6.351  1.00  0.00    -0.269 OA
ATOM      5  H   UNL     1      -2.018   3.889  -8.358  1.00  0.00     0.163 HD
BRANCH   3   6
ATOM      6  C   UNL     1      -3.896   1.798  -6.476  1.00  0.00     0.067 A 
ATOM      7  C   UNL     1      -3.573   0.428  -6.603  1.00  0.00     0.054 A 
ATOM      8  C   UNL     1      -4.544  -0.536  -6.272  1.00  0.00     0.031 A 
ATOM      9  C   UNL     1      -5.714  -0.174  -5.609  1.00  0.00     0.048 A 
ATOM     10  C   UNL     1      -5.072   2.139  -5.771  1.00  0.00     0.062 A 
ATOM     11  C   UNL     1      -5.936   1.156  -5.305  1.00  0.00     0.116 A 
BRANCH   7  12
ATOM     12  N   UNL     1      -2.313  -0.149  -6.884  1.00  0.00    -0.321 N 
ATOM     13  C   UNL     1      -1.030   0.229  -6.540  1.00  0.00     0.255 C 
ATOM     14  O   UNL     1      -0.084  -0.375  -7.045  1.00  0.00    -0.269 OA
ATOM     15  H   UNL     1      -2.359  -0.971  -7.424  1.00  0.00     0.170 HD
BRANCH  13  16
ATOM     16  C   UNL     1      -0.762   1.315  -5.571  1.00  0.00     0.040 A 
ATOM     17  C   UNL     1      -0.186   3.269  -3.675  1.00  0.00    -0.024 A 
ATOM     18  C   UNL     1       0.726   3.017  -4.706  1.00  0.00     0.009 A 
ATOM     19  C   UNL     1      -1.418   2.614  -3.647  1.00  0.00     0.009 A 
ATOM     20  C   UNL     1       0.426   2.051  -5.671  1.00  0.00     0.014 A 
ATOM     21  C   UNL     1      -1.646   1.566  -4.522  1.00  0.00     0.014 A 
BRANCH  17  22
ATOM     22  C   UNL     1       0.214   3.978  -2.462  1.00  0.00     0.029 C 
ATOM     23  C   UNL     1       0.919   0.076   0.499  1.00  0.00     0.155 C 
ATOM     24  N   UNL     1       0.792   1.485   0.156  1.00  0.00    -0.296 N 
ATOM     25  C   UNL     1       0.399   1.812  -1.125  1.00  0.00     0.265 C 
ATOM     26  C   UNL     1       1.071   2.528   1.006  1.00  0.00     0.148 C 
ATOM     27  O   UNL     1       0.071   0.989  -1.958  1.00  0.00    -0.268 OA
ATOM     28  C   UNL     1       0.445   3.303  -1.322  1.00  0.00     0.081 C 
ATOM     29  S   UNL     1       0.866   4.063   0.165  1.00  0.00    -0.054 SA
ATOM     30  S   UNL     1       1.548   2.436   2.600  1.00  0.00    -0.052 S 
ENDBRANCH  17  22
ENDBRANCH  13  16
ENDBRANCH   7  12
BRANCH  11  31
ATOM     31  O   UNL     1      -7.010   1.463  -4.526  1.00  0.00    -0.508 OA
ATOM     32  H   UNL     1      -7.578   0.783  -4.223  1.00  0.00     0.293 HD
ENDBRANCH  11  31
ENDBRANCH   3   6
ENDBRANCH   1   2
BRANCH   1  33
ATOM     33  C   UNL     1      -1.669   2.320 -10.392  1.00  0.00     0.042 C 
BRANCH  33  34
ATOM     34  C   UNL     1      -0.404   3.154 -10.520  1.00  0.00     0.118 C 
BRANCH  34  35
ATOM     35  N   UNL     1       0.833   2.469 -10.135  1.00  0.00    -0.352 N 
ATOM     36  C   UNL     1       1.912   2.043 -10.880  1.00  0.00     0.251 C 
ATOM     37  H   UNL     1       0.906   2.278  -9.172  1.00  0.00     0.163 HD
ATOM     38  O   UNL     1       2.847   1.457 -10.343  1.00  0.00    -0.269 OA
BRANCH  36  39
ATOM     39  C   UNL     1       1.917   2.235 -12.343  1.00  0.00     0.039 A 
ATOM     40  C   UNL     1       2.277   1.172 -13.174  1.00  0.00     0.014 A 
ATOM     41  C   UNL     1       1.477   3.433 -12.895  1.00  0.00     0.014 A 
ATOM     42  C   UNL     1       2.054   1.268 -14.550  1.00  0.00     0.010 A 
ATOM     43  C   UNL     1       1.101   3.466 -14.228  1.00  0.00     0.010 A 
ATOM     44  C   UNL     1       1.387   2.386 -15.076  1.00  0.00    -0.014 A 
BRANCH  44  45
ATOM     45  C   UNL     1       0.984   2.471 -16.503  1.00  0.00     0.031 A 
ATOM     46  C   UNL     1       1.440   3.640 -17.335  1.00  0.00     0.074 A 
ATOM     47  C   UNL     1       0.129   1.565 -17.020  1.00  0.00     0.049 A 
ATOM     48  N   UNL     1       1.091   3.983 -18.549  1.00  0.00    -0.248 NA
ATOM     49  C   UNL     1       2.376   4.582 -16.697  1.00  0.00     0.031 C 
ATOM     50  C   UNL     1      -0.442   0.425 -16.299  1.00  0.00     0.029 A 
ATOM     51  N   UNL     1      -0.421   1.467 -18.274  1.00  0.00    -0.354 N 
ATOM     52  C   UNL     1       1.736   5.187 -18.799  1.00  0.00     0.074 A 
ATOM     53  C   UNL     1       2.430   5.559 -17.588  1.00  0.00     0.031 C 
ATOM     54  C   UNL     1      -1.226  -0.278 -17.131  1.00  0.00     0.029 A 
ATOM     55  C   UNL     1      -1.257   0.387 -18.429  1.00  0.00     0.049 A 
ATOM     56  H   UNL     1      -0.234   2.110 -18.996  1.00  0.00     0.167 HD
ATOM     57  C   UNL     1       1.781   5.900 -19.948  1.00  0.00     0.037 A 
ATOM     58  C   UNL     1      -1.972  -0.016 -19.498  1.00  0.00     0.037 A 
ATOM     59  C   UNL     1       1.131   5.499 -21.165  1.00  0.00     0.049 A 
ATOM     60  C   UNL     1      -1.897   0.789 -20.768  1.00  0.00     0.074 A 
ATOM     61  C   UNL     1       1.172   6.107 -22.407  1.00  0.00     0.029 A 
ATOM     62  N   UNL     1       0.323   4.378 -21.292  1.00  0.00    -0.354 N 
ATOM     63  N   UNL     1      -1.223   1.886 -21.016  1.00  0.00    -0.248 NA
ATOM     64  C   UNL     1      -2.680   0.297 -21.910  1.00  0.00     0.031 C 
ATOM     65  C   UNL     1       0.348   5.382 -23.273  1.00  0.00     0.029 A 
ATOM     66  C   UNL     1      -0.159   4.289 -22.587  1.00  0.00     0.049 A 
ATOM     67  H   UNL     1       0.122   3.741 -20.569  1.00  0.00     0.167 HD
ATOM     68  C   UNL     1      -1.473   2.197 -22.346  1.00  0.00     0.074 A 
ATOM     69  C   UNL     1      -2.350   1.164 -22.857  1.00  0.00     0.031 C 
ATOM     70  C   UNL     1      -1.020   3.244 -23.078  1.00  0.00     0.037 A 
BRANCH  57  71
ATOM     71  C   UNL     1       2.574   7.176 -19.942  1.00  0.00     0.064 A 
ATOM     72  C   UNL     1       3.972   7.175 -19.809  1.00  0.00     0.173 A 
ATOM     73  C   UNL     1       1.933   8.414 -20.090  1.00  0.00     0.173 A 
ATOM     74  F   UNL     1       4.635   6.020 -19.649  1.00  0.00    -0.203 F 
ATOM     75  C   UNL     1       4.692   8.367 -19.784  1.00  0.00     0.198 A 
ATOM     76  C   UNL     1       2.660   9.602 -20.103  1.00  0.00     0.198 A 
ATOM     77  F   UNL     1       0.599   8.474 -20.225  1.00  0.00    -0.203 F 
ATOM     78  F   UNL     1       6.018   8.342 -19.591  1.00  0.00    -0.200 F 
ATOM     79  C   UNL     1       4.036   9.578 -19.939  1.00  0.00     0.200 A 
ATOM     80  F   UNL     1       2.026  10.772 -20.267  1.00  0.00    -0.200 F 
ATOM     81  F   UNL     1       4.731  10.724 -19.922  1.00  0.00    -0.200 F 
ENDBRANCH  57  71
BRANCH  58  82
ATOM     82  C   UNL     1      -2.794  -1.254 -19.426  1.00  0.00     0.064 A 
ATOM     83  C   UNL     1      -2.444  -2.392 -20.167  1.00  0.00     0.173 A 
ATOM     84  C   UNL     1      -3.947  -1.326 -18.631  1.00  0.00     0.173 A 
ATOM     85  F   UNL     1      -1.362  -2.368 -20.958  1.00  0.00    -0.203 F 
ATOM     86  C   UNL     1      -3.228  -3.544 -20.134  1.00  0.00     0.198 A 
ATOM     87  C   UNL     1      -4.713  -2.489 -18.575  1.00  0.00     0.198 A 
ATOM     88  F   UNL     1      -4.325  -0.269 -17.897  1.00  0.00    -0.203 F 
ATOM     89  F   UNL     1      -2.897  -4.598 -20.893  1.00  0.00    -0.200 F 
ATOM     90  C   UNL     1      -4.359  -3.594 -19.334  1.00  0.00     0.200 A 
ATOM     91  F   UNL     1      -5.797  -2.538 -17.788  1.00  0.00    -0.200 F 
ATOM     92  F   UNL     1      -5.111  -4.702 -19.302  1.00  0.00    -0.200 F 
ENDBRANCH  58  82
BRANCH  70  93
ATOM     93  C   UNL     1      -1.428   3.304 -24.521  1.00  0.00     0.064 A 
ATOM     94  C   UNL     1      -2.741   3.613 -24.905  1.00  0.00     0.173 A 
ATOM     95  C   UNL     1      -0.476   3.104 -25.534  1.00  0.00     0.173 A 
ATOM     96  F   UNL     1      -3.690   3.799 -23.975  1.00  0.00    -0.203 F 
ATOM     97  C   UNL     1      -3.092   3.695 -26.249  1.00  0.00     0.198 A 
ATOM     98  C   UNL     1      -0.823   3.220 -26.876  1.00  0.00     0.198 A 
ATOM     99  F   UNL     1       0.795   2.815 -25.219  1.00  0.00    -0.203 F 
ATOM    100  F   UNL     1      -4.363   3.945 -26.593  1.00  0.00    -0.200 F 
ATOM    101  C   UNL     1      -2.132   3.508 -27.233  1.00  0.00     0.200 A 
ATOM    102  F   UNL     1       0.110   3.058 -27.824  1.00  0.00    -0.200 F 
ATOM    103  F   UNL     1      -2.469   3.601 -28.526  1.00  0.00    -0.200 F 
ENDBRANCH  70  93
ENDBRANCH  44  45
ENDBRANCH  36  39
ENDBRANCH  34  35
ENDBRANCH  33  34
ENDBRANCH   1  33
TORSDOF 14
