REMARK SMILES Cc1nnc(SCC2=C(C(=O)NCCCNC(=O)c3ccc(-c4c5nc(c(-c6c(F)c(F)c(F)c(F)c6F)c6ccc([nH]6)c(-c6c(F)c(F)c(F)c(F)c6F)c6nc(c(-c7c(F)c(F)c(F)c(F)c7F)c7ccc4[nH]7)C=C6)C=C5)cc3)N3C(=O)[C@H](NC(=O)c4cn(C)nc4C)[C@@H]3SC2)s1
REMARK SMILES IDX 13 1 12 2 10 3 11 4 9 6 8 7 98 8 82 9 97 10 83 11 96 12
REMARK SMILES IDX 84 13 85 14 7 15 6 16 5 17 1 18 2 19 3 20 99 21 4 22 86 23
REMARK SMILES IDX 87 24 88 26 89 27 90 28 94 29 91 30 93 31 95 32 92 33 14 34
REMARK SMILES IDX 15 35 16 36 17 37 18 39 19 40 20 41 81 42 21 43 80 44 22 45
REMARK SMILES IDX 23 46 24 47 74 48 25 49 79 50 73 51 75 52 26 53 78 54 72 55
REMARK SMILES IDX 71 56 27 58 59 59 39 60 58 61 40 62 43 63 57 64 76 65 41 66
REMARK SMILES IDX 42 67 56 69 77 70 44 71 28 72 29 73 37 74 30 75 31 76 35 77
REMARK SMILES IDX 38 78 32 79 33 80 36 81 34 82 60 83 61 84 69 85 62 86 63 87
REMARK SMILES IDX 67 88 70 89 64 90 65 91 68 92 66 93 45 94 46 95 54 96 47 97
REMARK SMILES IDX 48 98 52 99 55 100 49 101 50 102 53 103 51 104
REMARK H PARENT 12 5 86 25 16 38 75 57 43 68
REMARK Flexibility Score: inf
ROOT
ATOM      1  C   UNL     1       5.709  -0.635  -1.241  1.00  0.00     0.118 C 
ENDROOT
BRANCH   1   2
ATOM      2  N   UNL     1       5.419  -2.005  -0.861  1.00  0.00    -0.351 N 
ATOM      3  C   UNL     1       4.900  -2.708   0.168  1.00  0.00     0.268 C 
ATOM      4  O   UNL     1       5.147  -3.914   0.025  1.00  0.00    -0.268 OA
ATOM      5  H   UNL     1       5.686  -2.618  -1.584  1.00  0.00     0.163 HD
BRANCH   3   6
ATOM      6  C   UNL     1       4.256  -2.219   1.482  1.00  0.00     0.111 C 
ATOM      7  C   UNL     1       3.726  -0.999   1.798  1.00  0.00    -0.020 C 
ATOM      8  C   UNL     1       3.284  -0.638   3.213  1.00  0.00     0.106 C 
ATOM      9  N   UNL     1       4.232  -3.221   2.441  1.00  0.00    -0.290 N 
ATOM     10  S   UNL     1       2.640  -2.006   4.188  1.00  0.00    -0.129 SA
ATOM     11  C   UNL     1       3.848  -4.521   2.407  1.00  0.00     0.253 C 
ATOM     12  C   UNL     1       4.069  -3.059   3.869  1.00  0.00     0.181 C 
ATOM     13  O   UNL     1       3.474  -5.289   1.530  1.00  0.00    -0.272 OA
ATOM     14  C   UNL     1       3.805  -4.595   3.951  1.00  0.00     0.206 C 
BRANCH   7  15
ATOM     15  C   UNL     1       3.544   0.109   0.780  1.00  0.00     0.111 C 
BRANCH  15  16
ATOM     16  S   UNL     1       2.231   1.331   1.012  1.00  0.00    -0.089 SA
BRANCH  16  17
ATOM     17  C   UNL     1       0.800   0.446   0.560  1.00  0.00     0.174 A 
ATOM     18  C   UNL     1      -2.824  -0.528  -0.200  1.00  0.00     0.081 C 
ATOM     19  C   UNL     1      -1.372  -0.347   0.044  1.00  0.00     0.115 A 
ATOM     20  N   UNL     1      -0.450  -1.270  -0.137  1.00  0.00    -0.143 NA
ATOM     21  S   UNL     1      -0.758   1.159   0.593  1.00  0.00    -0.091 S 
ATOM     22  N   UNL     1       0.817  -0.807   0.166  1.00  0.00    -0.132 NA
ENDBRANCH  16  17
ENDBRANCH  15  16
ENDBRANCH   7  15
BRANCH  14  23
ATOM     23  N   UNL     1       2.496  -5.054   4.485  1.00  0.00    -0.337 N 
ATOM     24  C   UNL     1       2.204  -5.703   5.655  1.00  0.00     0.255 C 
ATOM     25  H   UNL     1       1.720  -4.862   3.910  1.00  0.00     0.164 HD
ATOM     26  O   UNL     1       1.073  -6.155   5.816  1.00  0.00    -0.269 OA
BRANCH  24  27
ATOM     27  C   UNL     1       3.239  -5.861   6.657  1.00  0.00     0.080 A 
ATOM     28  C   UNL     1       4.151  -4.922   7.106  1.00  0.00     0.122 A 
ATOM     29  C   UNL     1       3.482  -7.000   7.478  1.00  0.00     0.072 A 
ATOM     30  N   UNL     1       4.861  -5.524   8.102  1.00  0.00    -0.275 N 
ATOM     31  N   UNL     1       4.495  -6.793   8.331  1.00  0.00    -0.178 NA
ATOM     32  C   UNL     1       2.785  -8.312   7.478  1.00  0.00     0.069 C 
ATOM     33  C   UNL     1       5.904  -4.938   8.908  1.00  0.00     0.173 C 
ENDBRANCH  24  27
ENDBRANCH  14  23
ENDBRANCH   3   6
ENDBRANCH   1   2
BRANCH   1  34
ATOM     34  C   UNL     1       6.970  -0.497  -2.105  1.00  0.00     0.042 C 
BRANCH  34  35
ATOM     35  C   UNL     1       6.940  -1.243  -3.439  1.00  0.00     0.118 C 
BRANCH  35  36
ATOM     36  N   UNL     1       6.071  -0.656  -4.442  1.00  0.00    -0.352 N 
ATOM     37  C   UNL     1       6.165   0.444  -5.255  1.00  0.00     0.251 C 
ATOM     38  H   UNL     1       5.232  -1.156  -4.565  1.00  0.00     0.163 HD
ATOM     39  O   UNL     1       5.215   0.678  -6.003  1.00  0.00    -0.269 OA
BRANCH  37  40
ATOM     40  C   UNL     1       7.313   1.392  -5.252  1.00  0.00     0.039 A 
ATOM     41  C   UNL     1       7.039   2.725  -5.604  1.00  0.00     0.014 A 
ATOM     42  C   UNL     1       8.639   1.032  -5.009  1.00  0.00     0.014 A 
ATOM     43  C   UNL     1       8.060   3.679  -5.679  1.00  0.00     0.010 A 
ATOM     44  C   UNL     1       9.654   1.998  -5.024  1.00  0.00     0.010 A 
ATOM     45  C   UNL     1       9.379   3.330  -5.365  1.00  0.00    -0.014 A 
BRANCH  45  46
ATOM     46  C   UNL     1      10.485   4.324  -5.418  1.00  0.00     0.031 A 
ATOM     47  C   UNL     1      11.616   4.149  -6.396  1.00  0.00     0.074 A 
ATOM     48  C   UNL     1      10.512   5.359  -4.556  1.00  0.00     0.049 A 
ATOM     49  N   UNL     1      12.760   4.783  -6.464  1.00  0.00    -0.248 NA
ATOM     50  C   UNL     1      11.446   3.105  -7.418  1.00  0.00     0.031 C 
ATOM     51  C   UNL     1       9.489   5.655  -3.553  1.00  0.00     0.029 A 
ATOM     52  N   UNL     1      11.447   6.350  -4.380  1.00  0.00    -0.354 N 
ATOM     53  C   UNL     1      13.469   4.177  -7.493  1.00  0.00     0.074 A 
ATOM     54  C   UNL     1      12.623   3.130  -8.028  1.00  0.00     0.031 C 
ATOM     55  C   UNL     1       9.841   6.764  -2.881  1.00  0.00     0.029 A 
ATOM     56  C   UNL     1      11.133   7.230  -3.374  1.00  0.00     0.049 A 
ATOM     57  H   UNL     1      12.264   6.422  -4.925  1.00  0.00     0.167 HD
ATOM     58  C   UNL     1      14.712   4.465  -7.948  1.00  0.00     0.037 A 
ATOM     59  C   UNL     1      11.817   8.285  -2.892  1.00  0.00     0.037 A 
ATOM     60  C   UNL     1      15.531   5.546  -7.467  1.00  0.00     0.049 A 
ATOM     61  C   UNL     1      13.159   8.633  -3.470  1.00  0.00     0.074 A 
ATOM     62  C   UNL     1      16.806   5.912  -7.867  1.00  0.00     0.029 A 
ATOM     63  N   UNL     1      15.141   6.457  -6.499  1.00  0.00    -0.354 N 
ATOM     64  N   UNL     1      13.840   8.019  -4.405  1.00  0.00    -0.248 NA
ATOM     65  C   UNL     1      13.832   9.820  -2.919  1.00  0.00     0.031 C 
ATOM     66  C   UNL     1      17.186   7.047  -7.141  1.00  0.00     0.029 A 
ATOM     67  C   UNL     1      16.140   7.396  -6.304  1.00  0.00     0.049 A 
ATOM     68  H   UNL     1      14.280   6.439  -6.020  1.00  0.00     0.167 HD
ATOM     69  C   UNL     1      15.010   8.747  -4.564  1.00  0.00     0.074 A 
ATOM     70  C   UNL     1      14.945   9.858  -3.639  1.00  0.00     0.031 C 
ATOM     71  C   UNL     1      16.049   8.508  -5.398  1.00  0.00     0.037 A 
BRANCH  58  72
ATOM     72  C   UNL     1      15.276   3.583  -9.019  1.00  0.00     0.064 A 
ATOM     73  C   UNL     1      14.875   3.703 -10.356  1.00  0.00     0.173 A 
ATOM     74  C   UNL     1      16.261   2.633  -8.707  1.00  0.00     0.173 A 
ATOM     75  F   UNL     1      13.926   4.588 -10.698  1.00  0.00    -0.203 F 
ATOM     76  C   UNL     1      15.428   2.891 -11.343  1.00  0.00     0.198 A 
ATOM     77  C   UNL     1      16.826   1.837  -9.698  1.00  0.00     0.198 A 
ATOM     78  F   UNL     1      16.679   2.485  -7.441  1.00  0.00    -0.203 F 
ATOM     79  F   UNL     1      15.008   2.999 -12.611  1.00  0.00    -0.200 F 
ATOM     80  C   UNL     1      16.407   1.964 -11.014  1.00  0.00     0.200 A 
ATOM     81  F   UNL     1      17.776   0.946  -9.381  1.00  0.00    -0.200 F 
ATOM     82  F   UNL     1      16.941   1.186 -11.966  1.00  0.00    -0.200 F 
ENDBRANCH  58  72
BRANCH  59  83
ATOM     83  C   UNL     1      11.234   9.102  -1.800  1.00  0.00     0.064 A 
ATOM     84  C   UNL     1      10.692  10.366  -2.068  1.00  0.00     0.173 A 
ATOM     85  C   UNL     1      11.209   8.641  -0.478  1.00  0.00     0.173 A 
ATOM     86  F   UNL     1      10.717  10.853  -3.318  1.00  0.00    -0.203 F 
ATOM     87  C   UNL     1      10.154  11.146  -1.048  1.00  0.00     0.198 A 
ATOM     88  C   UNL     1      10.654   9.415   0.539  1.00  0.00     0.198 A 
ATOM     89  F   UNL     1      11.715   7.437  -0.176  1.00  0.00    -0.203 F 
ATOM     90  F   UNL     1       9.670  12.365  -1.324  1.00  0.00    -0.200 F 
ATOM     91  C   UNL     1      10.132  10.668   0.254  1.00  0.00     0.200 A 
ATOM     92  F   UNL     1      10.626   8.947   1.794  1.00  0.00    -0.200 F 
ATOM     93  F   UNL     1       9.612  11.418   1.235  1.00  0.00    -0.200 F 
ENDBRANCH  59  83
BRANCH  71  94
ATOM     94  C   UNL     1      17.182   9.486  -5.375  1.00  0.00     0.064 A 
ATOM     95  C   UNL     1      18.163   9.440  -4.375  1.00  0.00     0.173 A 
ATOM     96  C   UNL     1      17.304  10.454  -6.381  1.00  0.00     0.173 A 
ATOM     97  F   UNL     1      18.077   8.539  -3.385  1.00  0.00    -0.203 F 
ATOM     98  C   UNL     1      19.224  10.342  -4.377  1.00  0.00     0.198 A 
ATOM     99  C   UNL     1      18.372  11.346  -6.386  1.00  0.00     0.198 A 
ATOM    100  F   UNL     1      16.386  10.534  -7.356  1.00  0.00    -0.203 F 
ATOM    101  F   UNL     1      20.138  10.301  -3.398  1.00  0.00    -0.200 F 
ATOM    102  C   UNL     1      19.329  11.291  -5.384  1.00  0.00     0.200 A 
ATOM    103  F   UNL     1      18.474  12.262  -7.359  1.00  0.00    -0.200 F 
ATOM    104  F   UNL     1      20.351  12.159  -5.383  1.00  0.00    -0.200 F 
ENDBRANCH  71  94
ENDBRANCH  45  46
ENDBRANCH  37  40
ENDBRANCH  35  36
ENDBRANCH  34  35
ENDBRANCH   1  34
TORSDOF 15
