REMARK SMILES CS(=O)(=O)c1ccc(/C=C(/C(=O)NCCCNC(=O)c2ccc(-c3c4nc(c(-c5c(F)c(F)c(F)c(F)c5F)c5ccc([nH]5)c(-c5c(F)c(F)c(F)c(F)c5F)c5nc(c(-c6c(F)c(F)c(F)c(F)c6F)c6ccc3[nH]6)C=C5)C=C4)cc2)c2ccc(-c3ccc(F)cc3F)cc2)cc1
REMARK SMILES IDX 15 1 14 2 13 3 11 4 12 5 10 7 9 8 8 9 5 10 6 11 98 12 7 13
REMARK SMILES IDX 97 14 2 15 1 16 3 17 4 18 83 19 84 20 96 21 85 22 95 23
REMARK SMILES IDX 86 24 87 25 88 26 93 27 89 28 92 29 94 30 90 31 91 32 16 33
REMARK SMILES IDX 17 34 18 35 19 37 20 38 21 39 82 40 22 41 81 42 23 43 24 44
REMARK SMILES IDX 25 45 75 46 26 47 80 48 74 49 76 50 27 51 79 52 73 53 72 54
REMARK SMILES IDX 28 56 60 57 40 58 59 59 41 60 44 61 58 62 77 63 42 64 43 65
REMARK SMILES IDX 57 67 78 68 45 69 29 70 30 71 38 72 31 73 32 74 36 75 39 76
REMARK SMILES IDX 33 77 34 78 37 79 35 80 61 81 62 82 70 83 63 84 64 85 68 86
REMARK SMILES IDX 71 87 65 88 66 89 69 90 67 91 46 92 47 93 55 94 48 95 49 96
REMARK SMILES IDX 53 97 56 98 50 99 51 100 54 101 52 102
REMARK H PARENT 13 6 17 36 76 55 44 66
REMARK Flexibility Score: inf
ROOT
ATOM      1  C   UNL     1       1.791   6.832  -6.165  1.00  0.00     0.042 C 
ENDROOT
BRANCH   1   2
ATOM      2  C   UNL     1       1.264   5.711  -7.061  1.00  0.00     0.118 C 
BRANCH   2   3
ATOM      3  N   UNL     1       2.340   5.170  -7.866  1.00  0.00    -0.352 N 
ATOM      4  C   UNL     1       3.127   4.069  -7.761  1.00  0.00     0.251 C 
ATOM      5  O   UNL     1       4.021   3.967  -8.604  1.00  0.00    -0.269 OA
ATOM      6  H   UNL     1       2.544   5.717  -8.658  1.00  0.00     0.163 HD
BRANCH   4   7
ATOM      7  C   UNL     1       2.893   2.974  -6.745  1.00  0.00     0.047 C 
ATOM      8  C   UNL     1       2.459   3.234  -5.489  1.00  0.00     0.022 C 
BRANCH   8   9
ATOM      9  C   UNL     1       2.045   2.302  -4.413  1.00  0.00    -0.025 A 
ATOM     10  C   UNL     1       0.981   0.531  -2.511  1.00  0.00     0.067 A 
ATOM     11  C   UNL     1       2.159   0.204  -3.181  1.00  0.00     0.021 A 
ATOM     12  C   UNL     1       0.347   1.750  -2.746  1.00  0.00     0.021 A 
ATOM     13  C   UNL     1       2.706   1.109  -4.096  1.00  0.00     0.009 A 
ATOM     14  C   UNL     1       0.882   2.629  -3.693  1.00  0.00     0.009 A 
BRANCH  10  15
ATOM     15  S   UNL     1       0.251  -0.639  -1.392  1.00  0.00     0.175 S 
ATOM     16  C   UNL     1       0.917  -0.157   0.178  1.00  0.00     0.163 C 
ATOM     17  O   UNL     1       0.773  -1.949  -1.722  1.00  0.00    -0.224 OA
ATOM     18  O   UNL     1      -1.179  -0.388  -1.373  1.00  0.00    -0.224 OA
ENDBRANCH  10  15
ENDBRANCH   8   9
BRANCH   7  19
ATOM     19  C   UNL     1       3.357   1.616  -7.119  1.00  0.00    -0.013 A 
ATOM     20  C   UNL     1       4.736   1.415  -7.270  1.00  0.00     0.009 A 
ATOM     21  C   UNL     1       2.502   0.514  -7.206  1.00  0.00     0.009 A 
ATOM     22  C   UNL     1       5.257   0.134  -7.427  1.00  0.00     0.009 A 
ATOM     23  C   UNL     1       3.035  -0.778  -7.332  1.00  0.00     0.009 A 
ATOM     24  C   UNL     1       4.423  -0.994  -7.412  1.00  0.00    -0.015 A 
BRANCH  24  25
ATOM     25  C   UNL     1       5.010  -2.347  -7.430  1.00  0.00     0.018 A 
ATOM     26  C   UNL     1       6.139  -2.643  -6.635  1.00  0.00     0.015 A 
ATOM     27  C   UNL     1       4.492  -3.384  -8.224  1.00  0.00     0.133 A 
ATOM     28  C   UNL     1       6.728  -3.909  -6.656  1.00  0.00     0.040 A 
ATOM     29  C   UNL     1       5.071  -4.650  -8.247  1.00  0.00     0.079 A 
ATOM     30  F   UNL     1       3.420  -3.170  -9.002  1.00  0.00    -0.206 F 
ATOM     31  C   UNL     1       6.189  -4.899  -7.466  1.00  0.00     0.126 A 
ATOM     32  F   UNL     1       6.758  -6.111  -7.490  1.00  0.00    -0.207 F 
ENDBRANCH  24  25
ENDBRANCH   7  19
ENDBRANCH   4   7
ENDBRANCH   2   3
ENDBRANCH   1   2
BRANCH   1  33
ATOM     33  C   UNL     1       2.193   8.082  -6.945  1.00  0.00     0.118 C 
BRANCH  33  34
ATOM     34  N   UNL     1       1.046   8.721  -7.572  1.00  0.00    -0.352 N 
ATOM     35  C   UNL     1       0.539   9.983  -7.403  1.00  0.00     0.251 C 
ATOM     36  H   UNL     1       0.557   8.160  -8.216  1.00  0.00     0.163 HD
ATOM     37  O   UNL     1      -0.585  10.245  -7.823  1.00  0.00    -0.269 OA
BRANCH  35  38
ATOM     38  C   UNL     1       1.334  11.031  -6.728  1.00  0.00     0.039 A 
ATOM     39  C   UNL     1       0.674  11.954  -5.912  1.00  0.00     0.014 A 
ATOM     40  C   UNL     1       2.708  11.152  -6.951  1.00  0.00     0.014 A 
ATOM     41  C   UNL     1       1.395  12.981  -5.301  1.00  0.00     0.010 A 
ATOM     42  C   UNL     1       3.440  12.123  -6.273  1.00  0.00     0.010 A 
ATOM     43  C   UNL     1       2.787  13.065  -5.464  1.00  0.00    -0.014 A 
BRANCH  43  44
ATOM     44  C   UNL     1       3.569  14.163  -4.841  1.00  0.00     0.031 A 
ATOM     45  C   UNL     1       4.296  15.152  -5.714  1.00  0.00     0.074 A 
ATOM     46  C   UNL     1       3.659  14.245  -3.500  1.00  0.00     0.049 A 
ATOM     47  N   UNL     1       5.084  16.140  -5.369  1.00  0.00    -0.248 NA
ATOM     48  C   UNL     1       4.141  14.995  -7.170  1.00  0.00     0.031 C 
ATOM     49  C   UNL     1       3.032  13.322  -2.552  1.00  0.00     0.029 A 
ATOM     50  N   UNL     1       4.323  15.141  -2.700  1.00  0.00    -0.354 N 
ATOM     51  C   UNL     1       5.530  16.701  -6.559  1.00  0.00     0.074 A 
ATOM     52  C   UNL     1       4.972  15.915  -7.636  1.00  0.00     0.031 C 
ATOM     53  C   UNL     1       3.322  13.713  -1.300  1.00  0.00     0.029 A 
ATOM     54  C   UNL     1       4.189  14.886  -1.356  1.00  0.00     0.049 A 
ATOM     55  H   UNL     1       4.846  15.896  -3.055  1.00  0.00     0.167 HD
ATOM     56  C   UNL     1       6.313  17.791  -6.737  1.00  0.00     0.037 A 
ATOM     57  C   UNL     1       4.717  15.521  -0.293  1.00  0.00     0.037 A 
ATOM     58  C   UNL     1       6.835  18.592  -5.661  1.00  0.00     0.049 A 
ATOM     59  C   UNL     1       5.586  16.731  -0.524  1.00  0.00     0.074 A 
ATOM     60  C   UNL     1       7.590  19.750  -5.736  1.00  0.00     0.029 A 
ATOM     61  N   UNL     1       6.654  18.317  -4.314  1.00  0.00    -0.354 N 
ATOM     62  N   UNL     1       5.944  17.292  -1.654  1.00  0.00    -0.248 NA
ATOM     63  C   UNL     1       6.114  17.404   0.670  1.00  0.00     0.031 C 
ATOM     64  C   UNL     1       7.914  20.144  -4.435  1.00  0.00     0.029 A 
ATOM     65  C   UNL     1       7.301  19.274  -3.548  1.00  0.00     0.049 A 
ATOM     66  H   UNL     1       6.143  17.557  -3.955  1.00  0.00     0.167 HD
ATOM     67  C   UNL     1       6.697  18.406  -1.305  1.00  0.00     0.074 A 
ATOM     68  C   UNL     1       6.734  18.448   0.141  1.00  0.00     0.031 C 
ATOM     69  C   UNL     1       7.302  19.315  -2.108  1.00  0.00     0.037 A 
BRANCH  56  70
ATOM     70  C   UNL     1       6.655  18.193  -8.144  1.00  0.00     0.064 A 
ATOM     71  C   UNL     1       5.691  18.720  -9.016  1.00  0.00     0.173 A 
ATOM     72  C   UNL     1       7.979  18.112  -8.602  1.00  0.00     0.173 A 
ATOM     73  F   UNL     1       4.409  18.808  -8.633  1.00  0.00    -0.203 F 
ATOM     74  C   UNL     1       6.036  19.134 -10.301  1.00  0.00     0.198 A 
ATOM     75  C   UNL     1       8.327  18.558  -9.875  1.00  0.00     0.198 A 
ATOM     76  F   UNL     1       8.941  17.620  -7.808  1.00  0.00    -0.203 F 
ATOM     77  F   UNL     1       5.091  19.597 -11.130  1.00  0.00    -0.200 F 
ATOM     78  C   UNL     1       7.355  19.063 -10.725  1.00  0.00     0.200 A 
ATOM     79  F   UNL     1       9.604  18.503 -10.276  1.00  0.00    -0.200 F 
ATOM     80  F   UNL     1       7.689  19.480 -11.954  1.00  0.00    -0.200 F 
ENDBRANCH  56  70
BRANCH  57  81
ATOM     81  C   UNL     1       4.435  15.045   1.088  1.00  0.00     0.064 A 
ATOM     82  C   UNL     1       3.703  15.831   1.990  1.00  0.00     0.173 A 
ATOM     83  C   UNL     1       4.930  13.817   1.552  1.00  0.00     0.173 A 
ATOM     84  F   UNL     1       3.221  17.021   1.602  1.00  0.00    -0.203 F 
ATOM     85  C   UNL     1       3.515  15.429   3.311  1.00  0.00     0.198 A 
ATOM     86  C   UNL     1       4.709  13.398   2.862  1.00  0.00     0.198 A 
ATOM     87  F   UNL     1       5.628  13.019   0.730  1.00  0.00    -0.203 F 
ATOM     88  F   UNL     1       2.874  16.235   4.169  1.00  0.00    -0.200 F 
ATOM     89  C   UNL     1       4.016  14.212   3.746  1.00  0.00     0.200 A 
ATOM     90  F   UNL     1       5.179  12.213   3.273  1.00  0.00    -0.200 F 
ATOM     91  F   UNL     1       3.842  13.829   5.018  1.00  0.00    -0.200 F 
ENDBRANCH  57  81
BRANCH  69  92
ATOM     92  C   UNL     1       7.992  20.474  -1.446  1.00  0.00     0.064 A 
ATOM     93  C   UNL     1       9.171  20.315  -0.704  1.00  0.00     0.173 A 
ATOM     94  C   UNL     1       7.476  21.772  -1.588  1.00  0.00     0.173 A 
ATOM     95  F   UNL     1       9.699  19.094  -0.528  1.00  0.00    -0.203 F 
ATOM     96  C   UNL     1       9.787  21.406  -0.097  1.00  0.00     0.198 A 
ATOM     97  C   UNL     1       8.116  22.866  -1.013  1.00  0.00     0.198 A 
ATOM     98  F   UNL     1       6.356  21.982  -2.296  1.00  0.00    -0.203 F 
ATOM     99  F   UNL     1      10.878  21.222   0.659  1.00  0.00    -0.200 F 
ATOM    100  C   UNL     1       9.264  22.681  -0.259  1.00  0.00     0.200 A 
ATOM    101  F   UNL     1       7.619  24.098  -1.187  1.00  0.00    -0.200 F 
ATOM    102  F   UNL     1       9.863  23.730   0.320  1.00  0.00    -0.200 F 
ENDBRANCH  69  92
ENDBRANCH  43  44
ENDBRANCH  35  38
ENDBRANCH  33  34
ENDBRANCH   1  33
TORSDOF 14
