REMARK SMILES CC[C@H](CC#N)[NH2+]Cc1cc(C(=O)NCCCNC(=O)c2ccc(-c3c4nc(c(-c5c(F)c(F)c(F)c(F)c5F)c5ccc([nH]5)c(-c5c(F)c(F)c(F)c(F)c5F)c5nc(c(-c6c(F)c(F)c(F)c(F)c6F)c6ccc3[nH]6)C=C5)C=C4)cc2)cs1
REMARK SMILES IDX 12 1 13 2 14 3 11 5 9 6 10 7 85 8 84 9 8 10 7 11 3 14 2 15
REMARK SMILES IDX 1 16 4 17 5 18 6 19 15 20 16 21 17 22 18 23 19 24 20 26
REMARK SMILES IDX 21 27 22 28 83 29 23 30 82 31 24 32 25 33 26 34 76 35 27 36
REMARK SMILES IDX 81 37 75 38 77 39 28 40 80 41 74 42 73 43 29 45 61 46 41 47
REMARK SMILES IDX 60 48 42 49 45 50 59 51 78 52 43 53 44 54 58 56 79 57 46 58
REMARK SMILES IDX 30 59 31 60 39 61 32 62 33 63 37 64 40 65 34 66 35 67 38 68
REMARK SMILES IDX 36 69 62 70 63 71 71 72 64 73 65 74 69 75 72 76 66 77 67 78
REMARK SMILES IDX 70 79 68 80 47 81 48 82 56 83 49 84 50 85 54 86 57 87 51 88
REMARK SMILES IDX 52 89 55 90 53 91
REMARK H PARENT 14 4 7 12 7 13 18 25 77 44 45 55
REMARK Flexibility Score: inf
ROOT
ATOM      1  C   UNL     1       0.874  -1.098  -5.912  1.00  0.00     0.252 C 
ATOM      2  O   UNL     1       0.373  -1.671  -6.882  1.00  0.00    -0.269 OA
ATOM      3  N   UNL     1       1.492  -1.908  -4.988  1.00  0.00    -0.352 N 
ATOM      4  H   UNL     1       1.505  -2.856  -5.254  1.00  0.00     0.163 HD
ENDROOT
BRANCH   1   5
ATOM      5  C   UNL     1       0.720   0.351  -5.729  1.00  0.00     0.051 A 
ATOM      6  C   UNL     1       0.786   2.471  -4.727  1.00  0.00     0.059 A 
ATOM      7  C   UNL     1       1.480   1.295  -4.960  1.00  0.00     0.035 A 
ATOM      8  S   UNL     1      -0.476   2.654  -5.864  1.00  0.00    -0.142 S 
ATOM      9  C   UNL     1      -0.292   1.035  -6.390  1.00  0.00     0.079 A 
BRANCH   6  10
ATOM     10  C   UNL     1       1.021   3.479  -3.635  1.00  0.00     0.308 C 
BRANCH  10  11
ATOM     11  N   UNL     1       0.237   3.224  -2.401  1.00  0.00    -0.339 N 
ATOM     12  H   UNL     1       0.496   3.931  -1.714  1.00  0.00     0.346 HD
ATOM     13  H   UNL     1      -0.743   3.260  -2.682  1.00  0.00     0.346 HD
BRANCH  11  14
ATOM     14  C   UNL     1       0.432   1.895  -1.782  1.00  0.00     0.196 C 
BRANCH  14  15
ATOM     15  C   UNL     1      -0.529   0.866  -2.442  1.00  0.00     0.063 C 
ATOM     16  C   UNL     1      -1.520   0.100  -1.583  1.00  0.00     0.010 C 
ENDBRANCH  14  15
BRANCH  14  17
ATOM     17  C   UNL     1       0.280   1.916  -0.247  1.00  0.00     0.184 C 
BRANCH  17  18
ATOM     18  C   UNL     1       1.214   2.820   0.433  1.00  0.00     0.068 C 
ATOM     19  N   UNL     1       1.943   3.494   1.039  1.00  0.00    -0.198 NA
ENDBRANCH  17  18
ENDBRANCH  14  17
ENDBRANCH  11  14
ENDBRANCH  10  11
ENDBRANCH   6  10
ENDBRANCH   1   5
BRANCH   3  20
ATOM     20  C   UNL     1       2.129  -1.669  -3.705  1.00  0.00     0.118 C 
BRANCH  20  21
ATOM     21  C   UNL     1       1.280  -2.122  -2.521  1.00  0.00     0.042 C 
BRANCH  21  22
ATOM     22  C   UNL     1       1.445  -3.581  -2.138  1.00  0.00     0.118 C 
BRANCH  22  23
ATOM     23  N   UNL     1       2.791  -3.887  -1.680  1.00  0.00    -0.352 N 
ATOM     24  C   UNL     1       3.251  -4.333  -0.468  1.00  0.00     0.251 C 
ATOM     25  H   UNL     1       3.492  -3.751  -2.357  1.00  0.00     0.163 HD
ATOM     26  O   UNL     1       4.459  -4.315  -0.249  1.00  0.00    -0.269 OA
BRANCH  24  27
ATOM     27  C   UNL     1       2.325  -4.825   0.578  1.00  0.00     0.039 A 
ATOM     28  C   UNL     1       2.669  -4.630   1.919  1.00  0.00     0.014 A 
ATOM     29  C   UNL     1       1.160  -5.527   0.261  1.00  0.00     0.014 A 
ATOM     30  C   UNL     1       1.831  -5.105   2.930  1.00  0.00     0.010 A 
ATOM     31  C   UNL     1       0.270  -5.898   1.265  1.00  0.00     0.010 A 
ATOM     32  C   UNL     1       0.609  -5.718   2.612  1.00  0.00    -0.014 A 
BRANCH  32  33
ATOM     33  C   UNL     1      -0.301  -6.212   3.678  1.00  0.00     0.031 A 
ATOM     34  C   UNL     1      -0.644  -7.676   3.762  1.00  0.00     0.074 A 
ATOM     35  C   UNL     1      -0.839  -5.339   4.552  1.00  0.00     0.049 A 
ATOM     36  N   UNL     1      -1.446  -8.292   4.594  1.00  0.00    -0.248 NA
ATOM     37  C   UNL     1      -0.027  -8.563   2.762  1.00  0.00     0.031 C 
ATOM     38  C   UNL     1      -0.618  -3.892   4.546  1.00  0.00     0.029 A 
ATOM     39  N   UNL     1      -1.685  -5.541   5.614  1.00  0.00    -0.354 N 
ATOM     40  C   UNL     1      -1.424  -9.630   4.219  1.00  0.00     0.074 A 
ATOM     41  C   UNL     1      -0.598  -9.725   3.037  1.00  0.00     0.031 C 
ATOM     42  C   UNL     1      -1.285  -3.341   5.572  1.00  0.00     0.029 A 
ATOM     43  C   UNL     1      -2.020  -4.386   6.277  1.00  0.00     0.049 A 
ATOM     44  H   UNL     1      -2.020  -6.429   5.875  1.00  0.00     0.167 HD
ATOM     45  C   UNL     1      -2.008 -10.690   4.827  1.00  0.00     0.037 A 
ATOM     46  C   UNL     1      -2.840  -4.190   7.327  1.00  0.00     0.037 A 
ATOM     47  C   UNL     1      -2.829 -10.591   6.006  1.00  0.00     0.049 A 
ATOM     48  C   UNL     1      -3.513  -5.381   7.957  1.00  0.00     0.074 A 
ATOM     49  C   UNL     1      -3.452 -11.605   6.712  1.00  0.00     0.029 A 
ATOM     50  N   UNL     1      -3.144  -9.403   6.650  1.00  0.00    -0.354 N 
ATOM     51  N   UNL     1      -3.439  -6.648   7.627  1.00  0.00    -0.248 NA
ATOM     52  C   UNL     1      -4.373  -5.115   9.117  1.00  0.00     0.031 C 
ATOM     53  C   UNL     1      -4.194 -11.025   7.745  1.00  0.00     0.029 A 
ATOM     54  C   UNL     1      -3.970  -9.658   7.734  1.00  0.00     0.049 A 
ATOM     55  H   UNL     1      -2.828  -8.511   6.378  1.00  0.00     0.167 HD
ATOM     56  C   UNL     1      -4.208  -7.332   8.560  1.00  0.00     0.074 A 
ATOM     57  C   UNL     1      -4.724  -6.340   9.479  1.00  0.00     0.031 C 
ATOM     58  C   UNL     1      -4.465  -8.661   8.648  1.00  0.00     0.037 A 
BRANCH  45  59
ATOM     59  C   UNL     1      -1.774 -12.051   4.230  1.00  0.00     0.064 A 
ATOM     60  C   UNL     1      -0.505 -12.651   4.243  1.00  0.00     0.173 A 
ATOM     61  C   UNL     1      -2.835 -12.780   3.672  1.00  0.00     0.173 A 
ATOM     62  F   UNL     1       0.548 -11.995   4.753  1.00  0.00    -0.203 F 
ATOM     63  C   UNL     1      -0.300 -13.913   3.690  1.00  0.00     0.198 A 
ATOM     64  C   UNL     1      -2.635 -14.058   3.156  1.00  0.00     0.198 A 
ATOM     65  F   UNL     1      -4.071 -12.260   3.637  1.00  0.00    -0.203 F 
ATOM     66  F   UNL     1       0.932 -14.438   3.661  1.00  0.00    -0.200 F 
ATOM     67  C   UNL     1      -1.367 -14.619   3.156  1.00  0.00     0.200 A 
ATOM     68  F   UNL     1      -3.670 -14.747   2.656  1.00  0.00    -0.200 F 
ATOM     69  F   UNL     1      -1.171 -15.838   2.634  1.00  0.00    -0.200 F 
ENDBRANCH  45  59
BRANCH  46  70
ATOM     70  C   UNL     1      -3.074  -2.816   7.849  1.00  0.00     0.064 A 
ATOM     71  C   UNL     1      -2.666  -2.446   9.139  1.00  0.00     0.173 A 
ATOM     72  C   UNL     1      -3.744  -1.852   7.080  1.00  0.00     0.173 A 
ATOM     73  F   UNL     1      -2.034  -3.334   9.921  1.00  0.00    -0.203 F 
ATOM     74  C   UNL     1      -2.956  -1.184   9.653  1.00  0.00     0.198 A 
ATOM     75  C   UNL     1      -3.997  -0.577   7.580  1.00  0.00     0.198 A 
ATOM     76  F   UNL     1      -4.148  -2.147   5.835  1.00  0.00    -0.203 F 
ATOM     77  F   UNL     1      -2.619  -0.884  10.915  1.00  0.00    -0.200 F 
ATOM     78  C   UNL     1      -3.618  -0.249   8.872  1.00  0.00     0.200 A 
ATOM     79  F   UNL     1      -4.618   0.329   6.813  1.00  0.00    -0.200 F 
ATOM     80  F   UNL     1      -3.901   0.963   9.368  1.00  0.00    -0.200 F 
ENDBRANCH  46  70
BRANCH  58  81
ATOM     81  C   UNL     1      -5.291  -9.127   9.816  1.00  0.00     0.064 A 
ATOM     82  C   UNL     1      -6.649  -8.802   9.947  1.00  0.00     0.173 A 
ATOM     83  C   UNL     1      -4.712  -9.930  10.812  1.00  0.00     0.173 A 
ATOM     84  F   UNL     1      -7.251  -8.029   9.030  1.00  0.00    -0.203 F 
ATOM     85  C   UNL     1      -7.383  -9.223  11.053  1.00  0.00     0.198 A 
ATOM     86  C   UNL     1      -5.460 -10.386  11.893  1.00  0.00     0.198 A 
ATOM     87  F   UNL     1      -3.420 -10.283  10.732  1.00  0.00    -0.203 F 
ATOM     88  F   UNL     1      -8.659  -8.838  11.193  1.00  0.00    -0.200 F 
ATOM     89  C   UNL     1      -6.791 -10.020  12.021  1.00  0.00     0.200 A 
ATOM     90  F   UNL     1      -4.891 -11.175  12.814  1.00  0.00    -0.200 F 
ATOM     91  F   UNL     1      -7.500 -10.428  13.082  1.00  0.00    -0.200 F 
ENDBRANCH  58  81
ENDBRANCH  32  33
ENDBRANCH  24  27
ENDBRANCH  22  23
ENDBRANCH  21  22
ENDBRANCH  20  21
ENDBRANCH   3  20
TORSDOF 16
