REMARK SMILES O=C(NCCCNC(=O)c1ccc(C[NH2+]Cc2cc(F)ccc2F)nc1)c1ccc(-c2c3nc(c(-c4c(F)c(F)c(F)c(F)c4F)c4ccc([nH]4)c(-c4c(F)c(F)c(F)c(F)c4F)c4nc(c(-c5c(F)c(F)c(F)c(F)c5F)c5ccc2[nH]5)C=C4)C=C3)cc1
REMARK SMILES IDX 6 1 5 2 4 3 3 4 1 5 2 6 27 8 28 9 89 10 29 11 88 12 30 13
REMARK SMILES IDX 31 14 32 15 82 16 33 17 87 18 81 19 83 20 34 21 86 22 80 23
REMARK SMILES IDX 79 24 35 26 67 27 47 28 66 29 48 30 51 31 65 32 84 33 49 34
REMARK SMILES IDX 50 35 64 37 85 38 52 39 36 40 37 41 45 42 38 43 39 44 43 45
REMARK SMILES IDX 46 46 40 47 41 48 44 49 42 50 68 51 69 52 77 53 70 54 71 55
REMARK SMILES IDX 75 56 78 57 72 58 73 59 76 60 74 61 53 62 54 63 62 64 55 65
REMARK SMILES IDX 56 66 60 67 63 68 57 69 58 70 61 71 59 72 7 73 8 74 9 76
REMARK SMILES IDX 10 77 11 78 26 79 12 80 25 81 13 82 14 83 15 84 16 87 17 88
REMARK SMILES IDX 18 89 23 90 19 91 22 92 24 93 20 94 21 95
REMARK H PARENT 3 7 83 25 51 36 7 75 15 85 15 86
REMARK Flexibility Score: inf
ROOT
ATOM      1  C   UNL     1       4.338  -3.756  -0.089  1.00  0.00     0.118 C 
ENDROOT
BRANCH   1   2
ATOM      2  C   UNL     1       4.899  -2.419   0.378  1.00  0.00     0.042 C 
BRANCH   2   3
ATOM      3  C   UNL     1       4.552  -1.243  -0.523  1.00  0.00     0.118 C 
BRANCH   3   4
ATOM      4  N   UNL     1       3.120  -0.977  -0.593  1.00  0.00    -0.352 N 
ATOM      5  O   UNL     1       1.167   0.067  -0.192  1.00  0.00    -0.269 OA
ATOM      6  C   UNL     1       2.393   0.115  -0.182  1.00  0.00     0.251 C 
ATOM      7  H   UNL     1       2.587  -1.697  -1.000  1.00  0.00     0.163 HD
BRANCH   6   8
ATOM      8  C   UNL     1       3.076   1.335   0.300  1.00  0.00     0.039 A 
ATOM      9  C   UNL     1       4.211   1.827  -0.344  1.00  0.00     0.014 A 
ATOM     10  C   UNL     1       2.561   2.010   1.412  1.00  0.00     0.014 A 
ATOM     11  C   UNL     1       4.931   2.871   0.224  1.00  0.00     0.010 A 
ATOM     12  C   UNL     1       3.230   3.127   1.922  1.00  0.00     0.010 A 
ATOM     13  C   UNL     1       4.447   3.540   1.359  1.00  0.00    -0.014 A 
BRANCH  13  14
ATOM     14  C   UNL     1       5.215   4.687   1.910  1.00  0.00     0.031 A 
ATOM     15  C   UNL     1       5.803   4.633   3.294  1.00  0.00     0.074 A 
ATOM     16  C   UNL     1       5.419   5.768   1.131  1.00  0.00     0.049 A 
ATOM     17  N   UNL     1       6.512   5.538   3.923  1.00  0.00    -0.248 NA
ATOM     18  C   UNL     1       5.563   3.413   4.081  1.00  0.00     0.031 C 
ATOM     19  C   UNL     1       4.893   5.936  -0.226  1.00  0.00     0.029 A 
ATOM     20  N   UNL     1       6.136   6.916   1.352  1.00  0.00    -0.354 N 
ATOM     21  C   UNL     1       6.785   5.007   5.176  1.00  0.00     0.074 A 
ATOM     22  C   UNL     1       6.146   3.711   5.235  1.00  0.00     0.031 C 
ATOM     23  C   UNL     1       5.347   7.090  -0.734  1.00  0.00     0.029 A 
ATOM     24  C   UNL     1       6.137   7.777   0.281  1.00  0.00     0.049 A 
ATOM     25  H   UNL     1       6.605   7.105   2.196  1.00  0.00     0.167 HD
ATOM     26  C   UNL     1       7.516   5.550   6.179  1.00  0.00     0.037 A 
ATOM     27  C   UNL     1       6.695   8.993   0.136  1.00  0.00     0.037 A 
ATOM     28  C   UNL     1       8.181   6.825   6.101  1.00  0.00     0.049 A 
ATOM     29  C   UNL     1       7.474   9.580   1.279  1.00  0.00     0.074 A 
ATOM     30  C   UNL     1       8.986   7.433   7.050  1.00  0.00     0.029 A 
ATOM     31  N   UNL     1       8.122   7.685   5.016  1.00  0.00    -0.354 N 
ATOM     32  N   UNL     1       7.752   9.050   2.445  1.00  0.00    -0.248 NA
ATOM     33  C   UNL     1       8.010  10.935   1.091  1.00  0.00     0.031 C 
ATOM     34  C   UNL     1       9.375   8.681   6.557  1.00  0.00     0.029 A 
ATOM     35  C   UNL     1       8.852   8.832   5.283  1.00  0.00     0.049 A 
ATOM     36  H   UNL     1       7.634   7.507   4.179  1.00  0.00     0.167 HD
ATOM     37  C   UNL     1       8.498  10.001   3.126  1.00  0.00     0.074 A 
ATOM     38  C   UNL     1       8.655  11.130   2.233  1.00  0.00     0.031 C 
ATOM     39  C   UNL     1       8.999   9.945   4.383  1.00  0.00     0.037 A 
BRANCH  26  40
ATOM     40  C   UNL     1       7.652   4.779   7.459  1.00  0.00     0.064 A 
ATOM     41  C   UNL     1       7.029   5.237   8.631  1.00  0.00     0.173 A 
ATOM     42  C   UNL     1       8.489   3.659   7.555  1.00  0.00     0.173 A 
ATOM     43  F   UNL     1       6.226   6.311   8.595  1.00  0.00    -0.203 F 
ATOM     44  C   UNL     1       7.258   4.613   9.855  1.00  0.00     0.198 A 
ATOM     45  C   UNL     1       8.696   3.022   8.776  1.00  0.00     0.198 A 
ATOM     46  F   UNL     1       9.100   3.178   6.462  1.00  0.00    -0.203 F 
ATOM     47  F   UNL     1       6.684   5.092  10.968  1.00  0.00    -0.200 F 
ATOM     48  C   UNL     1       8.091   3.507   9.927  1.00  0.00     0.200 A 
ATOM     49  F   UNL     1       9.488   1.943   8.842  1.00  0.00    -0.200 F 
ATOM     50  F   UNL     1       8.313   2.909  11.105  1.00  0.00    -0.200 F 
ENDBRANCH  26  40
BRANCH  27  51
ATOM     51  C   UNL     1       6.520   9.739  -1.138  1.00  0.00     0.064 A 
ATOM     52  C   UNL     1       5.261  10.215  -1.534  1.00  0.00     0.173 A 
ATOM     53  C   UNL     1       7.606   9.978  -1.990  1.00  0.00     0.173 A 
ATOM     54  F   UNL     1       4.189  10.010  -0.755  1.00  0.00    -0.203 F 
ATOM     55  C   UNL     1       5.092  10.885  -2.743  1.00  0.00     0.198 A 
ATOM     56  C   UNL     1       7.441  10.676  -3.185  1.00  0.00     0.198 A 
ATOM     57  F   UNL     1       8.832   9.559  -1.645  1.00  0.00    -0.203 F 
ATOM     58  F   UNL     1       3.872  11.297  -3.114  1.00  0.00    -0.200 F 
ATOM     59  C   UNL     1       6.184  11.121  -3.564  1.00  0.00     0.200 A 
ATOM     60  F   UNL     1       8.503  10.927  -3.963  1.00  0.00    -0.200 F 
ATOM     61  F   UNL     1       6.025  11.784  -4.718  1.00  0.00    -0.200 F 
ENDBRANCH  27  51
BRANCH  39  62
ATOM     62  C   UNL     1       9.769  11.134   4.874  1.00  0.00     0.064 A 
ATOM     63  C   UNL     1      11.157  11.058   5.063  1.00  0.00     0.173 A 
ATOM     64  C   UNL     1       9.119  12.325   5.230  1.00  0.00     0.173 A 
ATOM     65  F   UNL     1      11.822   9.938   4.744  1.00  0.00    -0.203 F 
ATOM     66  C   UNL     1      11.864  12.125   5.609  1.00  0.00     0.198 A 
ATOM     67  C   UNL     1       9.833  13.400   5.750  1.00  0.00     0.198 A 
ATOM     68  F   UNL     1       7.795  12.449   5.053  1.00  0.00    -0.203 F 
ATOM     69  F   UNL     1      13.184  12.018   5.814  1.00  0.00    -0.200 F 
ATOM     70  C   UNL     1      11.202  13.296   5.949  1.00  0.00     0.200 A 
ATOM     71  F   UNL     1       9.197  14.539   6.056  1.00  0.00    -0.200 F 
ATOM     72  F   UNL     1      11.885  14.326   6.467  1.00  0.00    -0.200 F 
ENDBRANCH  39  62
ENDBRANCH  13  14
ENDBRANCH   6   8
ENDBRANCH   3   4
ENDBRANCH   2   3
ENDBRANCH   1   2
BRANCH   1  73
ATOM     73  N   UNL     1       4.812  -4.119  -1.416  1.00  0.00    -0.352 N 
ATOM     74  C   UNL     1       5.712  -5.079  -1.802  1.00  0.00     0.252 C 
ATOM     75  H   UNL     1       4.426  -3.591  -2.153  1.00  0.00     0.163 HD
ATOM     76  O   UNL     1       6.166  -5.065  -2.942  1.00  0.00    -0.269 OA
BRANCH  74  77
ATOM     77  C   UNL     1       6.146  -6.119  -0.859  1.00  0.00     0.058 A 
ATOM     78  C   UNL     1       5.249  -6.839  -0.073  1.00  0.00     0.017 A 
ATOM     79  C   UNL     1       7.492  -6.433  -0.778  1.00  0.00     0.125 A 
ATOM     80  C   UNL     1       5.740  -7.782   0.825  1.00  0.00     0.030 A 
ATOM     81  N   UNL     1       7.997  -7.340   0.093  1.00  0.00    -0.255 NA
ATOM     82  C   UNL     1       7.119  -7.995   0.893  1.00  0.00     0.094 A 
BRANCH  82  83
ATOM     83  C   UNL     1       7.682  -8.968   1.911  1.00  0.00     0.318 C 
BRANCH  83  84
ATOM     84  N   UNL     1       7.533 -10.365   1.513  1.00  0.00    -0.337 N 
ATOM     85  H   UNL     1       8.107 -10.529   0.686  1.00  0.00     0.346 HD
ATOM     86  H   UNL     1       6.542 -10.523   1.330  1.00  0.00     0.346 HD
BRANCH  84  87
ATOM     87  C   UNL     1       7.936 -11.310   2.552  1.00  0.00     0.300 C 
BRANCH  87  88
ATOM     88  C   UNL     1       6.781 -11.823   3.379  1.00  0.00     0.045 A 
ATOM     89  C   UNL     1       6.046 -10.984   4.230  1.00  0.00     0.051 A 
ATOM     90  C   UNL     1       6.423 -13.177   3.328  1.00  0.00     0.132 A 
ATOM     91  C   UNL     1       4.973 -11.487   4.962  1.00  0.00     0.123 A 
ATOM     92  C   UNL     1       5.357 -13.682   4.075  1.00  0.00     0.043 A 
ATOM     93  F   UNL     1       7.113 -14.026   2.554  1.00  0.00    -0.206 F 
ATOM     94  F   UNL     1       4.271 -10.659   5.746  1.00  0.00    -0.207 F 
ATOM     95  C   UNL     1       4.620 -12.828   4.891  1.00  0.00     0.042 A 
ENDBRANCH  87  88
ENDBRANCH  84  87
ENDBRANCH  83  84
ENDBRANCH  82  83
ENDBRANCH  74  77
ENDBRANCH   1  73
TORSDOF 14
