REMARK SMILES COCCN1C(=O)C[C@H](C(=O)NCCCNC(=O)c2ccc(-c3c4nc(c(-c5c(F)c(F)c(F)c(F)c5F)c5ccc([nH]5)c(-c5c(F)c(F)c(F)c(F)c5F)c5nc(c(-c6c(F)c(F)c(F)c(F)c6F)c6ccc3[nH]6)C=C5)C=C4)cc2)[C@@H]1c1ccccc1N1CCOCC1
REMARK SMILES IDX 13 1 12 2 10 3 11 4 9 6 5 7 6 8 82 9 7 10 8 11 4 12 3 13
REMARK SMILES IDX 2 14 1 15 83 16 84 17 88 18 85 19 87 20 86 21 89 22 90 23
REMARK SMILES IDX 94 24 91 25 93 26 92 27 14 28 15 29 16 30 17 31 18 33 19 34
REMARK SMILES IDX 20 35 81 36 21 37 80 38 22 39 23 40 24 41 74 42 25 43 79 44
REMARK SMILES IDX 73 45 75 46 26 47 78 48 72 49 71 50 27 52 59 53 39 54 58 55
REMARK SMILES IDX 40 56 43 57 57 58 76 59 41 60 42 61 56 63 77 64 44 65 28 66
REMARK SMILES IDX 29 67 37 68 30 69 31 70 35 71 38 72 32 73 33 74 36 75 34 76
REMARK SMILES IDX 60 77 61 78 69 79 62 80 63 81 67 82 70 83 64 84 65 85 68 86
REMARK SMILES IDX 66 87 45 88 46 89 54 90 47 91 48 92 52 93 55 94 49 95 50 96
REMARK SMILES IDX 53 97 51 98
REMARK H PARENT 12 5 16 32 75 51 43 62
REMARK Flexibility Score: inf
ROOT
ATOM      1  C   UNL     1      -0.645   0.226   5.280  1.00  0.00     0.117 C 
ENDROOT
BRANCH   1   2
ATOM      2  N   UNL     1       0.564  -0.570   5.367  1.00  0.00    -0.356 N 
ATOM      3  C   UNL     1       1.587  -0.689   4.487  1.00  0.00     0.226 C 
ATOM      4  O   UNL     1       2.518  -1.437   4.801  1.00  0.00    -0.275 OA
ATOM      5  H   UNL     1       0.655  -1.103   6.190  1.00  0.00     0.163 HD
BRANCH   3   6
ATOM      6  C   UNL     1       1.546  -0.081   3.112  1.00  0.00     0.115 C 
ATOM      7  N   UNL     1       0.575   1.505   1.705  1.00  0.00    -0.332 N 
ATOM      8  C   UNL     1      -0.189   0.367   1.518  1.00  0.00     0.224 C 
ATOM      9  C   UNL     1       1.471   1.442   2.872  1.00  0.00     0.130 C 
ATOM     10  O   UNL     1      -1.147   0.235   0.779  1.00  0.00    -0.275 OA
ATOM     11  C   UNL     1       0.409  -0.739   2.323  1.00  0.00     0.116 C 
BRANCH   7  12
ATOM     12  C   UNL     1       0.570   2.590   0.725  1.00  0.00     0.148 C 
BRANCH  12  13
ATOM     13  C   UNL     1       1.469   2.310  -0.491  1.00  0.00     0.181 C 
BRANCH  13  14
ATOM     14  O   UNL     1       0.981   1.212  -1.261  1.00  0.00    -0.383 OA
ATOM     15  C   UNL     1       1.776   0.041  -1.147  1.00  0.00     0.194 C 
ENDBRANCH  13  14
ENDBRANCH  12  13
ENDBRANCH   7  12
BRANCH   9  16
ATOM     16  C   UNL     1       1.083   2.418   3.999  1.00  0.00    -0.001 A 
ATOM     17  C   UNL     1      -0.090   3.212   3.853  1.00  0.00     0.008 A 
ATOM     18  C   UNL     1       1.825   2.564   5.206  1.00  0.00     0.042 A 
ATOM     19  C   UNL     1      -0.523   4.112   4.827  1.00  0.00     0.001 A 
ATOM     20  C   UNL     1       1.366   3.504   6.164  1.00  0.00     0.026 A 
ATOM     21  C   UNL     1       0.211   4.262   5.986  1.00  0.00     0.002 A 
BRANCH  18  22
ATOM     22  N   UNL     1       2.927   1.758   5.516  1.00  0.00    -0.367 N 
ATOM     23  C   UNL     1       4.210   2.079   4.867  1.00  0.00     0.145 C 
ATOM     24  C   UNL     1       3.104   1.341   6.935  1.00  0.00     0.145 C 
ATOM     25  C   UNL     1       5.187   0.905   5.058  1.00  0.00     0.181 C 
ATOM     26  C   UNL     1       4.170   0.244   7.073  1.00  0.00     0.181 C 
ATOM     27  O   UNL     1       5.405   0.630   6.452  1.00  0.00    -0.378 OA
ENDBRANCH  18  22
ENDBRANCH   9  16
ENDBRANCH   3   6
ENDBRANCH   1   2
BRANCH   1  28
ATOM     28  C   UNL     1      -1.838  -0.497   5.857  1.00  0.00     0.042 C 
BRANCH  28  29
ATOM     29  C   UNL     1      -1.733  -0.603   7.368  1.00  0.00     0.118 C 
BRANCH  29  30
ATOM     30  N   UNL     1      -1.922   0.682   8.038  1.00  0.00    -0.352 N 
ATOM     31  C   UNL     1      -2.948   1.089   8.857  1.00  0.00     0.251 C 
ATOM     32  H   UNL     1      -1.216   1.350   7.880  1.00  0.00     0.163 HD
ATOM     33  O   UNL     1      -3.053   2.257   9.209  1.00  0.00    -0.269 OA
BRANCH  31  34
ATOM     34  C   UNL     1      -3.948   0.088   9.274  1.00  0.00     0.039 A 
ATOM     35  C   UNL     1      -5.305   0.364   9.110  1.00  0.00     0.014 A 
ATOM     36  C   UNL     1      -3.523  -1.161   9.730  1.00  0.00     0.014 A 
ATOM     37  C   UNL     1      -6.236  -0.655   9.316  1.00  0.00     0.010 A 
ATOM     38  C   UNL     1      -4.435  -2.201   9.805  1.00  0.00     0.010 A 
ATOM     39  C   UNL     1      -5.803  -1.958   9.613  1.00  0.00    -0.014 A 
BRANCH  39  40
ATOM     40  C   UNL     1      -6.754  -3.086   9.764  1.00  0.00     0.031 A 
ATOM     41  C   UNL     1      -6.803  -3.840  11.065  1.00  0.00     0.074 A 
ATOM     42  C   UNL     1      -7.498  -3.490   8.716  1.00  0.00     0.049 A 
ATOM     43  N   UNL     1      -7.460  -4.929  11.370  1.00  0.00    -0.248 NA
ATOM     44  C   UNL     1      -5.957  -3.327  12.157  1.00  0.00     0.031 C 
ATOM     45  C   UNL     1      -7.488  -2.886   7.382  1.00  0.00     0.029 A 
ATOM     46  N   UNL     1      -8.402  -4.517   8.607  1.00  0.00    -0.354 N 
ATOM     47  C   UNL     1      -7.077  -5.247  12.666  1.00  0.00     0.074 A 
ATOM     48  C   UNL     1      -6.081  -4.279  13.067  1.00  0.00     0.031 C 
ATOM     49  C   UNL     1      -8.368  -3.531   6.600  1.00  0.00     0.029 A 
ATOM     50  C   UNL     1      -8.977  -4.616   7.364  1.00  0.00     0.049 A 
ATOM     51  H   UNL     1      -8.617  -5.125   9.350  1.00  0.00     0.167 HD
ATOM     52  C   UNL     1      -7.538  -6.237  13.465  1.00  0.00     0.037 A 
ATOM     53  C   UNL     1      -9.892  -5.486   6.897  1.00  0.00     0.037 A 
ATOM     54  C   UNL     1      -8.574  -7.157  13.083  1.00  0.00     0.049 A 
ATOM     55  C   UNL     1     -10.425  -6.549   7.819  1.00  0.00     0.074 A 
ATOM     56  C   UNL     1      -9.174  -8.145  13.842  1.00  0.00     0.029 A 
ATOM     57  N   UNL     1      -9.172  -7.191  11.832  1.00  0.00    -0.354 N 
ATOM     58  N   UNL     1     -10.107  -6.798   9.066  1.00  0.00    -0.248 NA
ATOM     59  C   UNL     1     -11.452  -7.446   7.271  1.00  0.00     0.031 C 
ATOM     60  C   UNL     1     -10.115  -8.798  13.040  1.00  0.00     0.029 A 
ATOM     61  C   UNL     1     -10.129  -8.190  11.794  1.00  0.00     0.049 A 
ATOM     62  H   UNL     1      -8.948  -6.593  11.082  1.00  0.00     0.167 HD
ATOM     63  C   UNL     1     -10.909  -7.860   9.460  1.00  0.00     0.074 A 
ATOM     64  C   UNL     1     -11.740  -8.199   8.323  1.00  0.00     0.031 C 
ATOM     65  C   UNL     1     -10.954  -8.498  10.655  1.00  0.00     0.037 A 
BRANCH  52  66
ATOM     66  C   UNL     1      -6.936  -6.356  14.834  1.00  0.00     0.064 A 
ATOM     67  C   UNL     1      -7.167  -5.391  15.826  1.00  0.00     0.173 A 
ATOM     68  C   UNL     1      -6.125  -7.453  15.162  1.00  0.00     0.173 A 
ATOM     69  F   UNL     1      -7.921  -4.314  15.558  1.00  0.00    -0.203 F 
ATOM     70  C   UNL     1      -6.580  -5.500  17.084  1.00  0.00     0.198 A 
ATOM     71  C   UNL     1      -5.566  -7.575  16.432  1.00  0.00     0.198 A 
ATOM     72  F   UNL     1      -5.874  -8.405  14.252  1.00  0.00    -0.203 F 
ATOM     73  F   UNL     1      -6.766  -4.533  17.994  1.00  0.00    -0.200 F 
ATOM     74  C   UNL     1      -5.785  -6.594  17.387  1.00  0.00     0.200 A 
ATOM     75  F   UNL     1      -4.806  -8.639  16.728  1.00  0.00    -0.200 F 
ATOM     76  F   UNL     1      -5.222  -6.699  18.599  1.00  0.00    -0.200 F 
ENDBRANCH  52  66
BRANCH  53  77
ATOM     77  C   UNL     1     -10.395  -5.361   5.505  1.00  0.00     0.064 A 
ATOM     78  C   UNL     1     -11.700  -4.913   5.254  1.00  0.00     0.173 A 
ATOM     79  C   UNL     1      -9.592  -5.681   4.402  1.00  0.00     0.173 A 
ATOM     80  F   UNL     1     -12.512  -4.613   6.278  1.00  0.00    -0.203 F 
ATOM     81  C   UNL     1     -12.189  -4.809   3.954  1.00  0.00     0.198 A 
ATOM     82  C   UNL     1     -10.073  -5.552   3.100  1.00  0.00     0.198 A 
ATOM     83  F   UNL     1      -8.334  -6.108   4.588  1.00  0.00    -0.203 F 
ATOM     84  F   UNL     1     -13.453  -4.418   3.745  1.00  0.00    -0.200 F 
ATOM     85  C   UNL     1     -11.373  -5.123   2.877  1.00  0.00     0.200 A 
ATOM     86  F   UNL     1      -9.279  -5.846   2.062  1.00  0.00    -0.200 F 
ATOM     87  F   UNL     1     -11.843  -5.021   1.626  1.00  0.00    -0.200 F 
ENDBRANCH  53  77
BRANCH  65  88
ATOM     88  C   UNL     1     -11.959  -9.600  10.807  1.00  0.00     0.064 A 
ATOM     89  C   UNL     1     -11.778 -10.848  10.193  1.00  0.00     0.173 A 
ATOM     90  C   UNL     1     -13.089  -9.420  11.618  1.00  0.00     0.173 A 
ATOM     91  F   UNL     1     -10.720 -11.062   9.398  1.00  0.00    -0.203 F 
ATOM     92  C   UNL     1     -12.706 -11.870  10.370  1.00  0.00     0.198 A 
ATOM     93  C   UNL     1     -14.000 -10.453  11.814  1.00  0.00     0.198 A 
ATOM     94  F   UNL     1     -13.301  -8.246  12.232  1.00  0.00    -0.203 F 
ATOM     95  F   UNL     1     -12.536 -13.041   9.742  1.00  0.00    -0.200 F 
ATOM     96  C   UNL     1     -13.811 -11.675  11.185  1.00  0.00     0.200 A 
ATOM     97  F   UNL     1     -15.060 -10.267  12.613  1.00  0.00    -0.200 F 
ATOM     98  F   UNL     1     -14.699 -12.663  11.361  1.00  0.00    -0.200 F 
ENDBRANCH  65  88
ENDBRANCH  39  40
ENDBRANCH  31  34
ENDBRANCH  29  30
ENDBRANCH  28  29
ENDBRANCH   1  28
TORSDOF 15
