REMARK SMILES O=C(NCCCNC(=O)c1ccc(-c2c3nc(c(-c4c(F)c(F)c(F)c(F)c4F)c4ccc([nH]4)c(-c4c(F)c(F)c(F)c(F)c4F)c4nc(c(-c5c(F)c(F)c(F)c(F)c5F)c5ccc2[nH]5)C=C4)C=C3)cc1)C1=Cc2cc(Cl)c(Cl)cc2O[C@@H]1C(F)(F)F
REMARK SMILES IDX 5 1 4 2 3 3 1 4 2 5 73 7 74 8 84 9 75 10 83 11 76 12 82 13
REMARK SMILES IDX 77 14 81 15 78 16 79 17 80 18 85 19 86 20 87 21 88 22 6 23
REMARK SMILES IDX 7 24 8 25 9 27 10 28 11 29 72 30 12 31 71 32 13 33 14 34
REMARK SMILES IDX 15 35 65 36 16 37 70 38 64 39 66 40 17 41 69 42 63 43 62 44
REMARK SMILES IDX 18 46 50 47 30 48 49 49 31 50 34 51 48 52 67 53 32 54 33 55
REMARK SMILES IDX 47 57 68 58 35 59 19 60 20 61 28 62 21 63 22 64 26 65 29 66
REMARK SMILES IDX 23 67 24 68 27 69 25 70 51 71 52 72 60 73 53 74 54 75 58 76
REMARK SMILES IDX 61 77 55 78 56 79 59 80 57 81 36 82 37 83 45 84 38 85 39 86
REMARK SMILES IDX 43 87 46 88 40 89 41 90 44 91 42 92
REMARK H PARENT 3 6 7 26 66 45 34 56
REMARK Flexibility Score: inf
ROOT
ATOM      1  C   UNL     1       4.165   1.464   2.307  1.00  0.00     0.042 C 
ENDROOT
BRANCH   1   2
ATOM      2  C   UNL     1       3.370   0.396   1.567  1.00  0.00     0.118 C 
BRANCH   2   3
ATOM      3  N   UNL     1       2.353   0.950   0.673  1.00  0.00    -0.352 N 
ATOM      4  O   UNL     1       1.169   1.181  -1.244  1.00  0.00    -0.270 OA
ATOM      5  C   UNL     1       2.192   0.812  -0.684  1.00  0.00     0.251 C 
ATOM      6  H   UNL     1       1.675   1.510   1.115  1.00  0.00     0.163 HD
BRANCH   5   7
ATOM      7  C   UNL     1       3.268   0.131  -1.426  1.00  0.00     0.067 C 
ATOM      8  C   UNL     1       4.437   0.769  -1.572  1.00  0.00     0.025 C 
ATOM      9  C   UNL     1       3.128  -1.347  -1.621  1.00  0.00     0.314 C 
ATOM     10  C   UNL     1       5.573  -0.052  -1.128  1.00  0.00     0.019 A 
ATOM     11  O   UNL     1       4.212  -2.091  -1.011  1.00  0.00    -0.475 OA
ATOM     12  C   UNL     1       6.711   0.623  -0.670  1.00  0.00     0.034 A 
ATOM     13  C   UNL     1       5.369  -1.394  -0.755  1.00  0.00     0.129 A 
ATOM     14  C   UNL     1       7.575   0.001   0.238  1.00  0.00     0.060 A 
ATOM     15  C   UNL     1       6.255  -2.027   0.117  1.00  0.00     0.069 A 
ATOM     16  Cl  UNL     1       8.840   0.964   0.914  1.00  0.00    -0.083 Cl
ATOM     17  C   UNL     1       7.335  -1.317   0.647  1.00  0.00     0.063 A 
ATOM     18  Cl  UNL     1       8.271  -2.085   1.878  1.00  0.00    -0.083 Cl
BRANCH   9  19
ATOM     19  C   UNL     1       3.008  -1.687  -3.115  1.00  0.00     0.429 C 
ATOM     20  F   UNL     1       2.717  -2.997  -3.294  1.00  0.00    -0.167 F 
ATOM     21  F   UNL     1       2.024  -0.979  -3.717  1.00  0.00    -0.167 F 
ATOM     22  F   UNL     1       4.155  -1.435  -3.790  1.00  0.00    -0.167 F 
ENDBRANCH   9  19
ENDBRANCH   5   7
ENDBRANCH   2   3
ENDBRANCH   1   2
BRANCH   1  23
ATOM     23  C   UNL     1       4.034   1.335   3.817  1.00  0.00     0.118 C 
BRANCH  23  24
ATOM     24  N   UNL     1       4.625   0.118   4.362  1.00  0.00    -0.352 N 
ATOM     25  C   UNL     1       5.469  -0.063   5.441  1.00  0.00     0.251 C 
ATOM     26  H   UNL     1       4.384  -0.708   3.883  1.00  0.00     0.163 HD
ATOM     27  O   UNL     1       5.904  -1.170   5.692  1.00  0.00    -0.269 OA
BRANCH  25  28
ATOM     28  C   UNL     1       5.869   1.098   6.272  1.00  0.00     0.039 A 
ATOM     29  C   UNL     1       7.180   1.175   6.752  1.00  0.00     0.014 A 
ATOM     30  C   UNL     1       4.962   2.113   6.571  1.00  0.00     0.014 A 
ATOM     31  C   UNL     1       7.589   2.302   7.472  1.00  0.00     0.010 A 
ATOM     32  C   UNL     1       5.407   3.290   7.152  1.00  0.00     0.010 A 
ATOM     33  C   UNL     1       6.713   3.385   7.648  1.00  0.00    -0.014 A 
BRANCH  33  34
ATOM     34  C   UNL     1       7.098   4.597   8.415  1.00  0.00     0.031 A 
ATOM     35  C   UNL     1       6.287   4.994   9.623  1.00  0.00     0.074 A 
ATOM     36  C   UNL     1       8.109   5.377   7.989  1.00  0.00     0.049 A 
ATOM     37  N   UNL     1       6.370   6.069  10.366  1.00  0.00    -0.248 NA
ATOM     38  C   UNL     1       5.196   4.085  10.015  1.00  0.00     0.031 C 
ATOM     39  C   UNL     1       8.921   5.141   6.794  1.00  0.00     0.029 A 
ATOM     40  N   UNL     1       8.622   6.536   8.514  1.00  0.00    -0.354 N 
ATOM     41  C   UNL     1       5.321   5.979  11.274  1.00  0.00     0.074 A 
ATOM     42  C   UNL     1       4.567   4.794  10.938  1.00  0.00     0.031 C 
ATOM     43  C   UNL     1       9.856   6.102   6.700  1.00  0.00     0.029 A 
ATOM     44  C   UNL     1       9.686   7.038   7.806  1.00  0.00     0.049 A 
ATOM     45  H   UNL     1       8.262   6.968   9.322  1.00  0.00     0.167 HD
ATOM     46  C   UNL     1       5.036   6.785  12.323  1.00  0.00     0.037 A 
ATOM     47  C   UNL     1      10.442   8.129   8.034  1.00  0.00     0.037 A 
ATOM     48  C   UNL     1       5.833   7.923  12.693  1.00  0.00     0.049 A 
ATOM     49  C   UNL     1      10.146   8.977   9.242  1.00  0.00     0.074 A 
ATOM     50  C   UNL     1       5.686   8.768  13.777  1.00  0.00     0.029 A 
ATOM     51  N   UNL     1       6.944   8.363  11.987  1.00  0.00    -0.354 N 
ATOM     52  N   UNL     1       9.192   8.846  10.134  1.00  0.00    -0.248 NA
ATOM     53  C   UNL     1      11.043  10.113   9.486  1.00  0.00     0.031 C 
ATOM     54  C   UNL     1       6.688   9.743  13.707  1.00  0.00     0.029 A 
ATOM     55  C   UNL     1       7.490   9.473  12.609  1.00  0.00     0.049 A 
ATOM     56  H   UNL     1       7.293   7.947  11.165  1.00  0.00     0.167 HD
ATOM     57  C   UNL     1       9.394   9.860  11.060  1.00  0.00     0.074 A 
ATOM     58  C   UNL     1      10.573  10.585  10.631  1.00  0.00     0.031 C 
ATOM     59  C   UNL     1       8.671  10.168  12.166  1.00  0.00     0.037 A 
BRANCH  46  60
ATOM     60  C   UNL     1       3.828   6.446  13.151  1.00  0.00     0.064 A 
ATOM     61  C   UNL     1       3.769   5.279  13.932  1.00  0.00     0.173 A 
ATOM     62  C   UNL     1       2.712   7.295  13.164  1.00  0.00     0.173 A 
ATOM     63  F   UNL     1       4.801   4.422  13.943  1.00  0.00    -0.203 F 
ATOM     64  C   UNL     1       2.626   4.956  14.657  1.00  0.00     0.198 A 
ATOM     65  C   UNL     1       1.584   6.988  13.922  1.00  0.00     0.198 A 
ATOM     66  F   UNL     1       2.711   8.425  12.440  1.00  0.00    -0.203 F 
ATOM     67  F   UNL     1       2.570   3.801  15.335  1.00  0.00    -0.200 F 
ATOM     68  C   UNL     1       1.537   5.813  14.657  1.00  0.00     0.200 A 
ATOM     69  F   UNL     1       0.536   7.823  13.931  1.00  0.00    -0.200 F 
ATOM     70  F   UNL     1       0.437   5.501  15.357  1.00  0.00    -0.200 F 
ENDBRANCH  46  60
BRANCH  47  71
ATOM     71  C   UNL     1      11.584   8.447   7.136  1.00  0.00     0.064 A 
ATOM     72  C   UNL     1      12.906   8.311   7.583  1.00  0.00     0.173 A 
ATOM     73  C   UNL     1      11.384   8.891   5.822  1.00  0.00     0.173 A 
ATOM     74  F   UNL     1      13.150   7.906   8.839  1.00  0.00    -0.203 F 
ATOM     75  C   UNL     1      13.983   8.634   6.760  1.00  0.00     0.198 A 
ATOM     76  C   UNL     1      12.462   9.185   4.989  1.00  0.00     0.198 A 
ATOM     77  F   UNL     1      10.139   9.029   5.341  1.00  0.00    -0.203 F 
ATOM     78  F   UNL     1      15.234   8.543   7.231  1.00  0.00    -0.200 F 
ATOM     79  C   UNL     1      13.761   9.066   5.462  1.00  0.00     0.200 A 
ATOM     80  F   UNL     1      12.244   9.587   3.730  1.00  0.00    -0.200 F 
ATOM     81  F   UNL     1      14.796   9.373   4.669  1.00  0.00    -0.200 F 
ENDBRANCH  47  71
BRANCH  59  82
ATOM     82  C   UNL     1       9.166  11.307  13.009  1.00  0.00     0.064 A 
ATOM     83  C   UNL     1       9.095  12.637  12.569  1.00  0.00     0.173 A 
ATOM     84  C   UNL     1       9.703  11.063  14.282  1.00  0.00     0.173 A 
ATOM     85  F   UNL     1       8.601  12.921  11.354  1.00  0.00    -0.203 F 
ATOM     86  C   UNL     1       9.582  13.677  13.356  1.00  0.00     0.198 A 
ATOM     87  C   UNL     1      10.156  12.108  15.081  1.00  0.00     0.198 A 
ATOM     88  F   UNL     1       9.782   9.809  14.754  1.00  0.00    -0.203 F 
ATOM     89  F   UNL     1       9.564  14.933  12.889  1.00  0.00    -0.200 F 
ATOM     90  C   UNL     1      10.107  13.412  14.613  1.00  0.00     0.200 A 
ATOM     91  F   UNL     1      10.647  11.852  16.301  1.00  0.00    -0.200 F 
ATOM     92  F   UNL     1      10.575  14.414  15.369  1.00  0.00    -0.200 F 
ENDBRANCH  59  82
ENDBRANCH  33  34
ENDBRANCH  25  28
ENDBRANCH  23  24
ENDBRANCH   1  23
TORSDOF 11
