REMARK SMILES COc1ccc([C@H]2CC(c3ccc(S(C)(=O)=O)cc3)=NN2c2ccc(C(=O)NCCCNC(=O)c3ccc(-c4c5nc(c(-c6c(F)c(F)c(F)c(F)c6F)c6ccc([nH]6)c(-c6c(F)c(F)c(F)c(F)c6F)c6nc(c(-c7c(F)c(F)c(F)c(F)c7F)c7ccc4[nH]7)C=C6)C=C5)cc3)cc2)cc1
REMARK SMILES IDX 29 1 28 2 26 3 27 4 25 6 22 7 23 8 99 9 24 10 98 11 21 12
REMARK SMILES IDX 7 13 8 14 9 15 20 16 6 17 3 18 4 19 101 20 5 21 100 22 2 23
REMARK SMILES IDX 1 24 10 25 11 26 19 27 12 28 18 29 13 30 14 31 15 32 16 33
REMARK SMILES IDX 17 34 30 35 31 36 32 37 33 38 34 40 35 41 36 42 97 43 37 44
REMARK SMILES IDX 96 45 38 46 39 47 40 48 90 49 41 50 95 51 89 52 91 53 42 54
REMARK SMILES IDX 94 55 88 56 87 57 43 59 75 60 55 61 74 62 56 63 59 64 73 65
REMARK SMILES IDX 92 66 57 67 58 68 72 70 93 71 60 72 44 73 45 74 53 75 46 76
REMARK SMILES IDX 47 77 51 78 54 79 48 80 49 81 52 82 50 83 76 84 77 85 85 86
REMARK SMILES IDX 78 87 79 88 83 89 86 90 80 91 81 92 84 93 82 94 61 95 62 96
REMARK SMILES IDX 70 97 63 98 64 99 68 100 71 101 65 102 66 103 69 104 67 105
REMARK H PARENT 28 5 32 39 91 58 59 69
REMARK Flexibility Score: inf
ROOT
ATOM      1  C   UNL     1       0.874   9.886   1.567  1.00  0.00     0.118 C 
ENDROOT
BRANCH   1   2
ATOM      2  N   UNL     1       2.221   9.872   1.031  1.00  0.00    -0.352 N 
ATOM      3  C   UNL     1       3.309   9.078   1.286  1.00  0.00     0.251 C 
ATOM      4  O   UNL     1       4.328   9.293   0.629  1.00  0.00    -0.269 OA
ATOM      5  H   UNL     1       2.386  10.566   0.353  1.00  0.00     0.163 HD
BRANCH   3   6
ATOM      6  C   UNL     1       3.296   7.956   2.266  1.00  0.00     0.039 A 
ATOM      7  C   UNL     1       3.380   5.716   3.994  1.00  0.00     0.060 A 
ATOM      8  C   UNL     1       4.232   5.802   2.889  1.00  0.00     0.029 A 
ATOM      9  C   UNL     1       2.524   6.788   4.252  1.00  0.00     0.029 A 
ATOM     10  C   UNL     1       4.179   6.896   2.022  1.00  0.00     0.016 A 
ATOM     11  C   UNL     1       2.509   7.913   3.419  1.00  0.00     0.016 A 
BRANCH   7  12
ATOM     12  N   UNL     1       3.418   4.599   4.808  1.00  0.00    -0.257 N 
ATOM     13  C   UNL     1       2.265   3.760   5.129  1.00  0.00     0.144 C 
ATOM     14  C   UNL     1       2.829   2.806   6.192  1.00  0.00     0.091 C 
ATOM     15  C   UNL     1       4.211   3.376   6.345  1.00  0.00     0.071 C 
ATOM     16  N   UNL     1       4.514   4.367   5.569  1.00  0.00    -0.176 NA
BRANCH  13  17
ATOM     17  C   UNL     1       1.750   3.036   3.896  1.00  0.00    -0.023 A 
ATOM     18  C   UNL     1       0.785   1.716   1.595  1.00  0.00     0.118 A 
ATOM     19  C   UNL     1      -0.052   2.548   2.340  1.00  0.00     0.047 A 
ATOM     20  C   UNL     1       2.114   1.562   1.983  1.00  0.00     0.047 A 
ATOM     21  C   UNL     1       0.420   3.198   3.484  1.00  0.00     0.010 A 
ATOM     22  C   UNL     1       2.592   2.219   3.122  1.00  0.00     0.010 A 
BRANCH  18  23
ATOM     23  O   UNL     1       0.202   1.139   0.500  1.00  0.00    -0.497 OA
ATOM     24  C   UNL     1       0.860  -0.006  -0.031  1.00  0.00     0.278 C 
ENDBRANCH  18  23
ENDBRANCH  13  17
BRANCH  15  25
ATOM     25  C   UNL     1       5.143   2.859   7.348  1.00  0.00    -0.002 A 
ATOM     26  C   UNL     1       5.661   3.749   8.294  1.00  0.00     0.011 A 
ATOM     27  C   UNL     1       5.545   1.523   7.317  1.00  0.00     0.011 A 
ATOM     28  C   UNL     1       6.588   3.298   9.230  1.00  0.00     0.021 A 
ATOM     29  C   UNL     1       6.495   1.075   8.237  1.00  0.00     0.021 A 
ATOM     30  C   UNL     1       7.016   1.967   9.182  1.00  0.00     0.067 A 
BRANCH  30  31
ATOM     31  S   UNL     1       8.243   1.415  10.344  1.00  0.00     0.175 S 
ATOM     32  C   UNL     1       9.662   2.418   9.979  1.00  0.00     0.163 C 
ATOM     33  O   UNL     1       7.756   1.767  11.663  1.00  0.00    -0.224 OA
ATOM     34  O   UNL     1       8.579   0.044  10.009  1.00  0.00    -0.224 OA
ENDBRANCH  30  31
ENDBRANCH  15  25
ENDBRANCH   7  12
ENDBRANCH   3   6
ENDBRANCH   1   2
BRANCH   1  35
ATOM     35  C   UNL     1       0.720  10.972   2.633  1.00  0.00     0.042 C 
BRANCH  35  36
ATOM     36  C   UNL     1       0.696  12.387   2.059  1.00  0.00     0.118 C 
BRANCH  36  37
ATOM     37  N   UNL     1      -0.520  12.642   1.306  1.00  0.00    -0.352 N 
ATOM     38  C   UNL     1      -1.444  13.646   1.423  1.00  0.00     0.251 C 
ATOM     39  H   UNL     1      -0.711  11.988   0.596  1.00  0.00     0.163 HD
ATOM     40  O   UNL     1      -2.516  13.539   0.830  1.00  0.00    -0.269 OA
BRANCH  38  41
ATOM     41  C   UNL     1      -1.183  14.853   2.240  1.00  0.00     0.039 A 
ATOM     42  C   UNL     1      -2.262  15.442   2.908  1.00  0.00     0.014 A 
ATOM     43  C   UNL     1       0.072  15.470   2.275  1.00  0.00     0.014 A 
ATOM     44  C   UNL     1      -2.086  16.635   3.611  1.00  0.00     0.010 A 
ATOM     45  C   UNL     1       0.262  16.629   3.030  1.00  0.00     0.010 A 
ATOM     46  C   UNL     1      -0.820  17.237   3.683  1.00  0.00    -0.014 A 
BRANCH  46  47
ATOM     47  C   UNL     1      -0.639  18.528   4.394  1.00  0.00     0.031 A 
ATOM     48  C   UNL     1      -0.298  19.775   3.623  1.00  0.00     0.074 A 
ATOM     49  C   UNL     1      -0.762  18.576   5.734  1.00  0.00     0.049 A 
ATOM     50  N   UNL     1      -0.090  20.991   4.064  1.00  0.00    -0.248 NA
ATOM     51  C   UNL     1      -0.148  19.635   2.165  1.00  0.00     0.031 C 
ATOM     52  C   UNL     1      -1.046  17.429   6.598  1.00  0.00     0.029 A 
ATOM     53  N   UNL     1      -0.661  19.632   6.605  1.00  0.00    -0.354 N 
ATOM     54  C   UNL     1       0.232  21.750   2.946  1.00  0.00     0.074 A 
ATOM     55  C   UNL     1       0.233  20.854   1.811  1.00  0.00     0.031 C 
ATOM     56  C   UNL     1      -1.116  17.846   7.873  1.00  0.00     0.029 A 
ATOM     57  C   UNL     1      -0.858  19.283   7.919  1.00  0.00     0.049 A 
ATOM     58  H   UNL     1      -0.465  20.552   6.316  1.00  0.00     0.167 HD
ATOM     59  C   UNL     1       0.483  23.079   2.870  1.00  0.00     0.037 A 
ATOM     60  C   UNL     1      -0.834  20.038   9.033  1.00  0.00     0.037 A 
ATOM     61  C   UNL     1       0.433  23.979   3.992  1.00  0.00     0.049 A 
ATOM     62  C   UNL     1      -0.582  21.517   8.913  1.00  0.00     0.074 A 
ATOM     63  C   UNL     1       0.592  25.354   4.003  1.00  0.00     0.029 A 
ATOM     64  N   UNL     1       0.203  23.592   5.303  1.00  0.00    -0.354 N 
ATOM     65  N   UNL     1      -0.358  22.235   7.840  1.00  0.00    -0.248 NA
ATOM     66  C   UNL     1      -0.590  22.293  10.162  1.00  0.00     0.031 C 
ATOM     67  C   UNL     1       0.494  25.795   5.326  1.00  0.00     0.029 A 
ATOM     68  C   UNL     1       0.235  24.700   6.134  1.00  0.00     0.049 A 
ATOM     69  H   UNL     1       0.041  22.667   5.599  1.00  0.00     0.167 HD
ATOM     70  C   UNL     1      -0.226  23.546   8.278  1.00  0.00     0.074 A 
ATOM     71  C   UNL     1      -0.414  23.528   9.713  1.00  0.00     0.031 C 
ATOM     72  C   UNL     1       0.034  24.664   7.558  1.00  0.00     0.037 A 
BRANCH  59  73
ATOM     73  C   UNL     1       0.824  23.652   1.526  1.00  0.00     0.064 A 
ATOM     74  C   UNL     1      -0.147  23.809   0.526  1.00  0.00     0.173 A 
ATOM     75  C   UNL     1       2.123  24.111   1.258  1.00  0.00     0.173 A 
ATOM     76  F   UNL     1      -1.401  23.378   0.730  1.00  0.00    -0.203 F 
ATOM     77  C   UNL     1       0.174  24.388  -0.699  1.00  0.00     0.198 A 
ATOM     78  C   UNL     1       2.434  24.712   0.042  1.00  0.00     0.198 A 
ATOM     79  F   UNL     1       3.087  23.990   2.183  1.00  0.00    -0.203 F 
ATOM     80  F   UNL     1      -0.762  24.497  -1.652  1.00  0.00    -0.200 F 
ATOM     81  C   UNL     1       1.461  24.846  -0.937  1.00  0.00     0.200 A 
ATOM     82  F   UNL     1       3.675  25.165  -0.183  1.00  0.00    -0.200 F 
ATOM     83  F   UNL     1       1.764  25.416  -2.112  1.00  0.00    -0.200 F 
ENDBRANCH  59  73
BRANCH  60  84
ATOM     84  C   UNL     1      -1.079  19.420  10.362  1.00  0.00     0.064 A 
ATOM     85  C   UNL     1      -2.250  19.698  11.081  1.00  0.00     0.173 A 
ATOM     86  C   UNL     1      -0.138  18.564  10.952  1.00  0.00     0.173 A 
ATOM     87  F   UNL     1      -3.170  20.528  10.567  1.00  0.00    -0.203 F 
ATOM     88  C   UNL     1      -2.457  19.168  12.352  1.00  0.00     0.198 A 
ATOM     89  C   UNL     1      -0.359  18.012  12.212  1.00  0.00     0.198 A 
ATOM     90  F   UNL     1       0.996  18.263  10.303  1.00  0.00    -0.203 F 
ATOM     91  F   UNL     1      -3.559  19.494  13.041  1.00  0.00    -0.200 F 
ATOM     92  C   UNL     1      -1.512  18.323  12.915  1.00  0.00     0.200 A 
ATOM     93  F   UNL     1       0.550  17.186  12.748  1.00  0.00    -0.200 F 
ATOM     94  F   UNL     1      -1.709  17.817  14.140  1.00  0.00    -0.200 F 
ENDBRANCH  60  84
BRANCH  72  95
ATOM     95  C   UNL     1       0.100  25.961   8.309  1.00  0.00     0.064 A 
ATOM     96  C   UNL     1       1.184  26.270   9.143  1.00  0.00     0.173 A 
ATOM     97  C   UNL     1      -0.918  26.916   8.168  1.00  0.00     0.173 A 
ATOM     98  F   UNL     1       2.173  25.383   9.321  1.00  0.00    -0.203 F 
ATOM     99  C   UNL     1       1.232  27.479   9.832  1.00  0.00     0.198 A 
ATOM    100  C   UNL     1      -0.852  28.135   8.837  1.00  0.00     0.198 A 
ATOM    101  F   UNL     1      -1.973  26.669   7.377  1.00  0.00    -0.203 F 
ATOM    102  F   UNL     1       2.253  27.734  10.662  1.00  0.00    -0.200 F 
ATOM    103  C   UNL     1       0.218  28.412   9.674  1.00  0.00     0.200 A 
ATOM    104  F   UNL     1      -1.827  29.040   8.674  1.00  0.00    -0.200 F 
ATOM    105  F   UNL     1       0.269  29.576  10.335  1.00  0.00    -0.200 F 
ENDBRANCH  72  95
ENDBRANCH  46  47
ENDBRANCH  38  41
ENDBRANCH  36  37
ENDBRANCH  35  36
ENDBRANCH   1  35
TORSDOF 15
