REMARK SMILES COc1cc(S(=O)(=O)Nc2cccc(C(=O)NCCCNC(=O)c3ccc(-c4c5nc(c(-c6c(F)c(F)c(F)c(F)c6F)c6ccc([nH]6)c(-c6c(F)c(F)c(F)c(F)c6F)c6nc(c(-c7c(F)c(F)c(F)c(F)c7F)c7ccc4[nH]7)C=C6)C=C5)cc3)c2)c(OC)cc1C
REMARK SMILES IDX 18 1 17 2 15 3 16 4 14 6 10 7 11 8 87 9 12 10 13 11 9 12
REMARK SMILES IDX 6 14 7 15 8 16 5 17 3 18 4 19 92 20 91 21 93 22 88 23 2 24
REMARK SMILES IDX 1 25 89 26 90 27 19 28 20 29 21 30 22 31 23 33 24 34 25 35
REMARK SMILES IDX 86 36 26 37 85 38 27 39 28 40 29 41 79 42 30 43 84 44 78 45
REMARK SMILES IDX 80 46 31 47 83 48 77 49 76 50 32 52 64 53 44 54 63 55 45 56
REMARK SMILES IDX 48 57 62 58 81 59 46 60 47 61 61 63 82 64 49 65 33 66 34 67
REMARK SMILES IDX 42 68 35 69 36 70 40 71 43 72 37 73 38 74 41 75 39 76 65 77
REMARK SMILES IDX 66 78 74 79 67 80 68 81 72 82 75 83 69 84 70 85 73 86 71 87
REMARK SMILES IDX 50 88 51 89 59 90 52 91 53 92 57 93 60 94 54 95 55 96 58 97
REMARK SMILES IDX 56 98
REMARK H PARENT 17 5 9 13 21 32 80 51 48 62
REMARK Flexibility Score: inf
ROOT
ATOM      1  C   UNL     1       5.068   6.750   5.839  1.00  0.00     0.118 C 
ENDROOT
BRANCH   1   2
ATOM      2  N   UNL     1       4.044   7.386   6.651  1.00  0.00    -0.352 N 
ATOM      3  C   UNL     1       2.780   7.810   6.313  1.00  0.00     0.251 C 
ATOM      4  O   UNL     1       2.029   8.202   7.202  1.00  0.00    -0.269 OA
ATOM      5  H   UNL     1       4.295   7.537   7.591  1.00  0.00     0.163 HD
BRANCH   3   6
ATOM      6  C   UNL     1       2.269   7.721   4.924  1.00  0.00     0.041 A 
ATOM      7  C   UNL     1       0.517   6.883   3.464  1.00  0.00     0.050 A 
ATOM      8  C   UNL     1       1.214   7.358   2.354  1.00  0.00     0.027 A 
ATOM      9  C   UNL     1       1.014   7.130   4.748  1.00  0.00     0.040 A 
ATOM     10  C   UNL     1       2.439   8.006   2.528  1.00  0.00     0.003 A 
ATOM     11  C   UNL     1       2.968   8.183   3.809  1.00  0.00     0.014 A 
BRANCH   7  12
ATOM     12  N   UNL     1      -0.667   6.105   3.386  1.00  0.00    -0.279 N 
ATOM     13  H   UNL     1      -1.300   6.171   4.138  1.00  0.00     0.180 HD
BRANCH  12  14
ATOM     14  S   UNL     1      -1.080   5.086   2.130  1.00  0.00     0.265 S 
ATOM     15  O   UNL     1      -1.220   5.893   0.933  1.00  0.00    -0.201 OA
ATOM     16  O   UNL     1      -2.205   4.317   2.626  1.00  0.00    -0.201 OA
BRANCH  14  17
ATOM     17  C   UNL     1       0.204   3.905   1.783  1.00  0.00     0.133 A 
ATOM     18  C   UNL     1       0.933   2.221   0.192  1.00  0.00     0.123 A 
ATOM     19  C   UNL     1      -0.043   3.095   0.660  1.00  0.00     0.073 A 
ATOM     20  C   UNL     1       2.219   2.253   0.726  1.00  0.00    -0.005 A 
ATOM     21  C   UNL     1       2.428   2.993   1.897  1.00  0.00     0.055 A 
ATOM     22  C   UNL     1       3.364   1.490   0.128  1.00  0.00     0.048 C 
ATOM     23  C   UNL     1       1.407   3.763   2.479  1.00  0.00     0.139 A 
BRANCH  18  24
ATOM     24  O   UNL     1       0.583   1.369  -0.819  1.00  0.00    -0.496 OA
ATOM     25  C   UNL     1       0.520   0.023  -0.332  1.00  0.00     0.278 C 
ENDBRANCH  18  24
BRANCH  23  26
ATOM     26  O   UNL     1       1.527   4.316   3.718  1.00  0.00    -0.495 OA
ATOM     27  C   UNL     1       2.765   4.152   4.401  1.00  0.00     0.278 C 
ENDBRANCH  23  26
ENDBRANCH  14  17
ENDBRANCH  12  14
ENDBRANCH   7  12
ENDBRANCH   3   6
ENDBRANCH   1   2
BRANCH   1  28
ATOM     28  C   UNL     1       6.101   7.745   5.326  1.00  0.00     0.042 C 
BRANCH  28  29
ATOM     29  C   UNL     1       7.193   8.061   6.338  1.00  0.00     0.118 C 
BRANCH  29  30
ATOM     30  N   UNL     1       8.529   7.742   5.833  1.00  0.00    -0.352 N 
ATOM     31  C   UNL     1       9.772   8.109   6.326  1.00  0.00     0.251 C 
ATOM     32  H   UNL     1       8.548   7.183   5.023  1.00  0.00     0.163 HD
ATOM     33  O   UNL     1      10.795   7.670   5.838  1.00  0.00    -0.269 OA
BRANCH  31  34
ATOM     34  C   UNL     1       9.813   8.934   7.552  1.00  0.00     0.039 A 
ATOM     35  C   UNL     1      10.413   8.371   8.682  1.00  0.00     0.014 A 
ATOM     36  C   UNL     1       9.002  10.058   7.651  1.00  0.00     0.014 A 
ATOM     37  C   UNL     1       9.964   8.759   9.938  1.00  0.00     0.010 A 
ATOM     38  C   UNL     1       8.474  10.364   8.888  1.00  0.00     0.010 A 
ATOM     39  C   UNL     1       8.896   9.652  10.018  1.00  0.00    -0.014 A 
BRANCH  39  40
ATOM     40  C   UNL     1       8.064   9.771  11.211  1.00  0.00     0.031 A 
ATOM     41  C   UNL     1       8.120  10.987  12.043  1.00  0.00     0.074 A 
ATOM     42  C   UNL     1       7.180   8.788  11.497  1.00  0.00     0.049 A 
ATOM     43  N   UNL     1       7.751  11.047  13.278  1.00  0.00    -0.248 NA
ATOM     44  C   UNL     1       8.666  12.242  11.547  1.00  0.00     0.031 C 
ATOM     45  C   UNL     1       6.079   8.839  12.456  1.00  0.00     0.029 A 
ATOM     46  N   UNL     1       7.228   7.439  11.094  1.00  0.00    -0.354 N 
ATOM     47  C   UNL     1       7.739  12.373  13.653  1.00  0.00     0.074 A 
ATOM     48  C   UNL     1       8.401  13.060  12.569  1.00  0.00     0.031 C 
ATOM     49  C   UNL     1       5.750   7.585  12.803  1.00  0.00     0.029 A 
ATOM     50  C   UNL     1       6.724   6.701  12.191  1.00  0.00     0.049 A 
ATOM     51  H   UNL     1       7.546   7.086  10.232  1.00  0.00     0.167 HD
ATOM     52  C   UNL     1       7.042  12.736  14.771  1.00  0.00     0.037 A 
ATOM     53  C   UNL     1       7.500   5.807  12.870  1.00  0.00     0.037 A 
ATOM     54  C   UNL     1       6.557  11.554  15.488  1.00  0.00     0.049 A 
ATOM     55  C   UNL     1       7.657   6.120  14.339  1.00  0.00     0.074 A 
ATOM     56  C   UNL     1       5.325  10.922  15.534  1.00  0.00     0.029 A 
ATOM     57  N   UNL     1       7.471  10.673  16.059  1.00  0.00    -0.354 N 
ATOM     58  N   UNL     1       7.408   7.288  14.860  1.00  0.00    -0.248 NA
ATOM     59  C   UNL     1       8.151   5.161  15.325  1.00  0.00     0.031 C 
ATOM     60  C   UNL     1       5.513   9.628  16.079  1.00  0.00     0.029 A 
ATOM     61  C   UNL     1       6.854   9.480  16.386  1.00  0.00     0.049 A 
ATOM     62  H   UNL     1       8.423  10.872  16.209  1.00  0.00     0.167 HD
ATOM     63  C   UNL     1       7.721   7.269  16.193  1.00  0.00     0.074 A 
ATOM     64  C   UNL     1       8.161   5.909  16.442  1.00  0.00     0.031 C 
ATOM     65  C   UNL     1       7.608   8.383  16.973  1.00  0.00     0.037 A 
BRANCH  52  66
ATOM     66  C   UNL     1       6.525  14.142  15.043  1.00  0.00     0.064 A 
ATOM     67  C   UNL     1       5.381  14.344  15.850  1.00  0.00     0.173 A 
ATOM     68  C   UNL     1       7.041  15.323  14.478  1.00  0.00     0.173 A 
ATOM     69  F   UNL     1       4.848  13.351  16.572  1.00  0.00    -0.203 F 
ATOM     70  C   UNL     1       4.735  15.582  15.953  1.00  0.00     0.198 A 
ATOM     71  C   UNL     1       6.371  16.551  14.539  1.00  0.00     0.198 A 
ATOM     72  F   UNL     1       8.248  15.360  13.908  1.00  0.00    -0.203 F 
ATOM     73  F   UNL     1       3.641  15.699  16.718  1.00  0.00    -0.200 F 
ATOM     74  C   UNL     1       5.206  16.677  15.262  1.00  0.00     0.200 A 
ATOM     75  F   UNL     1       6.874  17.613  13.892  1.00  0.00    -0.200 F 
ATOM     76  F   UNL     1       4.566  17.851  15.322  1.00  0.00    -0.200 F 
ENDBRANCH  52  66
BRANCH  53  77
ATOM     77  C   UNL     1       8.533   5.157  12.022  1.00  0.00     0.064 A 
ATOM     78  C   UNL     1       8.105   4.332  10.965  1.00  0.00     0.173 A 
ATOM     79  C   UNL     1       9.854   5.616  11.993  1.00  0.00     0.173 A 
ATOM     80  F   UNL     1       6.845   3.870  10.943  1.00  0.00    -0.203 F 
ATOM     81  C   UNL     1       8.925   4.074   9.869  1.00  0.00     0.198 A 
ATOM     82  C   UNL     1      10.678   5.345  10.898  1.00  0.00     0.198 A 
ATOM     83  F   UNL     1      10.313   6.425  12.957  1.00  0.00    -0.203 F 
ATOM     84  F   UNL     1       8.447   3.382   8.825  1.00  0.00    -0.200 F 
ATOM     85  C   UNL     1      10.203   4.605   9.824  1.00  0.00     0.200 A 
ATOM     86  F   UNL     1      11.903   5.887  10.836  1.00  0.00    -0.200 F 
ATOM     87  F   UNL     1      10.958   4.444   8.729  1.00  0.00    -0.200 F 
ENDBRANCH  53  77
BRANCH  65  88
ATOM     88  C   UNL     1       8.122   8.524  18.382  1.00  0.00     0.064 A 
ATOM     89  C   UNL     1       9.274   7.879  18.860  1.00  0.00     0.173 A 
ATOM     90  C   UNL     1       7.532   9.460  19.264  1.00  0.00     0.173 A 
ATOM     91  F   UNL     1       9.982   7.052  18.079  1.00  0.00    -0.203 F 
ATOM     92  C   UNL     1       9.770   8.113  20.146  1.00  0.00     0.198 A 
ATOM     93  C   UNL     1       8.060   9.732  20.525  1.00  0.00     0.198 A 
ATOM     94  F   UNL     1       6.439  10.155  18.916  1.00  0.00    -0.203 F 
ATOM     95  F   UNL     1      10.853   7.447  20.570  1.00  0.00    -0.200 F 
ATOM     96  C   UNL     1       9.172   9.048  20.972  1.00  0.00     0.200 A 
ATOM     97  F   UNL     1       7.498  10.675  21.294  1.00  0.00    -0.200 F 
ATOM     98  F   UNL     1       9.679   9.303  22.185  1.00  0.00    -0.200 F 
ENDBRANCH  65  88
ENDBRANCH  39  40
ENDBRANCH  31  34
ENDBRANCH  29  30
ENDBRANCH  28  29
ENDBRANCH   1  28
TORSDOF 15
