REMARK SMILES COc1cccc([C@@H]2[NH2+][C@@](C)(C(=O)NCCCNC(=O)c3ccc(-c4c5nc(c(-c6c(F)c(F)c(F)c(F)c6F)c6ccc([nH]6)c(-c6c(F)c(F)c(F)c(F)c6F)c6nc(c(-c7c(F)c(F)c(F)c(F)c7F)c7ccc4[nH]7)C=C6)C=C5)cc3)[C@@H]3C(=O)N(C)C(=O)[C@@H]32)c1O
REMARK SMILES IDX 16 1 15 2 14 3 12 4 13 5 10 7 8 8 9 9 91 10 84 13 89 14
REMARK SMILES IDX 11 15 85 16 87 17 90 18 86 19 88 20 7 21 3 22 4 23 92 24
REMARK SMILES IDX 5 25 6 26 2 27 1 28 93 29 17 31 18 32 19 33 20 35 21 36
REMARK SMILES IDX 22 37 83 38 23 39 82 40 24 41 25 42 26 43 76 44 27 45 81 46
REMARK SMILES IDX 75 47 77 48 28 49 80 50 74 51 73 52 29 54 61 55 41 56 60 57
REMARK SMILES IDX 42 58 45 59 59 60 78 61 43 62 44 63 58 65 79 66 46 67 30 68
REMARK SMILES IDX 31 69 39 70 32 71 33 72 37 73 40 74 34 75 35 76 38 77 36 78
REMARK SMILES IDX 62 79 63 80 71 81 64 82 65 83 69 84 72 85 66 86 67 87 70 88
REMARK SMILES IDX 68 89 47 90 48 91 56 92 49 93 50 94 54 95 57 96 51 97 52 98
REMARK SMILES IDX 55 99 53 100
REMARK H PARENT 14 6 9 11 9 12 93 30 18 34 77 53 45 64
REMARK Flexibility Score: inf
ROOT
ATOM      1  C   UNL     1      -0.238  -6.447   5.529  1.00  0.00     0.042 C 
ENDROOT
BRANCH   1   2
ATOM      2  C   UNL     1       0.297  -5.056   5.817  1.00  0.00     0.118 C 
BRANCH   2   3
ATOM      3  N   UNL     1       1.750  -5.029   5.873  1.00  0.00    -0.351 N 
ATOM      4  C   UNL     1       2.650  -4.362   5.093  1.00  0.00     0.281 C 
ATOM      5  O   UNL     1       3.844  -4.605   5.294  1.00  0.00    -0.268 OA
ATOM      6  H   UNL     1       2.147  -5.577   6.587  1.00  0.00     0.163 HD
BRANCH   4   7
ATOM      7  C   UNL     1       2.181  -3.329   4.021  1.00  0.00     0.185 C 
ATOM      8  C   UNL     1       2.122  -4.322   1.816  1.00  0.00     0.232 C 
ATOM      9  N   UNL     1       1.326  -4.051   3.038  1.00  0.00    -0.326 N 
ATOM     10  C   UNL     1       3.540  -3.793   2.067  1.00  0.00     0.161 C 
ATOM     11  H   UNL     1       1.010  -4.933   3.443  1.00  0.00     0.347 HD
ATOM     12  H   UNL     1       0.514  -3.482   2.802  1.00  0.00     0.347 HD
ATOM     13  C   UNL     1       3.404  -2.836   3.241  1.00  0.00     0.169 C 
ATOM     14  C   UNL     1       4.123  -2.926   0.984  1.00  0.00     0.239 C 
ATOM     15  C   UNL     1       1.446  -2.192   4.753  1.00  0.00     0.091 C 
ATOM     16  C   UNL     1       3.360  -1.487   2.567  1.00  0.00     0.240 C 
ATOM     17  N   UNL     1       3.911  -1.618   1.324  1.00  0.00    -0.285 N 
ATOM     18  O   UNL     1       4.649  -3.337  -0.036  1.00  0.00    -0.274 OA
ATOM     19  O   UNL     1       2.942  -0.444   3.049  1.00  0.00    -0.274 OA
ATOM     20  C   UNL     1       4.185  -0.514   0.437  1.00  0.00     0.156 C 
BRANCH   8  21
ATOM     21  C   UNL     1       1.437  -3.835   0.539  1.00  0.00     0.056 A 
ATOM     22  C   UNL     1       0.340  -2.102  -0.810  1.00  0.00     0.161 A 
ATOM     23  C   UNL     1       0.394  -2.954  -1.917  1.00  0.00     0.050 A 
ATOM     24  C   UNL     1       0.825  -2.567   0.418  1.00  0.00     0.166 A 
ATOM     25  C   UNL     1       0.951  -4.227  -1.813  1.00  0.00     0.005 A 
ATOM     26  C   UNL     1       1.483  -4.659  -0.599  1.00  0.00     0.014 A 
BRANCH  22  27
ATOM     27  O   UNL     1      -0.283  -0.910  -1.062  1.00  0.00    -0.493 OA
ATOM     28  C   UNL     1       0.214   0.245  -0.404  1.00  0.00     0.278 C 
ENDBRANCH  22  27
BRANCH  24  29
ATOM     29  O   UNL     1       0.650  -1.865   1.578  1.00  0.00    -0.504 OA
ATOM     30  H   UNL     1       0.249  -1.018   1.556  1.00  0.00     0.293 HD
ENDBRANCH  24  29
ENDBRANCH   8  21
ENDBRANCH   4   7
ENDBRANCH   2   3
ENDBRANCH   1   2
BRANCH   1  31
ATOM     31  C   UNL     1       0.123  -7.469   6.594  1.00  0.00     0.118 C 
BRANCH  31  32
ATOM     32  N   UNL     1      -0.448  -7.160   7.901  1.00  0.00    -0.352 N 
ATOM     33  C   UNL     1      -1.329  -7.887   8.665  1.00  0.00     0.251 C 
ATOM     34  H   UNL     1      -0.159  -6.304   8.293  1.00  0.00     0.163 HD
ATOM     35  O   UNL     1      -1.835  -7.397   9.669  1.00  0.00    -0.269 OA
BRANCH  33  36
ATOM     36  C   UNL     1      -1.684  -9.258   8.249  1.00  0.00     0.039 A 
ATOM     37  C   UNL     1      -3.025  -9.649   8.245  1.00  0.00     0.014 A 
ATOM     38  C   UNL     1      -0.689 -10.139   7.823  1.00  0.00     0.014 A 
ATOM     39  C   UNL     1      -3.376 -10.898   7.729  1.00  0.00     0.010 A 
ATOM     40  C   UNL     1      -1.048 -11.332   7.215  1.00  0.00     0.010 A 
ATOM     41  C   UNL     1      -2.394 -11.729   7.168  1.00  0.00    -0.014 A 
BRANCH  41  42
ATOM     42  C   UNL     1      -2.719 -13.035   6.544  1.00  0.00     0.031 A 
ATOM     43  C   UNL     1      -2.114 -14.290   7.109  1.00  0.00     0.074 A 
ATOM     44  C   UNL     1      -3.458 -13.085   5.420  1.00  0.00     0.049 A 
ATOM     45  N   UNL     1      -2.113 -15.505   6.624  1.00  0.00    -0.248 NA
ATOM     46  C   UNL     1      -1.372 -14.145   8.372  1.00  0.00     0.031 C 
ATOM     47  C   UNL     1      -4.080 -11.937   4.761  1.00  0.00     0.029 A 
ATOM     48  N   UNL     1      -3.792 -14.149   4.620  1.00  0.00    -0.354 N 
ATOM     49  C   UNL     1      -1.351 -16.259   7.507  1.00  0.00     0.074 A 
ATOM     50  C   UNL     1      -0.851 -15.353   8.518  1.00  0.00     0.031 C 
ATOM     51  C   UNL     1      -4.736 -12.360   3.668  1.00  0.00     0.029 A 
ATOM     52  C   UNL     1      -4.535 -13.798   3.519  1.00  0.00     0.049 A 
ATOM     53  H   UNL     1      -3.525 -15.076   4.816  1.00  0.00     0.167 HD
ATOM     54  C   UNL     1      -1.108 -17.591   7.489  1.00  0.00     0.037 A 
ATOM     55  C   UNL     1      -4.987 -14.550   2.498  1.00  0.00     0.037 A 
ATOM     56  C   UNL     1      -1.624 -18.487   6.489  1.00  0.00     0.049 A 
ATOM     57  C   UNL     1      -4.672 -16.023   2.475  1.00  0.00     0.074 A 
ATOM     58  C   UNL     1      -1.476 -19.859   6.401  1.00  0.00     0.029 A 
ATOM     59  N   UNL     1      -2.386 -18.094   5.397  1.00  0.00    -0.354 N 
ATOM     60  N   UNL     1      -3.990 -16.738   3.337  1.00  0.00    -0.248 NA
ATOM     61  C   UNL     1      -5.192 -16.794   1.337  1.00  0.00     0.031 C 
ATOM     62  C   UNL     1      -2.099 -20.290   5.225  1.00  0.00     0.029 A 
ATOM     63  C   UNL     1      -2.696 -19.196   4.617  1.00  0.00     0.049 A 
ATOM     64  H   UNL     1      -2.665 -17.170   5.205  1.00  0.00     0.167 HD
ATOM     65  C   UNL     1      -4.035 -18.045   2.872  1.00  0.00     0.074 A 
ATOM     66  C   UNL     1      -4.811 -18.025   1.649  1.00  0.00     0.031 C 
ATOM     67  C   UNL     1      -3.491 -19.162   3.414  1.00  0.00     0.037 A 
BRANCH  54  68
ATOM     68  C   UNL     1      -0.238 -18.147   8.581  1.00  0.00     0.064 A 
ATOM     69  C   UNL     1      -0.648 -18.151   9.925  1.00  0.00     0.173 A 
ATOM     70  C   UNL     1       1.026 -18.678   8.283  1.00  0.00     0.173 A 
ATOM     71  F   UNL     1      -1.842 -17.645  10.268  1.00  0.00    -0.203 F 
ATOM     72  C   UNL     1       0.193 -18.619  10.931  1.00  0.00     0.198 A 
ATOM     73  C   UNL     1       1.848 -19.183   9.288  1.00  0.00     0.198 A 
ATOM     74  F   UNL     1       1.468 -18.707   7.017  1.00  0.00    -0.203 F 
ATOM     75  F   UNL     1      -0.192 -18.541  12.212  1.00  0.00    -0.200 F 
ATOM     76  C   UNL     1       1.438 -19.139  10.611  1.00  0.00     0.200 A 
ATOM     77  F   UNL     1       3.044 -19.701   8.975  1.00  0.00    -0.200 F 
ATOM     78  F   UNL     1       2.247 -19.588  11.581  1.00  0.00    -0.200 F 
ENDBRANCH  54  68
BRANCH  55  79
ATOM     79  C   UNL     1      -5.811 -13.929   1.428  1.00  0.00     0.064 A 
ATOM     80  C   UNL     1      -7.175 -14.235   1.310  1.00  0.00     0.173 A 
ATOM     81  C   UNL     1      -5.267 -13.018   0.512  1.00  0.00     0.173 A 
ATOM     82  F   UNL     1      -7.737 -15.117   2.150  1.00  0.00    -0.203 F 
ATOM     83  C   UNL     1      -7.958 -13.666   0.308  1.00  0.00     0.198 A 
ATOM     84  C   UNL     1      -6.057 -12.426  -0.471  1.00  0.00     0.198 A 
ATOM     85  F   UNL     1      -3.969 -12.687   0.584  1.00  0.00    -0.203 F 
ATOM     86  F   UNL     1      -9.248 -14.008   0.193  1.00  0.00    -0.200 F 
ATOM     87  C   UNL     1      -7.400 -12.756  -0.577  1.00  0.00     0.200 A 
ATOM     88  F   UNL     1      -5.518 -11.536  -1.315  1.00  0.00    -0.200 F 
ATOM     89  F   UNL     1      -8.155 -12.202  -1.536  1.00  0.00    -0.200 F 
ENDBRANCH  55  79
BRANCH  67  90
ATOM     90  C   UNL     1      -3.767 -20.473   2.734  1.00  0.00     0.064 A 
ATOM     91  C   UNL     1      -3.182 -20.813   1.506  1.00  0.00     0.173 A 
ATOM     92  C   UNL     1      -4.580 -21.430   3.362  1.00  0.00     0.173 A 
ATOM     93  F   UNL     1      -2.409 -19.928   0.858  1.00  0.00    -0.203 F 
ATOM     94  C   UNL     1      -3.415 -22.056   0.923  1.00  0.00     0.198 A 
ATOM     95  C   UNL     1      -4.783 -22.684   2.793  1.00  0.00     0.198 A 
ATOM     96  F   UNL     1      -5.158 -21.158   4.542  1.00  0.00    -0.203 F 
ATOM     97  F   UNL     1      -2.879 -22.345  -0.271  1.00  0.00    -0.200 F 
ATOM     98  C   UNL     1      -4.205 -22.994   1.572  1.00  0.00     0.200 A 
ATOM     99  F   UNL     1      -5.532 -23.594   3.431  1.00  0.00    -0.200 F 
ATOM    100  F   UNL     1      -4.413 -24.196   1.018  1.00  0.00    -0.200 F 
ENDBRANCH  67  90
ENDBRANCH  41  42
ENDBRANCH  33  36
ENDBRANCH  31  32
ENDBRANCH   1  31
TORSDOF 13
