REMARK SMILES Cc1ccccc1C(=O)Nc1ccc(N2CCCCC2)cc1C(=O)NCCCNC(=O)c1ccc(-c2c3nc(c(-c4c(F)c(F)c(F)c(F)c4F)c4ccc([nH]4)c(-c4c(F)c(F)c(F)c(F)c4F)c4nc(c(-c5c(F)c(F)c(F)c(F)c5F)c5ccc2[nH]5)C=C4)C=C3)cc1
REMARK SMILES IDX 27 1 26 2 25 3 23 4 24 5 22 7 11 8 12 9 13 10 21 11 14 12
REMARK SMILES IDX 10 13 8 14 9 15 7 17 1 18 2 19 3 20 4 21 6 22 5 23 15 24
REMARK SMILES IDX 16 25 20 26 17 27 19 28 18 29 28 30 29 31 30 32 31 34 32 35
REMARK SMILES IDX 33 36 94 37 34 38 93 39 35 40 36 41 37 42 87 43 38 44 92 45
REMARK SMILES IDX 86 46 88 47 39 48 91 49 85 50 84 51 40 53 72 54 52 55 71 56
REMARK SMILES IDX 53 57 56 58 70 59 89 60 54 61 55 62 69 64 90 65 57 66 41 67
REMARK SMILES IDX 42 68 50 69 43 70 44 71 48 72 51 73 45 74 46 75 49 76 47 77
REMARK SMILES IDX 73 78 74 79 82 80 75 81 76 82 80 83 83 84 77 85 78 86 81 87
REMARK SMILES IDX 79 88 58 89 59 90 67 91 60 92 61 93 65 94 68 95 62 96 63 97
REMARK SMILES IDX 66 98 64 99
REMARK H PARENT 25 6 10 16 29 33 88 52 56 63
REMARK Flexibility Score: inf
ROOT
ATOM      1  C   UNL     1       1.328  -3.056  -2.295  1.00  0.00     0.042 C 
ENDROOT
BRANCH   1   2
ATOM      2  C   UNL     1       2.465  -2.088  -2.524  1.00  0.00     0.118 C 
BRANCH   2   3
ATOM      3  N   UNL     1       2.029  -0.721  -2.790  1.00  0.00    -0.352 N 
ATOM      4  C   UNL     1       2.456   0.474  -2.242  1.00  0.00     0.253 C 
ATOM      5  O   UNL     1       1.945   1.520  -2.632  1.00  0.00    -0.269 OA
ATOM      6  H   UNL     1       1.319  -0.636  -3.467  1.00  0.00     0.163 HD
BRANCH   4   7
ATOM      7  C   UNL     1       3.517   0.489  -1.203  1.00  0.00     0.065 A 
ATOM      8  C   UNL     1       3.499   1.339  -0.089  1.00  0.00     0.054 A 
ATOM      9  C   UNL     1       4.577   1.288   0.806  1.00  0.00     0.029 A 
ATOM     10  C   UNL     1       5.520   0.265   0.720  1.00  0.00     0.028 A 
ATOM     11  C   UNL     1       4.614  -0.376  -1.379  1.00  0.00     0.042 A 
ATOM     12  C   UNL     1       5.505  -0.637  -0.342  1.00  0.00     0.038 A 
BRANCH   8  13
ATOM     13  N   UNL     1       2.499   2.244   0.292  1.00  0.00    -0.321 N 
ATOM     14  C   UNL     1       1.129   2.210   0.297  1.00  0.00     0.255 C 
ATOM     15  O   UNL     1       0.544   3.267   0.562  1.00  0.00    -0.269 OA
ATOM     16  H   UNL     1       2.862   3.094   0.632  1.00  0.00     0.170 HD
BRANCH  14  17
ATOM     17  C   UNL     1       0.294   0.981   0.165  1.00  0.00     0.043 A 
ATOM     18  C   UNL     1       1.729  -0.590   1.629  1.00  0.00     0.045 C 
ATOM     19  C   UNL     1       0.526  -0.259   0.795  1.00  0.00    -0.038 A 
ATOM     20  C   UNL     1      -0.450  -1.272   0.678  1.00  0.00     0.004 A 
ATOM     21  C   UNL     1      -1.659  -1.049   0.021  1.00  0.00     0.000 A 
ATOM     22  C   UNL     1      -0.941   1.189  -0.485  1.00  0.00     0.014 A 
ATOM     23  C   UNL     1      -1.911   0.189  -0.551  1.00  0.00     0.001 A 
ENDBRANCH  14  17
ENDBRANCH   8  13
BRANCH  12  24
ATOM     24  N   UNL     1       6.266  -1.802  -0.280  1.00  0.00    -0.372 N 
ATOM     25  C   UNL     1       5.857  -2.720   0.802  1.00  0.00     0.116 C 
ATOM     26  C   UNL     1       6.699  -2.475  -1.507  1.00  0.00     0.116 C 
ATOM     27  C   UNL     1       7.016  -3.641   1.166  1.00  0.00     0.021 C 
ATOM     28  C   UNL     1       7.886  -3.383  -1.186  1.00  0.00     0.021 C 
ATOM     29  C   UNL     1       7.560  -4.366  -0.061  1.00  0.00     0.004 C 
ENDBRANCH  12  24
ENDBRANCH   4   7
ENDBRANCH   2   3
ENDBRANCH   1   2
BRANCH   1  30
ATOM     30  C   UNL     1       0.628  -3.452  -3.578  1.00  0.00     0.118 C 
BRANCH  30  31
ATOM     31  N   UNL     1       1.262  -4.600  -4.234  1.00  0.00    -0.352 N 
ATOM     32  C   UNL     1       0.697  -5.563  -5.058  1.00  0.00     0.251 C 
ATOM     33  H   UNL     1       2.227  -4.702  -4.065  1.00  0.00     0.163 HD
ATOM     34  O   UNL     1       1.381  -6.377  -5.647  1.00  0.00    -0.269 OA
BRANCH  32  35
ATOM     35  C   UNL     1      -0.761  -5.492  -5.284  1.00  0.00     0.039 A 
ATOM     36  C   UNL     1      -1.202  -5.139  -6.563  1.00  0.00     0.014 A 
ATOM     37  C   UNL     1      -1.598  -5.403  -4.178  1.00  0.00     0.014 A 
ATOM     38  C   UNL     1      -2.390  -4.427  -6.684  1.00  0.00     0.010 A 
ATOM     39  C   UNL     1      -2.708  -4.589  -4.285  1.00  0.00     0.010 A 
ATOM     40  C   UNL     1      -3.060  -4.035  -5.526  1.00  0.00    -0.014 A 
BRANCH  40  41
ATOM     41  C   UNL     1      -4.027  -2.939  -5.500  1.00  0.00     0.031 A 
ATOM     42  C   UNL     1      -5.441  -3.196  -5.148  1.00  0.00     0.074 A 
ATOM     43  C   UNL     1      -3.624  -1.662  -5.705  1.00  0.00     0.049 A 
ATOM     44  N   UNL     1      -6.417  -2.409  -5.455  1.00  0.00    -0.248 NA
ATOM     45  C   UNL     1      -5.879  -4.402  -4.460  1.00  0.00     0.031 C 
ATOM     46  C   UNL     1      -4.372  -0.446  -5.382  1.00  0.00     0.029 A 
ATOM     47  N   UNL     1      -2.514  -1.199  -6.437  1.00  0.00    -0.354 N 
ATOM     48  C   UNL     1      -7.538  -2.838  -4.783  1.00  0.00     0.074 A 
ATOM     49  C   UNL     1      -7.166  -4.122  -4.238  1.00  0.00     0.031 C 
ATOM     50  C   UNL     1      -3.910   0.564  -6.133  1.00  0.00     0.029 A 
ATOM     51  C   UNL     1      -2.947   0.000  -7.058  1.00  0.00     0.049 A 
ATOM     52  H   UNL     1      -1.627  -1.619  -6.504  1.00  0.00     0.167 HD
ATOM     53  C   UNL     1      -8.601  -1.990  -4.661  1.00  0.00     0.037 A 
ATOM     54  C   UNL     1      -2.978   0.165  -8.410  1.00  0.00     0.037 A 
ATOM     55  C   UNL     1      -8.372  -0.745  -5.392  1.00  0.00     0.049 A 
ATOM     56  C   UNL     1      -4.318   0.583  -8.959  1.00  0.00     0.074 A 
ATOM     57  C   UNL     1      -7.987   0.526  -4.993  1.00  0.00     0.029 A 
ATOM     58  N   UNL     1      -8.278  -0.765  -6.779  1.00  0.00    -0.354 N 
ATOM     59  N   UNL     1      -5.445   0.404  -8.330  1.00  0.00    -0.248 NA
ATOM     60  C   UNL     1      -4.502   1.196 -10.270  1.00  0.00     0.031 C 
ATOM     61  C   UNL     1      -7.689   1.283  -6.151  1.00  0.00     0.029 A 
ATOM     62  C   UNL     1      -7.888   0.471  -7.254  1.00  0.00     0.049 A 
ATOM     63  H   UNL     1      -8.464  -1.550  -7.343  1.00  0.00     0.167 HD
ATOM     64  C   UNL     1      -6.486   0.843  -9.113  1.00  0.00     0.074 A 
ATOM     65  C   UNL     1      -5.838   1.347 -10.308  1.00  0.00     0.031 C 
ATOM     66  C   UNL     1      -7.780   0.728  -8.684  1.00  0.00     0.037 A 
BRANCH  53  67
ATOM     67  C   UNL     1      -9.729  -2.148  -3.656  1.00  0.00     0.064 A 
ATOM     68  C   UNL     1     -10.457  -1.022  -3.204  1.00  0.00     0.173 A 
ATOM     69  C   UNL     1     -10.107  -3.358  -3.047  1.00  0.00     0.173 A 
ATOM     70  F   UNL     1     -10.324   0.179  -3.780  1.00  0.00    -0.203 F 
ATOM     71  C   UNL     1     -11.363  -1.083  -2.141  1.00  0.00     0.198 A 
ATOM     72  C   UNL     1     -10.974  -3.414  -1.950  1.00  0.00     0.198 A 
ATOM     73  F   UNL     1      -9.715  -4.539  -3.534  1.00  0.00    -0.203 F 
ATOM     74  F   UNL     1     -12.004   0.027  -1.750  1.00  0.00    -0.200 F 
ATOM     75  C   UNL     1     -11.589  -2.272  -1.484  1.00  0.00     0.200 A 
ATOM     76  F   UNL     1     -11.211  -4.591  -1.353  1.00  0.00    -0.200 F 
ATOM     77  F   UNL     1     -12.420  -2.326  -0.436  1.00  0.00    -0.200 F 
ENDBRANCH  53  67
BRANCH  54  78
ATOM     78  C   UNL     1      -1.990  -0.673  -9.130  1.00  0.00     0.064 A 
ATOM     79  C   UNL     1      -0.622  -0.414  -8.930  1.00  0.00     0.173 A 
ATOM     80  C   UNL     1      -2.349  -1.919  -9.657  1.00  0.00     0.173 A 
ATOM     81  F   UNL     1      -0.231   0.767  -8.424  1.00  0.00    -0.203 F 
ATOM     82  C   UNL     1       0.336  -1.404  -9.129  1.00  0.00     0.198 A 
ATOM     83  C   UNL     1      -1.384  -2.905  -9.866  1.00  0.00     0.198 A 
ATOM     84  F   UNL     1      -3.639  -2.228  -9.848  1.00  0.00    -0.203 F 
ATOM     85  F   UNL     1       1.618  -1.168  -8.816  1.00  0.00    -0.200 F 
ATOM     86  C   UNL     1      -0.051  -2.659  -9.568  1.00  0.00     0.200 A 
ATOM     87  F   UNL     1      -1.760  -4.132 -10.254  1.00  0.00    -0.200 F 
ATOM     88  F   UNL     1       0.851  -3.647  -9.654  1.00  0.00    -0.200 F 
ENDBRANCH  54  78
BRANCH  66  89
ATOM     89  C   UNL     1      -9.066   0.925  -9.473  1.00  0.00     0.064 A 
ATOM     90  C   UNL     1      -9.157   0.988 -10.873  1.00  0.00     0.173 A 
ATOM     91  C   UNL     1     -10.322   0.936  -8.802  1.00  0.00     0.173 A 
ATOM     92  F   UNL     1      -8.079   0.873 -11.655  1.00  0.00    -0.203 F 
ATOM     93  C   UNL     1     -10.384   1.108 -11.540  1.00  0.00     0.198 A 
ATOM     94  C   UNL     1     -11.544   0.998  -9.472  1.00  0.00     0.198 A 
ATOM     95  F   UNL     1     -10.414   0.853  -7.467  1.00  0.00    -0.203 F 
ATOM     96  F   UNL     1     -10.402   1.201 -12.878  1.00  0.00    -0.200 F 
ATOM     97  C   UNL     1     -11.576   1.100 -10.843  1.00  0.00     0.200 A 
ATOM     98  F   UNL     1     -12.688   0.934  -8.776  1.00  0.00    -0.200 F 
ATOM     99  F   UNL     1     -12.746   1.165 -11.491  1.00  0.00    -0.200 F 
ENDBRANCH  66  89
ENDBRANCH  40  41
ENDBRANCH  32  35
ENDBRANCH  30  31
ENDBRANCH   1  30
TORSDOF 13
