REMARK SMILES O=C(NCCCNC(=O)c1ccccc1NC(=O)c1ccncc1)c1ccc(-c2c3nc(c(-c4c(F)c(F)c(F)c(F)c4F)c4ccc([nH]4)c(-c4c(F)c(F)c(F)c(F)c4F)c4nc(c(-c5c(F)c(F)c(F)c(F)c5F)c5ccc2[nH]5)C=C4)C=C3)cc1
REMARK SMILES IDX 5 1 4 2 3 3 1 4 2 5 25 7 26 8 87 9 27 10 86 11 28 12 29 13
REMARK SMILES IDX 30 14 80 15 31 16 85 17 79 18 81 19 32 20 84 21 78 22 77 23
REMARK SMILES IDX 33 25 65 26 45 27 64 28 46 29 49 30 63 31 82 32 47 33 48 34
REMARK SMILES IDX 62 36 83 37 50 38 34 39 35 40 43 41 36 42 37 43 41 44 44 45
REMARK SMILES IDX 38 46 39 47 42 48 40 49 66 50 67 51 75 52 68 53 69 54 73 55
REMARK SMILES IDX 76 56 70 57 71 58 74 59 72 60 51 61 52 62 60 63 53 64 54 65
REMARK SMILES IDX 58 66 61 67 55 68 56 69 59 70 57 71 6 72 7 73 8 74 9 76
REMARK SMILES IDX 10 77 11 78 15 79 12 80 14 81 13 82 16 83 17 84 18 86 19 87
REMARK SMILES IDX 20 88 24 89 21 90 23 91 22 92
REMARK H PARENT 3 6 81 24 49 35 7 75 16 85
REMARK Flexibility Score: inf
ROOT
ATOM      1  C   UNL     1       5.102  -1.286  -2.093  1.00  0.00     0.042 C 
ENDROOT
BRANCH   1   2
ATOM      2  C   UNL     1       4.671   0.007  -1.416  1.00  0.00     0.118 C 
BRANCH   2   3
ATOM      3  N   UNL     1       3.233   0.096  -1.202  1.00  0.00    -0.352 N 
ATOM      4  O   UNL     1       1.273   0.017  -0.094  1.00  0.00    -0.269 OA
ATOM      5  C   UNL     1       2.499   0.069  -0.041  1.00  0.00     0.251 C 
ATOM      6  H   UNL     1       2.699   0.192  -2.024  1.00  0.00     0.163 HD
BRANCH   5   7
ATOM      7  C   UNL     1       3.174   0.071   1.274  1.00  0.00     0.039 A 
ATOM      8  C   UNL     1       4.269   0.900   1.519  1.00  0.00     0.014 A 
ATOM      9  C   UNL     1       2.687  -0.757   2.291  1.00  0.00     0.014 A 
ATOM     10  C   UNL     1       4.984   0.770   2.702  1.00  0.00     0.010 A 
ATOM     11  C   UNL     1       3.341  -0.804   3.525  1.00  0.00     0.010 A 
ATOM     12  C   UNL     1       4.518  -0.068   3.728  1.00  0.00    -0.014 A 
BRANCH  12  13
ATOM     13  C   UNL     1       5.245  -0.096   5.022  1.00  0.00     0.031 A 
ATOM     14  C   UNL     1       5.903  -1.351   5.522  1.00  0.00     0.074 A 
ATOM     15  C   UNL     1       5.335   1.046   5.731  1.00  0.00     0.049 A 
ATOM     16  N   UNL     1       6.594  -1.537   6.619  1.00  0.00    -0.248 NA
ATOM     17  C   UNL     1       5.763  -2.556   4.692  1.00  0.00     0.031 C 
ATOM     18  C   UNL     1       4.724   2.321   5.351  1.00  0.00     0.029 A 
ATOM     19  N   UNL     1       5.989   1.329   6.903  1.00  0.00    -0.354 N 
ATOM     20  C   UNL     1       6.952  -2.879   6.622  1.00  0.00     0.074 A 
ATOM     21  C   UNL     1       6.383  -3.468   5.429  1.00  0.00     0.031 C 
ATOM     22  C   UNL     1       5.073   3.261   6.240  1.00  0.00     0.029 A 
ATOM     23  C   UNL     1       5.874   2.642   7.289  1.00  0.00     0.049 A 
ATOM     24  H   UNL     1       6.491   0.656   7.417  1.00  0.00     0.167 HD
ATOM     25  C   UNL     1       7.694  -3.551   7.535  1.00  0.00     0.037 A 
ATOM     26  C   UNL     1       6.344   3.276   8.378  1.00  0.00     0.037 A 
ATOM     27  C   UNL     1       8.274  -2.951   8.710  1.00  0.00     0.049 A 
ATOM     28  C   UNL     1       7.149   2.501   9.379  1.00  0.00     0.074 A 
ATOM     29  C   UNL     1       9.074  -3.539   9.675  1.00  0.00     0.029 A 
ATOM     30  N   UNL     1       8.110  -1.625   9.084  1.00  0.00    -0.354 N 
ATOM     31  N   UNL     1       7.507   1.241   9.352  1.00  0.00    -0.248 NA
ATOM     32  C   UNL     1       7.609   3.234  10.565  1.00  0.00     0.031 C 
ATOM     33  C   UNL     1       9.356  -2.582  10.655  1.00  0.00     0.029 A 
ATOM     34  C   UNL     1       8.774  -1.383  10.277  1.00  0.00     0.049 A 
ATOM     35  H   UNL     1       7.597  -0.954   8.577  1.00  0.00     0.167 HD
ATOM     36  C   UNL     1       8.245   1.031  10.508  1.00  0.00     0.074 A 
ATOM     37  C   UNL     1       8.303   2.302  11.202  1.00  0.00     0.031 C 
ATOM     38  C   UNL     1       8.818  -0.113  10.955  1.00  0.00     0.037 A 
BRANCH  25  39
ATOM     39  C   UNL     1       7.913  -5.020   7.314  1.00  0.00     0.064 A 
ATOM     40  C   UNL     1       8.762  -5.497   6.304  1.00  0.00     0.173 A 
ATOM     41  C   UNL     1       7.307  -5.963   8.159  1.00  0.00     0.173 A 
ATOM     42  F   UNL     1       9.358  -4.640   5.462  1.00  0.00    -0.203 F 
ATOM     43  C   UNL     1       8.979  -6.863   6.136  1.00  0.00     0.198 A 
ATOM     44  C   UNL     1       7.547  -7.326   8.005  1.00  0.00     0.198 A 
ATOM     45  F   UNL     1       6.491  -5.560   9.145  1.00  0.00    -0.203 F 
ATOM     46  F   UNL     1       9.763  -7.298   5.139  1.00  0.00    -0.200 F 
ATOM     47  C   UNL     1       8.378  -7.775   6.990  1.00  0.00     0.200 A 
ATOM     48  F   UNL     1       6.975  -8.205   8.840  1.00  0.00    -0.200 F 
ATOM     49  F   UNL     1       8.595  -9.088   6.832  1.00  0.00    -0.200 F 
ENDBRANCH  25  39
BRANCH  26  50
ATOM     50  C   UNL     1       6.054   4.720   8.569  1.00  0.00     0.064 A 
ATOM     51  C   UNL     1       7.071   5.679   8.475  1.00  0.00     0.173 A 
ATOM     52  C   UNL     1       4.751   5.171   8.824  1.00  0.00     0.173 A 
ATOM     53  F   UNL     1       8.336   5.295   8.250  1.00  0.00    -0.203 F 
ATOM     54  C   UNL     1       6.796   7.035   8.642  1.00  0.00     0.198 A 
ATOM     55  C   UNL     1       4.472   6.528   8.959  1.00  0.00     0.198 A 
ATOM     56  F   UNL     1       3.742   4.292   8.915  1.00  0.00    -0.203 F 
ATOM     57  F   UNL     1       7.792   7.929   8.584  1.00  0.00    -0.200 F 
ATOM     58  C   UNL     1       5.496   7.459   8.875  1.00  0.00     0.200 A 
ATOM     59  F   UNL     1       3.212   6.934   9.166  1.00  0.00    -0.200 F 
ATOM     60  F   UNL     1       5.231   8.764   9.023  1.00  0.00    -0.200 F 
ENDBRANCH  26  50
BRANCH  38  61
ATOM     61  C   UNL     1       9.576  -0.032  12.247  1.00  0.00     0.064 A 
ATOM     62  C   UNL     1       8.916   0.104  13.477  1.00  0.00     0.173 A 
ATOM     63  C   UNL     1      10.976  -0.113  12.256  1.00  0.00     0.173 A 
ATOM     64  F   UNL     1       7.578   0.205  13.518  1.00  0.00    -0.203 F 
ATOM     65  C   UNL     1       9.633   0.182  14.668  1.00  0.00     0.198 A 
ATOM     66  C   UNL     1      11.688  -0.064  13.451  1.00  0.00     0.198 A 
ATOM     67  F   UNL     1      11.653  -0.247  11.106  1.00  0.00    -0.203 F 
ATOM     68  F   UNL     1       8.985   0.361  15.827  1.00  0.00    -0.200 F 
ATOM     69  C   UNL     1      11.017   0.091  14.655  1.00  0.00     0.200 A 
ATOM     70  F   UNL     1      13.024  -0.163  13.438  1.00  0.00    -0.200 F 
ATOM     71  F   UNL     1      11.705   0.163  15.802  1.00  0.00    -0.200 F 
ENDBRANCH  38  61
ENDBRANCH  12  13
ENDBRANCH   5   7
ENDBRANCH   2   3
ENDBRANCH   1   2
BRANCH   1  72
ATOM     72  C   UNL     1       4.566  -1.462  -3.505  1.00  0.00     0.118 C 
BRANCH  72  73
ATOM     73  N   UNL     1       4.922  -0.351  -4.374  1.00  0.00    -0.352 N 
ATOM     74  C   UNL     1       5.777  -0.297  -5.443  1.00  0.00     0.253 C 
ATOM     75  H   UNL     1       4.477   0.500  -4.158  1.00  0.00     0.163 HD
ATOM     76  O   UNL     1       6.124   0.799  -5.874  1.00  0.00    -0.269 OA
BRANCH  74  77
ATOM     77  C   UNL     1       6.275  -1.525  -6.102  1.00  0.00     0.063 A 
ATOM     78  C   UNL     1       7.659  -1.579  -6.331  1.00  0.00     0.016 A 
ATOM     79  C   UNL     1       5.428  -2.554  -6.566  1.00  0.00     0.054 A 
ATOM     80  C   UNL     1       8.216  -2.653  -7.019  1.00  0.00     0.001 A 
ATOM     81  C   UNL     1       6.003  -3.587  -7.314  1.00  0.00     0.027 A 
ATOM     82  C   UNL     1       7.385  -3.649  -7.522  1.00  0.00     0.002 A 
BRANCH  79  83
ATOM     83  N   UNL     1       4.043  -2.493  -6.296  1.00  0.00    -0.321 N 
ATOM     84  C   UNL     1       3.055  -3.447  -6.237  1.00  0.00     0.255 C 
ATOM     85  H   UNL     1       3.719  -1.582  -6.112  1.00  0.00     0.170 HD
ATOM     86  O   UNL     1       1.893  -3.105  -6.021  1.00  0.00    -0.269 OA
BRANCH  84  87
ATOM     87  C   UNL     1       3.340  -4.887  -6.358  1.00  0.00     0.043 A 
ATOM     88  C   UNL     1       4.296  -5.521  -5.566  1.00  0.00     0.034 A 
ATOM     89  C   UNL     1       2.604  -5.613  -7.292  1.00  0.00     0.034 A 
ATOM     90  C   UNL     1       4.542  -6.858  -5.817  1.00  0.00     0.112 A 
ATOM     91  C   UNL     1       2.918  -6.946  -7.454  1.00  0.00     0.112 A 
ATOM     92  N   UNL     1       3.884  -7.578  -6.752  1.00  0.00    -0.265 NA
ENDBRANCH  84  87
ENDBRANCH  79  83
ENDBRANCH  74  77
ENDBRANCH  72  73
ENDBRANCH   1  72
TORSDOF 12
