REMARK SMILES COc1ccc(/C=C2/C(=O)N(c3ccccc3)C(=O)[NH+]=C2NCCCNC(=O)c2ccc(-c3c4nc(c(-c5c(F)c(F)c(F)c(F)c5F)c5ccc([nH]5)c(-c5c(F)c(F)c(F)c(F)c5F)c5nc(c(-c6c(F)c(F)c(F)c(F)c6F)c6ccc3[nH]6)C=C5)C=C4)cc2)cc1C(=O)[O-]
REMARK SMILES IDX 24 1 23 2 22 3 7 4 8 5 9 6 21 7 10 8 11 9 20 10 18 11 19 14
REMARK SMILES IDX 6 15 3 16 4 17 93 18 5 19 92 20 2 21 1 22 94 23 95 24 96 25
REMARK SMILES IDX 12 26 13 27 17 28 14 29 16 30 15 31 25 32 26 33 27 34 28 36
REMARK SMILES IDX 29 37 30 38 91 39 31 40 90 41 32 42 33 43 34 44 84 45 35 46
REMARK SMILES IDX 89 47 83 48 85 49 36 50 88 51 82 52 81 53 37 55 69 56 49 57
REMARK SMILES IDX 68 58 50 59 53 60 67 61 86 62 51 63 52 64 66 66 87 67 54 68
REMARK SMILES IDX 38 69 39 70 47 71 40 72 41 73 45 74 48 75 42 76 43 77 46 78
REMARK SMILES IDX 44 79 70 80 71 81 79 82 72 83 73 84 77 85 80 86 74 87 75 88
REMARK SMILES IDX 78 89 76 90 55 91 56 92 64 93 57 94 58 95 62 96 65 97 59 98
REMARK SMILES IDX 60 99 63 100 61 101
REMARK H PARENT 20 12 22 13 26 35 85 54 53 65
REMARK Flexibility Score: inf
ROOT
ATOM      1  C   UNL     1       0.507   2.231   2.570  1.00  0.00     0.059 C 
ENDROOT
BRANCH   1   2
ATOM      2  C   UNL     1       1.711   4.058   2.642  1.00  0.00     0.195 C 
BRANCH   2   3
ATOM      3  N   UNL     1       1.308   5.536   3.130  1.00  0.00    -0.305 N 
ATOM      4  C   UNL     1       1.278   3.875   5.682  1.00  0.00     0.030 C 
ATOM      5  C   UNL     1       1.397   5.213   5.647  1.00  0.00     0.129 C 
ATOM      6  C   UNL     1       1.731   6.023   6.838  1.00  0.00     0.328 C 
ATOM      7  C   UNL     1       1.101   5.994   4.414  1.00  0.00     0.236 C 
ATOM      8  O   UNL     1       2.419   5.560   7.743  1.00  0.00    -0.249 OA
ATOM      9  N   UNL     1       1.146   7.278   6.794  1.00  0.00    -0.155 N 
ATOM     10  N   UNL     1       0.539   7.162   4.529  1.00  0.00    -0.209 N 
ATOM     11  C   UNL     1       0.234   7.606   5.796  1.00  0.00     0.448 C 
ATOM     12  H   UNL     1       0.338   7.710   3.736  1.00  0.00     0.270 HD
ATOM     13  H   UNL     1       1.194   6.204   2.416  1.00  0.00     0.256 HD
ATOM     14  O   UNL     1      -0.797   8.240   6.005  1.00  0.00    -0.212 OA
BRANCH   4  15
ATOM     15  C   UNL     1       0.975   3.208   4.413  1.00  0.00    -0.024 A 
ATOM     16  C   UNL     1       1.341   3.008   0.826  1.00  0.00     0.127 A 
ATOM     17  C   UNL     1      -0.029   3.956   1.547  1.00  0.00     0.048 A 
ATOM     18  C   UNL     1       2.551   2.233   1.900  1.00  0.00     0.040 A 
ATOM     19  C   UNL     1      -0.289   3.947   3.343  1.00  0.00     0.012 A 
ATOM     20  C   UNL     1       2.336   2.282   3.682  1.00  0.00     0.022 A 
BRANCH  16  21
ATOM     21  O   UNL     1       1.388   2.944  -0.536  1.00  0.00    -0.496 OA
ATOM     22  C   UNL     1       1.519   1.595  -0.995  1.00  0.00     0.278 C 
ENDBRANCH  16  21
BRANCH  18  23
ATOM     23  C   UNL     1       3.729   1.531   1.405  1.00  0.00     0.075 C 
ATOM     24  O   UNL     1       4.867   1.947   1.432  1.00  0.00    -0.545 OA
ATOM     25  O   UNL     1       3.401   0.278   1.060  1.00  0.00    -0.545 OA
ENDBRANCH  18  23
ENDBRANCH   4  15
BRANCH   9  26
ATOM     26  C   UNL     1       1.309   8.156   7.886  1.00  0.00     0.111 A 
ATOM     27  C   UNL     1       0.299   8.341   8.833  1.00  0.00     0.044 A 
ATOM     28  C   UNL     1       2.490   8.903   7.963  1.00  0.00     0.044 A 
ATOM     29  C   UNL     1       0.480   9.263   9.865  1.00  0.00     0.004 A 
ATOM     30  C   UNL     1       2.655   9.842   8.979  1.00  0.00     0.004 A 
ATOM     31  C   UNL     1       1.653  10.017   9.932  1.00  0.00     0.000 A 
ENDBRANCH   9  26
ENDBRANCH   2   3
ENDBRANCH   1   2
BRANCH   1  32
ATOM     32  C   UNL     1      -1.046   1.790   1.870  1.00  0.00     0.119 C 
BRANCH  32  33
ATOM     33  N   UNL     1      -1.303   1.948   0.428  1.00  0.00    -0.352 N 
ATOM     34  C   UNL     1      -1.928   1.165  -0.488  1.00  0.00     0.251 C 
ATOM     35  H   UNL     1      -0.952   2.789   0.055  1.00  0.00     0.163 HD
ATOM     36  O   UNL     1      -2.025   1.530  -1.655  1.00  0.00    -0.269 OA
BRANCH  34  37
ATOM     37  C   UNL     1      -2.410  -0.149  -0.094  1.00  0.00     0.039 A 
ATOM     38  C   UNL     1      -2.042  -1.231  -0.896  1.00  0.00     0.014 A 
ATOM     39  C   UNL     1      -3.198  -0.303   1.048  1.00  0.00     0.014 A 
ATOM     40  C   UNL     1      -2.455  -2.500  -0.538  1.00  0.00     0.010 A 
ATOM     41  C   UNL     1      -3.557  -1.576   1.440  1.00  0.00     0.010 A 
ATOM     42  C   UNL     1      -3.209  -2.667   0.630  1.00  0.00    -0.014 A 
BRANCH  42  43
ATOM     43  C   UNL     1      -3.774  -3.980   0.952  1.00  0.00     0.031 A 
ATOM     44  C   UNL     1      -5.239  -4.181   0.726  1.00  0.00     0.074 A 
ATOM     45  C   UNL     1      -2.973  -4.924   1.467  1.00  0.00     0.049 A 
ATOM     46  N   UNL     1      -5.985  -5.211   1.011  1.00  0.00    -0.248 NA
ATOM     47  C   UNL     1      -5.972  -3.051   0.126  1.00  0.00     0.031 C 
ATOM     48  C   UNL     1      -1.540  -4.768   1.723  1.00  0.00     0.029 A 
ATOM     49  N   UNL     1      -3.253  -6.196   1.874  1.00  0.00    -0.354 N 
ATOM     50  C   UNL     1      -7.272  -4.846   0.644  1.00  0.00     0.074 A 
ATOM     51  C   UNL     1      -7.220  -3.485   0.167  1.00  0.00     0.031 C 
ATOM     52  C   UNL     1      -1.062  -5.912   2.239  1.00  0.00     0.029 A 
ATOM     53  C   UNL     1      -2.161  -6.862   2.370  1.00  0.00     0.049 A 
ATOM     54  H   UNL     1      -4.150  -6.597   1.817  1.00  0.00     0.167 HD
ATOM     55  C   UNL     1      -8.391  -5.604   0.687  1.00  0.00     0.037 A 
ATOM     56  C   UNL     1      -2.082  -8.106   2.874  1.00  0.00     0.037 A 
ATOM     57  C   UNL     1      -8.392  -6.963   1.150  1.00  0.00     0.049 A 
ATOM     58  C   UNL     1      -3.339  -8.933   2.890  1.00  0.00     0.074 A 
ATOM     59  C   UNL     1      -9.444  -7.854   1.231  1.00  0.00     0.029 A 
ATOM     60  N   UNL     1      -7.260  -7.629   1.608  1.00  0.00    -0.354 N 
ATOM     61  N   UNL     1      -4.552  -8.601   2.512  1.00  0.00    -0.248 NA
ATOM     62  C   UNL     1      -3.217 -10.308   3.387  1.00  0.00     0.031 C 
ATOM     63  C   UNL     1      -8.953  -9.051   1.766  1.00  0.00     0.029 A 
ATOM     64  C   UNL     1      -7.587  -8.920   1.977  1.00  0.00     0.049 A 
ATOM     65  H   UNL     1      -6.358  -7.238   1.662  1.00  0.00     0.167 HD
ATOM     66  C   UNL     1      -5.334  -9.730   2.697  1.00  0.00     0.074 A 
ATOM     67  C   UNL     1      -4.451 -10.761   3.210  1.00  0.00     0.031 C 
ATOM     68  C   UNL     1      -6.660  -9.908   2.470  1.00  0.00     0.037 A 
BRANCH  55  69
ATOM     69  C   UNL     1      -9.671  -4.967   0.232  1.00  0.00     0.064 A 
ATOM     70  C   UNL     1      -9.889  -4.629  -1.113  1.00  0.00     0.173 A 
ATOM     71  C   UNL     1     -10.683  -4.665   1.154  1.00  0.00     0.173 A 
ATOM     72  F   UNL     1      -8.941  -4.872  -2.032  1.00  0.00    -0.203 F 
ATOM     73  C   UNL     1     -11.056  -3.982  -1.512  1.00  0.00     0.198 A 
ATOM     74  C   UNL     1     -11.863  -4.046   0.747  1.00  0.00     0.198 A 
ATOM     75  F   UNL     1     -10.525  -4.959   2.453  1.00  0.00    -0.203 F 
ATOM     76  F   UNL     1     -11.212  -3.613  -2.791  1.00  0.00    -0.200 F 
ATOM     77  C   UNL     1     -12.044  -3.696  -0.583  1.00  0.00     0.200 A 
ATOM     78  F   UNL     1     -12.819  -3.774   1.645  1.00  0.00    -0.200 F 
ATOM     79  F   UNL     1     -13.165  -3.070  -0.966  1.00  0.00    -0.200 F 
ENDBRANCH  55  69
BRANCH  56  80
ATOM     80  C   UNL     1      -0.779  -8.636   3.346  1.00  0.00     0.064 A 
ATOM     81  C   UNL     1      -0.113  -9.644   2.635  1.00  0.00     0.173 A 
ATOM     82  C   UNL     1      -0.154  -8.130   4.495  1.00  0.00     0.173 A 
ATOM     83  F   UNL     1      -0.672 -10.165   1.532  1.00  0.00    -0.203 F 
ATOM     84  C   UNL     1       1.116 -10.139   3.066  1.00  0.00     0.198 A 
ATOM     85  C   UNL     1       1.087  -8.608   4.911  1.00  0.00     0.198 A 
ATOM     86  F   UNL     1      -0.740  -7.153   5.203  1.00  0.00    -0.203 F 
ATOM     87  F   UNL     1       1.713 -11.127   2.385  1.00  0.00    -0.200 F 
ATOM     88  C   UNL     1       1.718  -9.617   4.200  1.00  0.00     0.200 A 
ATOM     89  F   UNL     1       1.674  -8.086   5.997  1.00  0.00    -0.200 F 
ATOM     90  F   UNL     1       2.904 -10.088   4.609  1.00  0.00    -0.200 F 
ENDBRANCH  56  80
BRANCH  68  91
ATOM     91  C   UNL     1      -7.210 -11.273   2.744  1.00  0.00     0.064 A 
ATOM     92  C   UNL     1      -7.413 -11.730   4.052  1.00  0.00     0.173 A 
ATOM     93  C   UNL     1      -7.584 -12.108   1.681  1.00  0.00     0.173 A 
ATOM     94  F   UNL     1      -7.056 -10.969   5.097  1.00  0.00    -0.203 F 
ATOM     95  C   UNL     1      -7.953 -12.990   4.288  1.00  0.00     0.198 A 
ATOM     96  C   UNL     1      -8.150 -13.354   1.921  1.00  0.00     0.198 A 
ATOM     97  F   UNL     1      -7.414 -11.706   0.412  1.00  0.00    -0.203 F 
ATOM     98  F   UNL     1      -8.100 -13.428   5.546  1.00  0.00    -0.200 F 
ATOM     99  C   UNL     1      -8.327 -13.797   3.223  1.00  0.00     0.200 A 
ATOM    100  F   UNL     1      -8.523 -14.128   0.892  1.00  0.00    -0.200 F 
ATOM    101  F   UNL     1      -8.855 -15.007   3.453  1.00  0.00    -0.200 F 
ENDBRANCH  68  91
ENDBRANCH  42  43
ENDBRANCH  34  37
ENDBRANCH  32  33
ENDBRANCH   1  32
TORSDOF 13
