REMARK SMILES CC[C@@H](C)[C@H](NC(=O)[C@H](C)N1C(=O)N2CCC3=c4cc(OC)ccc4=N[C@H]3[C@@]2(C)C1=O)C(=O)NCCCNC(=O)c1ccc(-c2c3nc(c(-c4c(F)c(F)c(F)c(F)c4F)c4ccc([nH]4)c(-c4c(F)c(F)c(F)c(F)c4F)c4nc(c(-c5c(F)c(F)c(F)c(F)c5F)c5ccc2[nH]5)C=C4)C=C3)cc1
REMARK SMILES IDX 35 1 34 2 32 3 33 4 5 6 3 7 4 8 2 9 1 10 6 11 7 12 8 14 9 15
REMARK SMILES IDX 10 16 11 17 12 18 30 19 14 20 13 21 28 22 31 23 15 24 27 25
REMARK SMILES IDX 29 26 16 27 17 28 26 29 18 30 25 31 19 32 24 33 20 34 23 35
REMARK SMILES IDX 21 36 22 37 36 38 37 39 38 40 39 41 40 43 41 44 42 45 103 46
REMARK SMILES IDX 43 47 102 48 44 49 45 50 46 51 96 52 47 53 101 54 95 55
REMARK SMILES IDX 97 56 48 57 100 58 94 59 93 60 49 62 81 63 61 64 80 65 62 66
REMARK SMILES IDX 65 67 79 68 98 69 63 70 64 71 78 73 99 74 66 75 50 76 51 77
REMARK SMILES IDX 59 78 52 79 53 80 57 81 60 82 54 83 55 84 58 85 56 86 82 87
REMARK SMILES IDX 83 88 91 89 84 90 85 91 89 92 92 93 86 94 87 95 90 96 88 97
REMARK SMILES IDX 67 98 68 99 76 100 69 101 70 102 74 103 77 104 71 105 72 106
REMARK SMILES IDX 75 107 73 108
REMARK H PARENT 34 5 6 13 38 42 97 61 65 72
REMARK Flexibility Score: inf
ROOT
ATOM      1  C   UNL     1      -2.785  -0.532   2.183  1.00  0.00     0.117 C 
ENDROOT
BRANCH   1   2
ATOM      2  N   UNL     1      -1.362  -0.415   1.921  1.00  0.00    -0.354 N 
ATOM      3  C   UNL     1      -0.476   0.617   1.933  1.00  0.00     0.242 C 
ATOM      4  O   UNL     1       0.705   0.247   1.998  1.00  0.00    -0.273 OA
ATOM      5  H   UNL     1      -0.945  -1.274   1.681  1.00  0.00     0.163 HD
BRANCH   3   6
ATOM      6  C   UNL     1      -0.849   2.112   2.169  1.00  0.00     0.174 C 
BRANCH   6   7
ATOM      7  C   UNL     1      -0.805   2.306   3.741  1.00  0.00     0.018 C 
ATOM      8  C   UNL     1      -1.595   1.258   4.560  1.00  0.00     0.010 C 
BRANCH   7   9
ATOM      9  C   UNL     1      -1.239   3.728   4.147  1.00  0.00     0.002 C 
ATOM     10  C   UNL     1      -1.172   3.980   5.648  1.00  0.00     0.004 C 
ENDBRANCH   7   9
ENDBRANCH   6   7
BRANCH   6  11
ATOM     11  N   UNL     1      -2.117   2.623   1.614  1.00  0.00    -0.342 N 
ATOM     12  C   UNL     1      -2.570   3.524   0.710  1.00  0.00     0.243 C 
ATOM     13  H   UNL     1      -2.877   2.162   2.035  1.00  0.00     0.164 HD
ATOM     14  O   UNL     1      -3.808   3.659   0.810  1.00  0.00    -0.273 OA
BRANCH  12  15
ATOM     15  C   UNL     1      -1.903   4.198  -0.535  1.00  0.00     0.181 C 
ATOM     16  C   UNL     1      -1.697   3.028  -1.563  1.00  0.00     0.042 C 
BRANCH  15  17
ATOM     17  N   UNL     1      -0.947   5.337  -0.773  1.00  0.00    -0.250 N 
ATOM     18  C   UNL     1      -0.178   6.238   0.010  1.00  0.00     0.328 C 
ATOM     19  C   UNL     1      -0.606   5.542  -2.073  1.00  0.00     0.259 C 
ATOM     20  N   UNL     1       0.806   6.912  -0.930  1.00  0.00    -0.307 N 
ATOM     21  O   UNL     1      -0.201   6.383   1.221  1.00  0.00    -0.248 OA
ATOM     22  C   UNL     1       0.772   6.042  -2.055  1.00  0.00     0.147 C 
ATOM     23  O   UNL     1      -1.210   5.227  -3.103  1.00  0.00    -0.271 OA
ATOM     24  C   UNL     1       2.313   7.351  -0.687  1.00  0.00     0.127 C 
ATOM     25  C   UNL     1       1.664   4.884  -1.483  1.00  0.00     0.168 C 
ATOM     26  C   UNL     1       1.059   6.816  -3.349  1.00  0.00     0.048 C 
ATOM     27  C   UNL     1       3.520   6.307  -1.539  1.00  0.00     0.055 C 
ATOM     28  C   UNL     1       3.057   4.786  -1.909  1.00  0.00    -0.032 C 
ATOM     29  N   UNL     1       1.384   3.946  -0.329  1.00  0.00    -0.274 NA
ATOM     30  C   UNL     1       3.390   3.513  -1.512  1.00  0.00     0.005 A 
ATOM     31  C   UNL     1       2.614   3.481  -0.205  1.00  0.00     0.066 A 
ATOM     32  C   UNL     1       2.739   2.227  -2.138  1.00  0.00     0.056 A 
ATOM     33  C   UNL     1       3.036   2.432   0.716  1.00  0.00     0.032 A 
ATOM     34  C   UNL     1       2.236   1.278  -1.267  1.00  0.00     0.119 A 
ATOM     35  C   UNL     1       2.806   1.261   0.100  1.00  0.00     0.048 A 
BRANCH  34  36
ATOM     36  O   UNL     1       0.845   1.203  -1.188  1.00  0.00    -0.497 OA
ATOM     37  C   UNL     1       0.163  -0.015  -1.389  1.00  0.00     0.278 C 
ENDBRANCH  34  36
ENDBRANCH  15  17
ENDBRANCH  12  15
ENDBRANCH   6  11
ENDBRANCH   3   6
ENDBRANCH   1   2
BRANCH   1  38
ATOM     38  C   UNL     1      -3.519  -1.268   1.075  1.00  0.00     0.042 C 
BRANCH  38  39
ATOM     39  C   UNL     1      -2.847  -2.571   0.654  1.00  0.00     0.118 C 
BRANCH  39  40
ATOM     40  N   UNL     1      -2.812  -3.585   1.706  1.00  0.00    -0.352 N 
ATOM     41  C   UNL     1      -3.671  -4.628   1.970  1.00  0.00     0.251 C 
ATOM     42  H   UNL     1      -2.051  -3.510   2.325  1.00  0.00     0.163 HD
ATOM     43  O   UNL     1      -3.551  -5.289   2.996  1.00  0.00    -0.269 OA
BRANCH  41  44
ATOM     44  C   UNL     1      -4.773  -4.911   1.032  1.00  0.00     0.039 A 
ATOM     45  C   UNL     1      -4.526  -4.943  -0.337  1.00  0.00     0.014 A 
ATOM     46  C   UNL     1      -6.071  -5.076   1.519  1.00  0.00     0.014 A 
ATOM     47  C   UNL     1      -5.590  -4.876  -1.221  1.00  0.00     0.010 A 
ATOM     48  C   UNL     1      -7.136  -5.152   0.619  1.00  0.00     0.010 A 
ATOM     49  C   UNL     1      -6.910  -4.988  -0.757  1.00  0.00    -0.014 A 
BRANCH  49  50
ATOM     50  C   UNL     1      -8.033  -4.944  -1.728  1.00  0.00     0.031 A 
ATOM     51  C   UNL     1      -9.093  -3.879  -1.631  1.00  0.00     0.074 A 
ATOM     52  C   UNL     1      -8.064  -5.844  -2.731  1.00  0.00     0.049 A 
ATOM     53  N   UNL     1     -10.190  -3.743  -2.333  1.00  0.00    -0.248 NA
ATOM     54  C   UNL     1      -8.900  -2.829  -0.617  1.00  0.00     0.031 C 
ATOM     55  C   UNL     1      -7.064  -6.891  -2.958  1.00  0.00     0.029 A 
ATOM     56  N   UNL     1      -8.955  -6.013  -3.758  1.00  0.00    -0.354 N 
ATOM     57  C   UNL     1     -10.824  -2.610  -1.836  1.00  0.00     0.074 A 
ATOM     58  C   UNL     1     -10.005  -2.108  -0.754  1.00  0.00     0.031 C 
ATOM     59  C   UNL     1      -7.366  -7.554  -4.082  1.00  0.00     0.029 A 
ATOM     60  C   UNL     1      -8.632  -7.053  -4.596  1.00  0.00     0.049 A 
ATOM     61  H   UNL     1      -9.749  -5.445  -3.884  1.00  0.00     0.167 HD
ATOM     62  C   UNL     1     -11.978  -2.039  -2.257  1.00  0.00     0.037 A 
ATOM     63  C   UNL     1      -9.302  -7.574  -5.639  1.00  0.00     0.037 A 
ATOM     64  C   UNL     1     -12.775  -2.539  -3.349  1.00  0.00     0.049 A 
ATOM     65  C   UNL     1     -10.626  -6.977  -6.017  1.00  0.00     0.074 A 
ATOM     66  C   UNL     1     -13.975  -2.049  -3.835  1.00  0.00     0.029 A 
ATOM     67  N   UNL     1     -12.446  -3.636  -4.132  1.00  0.00    -0.354 N 
ATOM     68  N   UNL     1     -11.240  -5.936  -5.509  1.00  0.00    -0.248 NA
ATOM     69  C   UNL     1     -11.356  -7.635  -7.107  1.00  0.00     0.031 C 
ATOM     70  C   UNL     1     -14.393  -2.874  -4.883  1.00  0.00     0.029 A 
ATOM     71  C   UNL     1     -13.425  -3.842  -5.092  1.00  0.00     0.049 A 
ATOM     72  H   UNL     1     -11.637  -4.186  -4.022  1.00  0.00     0.167 HD
ATOM     73  C   UNL     1     -12.410  -5.793  -6.239  1.00  0.00     0.074 A 
ATOM     74  C   UNL     1     -12.410  -6.843  -7.237  1.00  0.00     0.031 C 
ATOM     75  C   UNL     1     -13.399  -4.878  -6.092  1.00  0.00     0.037 A 
BRANCH  62  76
ATOM     76  C   UNL     1     -12.466  -0.807  -1.548  1.00  0.00     0.064 A 
ATOM     77  C   UNL     1     -11.838   0.435  -1.721  1.00  0.00     0.173 A 
ATOM     78  C   UNL     1     -13.639  -0.846  -0.777  1.00  0.00     0.173 A 
ATOM     79  F   UNL     1     -10.708   0.526  -2.438  1.00  0.00    -0.203 F 
ATOM     80  C   UNL     1     -12.367   1.591  -1.152  1.00  0.00     0.198 A 
ATOM     81  C   UNL     1     -14.180   0.316  -0.233  1.00  0.00     0.198 A 
ATOM     82  F   UNL     1     -14.282  -2.007  -0.584  1.00  0.00    -0.203 F 
ATOM     83  F   UNL     1     -11.741   2.765  -1.317  1.00  0.00    -0.200 F 
ATOM     84  C   UNL     1     -13.545   1.533  -0.421  1.00  0.00     0.200 A 
ATOM     85  F   UNL     1     -15.328   0.260   0.458  1.00  0.00    -0.200 F 
ATOM     86  F   UNL     1     -14.069   2.652   0.100  1.00  0.00    -0.200 F 
ENDBRANCH  62  76
BRANCH  63  87
ATOM     87  C   UNL     1      -8.740  -8.732  -6.383  1.00  0.00     0.064 A 
ATOM     88  C   UNL     1      -8.357  -8.605  -7.724  1.00  0.00     0.173 A 
ATOM     89  C   UNL     1      -8.575  -9.987  -5.774  1.00  0.00     0.173 A 
ATOM     90  F   UNL     1      -8.511  -7.432  -8.356  1.00  0.00    -0.203 F 
ATOM     91  C   UNL     1      -7.851  -9.691  -8.435  1.00  0.00     0.198 A 
ATOM     92  C   UNL     1      -8.034 -11.062  -6.474  1.00  0.00     0.198 A 
ATOM     93  F   UNL     1      -8.921 -10.163  -4.490  1.00  0.00    -0.203 F 
ATOM     94  F   UNL     1      -7.542  -9.555  -9.731  1.00  0.00    -0.200 F 
ATOM     95  C   UNL     1      -7.683 -10.916  -7.807  1.00  0.00     0.200 A 
ATOM     96  F   UNL     1      -7.853 -12.237  -5.856  1.00  0.00    -0.200 F 
ATOM     97  F   UNL     1      -7.189 -11.959  -8.489  1.00  0.00    -0.200 F 
ENDBRANCH  63  87
BRANCH  75  98
ATOM     98  C   UNL     1     -14.535  -4.933  -7.072  1.00  0.00     0.064 A 
ATOM     99  C   UNL     1     -15.472  -5.977  -7.060  1.00  0.00     0.173 A 
ATOM    100  C   UNL     1     -14.705  -3.909  -8.016  1.00  0.00     0.173 A 
ATOM    101  F   UNL     1     -15.345  -6.988  -6.187  1.00  0.00    -0.203 F 
ATOM    102  C   UNL     1     -16.515  -6.011  -7.980  1.00  0.00     0.198 A 
ATOM    103  C   UNL     1     -15.772  -3.927  -8.909  1.00  0.00     0.198 A 
ATOM    104  F   UNL     1     -13.843  -2.882  -8.064  1.00  0.00    -0.203 F 
ATOM    105  F   UNL     1     -17.362  -7.050  -7.990  1.00  0.00    -0.200 F 
ATOM    106  C   UNL     1     -16.670  -4.983  -8.898  1.00  0.00     0.200 A 
ATOM    107  F   UNL     1     -15.929  -2.923  -9.783  1.00  0.00    -0.200 F 
ATOM    108  F   UNL     1     -17.680  -5.014  -9.777  1.00  0.00    -0.200 F 
ENDBRANCH  75  98
ENDBRANCH  49  50
ENDBRANCH  41  44
ENDBRANCH  39  40
ENDBRANCH  38  39
ENDBRANCH   1  38
TORSDOF 16
