REMARK SMILES CCNC(=O)NC(=O)[C@@H](C)[NH2+][C@](C)(CC)C(=O)NCCCNC(=O)c1ccc(-c2c3nc(c(-c4c(F)c(F)c(F)c(F)c4F)c4ccc([nH]4)c(-c4c(F)c(F)c(F)c(F)c4F)c4nc(c(-c5c(F)c(F)c(F)c(F)c5F)c5ccc2[nH]5)C=C4)C=C3)cc1
REMARK SMILES IDX 19 1 18 2 16 3 17 4 12 6 13 7 11 8 9 11 10 12 7 13 3 14 4 15
REMARK SMILES IDX 5 17 6 18 8 20 2 21 1 22 14 23 15 24 20 25 21 26 22 27 23 28
REMARK SMILES IDX 24 30 25 31 26 32 87 33 27 34 86 35 28 36 29 37 30 38 80 39
REMARK SMILES IDX 31 40 85 41 79 42 81 43 32 44 84 45 78 46 77 47 33 49 65 50
REMARK SMILES IDX 45 51 64 52 46 53 49 54 63 55 82 56 47 57 48 58 62 60 83 61
REMARK SMILES IDX 50 62 34 63 35 64 43 65 36 66 37 67 41 68 44 69 38 70 39 71
REMARK SMILES IDX 42 72 40 73 66 74 67 75 75 76 68 77 69 78 73 79 76 80 70 81
REMARK SMILES IDX 71 82 74 83 72 84 51 85 52 86 60 87 53 88 54 89 58 90 61 91
REMARK SMILES IDX 55 92 56 93 59 94 57 95
REMARK H PARENT 18 5 11 9 11 10 3 16 6 19 22 29 81 48 49 59
REMARK Flexibility Score: inf
ROOT
ATOM      1  C   UNL     1       2.490   0.978  -3.878  1.00  0.00     0.118 C 
ENDROOT
BRANCH   1   2
ATOM      2  N   UNL     1       1.054   0.778  -3.808  1.00  0.00    -0.351 N 
ATOM      3  C   UNL     1       0.321  -0.305  -3.425  1.00  0.00     0.281 C 
ATOM      4  O   UNL     1      -0.892  -0.244  -3.648  1.00  0.00    -0.268 OA
ATOM      5  H   UNL     1       0.519   1.557  -4.085  1.00  0.00     0.163 HD
BRANCH   3   6
ATOM      6  C   UNL     1       0.973  -1.503  -2.632  1.00  0.00     0.173 C 
ATOM      7  C   UNL     1      -0.201  -2.414  -2.205  1.00  0.00     0.090 C 
BRANCH   6   8
ATOM      8  N   UNL     1       1.620  -0.850  -1.477  1.00  0.00    -0.324 N 
ATOM      9  H   UNL     1       2.101  -0.036  -1.861  1.00  0.00     0.347 HD
ATOM     10  H   UNL     1       0.821  -0.761  -0.850  1.00  0.00     0.347 HD
BRANCH   8  11
ATOM     11  C   UNL     1       2.581  -1.480  -0.582  1.00  0.00     0.270 C 
ATOM     12  C   UNL     1       2.276  -2.780   0.159  1.00  0.00     0.086 C 
BRANCH  11  13
ATOM     13  C   UNL     1       3.070  -0.437   0.436  1.00  0.00     0.285 C 
ATOM     14  N   UNL     1      -0.141   0.030   1.650  1.00  0.00    -0.338 N 
ATOM     15  C   UNL     1       1.039   0.609   1.874  1.00  0.00     0.321 C 
ATOM     16  H   UNL     1      -0.850   0.388   2.231  1.00  0.00     0.165 HD
ATOM     17  O   UNL     1       1.046   1.535   2.694  1.00  0.00    -0.248 OA
ATOM     18  N   UNL     1       2.248   0.291   1.306  1.00  0.00    -0.273 N 
ATOM     19  H   UNL     1       2.875   0.907   1.748  1.00  0.00     0.175 HD
ATOM     20  O   UNL     1       4.286  -0.212   0.535  1.00  0.00    -0.268 OA
BRANCH  14  21
ATOM     21  C   UNL     1      -0.622  -0.988   0.766  1.00  0.00     0.114 C 
ATOM     22  C   UNL     1      -1.300  -2.155   1.450  1.00  0.00     0.027 C 
ENDBRANCH  14  21
ENDBRANCH  11  13
ENDBRANCH   8  11
ENDBRANCH   6   8
BRANCH   6  23
ATOM     23  C   UNL     1       1.954  -2.325  -3.502  1.00  0.00     0.075 C 
ATOM     24  C   UNL     1       1.316  -2.990  -4.723  1.00  0.00     0.011 C 
ENDBRANCH   6  23
ENDBRANCH   3   6
ENDBRANCH   1   2
BRANCH   1  25
ATOM     25  C   UNL     1       2.987   0.740  -5.299  1.00  0.00     0.042 C 
BRANCH  25  26
ATOM     26  C   UNL     1       2.349   1.675  -6.319  1.00  0.00     0.118 C 
BRANCH  26  27
ATOM     27  N   UNL     1       2.726   3.066  -6.108  1.00  0.00    -0.352 N 
ATOM     28  C   UNL     1       3.512   3.887  -6.880  1.00  0.00     0.251 C 
ATOM     29  H   UNL     1       2.363   3.480  -5.292  1.00  0.00     0.163 HD
ATOM     30  O   UNL     1       3.901   4.962  -6.444  1.00  0.00    -0.269 OA
BRANCH  28  31
ATOM     31  C   UNL     1       3.909   3.448  -8.234  1.00  0.00     0.039 A 
ATOM     32  C   UNL     1       5.243   3.578  -8.624  1.00  0.00     0.014 A 
ATOM     33  C   UNL     1       2.970   2.891  -9.104  1.00  0.00     0.014 A 
ATOM     34  C   UNL     1       5.653   3.063  -9.855  1.00  0.00     0.010 A 
ATOM     35  C   UNL     1       3.394   2.302 -10.289  1.00  0.00     0.010 A 
ATOM     36  C   UNL     1       4.742   2.373 -10.672  1.00  0.00    -0.014 A 
BRANCH  36  37
ATOM     37  C   UNL     1       5.175   1.694 -11.919  1.00  0.00     0.031 A 
ATOM     38  C   UNL     1       4.612   2.126 -13.243  1.00  0.00     0.074 A 
ATOM     39  C   UNL     1       6.008   0.637 -11.846  1.00  0.00     0.049 A 
ATOM     40  N   UNL     1       4.763   1.581 -14.424  1.00  0.00    -0.248 NA
ATOM     41  C   UNL     1       3.745   3.315 -13.237  1.00  0.00     0.031 C 
ATOM     42  C   UNL     1       6.598   0.107 -10.615  1.00  0.00     0.029 A 
ATOM     43  N   UNL     1       6.492  -0.193 -12.827  1.00  0.00    -0.354 N 
ATOM     44  C   UNL     1       4.011   2.357 -15.296  1.00  0.00     0.074 A 
ATOM     45  C   UNL     1       3.355   3.373 -14.502  1.00  0.00     0.031 C 
ATOM     46  C   UNL     1       7.377  -0.944 -10.916  1.00  0.00     0.029 A 
ATOM     47  C   UNL     1       7.299  -1.198 -12.351  1.00  0.00     0.049 A 
ATOM     48  H   UNL     1       6.280  -0.079 -13.781  1.00  0.00     0.167 HD
ATOM     49  C   UNL     1       3.900   2.246 -16.641  1.00  0.00     0.037 A 
ATOM     50  C   UNL     1       7.890  -2.222 -12.996  1.00  0.00     0.037 A 
ATOM     51  C   UNL     1       4.563   1.238 -17.426  1.00  0.00     0.049 A 
ATOM     52  C   UNL     1       7.688  -2.361 -14.483  1.00  0.00     0.074 A 
ATOM     53  C   UNL     1       4.541   1.063 -18.798  1.00  0.00     0.029 A 
ATOM     54  N   UNL     1       5.364   0.232 -16.906  1.00  0.00    -0.354 N 
ATOM     55  N   UNL     1       7.023  -1.587 -15.305  1.00  0.00    -0.248 NA
ATOM     56  C   UNL     1       8.315  -3.522 -15.130  1.00  0.00     0.031 C 
ATOM     57  C   UNL     1       5.287  -0.079 -19.104  1.00  0.00     0.029 A 
ATOM     58  C   UNL     1       5.818  -0.585 -17.929  1.00  0.00     0.049 A 
ATOM     59  H   UNL     1       5.578   0.116 -15.952  1.00  0.00     0.167 HD
ATOM     60  C   UNL     1       7.177  -2.147 -16.566  1.00  0.00     0.074 A 
ATOM     61  C   UNL     1       8.015  -3.316 -16.405  1.00  0.00     0.031 C 
ATOM     62  C   UNL     1       6.666  -1.735 -17.751  1.00  0.00     0.037 A 
BRANCH  49  63
ATOM     63  C   UNL     1       3.042   3.249 -17.355  1.00  0.00     0.064 A 
ATOM     64  C   UNL     1       3.430   4.592 -17.473  1.00  0.00     0.173 A 
ATOM     65  C   UNL     1       1.849   2.854 -17.981  1.00  0.00     0.173 A 
ATOM     66  F   UNL     1       4.556   5.023 -16.884  1.00  0.00    -0.203 F 
ATOM     67  C   UNL     1       2.646   5.507 -18.171  1.00  0.00     0.198 A 
ATOM     68  C   UNL     1       1.085   3.764 -18.705  1.00  0.00     0.198 A 
ATOM     69  F   UNL     1       1.435   1.580 -17.906  1.00  0.00    -0.203 F 
ATOM     70  F   UNL     1       3.017   6.793 -18.234  1.00  0.00    -0.200 F 
ATOM     71  C   UNL     1       1.480   5.090 -18.795  1.00  0.00     0.200 A 
ATOM     72  F   UNL     1      -0.034   3.357 -19.321  1.00  0.00    -0.200 F 
ATOM     73  F   UNL     1       0.735   5.969 -19.480  1.00  0.00    -0.200 F 
ENDBRANCH  49  63
BRANCH  50  74
ATOM     74  C   UNL     1       8.722  -3.205 -12.252  1.00  0.00     0.064 A 
ATOM     75  C   UNL     1      10.099  -3.312 -12.498  1.00  0.00     0.173 A 
ATOM     76  C   UNL     1       8.159  -4.086 -11.316  1.00  0.00     0.173 A 
ATOM     77  F   UNL     1      10.682  -2.508 -13.399  1.00  0.00    -0.203 F 
ATOM     78  C   UNL     1      10.872  -4.284 -11.864  1.00  0.00     0.198 A 
ATOM     79  C   UNL     1       8.940  -5.033 -10.657  1.00  0.00     0.198 A 
ATOM     80  F   UNL     1       6.848  -4.026 -11.040  1.00  0.00    -0.203 F 
ATOM     81  F   UNL     1      12.171  -4.406 -12.169  1.00  0.00    -0.200 F 
ATOM     82  C   UNL     1      10.292  -5.141 -10.941  1.00  0.00     0.200 A 
ATOM     83  F   UNL     1       8.378  -5.849  -9.754  1.00  0.00    -0.200 F 
ATOM     84  F   UNL     1      11.034  -6.079 -10.337  1.00  0.00    -0.200 F 
ENDBRANCH  50  74
BRANCH  62  85
ATOM     85  C   UNL     1       7.024  -2.529 -18.974  1.00  0.00     0.064 A 
ATOM     86  C   UNL     1       6.489  -3.805 -19.202  1.00  0.00     0.173 A 
ATOM     87  C   UNL     1       7.862  -1.981 -19.957  1.00  0.00     0.173 A 
ATOM     88  F   UNL     1       5.696  -4.379 -18.285  1.00  0.00    -0.203 F 
ATOM     89  C   UNL     1       6.794  -4.511 -20.363  1.00  0.00     0.198 A 
ATOM     90  C   UNL     1       8.138  -2.676 -21.131  1.00  0.00     0.198 A 
ATOM     91  F   UNL     1       8.395  -0.762 -19.789  1.00  0.00    -0.203 F 
ATOM     92  F   UNL     1       6.304  -5.745 -20.542  1.00  0.00    -0.200 F 
ATOM     93  C   UNL     1       7.609  -3.942 -21.330  1.00  0.00     0.200 A 
ATOM     94  F   UNL     1       8.913  -2.118 -22.071  1.00  0.00    -0.200 F 
ATOM     95  F   UNL     1       7.887  -4.616 -22.455  1.00  0.00    -0.200 F 
ENDBRANCH  62  85
ENDBRANCH  36  37
ENDBRANCH  28  31
ENDBRANCH  26  27
ENDBRANCH  25  26
ENDBRANCH   1  25
TORSDOF 15
