REMARK SMILES C[C@@H](C(=O)NCCCNC(=O)c1ccc(-c2c3nc(c(-c4c(F)c(F)c(F)c(F)c4F)c4ccc([nH]4)c(-c4c(F)c(F)c(F)c(F)c4F)c4nc(c(-c5c(F)c(F)c(F)c(F)c5F)c5ccc2[nH]5)C=C4)C=C3)cc1)[C@@H](N[S@](=O)C(C)(C)C)C(C)(C)C
REMARK SMILES IDX 6 1 5 2 3 3 4 4 2 6 1 7 75 8 76 9 77 11 78 12 79 13 80 14
REMARK SMILES IDX 81 15 82 16 83 17 84 18 85 19 86 20 7 21 8 22 9 23 10 24
REMARK SMILES IDX 11 26 12 27 13 28 74 29 14 30 73 31 15 32 16 33 17 34 67 35
REMARK SMILES IDX 18 36 72 37 66 38 68 39 19 40 71 41 65 42 64 43 20 45 52 46
REMARK SMILES IDX 32 47 51 48 33 49 36 50 50 51 69 52 34 53 35 54 49 56 70 57
REMARK SMILES IDX 37 58 21 59 22 60 30 61 23 62 24 63 28 64 31 65 25 66 26 67
REMARK SMILES IDX 29 68 27 69 53 70 54 71 62 72 55 73 56 74 60 75 63 76 57 77
REMARK SMILES IDX 58 78 61 79 59 80 38 81 39 82 47 83 40 84 41 85 45 86 48 87
REMARK SMILES IDX 42 88 43 89 46 90 44 91
REMARK H PARENT 5 5 76 10 9 25 68 44 36 55
REMARK Flexibility Score: inf
ROOT
ATOM      1  C   UNL     1      -5.272  -5.322   4.500  1.00  0.00     0.117 C 
ENDROOT
BRANCH   1   2
ATOM      2  N   UNL     1      -5.677  -5.033   3.133  1.00  0.00    -0.356 N 
ATOM      3  C   UNL     1      -5.704  -3.845   2.463  1.00  0.00     0.224 C 
ATOM      4  O   UNL     1      -6.462  -3.749   1.497  1.00  0.00    -0.275 OA
ATOM      5  H   UNL     1      -5.977  -5.814   2.613  1.00  0.00     0.163 HD
BRANCH   3   6
ATOM      6  C   UNL     1      -4.837  -2.684   2.936  1.00  0.00     0.094 C 
ATOM      7  C   UNL     1      -5.725  -1.917   3.934  1.00  0.00     0.020 C 
BRANCH   6   8
ATOM      8  C   UNL     1      -4.304  -1.804   1.722  1.00  0.00     0.085 C 
BRANCH   8   9
ATOM      9  N   UNL     1      -3.783  -0.517   2.292  1.00  0.00    -0.233 NA
ATOM     10  H   UNL     1      -3.136  -0.784   3.034  1.00  0.00     0.138 HD
BRANCH   9  11
ATOM     11  S   UNL     1      -2.993   0.635   1.396  1.00  0.00     0.097 S 
ATOM     12  O   UNL     1      -1.549   0.755   1.774  1.00  0.00    -0.242 OA
BRANCH  11  13
ATOM     13  C   UNL     1      -3.850   2.179   1.957  1.00  0.00     0.052 C 
ATOM     14  C   UNL     1      -3.432   2.547   3.384  1.00  0.00     0.027 C 
ATOM     15  C   UNL     1      -3.378   3.286   0.990  1.00  0.00     0.027 C 
ATOM     16  C   UNL     1      -5.373   2.059   1.841  1.00  0.00     0.027 C 
ENDBRANCH  11  13
ENDBRANCH   9  11
ENDBRANCH   8   9
BRANCH   8  17
ATOM     17  C   UNL     1      -3.261  -2.585   0.760  1.00  0.00    -0.021 C 
ATOM     18  C   UNL     1      -3.807  -3.924   0.211  1.00  0.00     0.012 C 
ATOM     19  C   UNL     1      -2.929  -1.773  -0.523  1.00  0.00     0.012 C 
ATOM     20  C   UNL     1      -1.949  -2.910   1.502  1.00  0.00     0.012 C 
ENDBRANCH   8  17
ENDBRANCH   6   8
ENDBRANCH   3   6
ENDBRANCH   1   2
BRANCH   1  21
ATOM     21  C   UNL     1      -6.500  -5.506   5.394  1.00  0.00     0.042 C 
BRANCH  21  22
ATOM     22  C   UNL     1      -7.362  -6.716   5.032  1.00  0.00     0.118 C 
BRANCH  22  23
ATOM     23  N   UNL     1      -6.712  -7.982   5.335  1.00  0.00    -0.352 N 
ATOM     24  C   UNL     1      -7.106  -8.997   6.173  1.00  0.00     0.251 C 
ATOM     25  H   UNL     1      -5.858  -8.135   4.869  1.00  0.00     0.163 HD
ATOM     26  O   UNL     1      -6.328  -9.914   6.428  1.00  0.00    -0.269 OA
BRANCH  24  27
ATOM     27  C   UNL     1      -8.445  -8.979   6.801  1.00  0.00     0.039 A 
ATOM     28  C   UNL     1      -8.549  -9.264   8.165  1.00  0.00     0.014 A 
ATOM     29  C   UNL     1      -9.594  -8.689   6.059  1.00  0.00     0.014 A 
ATOM     30  C   UNL     1      -9.787  -9.162   8.805  1.00  0.00     0.010 A 
ATOM     31  C   UNL     1     -10.817  -8.526   6.710  1.00  0.00     0.010 A 
ATOM     32  C   UNL     1     -10.921  -8.736   8.094  1.00  0.00    -0.014 A 
BRANCH  32  33
ATOM     33  C   UNL     1     -12.194  -8.422   8.795  1.00  0.00     0.031 A 
ATOM     34  C   UNL     1     -13.444  -9.208   8.514  1.00  0.00     0.074 A 
ATOM     35  C   UNL     1     -12.239  -7.359   9.624  1.00  0.00     0.049 A 
ATOM     36  N   UNL     1     -14.662  -9.006   8.953  1.00  0.00    -0.248 NA
ATOM     37  C   UNL     1     -13.316 -10.361   7.609  1.00  0.00     0.031 C 
ATOM     38  C   UNL     1     -11.102  -6.492   9.947  1.00  0.00     0.029 A 
ATOM     39  N   UNL     1     -13.282  -6.808  10.329  1.00  0.00    -0.354 N 
ATOM     40  C   UNL     1     -15.445  -9.992   8.368  1.00  0.00     0.074 A 
ATOM     41  C   UNL     1     -14.573 -10.777   7.520  1.00  0.00     0.031 C 
ATOM     42  C   UNL     1     -11.507  -5.526  10.786  1.00  0.00     0.029 A 
ATOM     43  C   UNL     1     -12.940  -5.670  11.021  1.00  0.00     0.049 A 
ATOM     44  H   UNL     1     -14.188  -7.193  10.339  1.00  0.00     0.167 HD
ATOM     45  C   UNL     1     -16.769 -10.223   8.535  1.00  0.00     0.037 A 
ATOM     46  C   UNL     1     -13.699  -4.817  11.737  1.00  0.00     0.037 A 
ATOM     47  C   UNL     1     -17.626  -9.457   9.403  1.00  0.00     0.049 A 
ATOM     48  C   UNL     1     -15.175  -5.086  11.872  1.00  0.00     0.074 A 
ATOM     49  C   UNL     1     -18.957  -9.679   9.711  1.00  0.00     0.029 A 
ATOM     50  N   UNL     1     -17.243  -8.314  10.088  1.00  0.00    -0.354 N 
ATOM     51  N   UNL     1     -15.882  -6.082  11.396  1.00  0.00    -0.248 NA
ATOM     52  C   UNL     1     -15.960  -4.110  12.642  1.00  0.00     0.031 C 
ATOM     53  C   UNL     1     -19.399  -8.633  10.526  1.00  0.00     0.029 A 
ATOM     54  C   UNL     1     -18.328  -7.792  10.776  1.00  0.00     0.049 A 
ATOM     55  H   UNL     1     -16.336  -7.931  10.087  1.00  0.00     0.167 HD
ATOM     56  C   UNL     1     -17.184  -5.863  11.823  1.00  0.00     0.074 A 
ATOM     57  C   UNL     1     -17.167  -4.657  12.621  1.00  0.00     0.031 C 
ATOM     58  C   UNL     1     -18.298  -6.592  11.569  1.00  0.00     0.037 A 
BRANCH  45  59
ATOM     59  C   UNL     1     -17.399 -11.348   7.768  1.00  0.00     0.064 A 
ATOM     60  C   UNL     1     -17.170 -12.690   8.104  1.00  0.00     0.173 A 
ATOM     61  C   UNL     1     -18.336 -11.075   6.758  1.00  0.00     0.173 A 
ATOM     62  F   UNL     1     -16.282 -13.004   9.059  1.00  0.00    -0.203 F 
ATOM     63  C   UNL     1     -17.850 -13.717   7.453  1.00  0.00     0.198 A 
ATOM     64  C   UNL     1     -19.033 -12.102   6.128  1.00  0.00     0.198 A 
ATOM     65  F   UNL     1     -18.599  -9.807   6.405  1.00  0.00    -0.203 F 
ATOM     66  F   UNL     1     -17.601 -14.993   7.777  1.00  0.00    -0.200 F 
ATOM     67  C   UNL     1     -18.789 -13.421   6.476  1.00  0.00     0.200 A 
ATOM     68  F   UNL     1     -19.953 -11.813   5.197  1.00  0.00    -0.200 F 
ATOM     69  F   UNL     1     -19.462 -14.410   5.870  1.00  0.00    -0.200 F 
ENDBRANCH  45  59
BRANCH  46  70
ATOM     70  C   UNL     1     -13.095  -3.606  12.356  1.00  0.00     0.064 A 
ATOM     71  C   UNL     1     -13.057  -3.447  13.749  1.00  0.00     0.173 A 
ATOM     72  C   UNL     1     -12.591  -2.559  11.569  1.00  0.00     0.173 A 
ATOM     73  F   UNL     1     -13.546  -4.409  14.546  1.00  0.00    -0.203 F 
ATOM     74  C   UNL     1     -12.577  -2.273  14.328  1.00  0.00     0.198 A 
ATOM     75  C   UNL     1     -12.077  -1.402  12.150  1.00  0.00     0.198 A 
ATOM     76  F   UNL     1     -12.598  -2.659  10.231  1.00  0.00    -0.203 F 
ATOM     77  F   UNL     1     -12.621  -2.120  15.658  1.00  0.00    -0.200 F 
ATOM     78  C   UNL     1     -12.085  -1.254  13.528  1.00  0.00     0.200 A 
ATOM     79  F   UNL     1     -11.586  -0.427  11.373  1.00  0.00    -0.200 F 
ATOM     80  F   UNL     1     -11.631  -0.122  14.085  1.00  0.00    -0.200 F 
ENDBRANCH  46  70
BRANCH  58  81
ATOM     81  C   UNL     1     -19.588  -6.115  12.170  1.00  0.00     0.064 A 
ATOM     82  C   UNL     1     -20.233  -4.962  11.698  1.00  0.00     0.173 A 
ATOM     83  C   UNL     1     -20.213  -6.845  13.193  1.00  0.00     0.173 A 
ATOM     84  F   UNL     1     -19.669  -4.219  10.734  1.00  0.00    -0.203 F 
ATOM     85  C   UNL     1     -21.446  -4.548  12.241  1.00  0.00     0.198 A 
ATOM     86  C   UNL     1     -21.442  -6.446  13.710  1.00  0.00     0.198 A 
ATOM     87  F   UNL     1     -19.641  -7.958  13.676  1.00  0.00    -0.203 F 
ATOM     88  F   UNL     1     -22.021  -3.418  11.806  1.00  0.00    -0.200 F 
ATOM     89  C   UNL     1     -22.054  -5.295  13.239  1.00  0.00     0.200 A 
ATOM     90  F   UNL     1     -22.035  -7.178  14.663  1.00  0.00    -0.200 F 
ATOM     91  F   UNL     1     -23.229  -4.901  13.751  1.00  0.00    -0.200 F 
ENDBRANCH  58  81
ENDBRANCH  32  33
ENDBRANCH  24  27
ENDBRANCH  22  23
ENDBRANCH  21  22
ENDBRANCH   1  21
TORSDOF 15
