REMARK SMILES Cc1c(NC(=O)c2cccc(-c3cc4ccccc4oc3=O)c2)cccc1C(=O)NCCCNC(=O)c1ccc(-c2c3nc(c(-c4c(F)c(F)c(F)c(F)c4F)c4ccc([nH]4)c(-c4c(F)c(F)c(F)c(F)c4F)c4nc(c(-c5c(F)c(F)c(F)c(F)c5F)c5ccc2[nH]5)C=C4)C=C3)cc1
REMARK SMILES IDX 31 1 30 2 28 3 29 4 27 6 1 7 2 8 3 9 24 10 26 11 25 12 4 13
REMARK SMILES IDX 5 14 6 16 7 17 8 18 23 19 9 20 11 21 10 22 12 23 13 24 21 25
REMARK SMILES IDX 14 26 20 27 22 28 15 29 19 30 16 31 18 32 17 33 32 34 33 35
REMARK SMILES IDX 34 36 35 37 36 39 37 40 38 41 99 42 39 43 98 44 40 45 41 46
REMARK SMILES IDX 42 47 92 48 43 49 97 50 91 51 93 52 44 53 96 54 90 55 89 56
REMARK SMILES IDX 45 58 77 59 57 60 76 61 58 62 61 63 75 64 94 65 59 66 60 67
REMARK SMILES IDX 74 69 95 70 62 71 46 72 47 73 55 74 48 75 49 76 53 77 56 78
REMARK SMILES IDX 50 79 51 80 54 81 52 82 78 83 79 84 87 85 80 86 81 87 85 88
REMARK SMILES IDX 88 89 82 90 83 91 86 92 84 93 63 94 64 95 72 96 65 97 66 98
REMARK SMILES IDX 70 99 73 100 67 101 68 102 71 103 69 104
REMARK H PARENT 30 5 4 15 34 38 93 57 61 68
REMARK Flexibility Score: inf
ROOT
ATOM      1  C   UNL     1       3.696   1.611   0.604  1.00  0.00     0.118 C 
ENDROOT
BRANCH   1   2
ATOM      2  N   UNL     1       2.418   2.302   0.442  1.00  0.00    -0.352 N 
ATOM      3  C   UNL     1       1.070   2.074   0.498  1.00  0.00     0.251 C 
ATOM      4  O   UNL     1       0.427   3.111   0.271  1.00  0.00    -0.269 OA
ATOM      5  H   UNL     1       2.582   3.247   0.218  1.00  0.00     0.163 HD
BRANCH   3   6
ATOM      6  C   UNL     1       0.265   0.815   0.760  1.00  0.00     0.044 A 
ATOM      7  C   UNL     1       2.027  -0.987   0.413  1.00  0.00     0.047 C 
ATOM      8  C   UNL     1       0.647  -0.546   0.760  1.00  0.00    -0.015 A 
ATOM      9  C   UNL     1      -0.332  -1.570   0.933  1.00  0.00     0.045 A 
ATOM     10  C   UNL     1      -1.681  -1.257   1.074  1.00  0.00     0.026 A 
ATOM     11  C   UNL     1      -1.122   1.077   0.908  1.00  0.00     0.014 A 
ATOM     12  C   UNL     1      -2.079   0.068   1.048  1.00  0.00     0.003 A 
BRANCH   9  13
ATOM     13  N   UNL     1       0.097  -2.907   0.978  1.00  0.00    -0.322 N 
ATOM     14  C   UNL     1      -0.432  -4.078   0.493  1.00  0.00     0.255 C 
ATOM     15  H   UNL     1       0.951  -3.030   1.452  1.00  0.00     0.170 HD
ATOM     16  O   UNL     1       0.093  -5.134   0.852  1.00  0.00    -0.269 OA
BRANCH  14  17
ATOM     17  C   UNL     1      -1.511  -4.133  -0.531  1.00  0.00     0.040 A 
ATOM     18  C   UNL     1      -2.242  -5.322  -0.629  1.00  0.00     0.014 A 
ATOM     19  C   UNL     1      -1.725  -3.124  -1.479  1.00  0.00     0.022 A 
ATOM     20  C   UNL     1      -3.209  -5.477  -1.620  1.00  0.00     0.001 A 
ATOM     21  C   UNL     1      -2.701  -3.260  -2.481  1.00  0.00    -0.010 A 
ATOM     22  C   UNL     1      -3.445  -4.447  -2.531  1.00  0.00     0.009 A 
BRANCH  21  23
ATOM     23  C   UNL     1      -2.895  -2.278  -3.584  1.00  0.00     0.068 A 
ATOM     24  C   UNL     1      -2.723  -0.943  -3.445  1.00  0.00     0.028 A 
ATOM     25  C   UNL     1      -2.296  -2.724  -4.889  1.00  0.00     0.344 A 
ATOM     26  C   UNL     1      -1.297  -0.548  -3.502  1.00  0.00     0.018 A 
ATOM     27  O   UNL     1      -0.924  -2.455  -4.971  1.00  0.00    -0.422 OA
ATOM     28  O   UNL     1      -2.918  -3.340  -5.729  1.00  0.00    -0.246 OA
ATOM     29  C   UNL     1      -0.804   0.582  -2.859  1.00  0.00     0.012 A 
ATOM     30  C   UNL     1      -0.417  -1.396  -4.188  1.00  0.00     0.138 A 
ATOM     31  C   UNL     1       0.574   0.810  -2.851  1.00  0.00     0.001 A 
ATOM     32  C   UNL     1       0.956  -1.206  -4.140  1.00  0.00     0.048 A 
ATOM     33  C   UNL     1       1.451  -0.099  -3.455  1.00  0.00     0.004 A 
ENDBRANCH  21  23
ENDBRANCH  14  17
ENDBRANCH   9  13
ENDBRANCH   3   6
ENDBRANCH   1   2
BRANCH   1  34
ATOM     34  C   UNL     1       4.157   0.950  -0.698  1.00  0.00     0.042 C 
BRANCH  34  35
ATOM     35  C   UNL     1       5.478   1.430  -1.261  1.00  0.00     0.118 C 
BRANCH  35  36
ATOM     36  N   UNL     1       6.602   0.526  -1.019  1.00  0.00    -0.352 N 
ATOM     37  C   UNL     1       7.907   0.656  -1.471  1.00  0.00     0.251 C 
ATOM     38  H   UNL     1       6.410  -0.269  -0.470  1.00  0.00     0.163 HD
ATOM     39  O   UNL     1       8.768  -0.171  -1.207  1.00  0.00    -0.269 OA
BRANCH  37  40
ATOM     40  C   UNL     1       8.254   1.914  -2.170  1.00  0.00     0.039 A 
ATOM     41  C   UNL     1       9.028   2.816  -1.438  1.00  0.00     0.014 A 
ATOM     42  C   UNL     1       7.430   2.340  -3.207  1.00  0.00     0.014 A 
ATOM     43  C   UNL     1       8.728   4.168  -1.519  1.00  0.00     0.010 A 
ATOM     44  C   UNL     1       7.057   3.669  -3.212  1.00  0.00     0.010 A 
ATOM     45  C   UNL     1       7.645   4.562  -2.303  1.00  0.00    -0.014 A 
BRANCH  45  46
ATOM     46  C   UNL     1       7.045   5.885  -2.207  1.00  0.00     0.031 A 
ATOM     47  C   UNL     1       7.373   6.875  -3.248  1.00  0.00     0.074 A 
ATOM     48  C   UNL     1       6.206   6.218  -1.200  1.00  0.00     0.049 A 
ATOM     49  N   UNL     1       7.328   8.150  -3.077  1.00  0.00    -0.248 NA
ATOM     50  C   UNL     1       7.851   6.483  -4.566  1.00  0.00     0.031 C 
ATOM     51  C   UNL     1       5.388   7.426  -1.103  1.00  0.00     0.029 A 
ATOM     52  N   UNL     1       6.064   5.605   0.057  1.00  0.00    -0.354 N 
ATOM     53  C   UNL     1       7.526   8.746  -4.300  1.00  0.00     0.074 A 
ATOM     54  C   UNL     1       7.910   7.666  -5.179  1.00  0.00     0.031 C 
ATOM     55  C   UNL     1       5.085   7.645   0.185  1.00  0.00     0.029 A 
ATOM     56  C   UNL     1       5.794   6.658   0.973  1.00  0.00     0.049 A 
ATOM     57  H   UNL     1       6.136   4.644   0.260  1.00  0.00     0.167 HD
ATOM     58  C   UNL     1       7.230  10.070  -4.444  1.00  0.00     0.037 A 
ATOM     59  C   UNL     1       6.643   6.928   2.009  1.00  0.00     0.037 A 
ATOM     60  C   UNL     1       6.840  10.666  -3.163  1.00  0.00     0.049 A 
ATOM     61  C   UNL     1       7.314   8.281   1.927  1.00  0.00     0.074 A 
ATOM     62  C   UNL     1       5.627  10.957  -2.559  1.00  0.00     0.029 A 
ATOM     63  N   UNL     1       7.790  10.763  -2.160  1.00  0.00    -0.354 N 
ATOM     64  N   UNL     1       7.102   9.161   0.988  1.00  0.00    -0.248 NA
ATOM     65  C   UNL     1       8.381   8.687   2.842  1.00  0.00     0.031 C 
ATOM     66  C   UNL     1       5.868  11.232  -1.181  1.00  0.00     0.029 A 
ATOM     67  C   UNL     1       7.227  11.124  -0.949  1.00  0.00     0.049 A 
ATOM     68  H   UNL     1       8.751  10.594  -2.292  1.00  0.00     0.167 HD
ATOM     69  C   UNL     1       8.008  10.182   1.110  1.00  0.00     0.074 A 
ATOM     70  C   UNL     1       8.796   9.832   2.278  1.00  0.00     0.031 C 
ATOM     71  C   UNL     1       8.085  11.218   0.222  1.00  0.00     0.037 A 
BRANCH  58  72
ATOM     72  C   UNL     1       7.054  10.758  -5.781  1.00  0.00     0.064 A 
ATOM     73  C   UNL     1       6.214  11.885  -5.899  1.00  0.00     0.173 A 
ATOM     74  C   UNL     1       7.626  10.330  -6.995  1.00  0.00     0.173 A 
ATOM     75  F   UNL     1       5.695  12.487  -4.821  1.00  0.00    -0.203 F 
ATOM     76  C   UNL     1       5.870  12.442  -7.135  1.00  0.00     0.198 A 
ATOM     77  C   UNL     1       7.234  10.842  -8.236  1.00  0.00     0.198 A 
ATOM     78  F   UNL     1       8.637   9.456  -7.024  1.00  0.00    -0.203 F 
ATOM     79  F   UNL     1       5.061  13.509  -7.181  1.00  0.00    -0.200 F 
ATOM     80  C   UNL     1       6.345  11.892  -8.307  1.00  0.00     0.200 A 
ATOM     81  F   UNL     1       7.735  10.312  -9.361  1.00  0.00    -0.200 F 
ATOM     82  F   UNL     1       5.976  12.391  -9.494  1.00  0.00    -0.200 F 
ENDBRANCH  58  72
BRANCH  59  83
ATOM     83  C   UNL     1       7.267   5.689   2.543  1.00  0.00     0.064 A 
ATOM     84  C   UNL     1       6.400   4.714   3.076  1.00  0.00     0.173 A 
ATOM     85  C   UNL     1       8.524   5.272   2.093  1.00  0.00     0.173 A 
ATOM     86  F   UNL     1       5.198   5.073   3.554  1.00  0.00    -0.203 F 
ATOM     87  C   UNL     1       6.688   3.361   2.946  1.00  0.00     0.198 A 
ATOM     88  C   UNL     1       8.824   3.915   2.007  1.00  0.00     0.198 A 
ATOM     89  F   UNL     1       9.398   6.159   1.597  1.00  0.00    -0.203 F 
ATOM     90  F   UNL     1       5.761   2.447   3.269  1.00  0.00    -0.200 F 
ATOM     91  C   UNL     1       7.881   2.963   2.366  1.00  0.00     0.200 A 
ATOM     92  F   UNL     1       9.989   3.530   1.469  1.00  0.00    -0.200 F 
ATOM     93  F   UNL     1       8.094   1.667   2.100  1.00  0.00    -0.200 F 
ENDBRANCH  59  83
BRANCH  71  94
ATOM     94  C   UNL     1       9.027  12.385   0.390  1.00  0.00     0.064 A 
ATOM     95  C   UNL     1       9.326  12.942   1.646  1.00  0.00     0.173 A 
ATOM     96  C   UNL     1       9.599  13.050  -0.718  1.00  0.00     0.173 A 
ATOM     97  F   UNL     1       8.731  12.491   2.760  1.00  0.00    -0.203 F 
ATOM     98  C   UNL     1      10.227  13.999   1.793  1.00  0.00     0.198 A 
ATOM     99  C   UNL     1      10.451  14.144  -0.573  1.00  0.00     0.198 A 
ATOM    100  F   UNL     1       9.371  12.652  -1.976  1.00  0.00    -0.203 F 
ATOM    101  F   UNL     1      10.546  14.433   3.020  1.00  0.00    -0.200 F 
ATOM    102  C   UNL     1      10.790  14.600   0.683  1.00  0.00     0.200 A 
ATOM    103  F   UNL     1      10.950  14.744  -1.663  1.00  0.00    -0.200 F 
ATOM    104  F   UNL     1      11.648  15.618   0.823  1.00  0.00    -0.200 F 
ENDBRANCH  71  94
ENDBRANCH  45  46
ENDBRANCH  37  40
ENDBRANCH  35  36
ENDBRANCH  34  35
ENDBRANCH   1  34
TORSDOF 13
