REMARK SMILES [NH3+][C@]1(C(=O)NCCCNC(=O)c2ccc(-c3c4nc(c(-c5c(F)c(F)c(F)c(F)c5F)c5ccc([nH]5)c(-c5c(F)c(F)c(F)c(F)c5F)c5nc(c(-c6c(F)c(F)c(F)c(F)c6F)c6ccc3[nH]6)C=C5)C=C4)cc2)CC[C@@H](Sc2cc3ccccc3[nH]2)C1
REMARK SMILES IDX 7 1 6 2 5 3 3 4 4 5 2 7 75 8 88 9 76 10 77 11 1 12 78 16
REMARK SMILES IDX 79 17 80 18 87 19 81 20 86 21 82 23 85 24 83 25 84 26 8 27
REMARK SMILES IDX 9 28 10 29 11 31 12 32 13 33 74 34 14 35 73 36 15 37 16 38
REMARK SMILES IDX 17 39 67 40 18 41 72 42 66 43 68 44 19 45 71 46 65 47 64 48
REMARK SMILES IDX 20 50 52 51 32 52 51 53 33 54 36 55 50 56 69 57 34 58 35 59
REMARK SMILES IDX 49 61 70 62 37 63 21 64 22 65 30 66 23 67 24 68 28 69 31 70
REMARK SMILES IDX 25 71 26 72 29 73 27 74 53 75 54 76 62 77 55 78 56 79 60 80
REMARK SMILES IDX 63 81 57 82 58 83 61 84 59 85 38 86 39 87 47 88 40 89 41 90
REMARK SMILES IDX 45 91 48 92 42 93 43 94 46 95 44 96
REMARK H PARENT 5 6 1 13 1 14 1 15 87 22 9 30 68 49 36 60
REMARK Flexibility Score: inf
ROOT
ATOM      1  C   UNL     1       3.061   1.453   2.224  1.00  0.00     0.042 C 
ENDROOT
BRANCH   1   2
ATOM      2  C   UNL     1       1.578   1.578   1.866  1.00  0.00     0.118 C 
BRANCH   2   3
ATOM      3  N   UNL     1       1.329   1.252   0.475  1.00  0.00    -0.351 N 
ATOM      4  C   UNL     1       0.864   0.121  -0.122  1.00  0.00     0.281 C 
ATOM      5  O   UNL     1       0.734   0.171  -1.352  1.00  0.00    -0.268 OA
ATOM      6  H   UNL     1       1.533   1.983  -0.152  1.00  0.00     0.163 HD
BRANCH   4   7
ATOM      7  C   UNL     1       0.401  -1.140   0.665  1.00  0.00     0.175 C 
ATOM      8  C   UNL     1       0.616  -2.383  -0.229  1.00  0.00     0.080 C 
ATOM      9  C   UNL     1       1.211  -1.505   1.903  1.00  0.00     0.094 C 
ATOM     10  C   UNL     1       0.658  -3.581   0.710  1.00  0.00     0.022 C 
ATOM     11  C   UNL     1       1.151  -3.021   2.036  1.00  0.00     0.060 C 
BRANCH   7  12
ATOM     12  N   UNL     1      -1.027  -0.976   1.014  1.00  0.00    -0.345 N 
ATOM     13  H   UNL     1      -1.347  -1.795   1.530  1.00  0.00     0.345 HD
ATOM     14  H   UNL     1      -1.577  -0.876   0.160  1.00  0.00     0.345 HD
ATOM     15  H   UNL     1      -1.143  -0.143   1.591  1.00  0.00     0.345 HD
ENDBRANCH   7  12
BRANCH  11  16
ATOM     16  S   UNL     1       2.695  -3.649   2.705  1.00  0.00    -0.105 SA
BRANCH  16  17
ATOM     17  C   UNL     1       3.839  -3.774   1.408  1.00  0.00     0.073 A 
ATOM     18  C   UNL     1       4.887  -2.964   1.015  1.00  0.00     0.043 A 
ATOM     19  N   UNL     1       4.170  -5.052   1.040  1.00  0.00    -0.350 N 
ATOM     20  C   UNL     1       6.029  -3.841   1.010  1.00  0.00     0.001 A 
ATOM     21  C   UNL     1       5.542  -5.143   1.128  1.00  0.00     0.046 A 
ATOM     22  H   UNL     1       3.548  -5.765   0.766  1.00  0.00     0.167 HD
ATOM     23  C   UNL     1       7.421  -3.639   1.096  1.00  0.00     0.010 A 
ATOM     24  C   UNL     1       6.345  -6.249   1.407  1.00  0.00     0.027 A 
ATOM     25  C   UNL     1       8.238  -4.728   1.442  1.00  0.00     0.001 A 
ATOM     26  C   UNL     1       7.702  -6.004   1.616  1.00  0.00     0.002 A 
ENDBRANCH  16  17
ENDBRANCH  11  16
ENDBRANCH   4   7
ENDBRANCH   2   3
ENDBRANCH   1   2
BRANCH   1  27
ATOM     27  C   UNL     1       3.927   2.569   1.649  1.00  0.00     0.118 C 
BRANCH  27  28
ATOM     28  N   UNL     1       3.635   3.857   2.258  1.00  0.00    -0.352 N 
ATOM     29  C   UNL     1       4.456   4.733   2.920  1.00  0.00     0.251 C 
ATOM     30  H   UNL     1       2.697   4.146   2.182  1.00  0.00     0.163 HD
ATOM     31  O   UNL     1       3.961   5.663   3.547  1.00  0.00    -0.269 OA
BRANCH  29  32
ATOM     32  C   UNL     1       5.928   4.572   2.891  1.00  0.00     0.039 A 
ATOM     33  C   UNL     1       6.652   4.872   4.050  1.00  0.00     0.014 A 
ATOM     34  C   UNL     1       6.604   4.202   1.725  1.00  0.00     0.014 A 
ATOM     35  C   UNL     1       8.044   4.763   4.051  1.00  0.00     0.010 A 
ATOM     36  C   UNL     1       7.986   4.025   1.746  1.00  0.00     0.010 A 
ATOM     37  C   UNL     1       8.721   4.317   2.905  1.00  0.00    -0.014 A 
BRANCH  37  38
ATOM     38  C   UNL     1      10.198   4.165   2.901  1.00  0.00     0.031 A 
ATOM     39  C   UNL     1      11.047   5.032   2.013  1.00  0.00     0.074 A 
ATOM     40  C   UNL     1      10.769   3.209   3.659  1.00  0.00     0.049 A 
ATOM     41  N   UNL     1      12.343   5.010   1.827  1.00  0.00    -0.248 NA
ATOM     42  C   UNL     1      10.343   6.041   1.207  1.00  0.00     0.031 C 
ATOM     43  C   UNL     1      10.048   2.278   4.528  1.00  0.00     0.029 A 
ATOM     44  N   UNL     1      12.086   2.857   3.814  1.00  0.00    -0.354 N 
ATOM     45  C   UNL     1      12.606   5.987   0.876  1.00  0.00     0.074 A 
ATOM     46  C   UNL     1      11.331   6.549   0.485  1.00  0.00     0.031 C 
ATOM     47  C   UNL     1      10.932   1.474   5.140  1.00  0.00     0.029 A 
ATOM     48  C   UNL     1      12.276   1.809   4.680  1.00  0.00     0.049 A 
ATOM     49  H   UNL     1      12.824   3.312   3.348  1.00  0.00     0.167 HD
ATOM     50  C   UNL     1      13.803   6.392   0.388  1.00  0.00     0.037 A 
ATOM     51  C   UNL     1      13.408   1.184   5.056  1.00  0.00     0.037 A 
ATOM     52  C   UNL     1      15.071   5.847   0.801  1.00  0.00     0.049 A 
ATOM     53  C   UNL     1      14.725   1.655   4.503  1.00  0.00     0.074 A 
ATOM     54  C   UNL     1      16.343   6.230   0.412  1.00  0.00     0.029 A 
ATOM     55  N   UNL     1      15.225   4.799   1.697  1.00  0.00    -0.354 N 
ATOM     56  N   UNL     1      14.967   2.624   3.653  1.00  0.00    -0.248 NA
ATOM     57  C   UNL     1      15.928   0.951   4.967  1.00  0.00     0.031 C 
ATOM     58  C   UNL     1      17.265   5.384   1.039  1.00  0.00     0.029 A 
ATOM     59  C   UNL     1      16.570   4.508   1.857  1.00  0.00     0.049 A 
ATOM     60  H   UNL     1      14.487   4.331   2.151  1.00  0.00     0.167 HD
ATOM     61  C   UNL     1      16.346   2.664   3.501  1.00  0.00     0.074 A 
ATOM     62  C   UNL     1      16.890   1.631   4.359  1.00  0.00     0.031 C 
ATOM     63  C   UNL     1      17.095   3.481   2.721  1.00  0.00     0.037 A 
BRANCH  50  64
ATOM     64  C   UNL     1      13.801   7.481  -0.646  1.00  0.00     0.064 A 
ATOM     65  C   UNL     1      13.461   8.803  -0.322  1.00  0.00     0.173 A 
ATOM     66  C   UNL     1      14.179   7.207  -1.970  1.00  0.00     0.173 A 
ATOM     67  F   UNL     1      13.082   9.116   0.926  1.00  0.00    -0.203 F 
ATOM     68  C   UNL     1      13.471   9.804  -1.290  1.00  0.00     0.198 A 
ATOM     69  C   UNL     1      14.217   8.217  -2.928  1.00  0.00     0.198 A 
ATOM     70  F   UNL     1      14.520   5.962  -2.332  1.00  0.00    -0.203 F 
ATOM     71  F   UNL     1      13.095  11.049  -0.968  1.00  0.00    -0.200 F 
ATOM     72  C   UNL     1      13.855   9.512  -2.590  1.00  0.00     0.200 A 
ATOM     73  F   UNL     1      14.602   7.935  -4.181  1.00  0.00    -0.200 F 
ATOM     74  F   UNL     1      13.871  10.478  -3.519  1.00  0.00    -0.200 F 
ENDBRANCH  50  64
BRANCH  51  75
ATOM     75  C   UNL     1      13.347   0.062   6.028  1.00  0.00     0.064 A 
ATOM     76  C   UNL     1      13.846   0.209   7.329  1.00  0.00     0.173 A 
ATOM     77  C   UNL     1      12.790  -1.177   5.679  1.00  0.00     0.173 A 
ATOM     78  F   UNL     1      14.407   1.369   7.703  1.00  0.00    -0.203 F 
ATOM     79  C   UNL     1      13.809  -0.846   8.238  1.00  0.00     0.198 A 
ATOM     80  C   UNL     1      12.728  -2.223   6.598  1.00  0.00     0.198 A 
ATOM     81  F   UNL     1      12.294  -1.368   4.447  1.00  0.00    -0.203 F 
ATOM     82  F   UNL     1      14.335  -0.692   9.461  1.00  0.00    -0.200 F 
ATOM     83  C   UNL     1      13.245  -2.059   7.874  1.00  0.00     0.200 A 
ATOM     84  F   UNL     1      12.171  -3.389   6.245  1.00  0.00    -0.200 F 
ATOM     85  F   UNL     1      13.207  -3.072   8.749  1.00  0.00    -0.200 F 
ENDBRANCH  51  75
BRANCH  63  86
ATOM     86  C   UNL     1      18.585   3.315   2.785  1.00  0.00     0.064 A 
ATOM     87  C   UNL     1      19.227   2.205   2.218  1.00  0.00     0.173 A 
ATOM     88  C   UNL     1      19.382   4.299   3.390  1.00  0.00     0.173 A 
ATOM     89  F   UNL     1      18.508   1.230   1.642  1.00  0.00    -0.203 F 
ATOM     90  C   UNL     1      20.612   2.072   2.278  1.00  0.00     0.198 A 
ATOM     91  C   UNL     1      20.769   4.178   3.421  1.00  0.00     0.198 A 
ATOM     92  F   UNL     1      18.817   5.383   3.941  1.00  0.00    -0.203 F 
ATOM     93  F   UNL     1      21.201   0.980   1.773  1.00  0.00    -0.200 F 
ATOM     94  C   UNL     1      21.381   3.062   2.872  1.00  0.00     0.200 A 
ATOM     95  F   UNL     1      21.512   5.141   3.984  1.00  0.00    -0.200 F 
ATOM     96  F   UNL     1      22.715   2.935   2.923  1.00  0.00    -0.200 F 
ENDBRANCH  63  86
ENDBRANCH  37  38
ENDBRANCH  29  32
ENDBRANCH  27  28
ENDBRANCH   1  27
TORSDOF 13
