REMARK SMILES Cn1c(C[N@@H+]2CCOC[C@H]2CC(=O)NCCCNC(=O)c2ccc(-c3c4nc(c(-c5c(F)c(F)c(F)c(F)c5F)c5ccc([nH]5)c(-c5c(F)c(F)c(F)c(F)c5F)c5nc(c(-c6c(F)c(F)c(F)c(F)c6F)c6ccc3[nH]6)C=C5)C=C4)cc2)nc2ccccc21
REMARK SMILES IDX 15 1 14 2 12 3 13 4 11 6 10 7 5 8 6 9 7 11 9 12 8 13 4 14
REMARK SMILES IDX 3 15 1 16 2 17 90 18 84 19 85 20 89 21 86 22 88 23 87 24
REMARK SMILES IDX 16 25 17 26 18 27 19 28 20 30 21 31 22 32 83 33 23 34 82 35
REMARK SMILES IDX 24 36 25 37 26 38 76 39 27 40 81 41 75 42 77 43 28 44 80 45
REMARK SMILES IDX 74 46 73 47 29 49 61 50 41 51 60 52 42 53 45 54 59 55 78 56
REMARK SMILES IDX 43 57 44 58 58 60 79 61 46 62 30 63 31 64 39 65 32 66 33 67
REMARK SMILES IDX 37 68 40 69 34 70 35 71 38 72 36 73 62 74 63 75 71 76 64 77
REMARK SMILES IDX 65 78 69 79 72 80 66 81 67 82 70 83 68 84 47 85 48 86 56 87
REMARK SMILES IDX 49 88 50 89 54 90 57 91 51 92 52 93 55 94 53 95
REMARK H PARENT 14 5 5 10 18 29 77 48 45 59
REMARK Flexibility Score: inf
ROOT
ATOM      1  C   UNL     1      -5.407  -4.387  -2.067  1.00  0.00     0.117 C 
ENDROOT
BRANCH   1   2
ATOM      2  N   UNL     1      -5.927  -3.306  -2.884  1.00  0.00    -0.356 N 
ATOM      3  C   UNL     1      -5.241  -2.293  -3.487  1.00  0.00     0.226 C 
ATOM      4  O   UNL     1      -5.881  -1.353  -3.963  1.00  0.00    -0.275 OA
ATOM      5  H   UNL     1      -6.902  -3.304  -3.021  1.00  0.00     0.163 HD
BRANCH   3   6
ATOM      6  C   UNL     1      -3.734  -2.340  -3.595  1.00  0.00     0.167 C 
BRANCH   6   7
ATOM      7  C   UNL     1      -3.013  -1.485  -2.526  1.00  0.00     0.220 C 
ATOM      8  N   UNL     1      -2.905  -2.226  -1.250  1.00  0.00    -0.322 N 
ATOM      9  C   UNL     1      -1.848  -3.260  -1.281  1.00  0.00     0.291 C 
ATOM     10  H   UNL     1      -3.791  -2.727  -1.176  1.00  0.00     0.348 HD
ATOM     11  C   UNL     1      -0.559  -2.906  -2.049  1.00  0.00     0.221 C 
ATOM     12  C   UNL     1      -1.626  -1.093  -3.083  1.00  0.00     0.225 C 
ATOM     13  O   UNL     1      -0.829  -2.262  -3.301  1.00  0.00    -0.369 OA
BRANCH   8  14
ATOM     14  C   UNL     1      -2.915  -1.403  -0.022  1.00  0.00     0.339 C 
BRANCH  14  15
ATOM     15  C   UNL     1      -1.620  -0.738   0.327  1.00  0.00     0.165 A 
ATOM     16  C   UNL     1      -2.277   1.685  -0.024  1.00  0.00     0.152 C 
ATOM     17  N   UNL     1      -1.347   0.608   0.216  1.00  0.00    -0.326 N 
ATOM     18  C   UNL     1       0.021   0.763   0.281  1.00  0.00     0.068 A 
ATOM     19  N   UNL     1      -0.544  -1.387   0.736  1.00  0.00    -0.227 NA
ATOM     20  C   UNL     1       0.489  -0.500   0.623  1.00  0.00     0.089 A 
ATOM     21  C   UNL     1       0.878   1.844   0.050  1.00  0.00     0.028 A 
ATOM     22  C   UNL     1       1.866  -0.730   0.737  1.00  0.00     0.030 A 
ATOM     23  C   UNL     1       2.253   1.590   0.133  1.00  0.00     0.002 A 
ATOM     24  C   UNL     1       2.742   0.325   0.468  1.00  0.00     0.002 A 
ENDBRANCH  14  15
ENDBRANCH   8  14
ENDBRANCH   6   7
ENDBRANCH   3   6
ENDBRANCH   1   2
BRANCH   1  25
ATOM     25  C   UNL     1      -5.422  -4.009  -0.589  1.00  0.00     0.042 C 
BRANCH  25  26
ATOM     26  C   UNL     1      -6.727  -4.343   0.114  1.00  0.00     0.118 C 
BRANCH  26  27
ATOM     27  N   UNL     1      -6.872  -5.770   0.348  1.00  0.00    -0.352 N 
ATOM     28  C   UNL     1      -7.203  -6.450   1.489  1.00  0.00     0.251 C 
ATOM     29  H   UNL     1      -6.706  -6.337  -0.439  1.00  0.00     0.163 HD
ATOM     30  O   UNL     1      -7.093  -7.679   1.499  1.00  0.00    -0.269 OA
BRANCH  28  31
ATOM     31  C   UNL     1      -7.672  -5.753   2.711  1.00  0.00     0.039 A 
ATOM     32  C   UNL     1      -7.347  -6.311   3.953  1.00  0.00     0.014 A 
ATOM     33  C   UNL     1      -8.475  -4.609   2.662  1.00  0.00     0.014 A 
ATOM     34  C   UNL     1      -7.804  -5.718   5.131  1.00  0.00     0.010 A 
ATOM     35  C   UNL     1      -8.860  -3.969   3.840  1.00  0.00     0.010 A 
ATOM     36  C   UNL     1      -8.551  -4.530   5.086  1.00  0.00    -0.014 A 
BRANCH  36  37
ATOM     37  C   UNL     1      -9.042  -3.900   6.339  1.00  0.00     0.031 A 
ATOM     38  C   UNL     1     -10.518  -3.820   6.623  1.00  0.00     0.074 A 
ATOM     39  C   UNL     1      -8.158  -3.385   7.214  1.00  0.00     0.049 A 
ATOM     40  N   UNL     1     -11.134  -3.327   7.668  1.00  0.00    -0.248 NA
ATOM     41  C   UNL     1     -11.423  -4.337   5.585  1.00  0.00     0.031 C 
ATOM     42  C   UNL     1      -6.707  -3.348   7.026  1.00  0.00     0.029 A 
ATOM     43  N   UNL     1      -8.349  -2.799   8.440  1.00  0.00    -0.354 N 
ATOM     44  C   UNL     1     -12.492  -3.462   7.406  1.00  0.00     0.074 A 
ATOM     45  C   UNL     1     -12.612  -4.031   6.082  1.00  0.00     0.031 C 
ATOM     46  C   UNL     1      -6.137  -2.803   8.112  1.00  0.00     0.029 A 
ATOM     47  C   UNL     1      -7.181  -2.433   9.062  1.00  0.00     0.049 A 
ATOM     48  H   UNL     1      -9.239  -2.655   8.836  1.00  0.00     0.167 HD
ATOM     49  C   UNL     1     -13.543  -3.164   8.208  1.00  0.00     0.037 A 
ATOM     50  C   UNL     1      -6.976  -1.873  10.269  1.00  0.00     0.037 A 
ATOM     51  C   UNL     1     -13.420  -2.631   9.539  1.00  0.00     0.049 A 
ATOM     52  C   UNL     1      -8.158  -1.591  11.156  1.00  0.00     0.074 A 
ATOM     53  C   UNL     1     -14.419  -2.352  10.455  1.00  0.00     0.029 A 
ATOM     54  N   UNL     1     -12.218  -2.300  10.146  1.00  0.00    -0.354 N 
ATOM     55  N   UNL     1      -9.432  -1.790  10.926  1.00  0.00    -0.248 NA
ATOM     56  C   UNL     1      -7.869  -1.019  12.479  1.00  0.00     0.031 C 
ATOM     57  C   UNL     1     -13.824  -1.819  11.604  1.00  0.00     0.029 A 
ATOM     58  C   UNL     1     -12.451  -1.807  11.420  1.00  0.00     0.049 A 
ATOM     59  H   UNL     1     -11.330  -2.401   9.733  1.00  0.00     0.167 HD
ATOM     60  C   UNL     1     -10.095  -1.392  12.079  1.00  0.00     0.074 A 
ATOM     61  C   UNL     1      -9.079  -0.959  13.015  1.00  0.00     0.031 C 
ATOM     62  C   UNL     1     -11.426  -1.382  12.338  1.00  0.00     0.037 A 
BRANCH  49  63
ATOM     63  C   UNL     1     -14.921  -3.419   7.668  1.00  0.00     0.064 A 
ATOM     64  C   UNL     1     -15.409  -4.723   7.484  1.00  0.00     0.173 A 
ATOM     65  C   UNL     1     -15.775  -2.350   7.359  1.00  0.00     0.173 A 
ATOM     66  F   UNL     1     -14.628  -5.780   7.753  1.00  0.00    -0.203 F 
ATOM     67  C   UNL     1     -16.689  -4.945   6.984  1.00  0.00     0.198 A 
ATOM     68  C   UNL     1     -17.066  -2.577   6.886  1.00  0.00     0.198 A 
ATOM     69  F   UNL     1     -15.361  -1.085   7.519  1.00  0.00    -0.203 F 
ATOM     70  F   UNL     1     -17.115  -6.198   6.771  1.00  0.00    -0.200 F 
ATOM     71  C   UNL     1     -17.519  -3.873   6.692  1.00  0.00     0.200 A 
ATOM     72  F   UNL     1     -17.870  -1.540   6.614  1.00  0.00    -0.200 F 
ATOM     73  F   UNL     1     -18.753  -4.090   6.215  1.00  0.00    -0.200 F 
ENDBRANCH  49  63
BRANCH  50  74
ATOM     74  C   UNL     1      -5.592  -1.589  10.727  1.00  0.00     0.064 A 
ATOM     75  C   UNL     1      -5.005  -2.346  11.751  1.00  0.00     0.173 A 
ATOM     76  C   UNL     1      -4.829  -0.563  10.153  1.00  0.00     0.173 A 
ATOM     77  F   UNL     1      -5.704  -3.325  12.344  1.00  0.00    -0.203 F 
ATOM     78  C   UNL     1      -3.713  -2.075  12.196  1.00  0.00     0.198 A 
ATOM     79  C   UNL     1      -3.528  -0.309  10.581  1.00  0.00     0.198 A 
ATOM     80  F   UNL     1      -5.345   0.186   9.167  1.00  0.00    -0.203 F 
ATOM     81  F   UNL     1      -3.192  -2.785  13.205  1.00  0.00    -0.200 F 
ATOM     82  C   UNL     1      -2.973  -1.060  11.607  1.00  0.00     0.200 A 
ATOM     83  F   UNL     1      -2.812   0.664  10.001  1.00  0.00    -0.200 F 
ATOM     84  F   UNL     1      -1.730  -0.802  12.033  1.00  0.00    -0.200 F 
ENDBRANCH  50  74
BRANCH  62  85
ATOM     85  C   UNL     1     -11.852  -0.909  13.697  1.00  0.00     0.064 A 
ATOM     86  C   UNL     1     -11.779   0.444  14.059  1.00  0.00     0.173 A 
ATOM     87  C   UNL     1     -12.357  -1.817  14.639  1.00  0.00     0.173 A 
ATOM     88  F   UNL     1     -11.289   1.348  13.197  1.00  0.00    -0.203 F 
ATOM     89  C   UNL     1     -12.166   0.866  15.328  1.00  0.00     0.198 A 
ATOM     90  C   UNL     1     -12.770  -1.387  15.897  1.00  0.00     0.198 A 
ATOM     91  F   UNL     1     -12.454  -3.121  14.338  1.00  0.00    -0.203 F 
ATOM     92  F   UNL     1     -12.037   2.155  15.671  1.00  0.00    -0.200 F 
ATOM     93  C   UNL     1     -12.665  -0.049  16.243  1.00  0.00     0.200 A 
ATOM     94  F   UNL     1     -13.263  -2.270  16.777  1.00  0.00    -0.200 F 
ATOM     95  F   UNL     1     -13.037   0.359  17.464  1.00  0.00    -0.200 F 
ENDBRANCH  62  85
ENDBRANCH  36  37
ENDBRANCH  28  31
ENDBRANCH  26  27
ENDBRANCH  25  26
ENDBRANCH   1  25
TORSDOF 13
