REMARK SMILES Cc1cc(=O)n(CC(=O)NCCCNC(=O)c2ccc(-c3c4nc(c(-c5c(F)c(F)c(F)c(F)c5F)c5ccc([nH]5)c(-c5c(F)c(F)c(F)c(F)c5F)c5nc(c(-c6c(F)c(F)c(F)c(F)c6F)c6ccc3[nH]6)C=C5)C=C4)cc2)c(N2CCC(C)CC2)n1
REMARK SMILES IDX 12 1 11 2 10 3 8 4 9 5 7 7 6 8 1 9 2 10 3 11 88 12 4 13
REMARK SMILES IDX 80 14 5 15 81 16 82 17 87 18 83 19 86 20 84 21 85 22 13 23
REMARK SMILES IDX 14 24 15 25 16 27 17 28 18 29 79 30 19 31 78 32 20 33 21 34
REMARK SMILES IDX 22 35 72 36 23 37 77 38 71 39 73 40 24 41 76 42 70 43 69 44
REMARK SMILES IDX 25 46 57 47 37 48 56 49 38 50 41 51 55 52 74 53 39 54 40 55
REMARK SMILES IDX 54 57 75 58 42 59 26 60 27 61 35 62 28 63 29 64 33 65 36 66
REMARK SMILES IDX 30 67 31 68 34 69 32 70 58 71 59 72 67 73 60 74 61 75 65 76
REMARK SMILES IDX 68 77 62 78 63 79 66 80 64 81 43 82 44 83 52 84 45 85 46 86
REMARK SMILES IDX 50 87 53 88 47 89 48 90 51 91 49 92
REMARK H PARENT 10 6 14 26 73 45 41 56
REMARK Flexibility Score: inf
ROOT
ATOM      1  C   UNL     1       2.874  -0.933  -4.938  1.00  0.00     0.042 C 
ENDROOT
BRANCH   1   2
ATOM      2  C   UNL     1       1.994  -1.682  -5.927  1.00  0.00     0.117 C 
BRANCH   2   3
ATOM      3  N   UNL     1       1.897  -3.094  -5.636  1.00  0.00    -0.354 N 
ATOM      4  C   UNL     1       0.834  -3.789  -5.134  1.00  0.00     0.240 C 
ATOM      5  O   UNL     1       0.854  -5.015  -5.280  1.00  0.00    -0.273 OA
ATOM      6  H   UNL     1       2.704  -3.625  -5.824  1.00  0.00     0.163 HD
BRANCH   4   7
ATOM      7  C   UNL     1      -0.406  -3.073  -4.575  1.00  0.00     0.229 C 
BRANCH   7   8
ATOM      8  N   UNL     1      -0.140  -2.187  -3.441  1.00  0.00    -0.269 N 
ATOM      9  C   UNL     1       0.953   0.272  -0.206  1.00  0.00     0.067 C 
ATOM     10  C   UNL     1       0.570  -0.654  -1.325  1.00  0.00     0.047 A 
ATOM     11  C   UNL     1       0.659  -1.976  -1.168  1.00  0.00     0.095 A 
ATOM     12  N   UNL     1       0.083  -0.060  -2.457  1.00  0.00    -0.220 NA
ATOM     13  C   UNL     1       0.272  -2.833  -2.289  1.00  0.00     0.255 A 
ATOM     14  C   UNL     1      -0.301  -0.803  -3.459  1.00  0.00     0.209 A 
ATOM     15  O   UNL     1       0.353  -4.051  -2.152  1.00  0.00    -0.269 OA
BRANCH  14  16
ATOM     16  N   UNL     1      -0.857  -0.163  -4.555  1.00  0.00    -0.342 N 
ATOM     17  C   UNL     1      -0.226   1.043  -5.104  1.00  0.00     0.120 C 
ATOM     18  C   UNL     1      -2.206  -0.470  -5.037  1.00  0.00     0.120 C 
ATOM     19  C   UNL     1      -1.144   2.256  -5.060  1.00  0.00     0.025 C 
ATOM     20  C   UNL     1      -3.120   0.754  -4.988  1.00  0.00     0.025 C 
ATOM     21  C   UNL     1      -2.485   1.937  -5.725  1.00  0.00    -0.011 C 
ATOM     22  C   UNL     1      -3.400   3.156  -5.733  1.00  0.00     0.008 C 
ENDBRANCH  14  16
ENDBRANCH   7   8
ENDBRANCH   4   7
ENDBRANCH   2   3
ENDBRANCH   1   2
BRANCH   1  23
ATOM     23  C   UNL     1       4.362  -1.203  -5.120  1.00  0.00     0.118 C 
BRANCH  23  24
ATOM     24  N   UNL     1       4.889  -0.661  -6.369  1.00  0.00    -0.352 N 
ATOM     25  C   UNL     1       5.966   0.161  -6.598  1.00  0.00     0.251 C 
ATOM     26  H   UNL     1       4.394  -0.928  -7.177  1.00  0.00     0.163 HD
ATOM     27  O   UNL     1       6.149   0.625  -7.721  1.00  0.00    -0.269 OA
BRANCH  25  28
ATOM     28  C   UNL     1       6.884   0.523  -5.495  1.00  0.00     0.039 A 
ATOM     29  C   UNL     1       7.277  -0.422  -4.548  1.00  0.00     0.014 A 
ATOM     30  C   UNL     1       7.356   1.837  -5.406  1.00  0.00     0.014 A 
ATOM     31  C   UNL     1       7.975  -0.016  -3.417  1.00  0.00     0.010 A 
ATOM     32  C   UNL     1       8.140   2.224  -4.314  1.00  0.00     0.010 A 
ATOM     33  C   UNL     1       8.406   1.314  -3.280  1.00  0.00    -0.014 A 
BRANCH  33  34
ATOM     34  C   UNL     1       9.105   1.723  -2.034  1.00  0.00     0.031 A 
ATOM     35  C   UNL     1       8.475   2.714  -1.091  1.00  0.00     0.074 A 
ATOM     36  C   UNL     1      10.273   1.136  -1.712  1.00  0.00     0.049 A 
ATOM     37  N   UNL     1       8.910   3.138   0.070  1.00  0.00    -0.248 NA
ATOM     38  C   UNL     1       7.194   3.311  -1.501  1.00  0.00     0.031 C 
ATOM     39  C   UNL     1      10.978   0.158  -2.542  1.00  0.00     0.029 A 
ATOM     40  N   UNL     1      11.055   1.245  -0.589  1.00  0.00    -0.354 N 
ATOM     41  C   UNL     1       7.970   4.058   0.516  1.00  0.00     0.074 A 
ATOM     42  C   UNL     1       6.955   4.158  -0.509  1.00  0.00     0.031 C 
ATOM     43  C   UNL     1      12.050  -0.293  -1.874  1.00  0.00     0.029 A 
ATOM     44  C   UNL     1      12.143   0.406  -0.596  1.00  0.00     0.049 A 
ATOM     45  H   UNL     1      10.856   1.865   0.149  1.00  0.00     0.167 HD
ATOM     46  C   UNL     1       7.946   4.742   1.684  1.00  0.00     0.037 A 
ATOM     47  C   UNL     1      13.109   0.221   0.323  1.00  0.00     0.037 A 
ATOM     48  C   UNL     1       8.936   4.615   2.721  1.00  0.00     0.049 A 
ATOM     49  C   UNL     1      13.074   1.016   1.596  1.00  0.00     0.074 A 
ATOM     50  C   UNL     1       8.976   5.240   3.955  1.00  0.00     0.029 A 
ATOM     51  N   UNL     1      10.058   3.803   2.647  1.00  0.00    -0.354 N 
ATOM     52  N   UNL     1      12.171   1.871   2.010  1.00  0.00    -0.248 NA
ATOM     53  C   UNL     1      14.198   0.833   2.525  1.00  0.00     0.031 C 
ATOM     54  C   UNL     1      10.142   4.838   4.612  1.00  0.00     0.029 A 
ATOM     55  C   UNL     1      10.809   3.931   3.804  1.00  0.00     0.049 A 
ATOM     56  H   UNL     1      10.287   3.223   1.885  1.00  0.00     0.167 HD
ATOM     57  C   UNL     1      12.613   2.324   3.245  1.00  0.00     0.074 A 
ATOM     58  C   UNL     1      13.853   1.631   3.526  1.00  0.00     0.031 C 
ATOM     59  C   UNL     1      12.044   3.238   4.066  1.00  0.00     0.037 A 
BRANCH  46  60
ATOM     60  C   UNL     1       6.812   5.697   1.916  1.00  0.00     0.064 A 
ATOM     61  C   UNL     1       5.520   5.243   2.216  1.00  0.00     0.173 A 
ATOM     62  C   UNL     1       7.039   7.082   1.914  1.00  0.00     0.173 A 
ATOM     63  F   UNL     1       5.250   3.929   2.220  1.00  0.00    -0.203 F 
ATOM     64  C   UNL     1       4.492   6.141   2.492  1.00  0.00     0.198 A 
ATOM     65  C   UNL     1       6.015   7.976   2.215  1.00  0.00     0.198 A 
ATOM     66  F   UNL     1       8.259   7.568   1.641  1.00  0.00    -0.203 F 
ATOM     67  F   UNL     1       3.258   5.686   2.748  1.00  0.00    -0.200 F 
ATOM     68  C   UNL     1       4.742   7.506   2.500  1.00  0.00     0.200 A 
ATOM     69  F   UNL     1       6.261   9.294   2.235  1.00  0.00    -0.200 F 
ATOM     70  F   UNL     1       3.755   8.368   2.782  1.00  0.00    -0.200 F 
ENDBRANCH  46  60
BRANCH  47  71
ATOM     71  C   UNL     1      14.185  -0.770   0.064  1.00  0.00     0.064 A 
ATOM     72  C   UNL     1      14.254  -1.964   0.794  1.00  0.00     0.173 A 
ATOM     73  C   UNL     1      15.143  -0.559  -0.938  1.00  0.00     0.173 A 
ATOM     74  F   UNL     1      13.373  -2.201   1.776  1.00  0.00    -0.203 F 
ATOM     75  C   UNL     1      15.244  -2.909   0.531  1.00  0.00     0.198 A 
ATOM     76  C   UNL     1      16.115  -1.516  -1.218  1.00  0.00     0.198 A 
ATOM     77  F   UNL     1      15.117   0.568  -1.665  1.00  0.00    -0.203 F 
ATOM     78  F   UNL     1      15.305  -4.032   1.261  1.00  0.00    -0.200 F 
ATOM     79  C   UNL     1      16.167  -2.689  -0.480  1.00  0.00     0.200 A 
ATOM     80  F   UNL     1      16.994  -1.306  -2.207  1.00  0.00    -0.200 F 
ATOM     81  F   UNL     1      17.108  -3.606  -0.743  1.00  0.00    -0.200 F 
ENDBRANCH  47  71
BRANCH  59  82
ATOM     82  C   UNL     1      12.754   3.553   5.348  1.00  0.00     0.064 A 
ATOM     83  C   UNL     1      13.909   4.347   5.363  1.00  0.00     0.173 A 
ATOM     84  C   UNL     1      12.232   3.123   6.578  1.00  0.00     0.173 A 
ATOM     85  F   UNL     1      14.451   4.770   4.211  1.00  0.00    -0.203 F 
ATOM     86  C   UNL     1      14.521   4.695   6.563  1.00  0.00     0.198 A 
ATOM     87  C   UNL     1      12.834   3.492   7.777  1.00  0.00     0.198 A 
ATOM     88  F   UNL     1      11.125   2.366   6.615  1.00  0.00    -0.203 F 
ATOM     89  F   UNL     1      15.639   5.434   6.553  1.00  0.00    -0.200 F 
ATOM     90  C   UNL     1      13.978   4.276   7.769  1.00  0.00     0.200 A 
ATOM     91  F   UNL     1      12.301   3.098   8.942  1.00  0.00    -0.200 F 
ATOM     92  F   UNL     1      14.560   4.626   8.924  1.00  0.00    -0.200 F 
ENDBRANCH  59  82
ENDBRANCH  33  34
ENDBRANCH  25  28
ENDBRANCH  23  24
ENDBRANCH   1  23
TORSDOF 12
