REMARK SMILES C[C@@](O)(CSc1ccc(N)c(F)c1)C(=O)NCCCNC(=O)c1ccc(-c2c3nc(c(-c4c(F)c(F)c(F)c(F)c4F)c4ccc([nH]4)c(-c4c(F)c(F)c(F)c(F)c4F)c4nc(c(-c5c(F)c(F)c(F)c(F)c5F)c5ccc2[nH]5)C=C4)C=C3)cc1
REMARK SMILES IDX 17 1 16 2 14 3 15 4 2 6 1 7 3 8 4 10 5 11 6 12 7 13 13 14
REMARK SMILES IDX 8 15 11 16 9 17 12 18 10 19 18 22 19 23 20 24 21 25 22 27
REMARK SMILES IDX 23 28 24 29 85 30 25 31 84 32 26 33 27 34 28 35 78 36 29 37
REMARK SMILES IDX 83 38 77 39 79 40 30 41 82 42 76 43 75 44 31 46 63 47 43 48
REMARK SMILES IDX 62 49 44 50 47 51 61 52 80 53 45 54 46 55 60 57 81 58 48 59
REMARK SMILES IDX 32 60 33 61 41 62 34 63 35 64 39 65 42 66 36 67 37 68 40 69
REMARK SMILES IDX 38 70 64 71 65 72 73 73 66 74 67 75 71 76 74 77 68 78 69 79
REMARK SMILES IDX 72 80 70 81 49 82 50 83 58 84 51 85 52 86 56 87 59 88 53 89
REMARK SMILES IDX 54 90 57 91 55 92
REMARK H PARENT 16 5 3 9 10 20 10 21 20 26 79 45 47 56
REMARK Flexibility Score: inf
ROOT
ATOM      1  C   UNL     1      -0.009   3.274  -3.023  1.00  0.00     0.117 C 
ENDROOT
BRANCH   1   2
ATOM      2  N   UNL     1       0.747   3.319  -1.784  1.00  0.00    -0.354 N 
ATOM      3  C   UNL     1       1.043   2.343  -0.879  1.00  0.00     0.252 C 
ATOM      4  O   UNL     1       1.759   2.672   0.071  1.00  0.00    -0.272 OA
ATOM      5  H   UNL     1       1.108   4.207  -1.559  1.00  0.00     0.163 HD
BRANCH   3   6
ATOM      6  C   UNL     1       0.526   0.888  -1.051  1.00  0.00     0.149 C 
ATOM      7  C   UNL     1       1.285  -0.049  -0.102  1.00  0.00     0.054 C 
BRANCH   6   8
ATOM      8  O   UNL     1       0.828   0.410  -2.377  1.00  0.00    -0.379 OA
ATOM      9  H   UNL     1       0.502  -0.499  -2.475  1.00  0.00     0.212 HD
ENDBRANCH   6   8
BRANCH   6  10
ATOM     10  C   UNL     1      -1.005   0.786  -0.866  1.00  0.00     0.120 C 
BRANCH  10  11
ATOM     11  S   UNL     1      -1.749   1.535   0.638  1.00  0.00    -0.122 SA
BRANCH  11  12
ATOM     12  C   UNL     1      -1.353   0.323   1.882  1.00  0.00     0.010 A 
ATOM     13  C   UNL     1      -1.687  -1.027   1.735  1.00  0.00     0.017 A 
ATOM     14  C   UNL     1      -0.679   0.737   3.031  1.00  0.00     0.056 A 
ATOM     15  C   UNL     1      -1.304  -1.964   2.702  1.00  0.00     0.030 A 
ATOM     16  C   UNL     1      -0.305  -0.205   3.987  1.00  0.00     0.147 A 
ATOM     17  C   UNL     1      -0.617  -1.563   3.848  1.00  0.00     0.068 A 
ATOM     18  F   UNL     1       0.378   0.208   5.067  1.00  0.00    -0.205 F 
BRANCH  17  19
ATOM     19  N   UNL     1      -0.152  -2.504   4.757  1.00  0.00    -0.396 N 
ATOM     20  H   UNL     1      -0.382  -3.454   4.642  1.00  0.00     0.156 HD
ATOM     21  H   UNL     1       0.406  -2.221   5.516  1.00  0.00     0.156 HD
ENDBRANCH  17  19
ENDBRANCH  11  12
ENDBRANCH  10  11
ENDBRANCH   6  10
ENDBRANCH   3   6
ENDBRANCH   1   2
BRANCH   1  22
ATOM     22  C   UNL     1      -1.323   4.043  -2.927  1.00  0.00     0.042 C 
BRANCH  22  23
ATOM     23  C   UNL     1      -1.165   5.537  -2.663  1.00  0.00     0.118 C 
BRANCH  23  24
ATOM     24  N   UNL     1      -0.479   6.235  -3.741  1.00  0.00    -0.352 N 
ATOM     25  C   UNL     1      -0.884   7.289  -4.519  1.00  0.00     0.251 C 
ATOM     26  H   UNL     1       0.422   5.894  -3.944  1.00  0.00     0.163 HD
ATOM     27  O   UNL     1      -0.203   7.618  -5.490  1.00  0.00    -0.269 OA
BRANCH  25  28
ATOM     28  C   UNL     1      -2.134   8.024  -4.225  1.00  0.00     0.039 A 
ATOM     29  C   UNL     1      -2.948   8.413  -5.294  1.00  0.00     0.014 A 
ATOM     30  C   UNL     1      -2.490   8.370  -2.919  1.00  0.00     0.014 A 
ATOM     31  C   UNL     1      -4.146   9.088  -5.051  1.00  0.00     0.010 A 
ATOM     32  C   UNL     1      -3.718   8.981  -2.671  1.00  0.00     0.010 A 
ATOM     33  C   UNL     1      -4.558   9.348  -3.734  1.00  0.00    -0.014 A 
BRANCH  33  34
ATOM     34  C   UNL     1      -5.867   9.989  -3.451  1.00  0.00     0.031 A 
ATOM     35  C   UNL     1      -5.929  11.343  -2.803  1.00  0.00     0.074 A 
ATOM     36  C   UNL     1      -7.005   9.314  -3.707  1.00  0.00     0.049 A 
ATOM     37  N   UNL     1      -6.974  12.027  -2.412  1.00  0.00    -0.248 NA
ATOM     38  C   UNL     1      -4.643  12.004  -2.533  1.00  0.00     0.031 C 
ATOM     39  C   UNL     1      -7.077   7.968  -4.277  1.00  0.00     0.029 A 
ATOM     40  N   UNL     1      -8.317   9.660  -3.502  1.00  0.00    -0.354 N 
ATOM     41  C   UNL     1      -6.473  13.184  -1.829  1.00  0.00     0.074 A 
ATOM     42  C   UNL     1      -5.030  13.092  -1.882  1.00  0.00     0.031 C 
ATOM     43  C   UNL     1      -8.365   7.605  -4.383  1.00  0.00     0.029 A 
ATOM     44  C   UNL     1      -9.207   8.678  -3.862  1.00  0.00     0.049 A 
ATOM     45  H   UNL     1      -8.594  10.529  -3.132  1.00  0.00     0.167 HD
ATOM     46  C   UNL     1      -7.156  14.233  -1.312  1.00  0.00     0.037 A 
ATOM     47  C   UNL     1     -10.550   8.642  -3.772  1.00  0.00     0.037 A 
ATOM     48  C   UNL     1      -8.592  14.339  -1.294  1.00  0.00     0.049 A 
ATOM     49  C   UNL     1     -11.286   9.833  -3.226  1.00  0.00     0.074 A 
ATOM     50  C   UNL     1      -9.374  15.403  -0.879  1.00  0.00     0.029 A 
ATOM     51  N   UNL     1      -9.462  13.341  -1.706  1.00  0.00    -0.354 N 
ATOM     52  N   UNL     1     -10.804  10.957  -2.756  1.00  0.00    -0.248 NA
ATOM     53  C   UNL     1     -12.753   9.753  -3.205  1.00  0.00     0.031 C 
ATOM     54  C   UNL     1     -10.718  15.032  -1.000  1.00  0.00     0.029 A 
ATOM     55  C   UNL     1     -10.773  13.754  -1.531  1.00  0.00     0.049 A 
ATOM     56  H   UNL     1      -9.188  12.467  -2.069  1.00  0.00     0.167 HD
ATOM     57  C   UNL     1     -11.904  11.725  -2.401  1.00  0.00     0.074 A 
ATOM     58  C   UNL     1     -13.080  10.945  -2.726  1.00  0.00     0.031 C 
ATOM     59  C   UNL     1     -11.935  12.966  -1.855  1.00  0.00     0.037 A 
BRANCH  46  60
ATOM     60  C   UNL     1      -6.356  15.357  -0.720  1.00  0.00     0.064 A 
ATOM     61  C   UNL     1      -5.607  16.231  -1.522  1.00  0.00     0.173 A 
ATOM     62  C   UNL     1      -6.364  15.581   0.665  1.00  0.00     0.173 A 
ATOM     63  F   UNL     1      -5.559  16.054  -2.851  1.00  0.00    -0.203 F 
ATOM     64  C   UNL     1      -4.871  17.269  -0.957  1.00  0.00     0.198 A 
ATOM     65  C   UNL     1      -5.649  16.637   1.224  1.00  0.00     0.198 A 
ATOM     66  F   UNL     1      -7.069  14.779   1.476  1.00  0.00    -0.203 F 
ATOM     67  F   UNL     1      -4.124  18.061  -1.738  1.00  0.00    -0.200 F 
ATOM     68  C   UNL     1      -4.897  17.475   0.414  1.00  0.00     0.200 A 
ATOM     69  F   UNL     1      -5.684  16.842   2.548  1.00  0.00    -0.200 F 
ATOM     70  F   UNL     1      -4.191  18.477   0.956  1.00  0.00    -0.200 F 
ENDBRANCH  46  60
BRANCH  47  71
ATOM     71  C   UNL     1     -11.282   7.436  -4.235  1.00  0.00     0.064 A 
ATOM     72  C   UNL     1     -12.031   7.459  -5.419  1.00  0.00     0.173 A 
ATOM     73  C   UNL     1     -11.230   6.233  -3.515  1.00  0.00     0.173 A 
ATOM     74  F   UNL     1     -12.125   8.592  -6.129  1.00  0.00    -0.203 F 
ATOM     75  C   UNL     1     -12.712   6.326  -5.860  1.00  0.00     0.198 A 
ATOM     76  C   UNL     1     -11.892   5.095  -3.971  1.00  0.00     0.198 A 
ATOM     77  F   UNL     1     -10.522   6.160  -2.379  1.00  0.00    -0.203 F 
ATOM     78  F   UNL     1     -13.448   6.384  -6.978  1.00  0.00    -0.200 F 
ATOM     79  C   UNL     1     -12.636   5.144  -5.140  1.00  0.00     0.200 A 
ATOM     80  F   UNL     1     -11.805   3.950  -3.280  1.00  0.00    -0.200 F 
ATOM     81  F   UNL     1     -13.283   4.052  -5.570  1.00  0.00    -0.200 F 
ENDBRANCH  47  71
BRANCH  59  82
ATOM     82  C   UNL     1     -13.284  13.564  -1.589  1.00  0.00     0.064 A 
ATOM     83  C   UNL     1     -14.090  13.114  -0.533  1.00  0.00     0.173 A 
ATOM     84  C   UNL     1     -13.760  14.624  -2.375  1.00  0.00     0.173 A 
ATOM     85  F   UNL     1     -13.686  12.092   0.236  1.00  0.00    -0.203 F 
ATOM     86  C   UNL     1     -15.333  13.691  -0.287  1.00  0.00     0.198 A 
ATOM     87  C   UNL     1     -14.991  15.216  -2.110  1.00  0.00     0.198 A 
ATOM     88  F   UNL     1     -13.024  15.094  -3.394  1.00  0.00    -0.203 F 
ATOM     89  F   UNL     1     -16.105  13.217   0.701  1.00  0.00    -0.200 F 
ATOM     90  C   UNL     1     -15.779  14.745  -1.070  1.00  0.00     0.200 A 
ATOM     91  F   UNL     1     -15.417  16.241  -2.861  1.00  0.00    -0.200 F 
ATOM     92  F   UNL     1     -16.974  15.302  -0.828  1.00  0.00    -0.200 F 
ENDBRANCH  59  82
ENDBRANCH  33  34
ENDBRANCH  25  28
ENDBRANCH  23  24
ENDBRANCH  22  23
ENDBRANCH   1  22
TORSDOF 15
