REMARK SMILES CC1(C)CC[C@@]2(C(=O)NCCCNC(=O)c3ccc(-c4c5nc(c(-c6c(F)c(F)c(F)c(F)c6F)c6ccc([nH]6)c(-c6c(F)c(F)c(F)c(F)c6F)c6nc(c(-c7c(F)c(F)c(F)c(F)c7F)c7ccc4[nH]7)C=C6)C=C5)cc3)CC[C@@]3(C)C(=CC[C@H]4[C@@]5(C)CC[C@H](O)C(C)(C)[C@@H]5CC[C@]43C)[C@@H]2C1
REMARK SMILES IDX 11 1 10 2 9 3 7 4 8 5 6 7 1 8 2 9 3 10 4 11 102 12 5 13
REMARK SMILES IDX 101 14 83 15 79 16 81 17 84 18 80 19 82 20 99 21 85 22 86 23
REMARK SMILES IDX 98 24 100 25 87 26 97 27 88 28 89 29 96 30 90 31 93 32 91 33
REMARK SMILES IDX 94 34 95 35 92 36 12 38 13 39 14 40 15 42 16 43 17 44 78 45
REMARK SMILES IDX 18 46 77 47 19 48 20 49 21 50 71 51 22 52 76 53 70 54 72 55
REMARK SMILES IDX 23 56 75 57 69 58 68 59 24 61 56 62 36 63 55 64 37 65 40 66
REMARK SMILES IDX 54 67 73 68 38 69 39 70 53 72 74 73 41 74 25 75 26 76 34 77
REMARK SMILES IDX 27 78 28 79 32 80 35 81 29 82 30 83 33 84 31 85 57 86 58 87
REMARK SMILES IDX 66 88 59 89 60 90 64 91 67 92 61 93 62 94 65 95 63 96 42 97
REMARK SMILES IDX 43 98 51 99 44 100 45 101 49 102 52 103 46 104 47 105 50 106
REMARK SMILES IDX 48 107
REMARK H PARENT 9 6 92 37 13 41 72 60 40 71
REMARK Flexibility Score: inf
ROOT
ATOM      1  C   UNL     1      -0.909  -0.630   3.140  1.00  0.00     0.042 C 
ENDROOT
BRANCH   1   2
ATOM      2  C   UNL     1       0.055   0.463   2.625  1.00  0.00     0.117 C 
BRANCH   2   3
ATOM      3  N   UNL     1      -0.165   1.888   2.674  1.00  0.00    -0.356 N 
ATOM      4  C   UNL     1       0.829   2.818   2.385  1.00  0.00     0.226 C 
ATOM      5  O   UNL     1       1.292   3.507   3.295  1.00  0.00    -0.274 OA
ATOM      6  H   UNL     1      -1.059   2.217   2.923  1.00  0.00     0.163 HD
BRANCH   4   7
ATOM      7  C   UNL     1       1.279   3.057   0.891  1.00  0.00     0.056 C 
ATOM      8  C   UNL     1       2.790  -0.101  -1.366  1.00  0.00     0.011 C 
ATOM      9  C   UNL     1       1.963   0.248  -0.108  1.00  0.00    -0.035 C 
ATOM     10  C   UNL     1       1.688  -1.149   0.549  1.00  0.00     0.011 C 
ATOM     11  C   UNL     1       2.859   1.060   0.855  1.00  0.00     0.007 C 
ATOM     12  C   UNL     1       0.623   0.987  -0.575  1.00  0.00     0.015 C 
ATOM     13  C   UNL     1       2.724   2.558   0.721  1.00  0.00     0.018 C 
ATOM     14  C   UNL     1       0.342   2.499  -0.191  1.00  0.00     0.031 C 
ATOM     15  C   UNL     1      -1.097   3.039   0.146  1.00  0.00    -0.064 C 
ATOM     16  C   UNL     1       1.353   4.583   0.597  1.00  0.00     0.018 C 
ATOM     17  C   UNL     1      -1.290   4.586   0.354  1.00  0.00    -0.006 C 
ATOM     18  C   UNL     1      -2.173   2.242   0.225  1.00  0.00    -0.027 C 
ATOM     19  C   UNL     1       0.027   5.307   0.799  1.00  0.00     0.013 C 
ATOM     20  C   UNL     1      -1.490   5.033  -1.144  1.00  0.00     0.017 C 
ATOM     21  C   UNL     1      -2.634   5.047   1.349  1.00  0.00    -0.020 C 
ATOM     22  C   UNL     1      -3.498   2.661   0.770  1.00  0.00     0.032 C 
ATOM     23  C   UNL     1      -3.474   3.784   1.849  1.00  0.00     0.006 C 
ATOM     24  C   UNL     1      -2.305   6.014   2.578  1.00  0.00     0.008 C 
ATOM     25  C   UNL     1      -3.675   5.899   0.479  1.00  0.00     0.012 C 
ATOM     26  C   UNL     1      -3.470   3.368   3.433  1.00  0.00    -0.025 C 
ATOM     27  C   UNL     1      -2.329   5.535   4.043  1.00  0.00     0.005 C 
ATOM     28  C   UNL     1      -4.875   3.783   3.972  1.00  0.00     0.012 C 
ATOM     29  C   UNL     1      -3.409   1.849   3.644  1.00  0.00     0.010 C 
ATOM     30  C   UNL     1      -2.302   4.032   4.232  1.00  0.00     0.003 C 
ATOM     31  C   UNL     1      -3.087   1.333   5.046  1.00  0.00     0.033 C 
ATOM     32  C   UNL     1      -2.071   3.529   5.742  1.00  0.00    -0.006 C 
ATOM     33  C   UNL     1      -1.873   1.996   5.676  1.00  0.00     0.120 C 
ATOM     34  C   UNL     1      -3.182   3.859   6.767  1.00  0.00     0.014 C 
ATOM     35  C   UNL     1      -0.783   4.147   6.346  1.00  0.00     0.014 C 
BRANCH  33  36
ATOM     36  O   UNL     1      -1.601   1.410   6.950  1.00  0.00    -0.393 OA
ATOM     37  H   UNL     1      -2.362   1.542   7.536  1.00  0.00     0.210 HD
ENDBRANCH  33  36
ENDBRANCH   4   7
ENDBRANCH   2   3
ENDBRANCH   1   2
BRANCH   1  38
ATOM     38  C   UNL     1      -2.191  -0.853   2.318  1.00  0.00     0.118 C 
BRANCH  38  39
ATOM     39  N   UNL     1      -2.573  -2.223   2.031  1.00  0.00    -0.352 N 
ATOM     40  C   UNL     1      -3.543  -3.014   2.616  1.00  0.00     0.251 C 
ATOM     41  H   UNL     1      -2.062  -2.655   1.309  1.00  0.00     0.163 HD
ATOM     42  O   UNL     1      -3.953  -4.004   2.042  1.00  0.00    -0.269 OA
BRANCH  40  43
ATOM     43  C   UNL     1      -3.999  -2.742   3.999  1.00  0.00     0.039 A 
ATOM     44  C   UNL     1      -3.698  -3.710   4.956  1.00  0.00     0.014 A 
ATOM     45  C   UNL     1      -4.724  -1.613   4.370  1.00  0.00     0.014 A 
ATOM     46  C   UNL     1      -4.042  -3.506   6.295  1.00  0.00     0.010 A 
ATOM     47  C   UNL     1      -4.988  -1.371   5.728  1.00  0.00     0.010 A 
ATOM     48  C   UNL     1      -4.637  -2.304   6.717  1.00  0.00    -0.014 A 
BRANCH  48  49
ATOM     49  C   UNL     1      -4.869  -2.063   8.178  1.00  0.00     0.031 A 
ATOM     50  C   UNL     1      -6.245  -1.764   8.721  1.00  0.00     0.074 A 
ATOM     51  C   UNL     1      -3.833  -2.131   9.044  1.00  0.00     0.049 A 
ATOM     52  N   UNL     1      -6.632  -1.631   9.969  1.00  0.00    -0.248 NA
ATOM     53  C   UNL     1      -7.322  -1.551   7.745  1.00  0.00     0.031 C 
ATOM     54  C   UNL     1      -2.429  -2.319   8.673  1.00  0.00     0.029 A 
ATOM     55  N   UNL     1      -3.800  -2.075  10.420  1.00  0.00    -0.354 N 
ATOM     56  C   UNL     1      -7.984  -1.316   9.919  1.00  0.00     0.074 A 
ATOM     57  C   UNL     1      -8.333  -1.192   8.522  1.00  0.00     0.031 C 
ATOM     58  C   UNL     1      -1.688  -2.441   9.786  1.00  0.00     0.029 A 
ATOM     59  C   UNL     1      -2.551  -2.297  10.955  1.00  0.00     0.049 A 
ATOM     60  H   UNL     1      -4.596  -1.892  10.970  1.00  0.00     0.167 HD
ATOM     61  C   UNL     1      -8.871  -1.184  10.936  1.00  0.00     0.037 A 
ATOM     62  C   UNL     1      -2.142  -2.392  12.237  1.00  0.00     0.037 A 
ATOM     63  C   UNL     1      -8.547  -1.341  12.329  1.00  0.00     0.049 A 
ATOM     64  C   UNL     1      -3.149  -2.257  13.350  1.00  0.00     0.074 A 
ATOM     65  C   UNL     1      -9.397  -1.299  13.422  1.00  0.00     0.029 A 
ATOM     66  N   UNL     1      -7.272  -1.567  12.825  1.00  0.00    -0.354 N 
ATOM     67  N   UNL     1      -4.444  -2.069  13.279  1.00  0.00    -0.248 NA
ATOM     68  C   UNL     1      -2.635  -2.356  14.725  1.00  0.00     0.031 C 
ATOM     69  C   UNL     1      -8.629  -1.443  14.581  1.00  0.00     0.029 A 
ATOM     70  C   UNL     1      -7.309  -1.639  14.209  1.00  0.00     0.049 A 
ATOM     71  H   UNL     1      -6.461  -1.663  12.275  1.00  0.00     0.167 HD
ATOM     72  C   UNL     1      -4.901  -2.057  14.591  1.00  0.00     0.074 A 
ATOM     73  C   UNL     1      -3.750  -2.278  15.438  1.00  0.00     0.031 C 
ATOM     74  C   UNL     1      -6.163  -1.874  15.050  1.00  0.00     0.037 A 
BRANCH  61  75
ATOM     75  C   UNL     1     -10.297  -0.870  10.575  1.00  0.00     0.064 A 
ATOM     76  C   UNL     1     -11.110  -1.801   9.909  1.00  0.00     0.173 A 
ATOM     77  C   UNL     1     -10.870   0.361  10.931  1.00  0.00     0.173 A 
ATOM     78  F   UNL     1     -10.611  -2.990   9.539  1.00  0.00    -0.203 F 
ATOM     79  C   UNL     1     -12.427  -1.496   9.576  1.00  0.00     0.198 A 
ATOM     80  C   UNL     1     -12.199   0.648  10.629  1.00  0.00     0.198 A 
ATOM     81  F   UNL     1     -10.144   1.284  11.579  1.00  0.00    -0.203 F 
ATOM     82  F   UNL     1     -13.162  -2.378   8.884  1.00  0.00    -0.200 F 
ATOM     83  C   UNL     1     -12.972  -0.276   9.942  1.00  0.00     0.200 A 
ATOM     84  F   UNL     1     -12.730   1.821  10.999  1.00  0.00    -0.200 F 
ATOM     85  F   UNL     1     -14.242   0.014   9.626  1.00  0.00    -0.200 F 
ENDBRANCH  61  75
BRANCH  62  86
ATOM     86  C   UNL     1      -0.711  -2.663  12.551  1.00  0.00     0.064 A 
ATOM     87  C   UNL     1      -0.315  -3.870  13.146  1.00  0.00     0.173 A 
ATOM     88  C   UNL     1       0.285  -1.708  12.297  1.00  0.00     0.173 A 
ATOM     89  F   UNL     1      -1.231  -4.807  13.435  1.00  0.00    -0.203 F 
ATOM     90  C   UNL     1       1.014  -4.100  13.500  1.00  0.00     0.198 A 
ATOM     91  C   UNL     1       1.619  -1.953  12.619  1.00  0.00     0.198 A 
ATOM     92  F   UNL     1      -0.038  -0.536  11.732  1.00  0.00    -0.203 F 
ATOM     93  F   UNL     1       1.352  -5.238  14.122  1.00  0.00    -0.200 F 
ATOM     94  C   UNL     1       1.980  -3.144  13.231  1.00  0.00     0.200 A 
ATOM     95  F   UNL     1       2.552  -1.031  12.347  1.00  0.00    -0.200 F 
ATOM     96  F   UNL     1       3.257  -3.365  13.572  1.00  0.00    -0.200 F 
ENDBRANCH  62  86
BRANCH  74  97
ATOM     97  C   UNL     1      -6.385  -1.944  16.535  1.00  0.00     0.064 A 
ATOM     98  C   UNL     1      -5.913  -0.948  17.402  1.00  0.00     0.173 A 
ATOM     99  C   UNL     1      -7.122  -3.001  17.092  1.00  0.00     0.173 A 
ATOM    100  F   UNL     1      -5.192   0.078  16.924  1.00  0.00    -0.203 F 
ATOM    101  C   UNL     1      -6.148  -1.020  18.773  1.00  0.00     0.198 A 
ATOM    102  C   UNL     1      -7.386  -3.052  18.458  1.00  0.00     0.198 A 
ATOM    103  F   UNL     1      -7.605  -3.977  16.308  1.00  0.00    -0.203 F 
ATOM    104  F   UNL     1      -5.645  -0.082  19.588  1.00  0.00    -0.200 F 
ATOM    105  C   UNL     1      -6.891  -2.067  19.299  1.00  0.00     0.200 A 
ATOM    106  F   UNL     1      -8.119  -4.054  18.961  1.00  0.00    -0.200 F 
ATOM    107  F   UNL     1      -7.127  -2.128  20.616  1.00  0.00    -0.200 F 
ENDBRANCH  74  97
ENDBRANCH  48  49
ENDBRANCH  40  43
ENDBRANCH  38  39
ENDBRANCH   1  38
TORSDOF 11
