REMARK SMILES Cc1ccc(S(=O)(=O)n2cc(C(=O)C(=O)N[C@@H](Cc3c[nH]c4ccccc34)C(=O)NCCCNC(=O)c3ccc(-c4c5nc(c(-c6c(F)c(F)c(F)c(F)c6F)c6ccc([nH]6)c(-c6c(F)c(F)c(F)c(F)c6F)c6nc(c(-c7c(F)c(F)c(F)c(F)c7F)c7ccc4[nH]7)C=C6)C=C5)cc3)c3ccccc32)cc1
REMARK SMILES IDX 28 1 29 2 30 3 17 5 16 6 14 7 15 8 12 10 13 11 11 12 9 13
REMARK SMILES IDX 10 14 105 15 100 16 104 17 101 18 103 19 102 20 6 21 7 22
REMARK SMILES IDX 8 23 5 24 1 25 2 26 3 27 107 28 4 29 106 30 18 31 19 32
REMARK SMILES IDX 20 33 27 34 21 35 22 36 26 37 23 39 25 40 24 41 31 42 32 43
REMARK SMILES IDX 33 44 34 45 35 46 36 48 37 49 38 50 99 51 39 52 98 53 40 54
REMARK SMILES IDX 41 55 42 56 92 57 43 58 97 59 91 60 93 61 44 62 96 63 90 64
REMARK SMILES IDX 89 65 45 67 77 68 57 69 76 70 58 71 61 72 75 73 94 74 59 75
REMARK SMILES IDX 60 76 74 78 95 79 62 80 46 81 47 82 55 83 48 84 49 85 53 86
REMARK SMILES IDX 56 87 50 88 51 89 54 90 52 91 78 92 79 93 87 94 80 95 81 96
REMARK SMILES IDX 85 97 88 98 82 99 83 100 86 101 84 102 63 103 64 104 72 105
REMARK SMILES IDX 65 106 66 107 70 108 73 109 67 110 68 111 71 112 69 113
REMARK H PARENT 30 4 16 9 21 38 34 47 93 66 61 77
REMARK Flexibility Score: inf
ROOT
ATOM      1  C   UNL     1     -11.629   1.690  -1.247  1.00  0.00     0.242 C 
ATOM      2  O   UNL     1     -11.962   0.567  -1.648  1.00  0.00    -0.273 OA
ATOM      3  N   UNL     1     -12.164   2.736  -1.936  1.00  0.00    -0.354 N 
ATOM      4  H   UNL     1     -12.267   2.571  -2.901  1.00  0.00     0.163 HD
ENDROOT
BRANCH   1   5
ATOM      5  C   UNL     1     -10.745   1.817   0.020  1.00  0.00     0.176 C 
BRANCH   5   6
ATOM      6  N   UNL     1      -9.649   2.801  -0.064  1.00  0.00    -0.337 N 
ATOM      7  C   UNL     1      -8.291   2.622  -0.362  1.00  0.00     0.293 C 
ATOM      8  O   UNL     1      -7.507   3.537  -0.230  1.00  0.00    -0.265 OA
ATOM      9  H   UNL     1      -9.914   3.731   0.119  1.00  0.00     0.164 HD
BRANCH   7  10
ATOM     10  C   UNL     1      -7.793   1.277  -0.924  1.00  0.00     0.252 C 
ATOM     11  O   UNL     1      -8.470   0.812  -1.840  1.00  0.00    -0.283 OA
BRANCH  10  12
ATOM     12  C   UNL     1      -6.648   0.523  -0.360  1.00  0.00     0.054 A 
ATOM     13  N   UNL     1      -4.679  -0.213   0.518  1.00  0.00    -0.240 N 
ATOM     14  C   UNL     1      -5.345   0.907   0.002  1.00  0.00     0.117 A 
ATOM     15  C   UNL     1      -5.635  -1.236   0.654  1.00  0.00     0.065 A 
ATOM     16  C   UNL     1      -6.674  -0.901  -0.209  1.00  0.00     0.012 A 
ATOM     17  C   UNL     1      -5.530  -2.528   1.211  1.00  0.00     0.028 A 
ATOM     18  C   UNL     1      -7.501  -1.937  -0.696  1.00  0.00     0.011 A 
ATOM     19  C   UNL     1      -6.309  -3.543   0.660  1.00  0.00     0.002 A 
ATOM     20  C   UNL     1      -7.252  -3.260  -0.317  1.00  0.00     0.001 A 
BRANCH  13  21
ATOM     21  S   UNL     1      -3.137  -0.868  -0.012  1.00  0.00     0.268 S 
ATOM     22  O   UNL     1      -3.406  -1.263  -1.384  1.00  0.00    -0.201 OA
ATOM     23  O   UNL     1      -2.866  -1.864   1.018  1.00  0.00    -0.201 OA
BRANCH  21  24
ATOM     24  C   UNL     1      -1.580  -0.055  -0.072  1.00  0.00     0.088 A 
ATOM     25  C   UNL     1       2.634   0.936  -0.037  1.00  0.00     0.044 C 
ATOM     26  C   UNL     1       1.162   0.638  -0.092  1.00  0.00    -0.051 A 
ATOM     27  C   UNL     1       0.788  -0.672  -0.347  1.00  0.00     0.005 A 
ATOM     28  C   UNL     1       0.153   1.599   0.153  1.00  0.00     0.005 A 
ATOM     29  C   UNL     1      -0.556  -1.001  -0.349  1.00  0.00     0.022 A 
ATOM     30  C   UNL     1      -1.228   1.260   0.171  1.00  0.00     0.022 A 
ENDBRANCH  21  24
ENDBRANCH  13  21
ENDBRANCH  10  12
ENDBRANCH   7  10
ENDBRANCH   5   6
BRANCH   5  31
ATOM     31  C   UNL     1     -11.556   1.847   1.352  1.00  0.00     0.072 C 
BRANCH  31  32
ATOM     32  C   UNL     1     -12.350   3.084   1.695  1.00  0.00    -0.020 A 
ATOM     33  C   UNL     1     -13.734   3.163   1.765  1.00  0.00     0.087 A 
ATOM     34  C   UNL     1     -11.862   4.404   1.986  1.00  0.00     0.003 A 
ATOM     35  N   UNL     1     -14.090   4.476   1.948  1.00  0.00    -0.361 N 
ATOM     36  C   UNL     1     -12.964   5.263   2.006  1.00  0.00     0.046 A 
ATOM     37  C   UNL     1     -10.579   4.969   2.142  1.00  0.00     0.010 A 
ATOM     38  H   UNL     1     -15.015   4.805   2.026  1.00  0.00     0.166 HD
ATOM     39  C   UNL     1     -12.840   6.657   2.057  1.00  0.00     0.026 A 
ATOM     40  C   UNL     1     -10.434   6.360   2.159  1.00  0.00     0.001 A 
ATOM     41  C   UNL     1     -11.548   7.190   2.090  1.00  0.00     0.002 A 
ENDBRANCH  31  32
ENDBRANCH   5  31
ENDBRANCH   1   5
BRANCH   3  42
ATOM     42  C   UNL     1     -12.610   4.048  -1.507  1.00  0.00     0.117 C 
BRANCH  42  43
ATOM     43  C   UNL     1     -11.588   5.159  -1.666  1.00  0.00     0.042 C 
BRANCH  43  44
ATOM     44  C   UNL     1     -12.202   6.399  -2.300  1.00  0.00     0.118 C 
BRANCH  44  45
ATOM     45  N   UNL     1     -12.978   7.284  -1.431  1.00  0.00    -0.352 N 
ATOM     46  C   UNL     1     -13.775   8.366  -1.801  1.00  0.00     0.251 C 
ATOM     47  H   UNL     1     -12.931   7.092  -0.467  1.00  0.00     0.163 HD
ATOM     48  O   UNL     1     -14.346   9.054  -0.963  1.00  0.00    -0.269 OA
BRANCH  46  49
ATOM     49  C   UNL     1     -14.030   8.580  -3.249  1.00  0.00     0.039 A 
ATOM     50  C   UNL     1     -15.342   8.393  -3.693  1.00  0.00     0.014 A 
ATOM     51  C   UNL     1     -12.961   8.465  -4.128  1.00  0.00     0.014 A 
ATOM     52  C   UNL     1     -15.551   7.741  -4.904  1.00  0.00     0.010 A 
ATOM     53  C   UNL     1     -13.158   7.693  -5.257  1.00  0.00     0.010 A 
ATOM     54  C   UNL     1     -14.445   7.253  -5.598  1.00  0.00    -0.014 A 
BRANCH  54  55
ATOM     55  C   UNL     1     -14.537   6.193  -6.600  1.00  0.00     0.031 A 
ATOM     56  C   UNL     1     -14.216   6.488  -8.012  1.00  0.00     0.074 A 
ATOM     57  C   UNL     1     -14.863   4.921  -6.264  1.00  0.00     0.049 A 
ATOM     58  N   UNL     1     -14.716   5.841  -9.011  1.00  0.00    -0.248 NA
ATOM     59  C   UNL     1     -13.319   7.563  -8.412  1.00  0.00     0.031 C 
ATOM     60  C   UNL     1     -14.755   3.735  -7.116  1.00  0.00     0.029 A 
ATOM     61  N   UNL     1     -15.536   4.457  -5.121  1.00  0.00    -0.354 N 
ATOM     62  C   UNL     1     -14.029   6.219 -10.138  1.00  0.00     0.074 A 
ATOM     63  C   UNL     1     -13.203   7.329  -9.721  1.00  0.00     0.031 C 
ATOM     64  C   UNL     1     -15.580   2.786  -6.653  1.00  0.00     0.029 A 
ATOM     65  C   UNL     1     -16.326   3.356  -5.551  1.00  0.00     0.049 A 
ATOM     66  H   UNL     1     -15.473   4.820  -4.208  1.00  0.00     0.167 HD
ATOM     67  C   UNL     1     -14.142   5.480 -11.278  1.00  0.00     0.037 A 
ATOM     68  C   UNL     1     -17.685   3.364  -5.427  1.00  0.00     0.037 A 
ATOM     69  C   UNL     1     -15.046   4.345 -11.105  1.00  0.00     0.049 A 
ATOM     70  C   UNL     1     -18.433   3.331  -6.744  1.00  0.00     0.074 A 
ATOM     71  C   UNL     1     -14.865   2.992 -10.869  1.00  0.00     0.029 A 
ATOM     72  N   UNL     1     -16.387   4.590 -10.870  1.00  0.00    -0.354 N 
ATOM     73  N   UNL     1     -17.864   3.240  -7.914  1.00  0.00    -0.248 NA
ATOM     74  C   UNL     1     -19.881   3.523  -6.844  1.00  0.00     0.031 C 
ATOM     75  C   UNL     1     -16.123   2.426 -10.516  1.00  0.00     0.029 A 
ATOM     76  C   UNL     1     -17.067   3.435 -10.537  1.00  0.00     0.049 A 
ATOM     77  H   UNL     1     -16.805   5.479 -10.932  1.00  0.00     0.167 HD
ATOM     78  C   UNL     1     -18.803   3.446  -8.892  1.00  0.00     0.074 A 
ATOM     79  C   UNL     1     -20.051   3.615  -8.173  1.00  0.00     0.031 C 
ATOM     80  C   UNL     1     -18.483   3.520 -10.217  1.00  0.00     0.037 A 
BRANCH  67  81
ATOM     81  C   UNL     1     -13.230   5.659 -12.466  1.00  0.00     0.064 A 
ATOM     82  C   UNL     1     -12.880   4.566 -13.284  1.00  0.00     0.173 A 
ATOM     83  C   UNL     1     -12.629   6.881 -12.825  1.00  0.00     0.173 A 
ATOM     84  F   UNL     1     -13.472   3.373 -13.150  1.00  0.00    -0.203 F 
ATOM     85  C   UNL     1     -11.902   4.659 -14.277  1.00  0.00     0.198 A 
ATOM     86  C   UNL     1     -11.601   6.961 -13.768  1.00  0.00     0.198 A 
ATOM     87  F   UNL     1     -13.055   8.042 -12.309  1.00  0.00    -0.203 F 
ATOM     88  F   UNL     1     -11.605   3.582 -15.019  1.00  0.00    -0.200 F 
ATOM     89  C   UNL     1     -11.227   5.844 -14.485  1.00  0.00     0.200 A 
ATOM     90  F   UNL     1     -10.977   8.130 -13.976  1.00  0.00    -0.200 F 
ATOM     91  F   UNL     1     -10.243   5.916 -15.392  1.00  0.00    -0.200 F 
ENDBRANCH  67  81
BRANCH  68  92
ATOM     92  C   UNL     1     -18.116   4.084  -4.200  1.00  0.00     0.064 A 
ATOM     93  C   UNL     1     -17.688   3.562  -2.963  1.00  0.00     0.173 A 
ATOM     94  C   UNL     1     -18.480   5.433  -4.250  1.00  0.00     0.173 A 
ATOM     95  F   UNL     1     -17.352   2.266  -2.861  1.00  0.00    -0.203 F 
ATOM     96  C   UNL     1     -17.440   4.399  -1.881  1.00  0.00     0.198 A 
ATOM     97  C   UNL     1     -18.266   6.261  -3.150  1.00  0.00     0.198 A 
ATOM     98  F   UNL     1     -18.899   5.983  -5.399  1.00  0.00    -0.203 F 
ATOM     99  F   UNL     1     -16.861   3.912  -0.773  1.00  0.00    -0.200 F 
ATOM    100  C   UNL     1     -17.691   5.756  -1.991  1.00  0.00     0.200 A 
ATOM    101  F   UNL     1     -18.507   7.575  -3.254  1.00  0.00    -0.200 F 
ATOM    102  F   UNL     1     -17.330   6.584  -1.001  1.00  0.00    -0.200 F 
ENDBRANCH  68  92
BRANCH  80 103
ATOM    103  C   UNL     1     -19.495   3.705 -11.317  1.00  0.00     0.064 A 
ATOM    104  C   UNL     1     -20.733   3.041 -11.321  1.00  0.00     0.173 A 
ATOM    105  C   UNL     1     -19.209   4.473 -12.468  1.00  0.00     0.173 A 
ATOM    106  F   UNL     1     -21.069   2.206 -10.327  1.00  0.00    -0.203 F 
ATOM    107  C   UNL     1     -21.651   3.199 -12.362  1.00  0.00     0.198 A 
ATOM    108  C   UNL     1     -20.103   4.582 -13.532  1.00  0.00     0.198 A 
ATOM    109  F   UNL     1     -18.066   5.162 -12.590  1.00  0.00    -0.203 F 
ATOM    110  F   UNL     1     -22.848   2.600 -12.289  1.00  0.00    -0.200 F 
ATOM    111  C   UNL     1     -21.333   3.962 -13.471  1.00  0.00     0.200 A 
ATOM    112  F   UNL     1     -19.764   5.300 -14.613  1.00  0.00    -0.200 F 
ATOM    113  F   UNL     1     -22.208   4.099 -14.476  1.00  0.00    -0.200 F 
ENDBRANCH  80 103
ENDBRANCH  54  55
ENDBRANCH  46  49
ENDBRANCH  44  45
ENDBRANCH  43  44
ENDBRANCH  42  43
ENDBRANCH   3  42
TORSDOF 17
