REMARK SMILES CC(C)Cc1ccc(-c2cc(Cl)cc3c2O[C@H](C(F)(F)F)C(C(=O)NCCCNC(=O)c2ccc(-c4c5nc(c(-c6c(F)c(F)c(F)c(F)c6F)c6ccc([nH]6)c(-c6c(F)c(F)c(F)c(F)c6F)c6nc(c(-c7c(F)c(F)c(F)c(F)c7F)c7ccc4[nH]7)C=C6)C=C5)cc2)=C3)cc1
REMARK SMILES IDX 26 1 25 2 23 3 24 4 22 6 9 7 10 8 15 9 11 10 14 11 16 12
REMARK SMILES IDX 12 13 13 14 95 15 17 16 8 17 5 18 6 19 97 20 7 21 96 22 4 23
REMARK SMILES IDX 2 24 1 25 3 26 18 27 19 28 20 29 21 30 27 31 28 32 29 33
REMARK SMILES IDX 30 34 31 36 32 37 33 38 94 39 34 40 93 41 35 42 36 43 37 44
REMARK SMILES IDX 87 45 38 46 92 47 86 48 88 49 39 50 91 51 85 52 84 53 40 55
REMARK SMILES IDX 72 56 52 57 71 58 53 59 56 60 70 61 89 62 54 63 55 64 69 66
REMARK SMILES IDX 90 67 57 68 41 69 42 70 50 71 43 72 44 73 48 74 51 75 45 76
REMARK SMILES IDX 46 77 49 78 47 79 73 80 74 81 82 82 75 83 76 84 80 85 83 86
REMARK SMILES IDX 77 87 78 88 81 89 79 90 58 91 59 92 67 93 60 94 61 95 65 96
REMARK SMILES IDX 68 97 62 98 63 99 66 100 64 101
REMARK H PARENT 25 5 29 35 88 54 56 65
REMARK Flexibility Score: inf
ROOT
ATOM      1  C   UNL     1      -6.510   4.731 -10.395  1.00  0.00     0.118 C 
ENDROOT
BRANCH   1   2
ATOM      2  N   UNL     1      -5.157   4.610  -9.887  1.00  0.00    -0.352 N 
ATOM      3  C   UNL     1      -4.796   4.089  -8.686  1.00  0.00     0.251 C 
ATOM      4  O   UNL     1      -3.957   4.660  -8.001  1.00  0.00    -0.270 OA
ATOM      5  H   UNL     1      -4.432   4.935 -10.468  1.00  0.00     0.163 HD
BRANCH   3   6
ATOM      6  C   UNL     1      -5.341   2.743  -8.343  1.00  0.00     0.067 C 
ATOM      7  C   UNL     1      -3.018   1.812  -5.121  1.00  0.00     0.026 A 
ATOM      8  C   UNL     1      -1.697   2.208  -5.459  1.00  0.00     0.033 A 
ATOM      9  C   UNL     1      -3.945   1.777  -6.180  1.00  0.00     0.135 A 
ATOM     10  C   UNL     1      -1.271   2.353  -6.777  1.00  0.00     0.042 A 
ATOM     11  C   UNL     1      -3.466   1.810  -7.515  1.00  0.00     0.019 A 
ATOM     12  O   UNL     1      -5.324   1.774  -6.005  1.00  0.00    -0.475 OA
ATOM     13  Cl  UNL     1       0.347   2.830  -7.103  1.00  0.00    -0.084 Cl
ATOM     14  C   UNL     1      -2.135   2.075  -7.817  1.00  0.00     0.032 A 
ATOM     15  C   UNL     1      -4.461   1.758  -8.610  1.00  0.00     0.025 C 
ATOM     16  C   UNL     1      -6.041   2.645  -6.992  1.00  0.00     0.314 C 
BRANCH   7  17
ATOM     17  C   UNL     1      -3.129   1.223  -3.755  1.00  0.00    -0.015 A 
ATOM     18  C   UNL     1      -2.083  -0.185  -1.483  1.00  0.00    -0.048 A 
ATOM     19  C   UNL     1      -2.098   1.214  -1.520  1.00  0.00     0.004 A 
ATOM     20  C   UNL     1      -2.719  -0.865  -2.531  1.00  0.00     0.004 A 
ATOM     21  C   UNL     1      -2.623   1.907  -2.630  1.00  0.00     0.009 A 
ATOM     22  C   UNL     1      -3.249  -0.173  -3.639  1.00  0.00     0.009 A 
BRANCH  18  23
ATOM     23  C   UNL     1      -1.432  -0.941  -0.337  1.00  0.00     0.038 C 
BRANCH  23  24
ATOM     24  C   UNL     1       0.113  -1.107  -0.354  1.00  0.00    -0.013 C 
ATOM     25  C   UNL     1       0.879   0.214  -0.233  1.00  0.00     0.008 C 
ATOM     26  C   UNL     1       0.546  -2.020   0.806  1.00  0.00     0.008 C 
ENDBRANCH  23  24
ENDBRANCH  18  23
ENDBRANCH   7  17
BRANCH  16  27
ATOM     27  C   UNL     1      -7.494   2.178  -7.249  1.00  0.00     0.429 C 
ATOM     28  F   UNL     1      -7.778   0.991  -6.672  1.00  0.00    -0.167 F 
ATOM     29  F   UNL     1      -8.387   3.086  -6.783  1.00  0.00    -0.167 F 
ATOM     30  F   UNL     1      -7.768   2.036  -8.575  1.00  0.00    -0.167 F 
ENDBRANCH  16  27
ENDBRANCH   3   6
ENDBRANCH   1   2
BRANCH   1  31
ATOM     31  C   UNL     1      -6.895   6.208 -10.529  1.00  0.00     0.042 C 
BRANCH  31  32
ATOM     32  C   UNL     1      -6.023   7.015 -11.492  1.00  0.00     0.118 C 
BRANCH  32  33
ATOM     33  N   UNL     1      -6.073   6.529 -12.862  1.00  0.00    -0.352 N 
ATOM     34  C   UNL     1      -6.308   7.222 -14.024  1.00  0.00     0.251 C 
ATOM     35  H   UNL     1      -5.916   5.564 -12.972  1.00  0.00     0.163 HD
ATOM     36  O   UNL     1      -6.450   6.616 -15.084  1.00  0.00    -0.269 OA
BRANCH  34  37
ATOM     37  C   UNL     1      -6.425   8.695 -13.997  1.00  0.00     0.039 A 
ATOM     38  C   UNL     1      -7.481   9.298 -14.683  1.00  0.00     0.014 A 
ATOM     39  C   UNL     1      -5.512   9.478 -13.286  1.00  0.00     0.014 A 
ATOM     40  C   UNL     1      -7.665  10.680 -14.593  1.00  0.00     0.010 A 
ATOM     41  C   UNL     1      -5.745  10.842 -13.129  1.00  0.00     0.010 A 
ATOM     42  C   UNL     1      -6.827  11.458 -13.777  1.00  0.00    -0.014 A 
BRANCH  42  43
ATOM     43  C   UNL     1      -7.080  12.909 -13.581  1.00  0.00     0.031 A 
ATOM     44  C   UNL     1      -6.061  13.927 -14.012  1.00  0.00     0.074 A 
ATOM     45  C   UNL     1      -8.207  13.308 -12.956  1.00  0.00     0.049 A 
ATOM     46  N   UNL     1      -6.085  15.230 -13.882  1.00  0.00    -0.248 NA
ATOM     47  C   UNL     1      -4.838  13.412 -14.648  1.00  0.00     0.031 C 
ATOM     48  C   UNL     1      -9.246  12.416 -12.437  1.00  0.00     0.029 A 
ATOM     49  N   UNL     1      -8.665  14.564 -12.645  1.00  0.00    -0.354 N 
ATOM     50  C   UNL     1      -4.882  15.685 -14.406  1.00  0.00     0.074 A 
ATOM     51  C   UNL     1      -4.124  14.518 -14.800  1.00  0.00     0.031 C 
ATOM     52  C   UNL     1     -10.231  13.153 -11.900  1.00  0.00     0.029 A 
ATOM     53  C   UNL     1      -9.878  14.565 -11.999  1.00  0.00     0.049 A 
ATOM     54  H   UNL     1      -8.171  15.387 -12.863  1.00  0.00     0.167 HD
ATOM     55  C   UNL     1      -4.459  16.962 -14.568  1.00  0.00     0.037 A 
ATOM     56  C   UNL     1     -10.620  15.589 -11.534  1.00  0.00     0.037 A 
ATOM     57  C   UNL     1      -5.227  18.122 -14.196  1.00  0.00     0.049 A 
ATOM     58  C   UNL     1     -10.124  16.998 -11.725  1.00  0.00     0.074 A 
ATOM     59  C   UNL     1      -4.915  19.458 -14.379  1.00  0.00     0.029 A 
ATOM     60  N   UNL     1      -6.459  18.083 -13.560  1.00  0.00    -0.354 N 
ATOM     61  N   UNL     1      -9.022  17.418 -12.296  1.00  0.00    -0.248 NA
ATOM     62  C   UNL     1     -10.982  18.076 -11.212  1.00  0.00     0.031 C 
ATOM     63  C   UNL     1      -5.932  20.227 -13.805  1.00  0.00     0.029 A 
ATOM     64  C   UNL     1      -6.908  19.372 -13.319  1.00  0.00     0.049 A 
ATOM     65  H   UNL     1      -6.943  17.261 -13.315  1.00  0.00     0.167 HD
ATOM     66  C   UNL     1      -9.067  18.805 -12.239  1.00  0.00     0.074 A 
ATOM     67  C   UNL     1     -10.314  19.155 -11.593  1.00  0.00     0.031 C 
ATOM     68  C   UNL     1      -8.156  19.706 -12.682  1.00  0.00     0.037 A 
BRANCH  55  69
ATOM     69  C   UNL     1      -3.104  17.174 -15.181  1.00  0.00     0.064 A 
ATOM     70  C   UNL     1      -2.849  16.874 -16.528  1.00  0.00     0.173 A 
ATOM     71  C   UNL     1      -2.057  17.724 -14.424  1.00  0.00     0.173 A 
ATOM     72  F   UNL     1      -3.811  16.338 -17.294  1.00  0.00    -0.203 F 
ATOM     73  C   UNL     1      -1.590  17.086 -17.085  1.00  0.00     0.198 A 
ATOM     74  C   UNL     1      -0.810  17.966 -14.994  1.00  0.00     0.198 A 
ATOM     75  F   UNL     1      -2.247  18.037 -13.134  1.00  0.00    -0.203 F 
ATOM     76  F   UNL     1      -1.357  16.743 -18.360  1.00  0.00    -0.200 F 
ATOM     77  C   UNL     1      -0.575  17.639 -16.321  1.00  0.00     0.200 A 
ATOM     78  F   UNL     1       0.166  18.515 -14.258  1.00  0.00    -0.200 F 
ATOM     79  F   UNL     1       0.633  17.852 -16.861  1.00  0.00    -0.200 F 
ENDBRANCH  55  69
BRANCH  56  80
ATOM     80  C   UNL     1     -11.921  15.323 -10.865  1.00  0.00     0.064 A 
ATOM     81  C   UNL     1     -13.131  15.701 -11.465  1.00  0.00     0.173 A 
ATOM     82  C   UNL     1     -11.984  14.696  -9.612  1.00  0.00     0.173 A 
ATOM     83  F   UNL     1     -13.123  16.322 -12.654  1.00  0.00    -0.203 F 
ATOM     84  C   UNL     1     -14.351  15.486 -10.827  1.00  0.00     0.198 A 
ATOM     85  C   UNL     1     -13.207  14.452  -8.989  1.00  0.00     0.198 A 
ATOM     86  F   UNL     1     -10.858  14.308  -8.997  1.00  0.00    -0.203 F 
ATOM     87  F   UNL     1     -15.487  15.904 -11.400  1.00  0.00    -0.200 F 
ATOM     88  C   UNL     1     -14.388  14.856  -9.592  1.00  0.00     0.200 A 
ATOM     89  F   UNL     1     -13.239  13.829  -7.804  1.00  0.00    -0.200 F 
ATOM     90  F   UNL     1     -15.562  14.646  -8.980  1.00  0.00    -0.200 F 
ENDBRANCH  56  80
BRANCH  68  91
ATOM     91  C   UNL     1      -8.491  21.161 -12.520  1.00  0.00     0.064 A 
ATOM     92  C   UNL     1      -8.501  21.782 -11.262  1.00  0.00     0.173 A 
ATOM     93  C   UNL     1      -8.764  21.955 -13.645  1.00  0.00     0.173 A 
ATOM     94  F   UNL     1      -8.261  21.065 -10.154  1.00  0.00    -0.203 F 
ATOM     95  C   UNL     1      -8.800  23.136 -11.134  1.00  0.00     0.198 A 
ATOM     96  C   UNL     1      -9.029  23.315 -13.517  1.00  0.00     0.198 A 
ATOM     97  F   UNL     1      -8.760  21.413 -14.873  1.00  0.00    -0.203 F 
ATOM     98  F   UNL     1      -8.854  23.696  -9.918  1.00  0.00    -0.200 F 
ATOM     99  C   UNL     1      -9.055  23.903 -12.262  1.00  0.00     0.200 A 
ATOM    100  F   UNL     1      -9.259  24.057 -14.609  1.00  0.00    -0.200 F 
ATOM    101  F   UNL     1      -9.333  25.208 -12.137  1.00  0.00    -0.200 F 
ENDBRANCH  68  91
ENDBRANCH  42  43
ENDBRANCH  34  37
ENDBRANCH  32  33
ENDBRANCH  31  32
ENDBRANCH   1  31
TORSDOF 14
