REMARK SMILES Cc1n[nH]c2c1[C@@]1(C(=O)N([C@@H](C)C(=O)NCCCNC(=O)c3ccc(-c4c5nc(c(-c6c(F)c(F)c(F)c(F)c6F)c6ccc([nH]6)c(-c6c(F)c(F)c(F)c(F)c6F)c6nc(c(-c7c(F)c(F)c(F)c(F)c7F)c7ccc4[nH]7)C=C6)C=C5)cc3)c3ccccc31)C(C#N)=C(N)O2
REMARK SMILES IDX 17 1 16 2 15 3 13 4 14 5 11 7 12 8 10 9 1 10 2 11 3 12 6 13
REMARK SMILES IDX 4 14 5 15 7 16 96 18 8 19 90 20 91 21 94 22 9 23 85 24 89 25
REMARK SMILES IDX 86 26 88 27 87 28 92 29 93 30 95 31 18 34 19 35 20 36 21 38
REMARK SMILES IDX 22 39 23 40 84 41 24 42 83 43 25 44 26 45 27 46 77 47 28 48
REMARK SMILES IDX 82 49 76 50 78 51 29 52 81 53 75 54 74 55 30 57 62 58 42 59
REMARK SMILES IDX 61 60 43 61 46 62 60 63 79 64 44 65 45 66 59 68 80 69 47 70
REMARK SMILES IDX 31 71 32 72 40 73 33 74 34 75 38 76 41 77 35 78 36 79 39 80
REMARK SMILES IDX 37 81 63 82 64 83 72 84 65 85 66 86 70 87 73 88 67 89 68 90
REMARK SMILES IDX 71 91 69 92 48 93 49 94 57 95 50 96 51 97 55 98 58 99 52 100
REMARK SMILES IDX 53 101 56 102 54 103
REMARK H PARENT 15 6 4 17 95 32 95 33 19 37 78 56 46 67
REMARK Flexibility Score: inf
ROOT
ATOM      1  C   UNL     1       5.508  -0.530  -3.183  1.00  0.00     0.042 C 
ENDROOT
BRANCH   1   2
ATOM      2  C   UNL     1       5.974   0.414  -2.068  1.00  0.00     0.117 C 
BRANCH   2   3
ATOM      3  N   UNL     1       5.863   1.820  -2.429  1.00  0.00    -0.354 N 
ATOM      4  C   UNL     1       5.001   2.816  -2.091  1.00  0.00     0.242 C 
ATOM      5  O   UNL     1       5.261   3.927  -2.575  1.00  0.00    -0.273 OA
ATOM      6  H   UNL     1       6.565   2.114  -3.053  1.00  0.00     0.163 HD
BRANCH   4   7
ATOM      7  C   UNL     1       3.722   2.665  -1.227  1.00  0.00     0.176 C 
ATOM      8  C   UNL     1       3.914   2.112   0.180  1.00  0.00     0.042 C 
BRANCH   7   9
ATOM      9  N   UNL     1       2.621   2.059  -1.967  1.00  0.00    -0.298 N 
ATOM     10  C   UNL     1       0.186  -0.108   0.018  1.00  0.00     0.069 C 
ATOM     11  C   UNL     1      -0.075  -0.831  -1.254  1.00  0.00     0.068 A 
ATOM     12  N   UNL     1      -0.790  -1.968  -1.241  1.00  0.00    -0.177 NA
ATOM     13  C   UNL     1       0.404  -0.539  -2.557  1.00  0.00     0.063 A 
ATOM     14  N   UNL     1      -0.698  -2.436  -2.500  1.00  0.00    -0.246 N 
ATOM     15  C   UNL     1       0.027  -1.621  -3.307  1.00  0.00     0.222 A 
ATOM     16  C   UNL     1       1.307   0.488  -3.151  1.00  0.00     0.149 C 
ATOM     17  H   UNL     1      -1.111  -3.277  -2.802  1.00  0.00     0.193 HD
ATOM     18  O   UNL     1       0.364  -1.905  -4.558  1.00  0.00    -0.422 OA
ATOM     19  C   UNL     1       2.510   0.695  -2.226  1.00  0.00     0.248 C 
ATOM     20  C   UNL     1       0.623   1.825  -3.083  1.00  0.00     0.002 A 
ATOM     21  C   UNL     1       1.746   0.092  -4.562  1.00  0.00     0.114 C 
ATOM     22  C   UNL     1       1.275  -1.032  -5.177  1.00  0.00     0.208 C 
ATOM     23  O   UNL     1       3.193  -0.205  -1.747  1.00  0.00    -0.273 OA
ATOM     24  C   UNL     1       1.467   2.732  -2.423  1.00  0.00     0.050 A 
ATOM     25  C   UNL     1      -0.613   2.216  -3.584  1.00  0.00     0.008 A 
ATOM     26  C   UNL     1       1.089   4.051  -2.253  1.00  0.00     0.027 A 
ATOM     27  C   UNL     1      -1.008   3.538  -3.396  1.00  0.00     0.001 A 
ATOM     28  C   UNL     1      -0.164   4.448  -2.739  1.00  0.00     0.002 A 
BRANCH  21  29
ATOM     29  C   UNL     1       2.705   0.960  -5.361  1.00  0.00     0.102 C 
ATOM     30  N   UNL     1       3.501   1.680  -6.023  1.00  0.00    -0.193 NA
ENDBRANCH  21  29
BRANCH  22  31
ATOM     31  N   UNL     1       1.601  -1.441  -6.438  1.00  0.00    -0.369 N 
ATOM     32  H   UNL     1       2.232  -0.913  -6.978  1.00  0.00     0.159 HD
ATOM     33  H   UNL     1       1.206  -2.264  -6.806  1.00  0.00     0.159 HD
ENDBRANCH  22  31
ENDBRANCH   7   9
ENDBRANCH   4   7
ENDBRANCH   2   3
ENDBRANCH   1   2
BRANCH   1  34
ATOM     34  C   UNL     1       6.508  -0.779  -4.303  1.00  0.00     0.118 C 
BRANCH  34  35
ATOM     35  N   UNL     1       7.684  -1.501  -3.867  1.00  0.00    -0.352 N 
ATOM     36  C   UNL     1       7.985  -2.814  -3.637  1.00  0.00     0.251 C 
ATOM     37  H   UNL     1       8.448  -0.905  -3.695  1.00  0.00     0.163 HD
ATOM     38  O   UNL     1       9.156  -3.039  -3.314  1.00  0.00    -0.269 OA
BRANCH  36  39
ATOM     39  C   UNL     1       7.040  -3.970  -3.719  1.00  0.00     0.039 A 
ATOM     40  C   UNL     1       5.689  -3.917  -4.061  1.00  0.00     0.014 A 
ATOM     41  C   UNL     1       7.587  -5.231  -3.398  1.00  0.00     0.014 A 
ATOM     42  C   UNL     1       4.904  -5.075  -4.034  1.00  0.00     0.010 A 
ATOM     43  C   UNL     1       6.812  -6.392  -3.391  1.00  0.00     0.010 A 
ATOM     44  C   UNL     1       5.456  -6.315  -3.684  1.00  0.00    -0.014 A 
BRANCH  44  45
ATOM     45  C   UNL     1       4.587  -7.497  -3.731  1.00  0.00     0.031 A 
ATOM     46  C   UNL     1       3.984  -7.809  -5.058  1.00  0.00     0.074 A 
ATOM     47  C   UNL     1       4.387  -8.369  -2.719  1.00  0.00     0.049 A 
ATOM     48  N   UNL     1       2.729  -7.839  -5.373  1.00  0.00    -0.248 NA
ATOM     49  C   UNL     1       4.890  -8.088  -6.181  1.00  0.00     0.031 C 
ATOM     50  C   UNL     1       5.130  -8.456  -1.462  1.00  0.00     0.029 A 
ATOM     51  N   UNL     1       3.520  -9.432  -2.646  1.00  0.00    -0.354 N 
ATOM     52  C   UNL     1       2.671  -8.301  -6.688  1.00  0.00     0.074 A 
ATOM     53  C   UNL     1       4.027  -8.337  -7.169  1.00  0.00     0.031 C 
ATOM     54  C   UNL     1       4.833  -9.623  -0.849  1.00  0.00     0.029 A 
ATOM     55  C   UNL     1       3.771 -10.290  -1.587  1.00  0.00     0.049 A 
ATOM     56  H   UNL     1       2.787  -9.572  -3.288  1.00  0.00     0.167 HD
ATOM     57  C   UNL     1       1.524  -8.828  -7.197  1.00  0.00     0.037 A 
ATOM     58  C   UNL     1       3.182 -11.482  -1.331  1.00  0.00     0.037 A 
ATOM     59  C   UNL     1       0.388  -8.539  -6.367  1.00  0.00     0.049 A 
ATOM     60  C   UNL     1       1.843 -11.507  -1.965  1.00  0.00     0.074 A 
ATOM     61  C   UNL     1      -0.502  -7.507  -6.178  1.00  0.00     0.029 A 
ATOM     62  N   UNL     1       0.215  -9.422  -5.342  1.00  0.00    -0.354 N 
ATOM     63  N   UNL     1       0.844 -10.751  -1.600  1.00  0.00    -0.248 NA
ATOM     64  C   UNL     1       1.637 -12.258  -3.202  1.00  0.00     0.031 C 
ATOM     65  C   UNL     1      -1.131  -7.743  -4.918  1.00  0.00     0.029 A 
ATOM     66  C   UNL     1      -0.597  -8.906  -4.371  1.00  0.00     0.049 A 
ATOM     67  H   UNL     1       0.623 -10.318  -5.306  1.00  0.00     0.167 HD
ATOM     68  C   UNL     1       0.084 -10.618  -2.742  1.00  0.00     0.074 A 
ATOM     69  C   UNL     1       0.499 -11.700  -3.619  1.00  0.00     0.031 C 
ATOM     70  C   UNL     1      -0.536  -9.441  -3.032  1.00  0.00     0.037 A 
BRANCH  57  71
ATOM     71  C   UNL     1       1.444  -9.980  -8.179  1.00  0.00     0.064 A 
ATOM     72  C   UNL     1       0.182 -10.342  -8.705  1.00  0.00     0.173 A 
ATOM     73  C   UNL     1       2.461 -10.944  -8.329  1.00  0.00     0.173 A 
ATOM     74  F   UNL     1      -0.864  -9.507  -8.609  1.00  0.00    -0.203 F 
ATOM     75  C   UNL     1      -0.058 -11.604  -9.255  1.00  0.00     0.198 A 
ATOM     76  C   UNL     1       2.229 -12.184  -8.927  1.00  0.00     0.198 A 
ATOM     77  F   UNL     1       3.679 -10.773  -7.802  1.00  0.00    -0.203 F 
ATOM     78  F   UNL     1      -1.302 -11.947  -9.620  1.00  0.00    -0.200 F 
ATOM     79  C   UNL     1       0.964 -12.527  -9.358  1.00  0.00     0.200 A 
ATOM     80  F   UNL     1       3.227 -13.076  -9.001  1.00  0.00    -0.200 F 
ATOM     81  F   UNL     1       0.724 -13.760  -9.824  1.00  0.00    -0.200 F 
ENDBRANCH  57  71
BRANCH  58  82
ATOM     82  C   UNL     1       3.772 -12.689  -0.704  1.00  0.00     0.064 A 
ATOM     83  C   UNL     1       2.958 -13.732  -0.227  1.00  0.00     0.173 A 
ATOM     84  C   UNL     1       5.148 -12.971  -0.811  1.00  0.00     0.173 A 
ATOM     85  F   UNL     1       1.631 -13.564  -0.130  1.00  0.00    -0.203 F 
ATOM     86  C   UNL     1       3.483 -14.990   0.082  1.00  0.00     0.198 A 
ATOM     87  C   UNL     1       5.673 -14.222  -0.487  1.00  0.00     0.198 A 
ATOM     88  F   UNL     1       5.997 -12.069  -1.324  1.00  0.00    -0.203 F 
ATOM     89  F   UNL     1       2.663 -15.981   0.458  1.00  0.00    -0.200 F 
ATOM     90  C   UNL     1       4.838 -15.237  -0.059  1.00  0.00     0.200 A 
ATOM     91  F   UNL     1       6.981 -14.458  -0.657  1.00  0.00    -0.200 F 
ATOM     92  F   UNL     1       5.332 -16.461   0.175  1.00  0.00    -0.200 F 
ENDBRANCH  58  82
BRANCH  70  93
ATOM     93  C   UNL     1      -0.947  -8.565  -1.898  1.00  0.00     0.064 A 
ATOM     94  C   UNL     1      -0.051  -7.903  -1.047  1.00  0.00     0.173 A 
ATOM     95  C   UNL     1      -2.317  -8.319  -1.726  1.00  0.00     0.173 A 
ATOM     96  F   UNL     1       1.273  -8.030  -1.207  1.00  0.00    -0.203 F 
ATOM     97  C   UNL     1      -0.515  -7.056  -0.042  1.00  0.00     0.198 A 
ATOM     98  C   UNL     1      -2.775  -7.445  -0.747  1.00  0.00     0.198 A 
ATOM     99  F   UNL     1      -3.211  -8.895  -2.545  1.00  0.00    -0.203 F 
ATOM    100  F   UNL     1       0.355  -6.442   0.773  1.00  0.00    -0.200 F 
ATOM    101  C   UNL     1      -1.875  -6.822   0.102  1.00  0.00     0.200 A 
ATOM    102  F   UNL     1      -4.086  -7.189  -0.645  1.00  0.00    -0.200 F 
ATOM    103  F   UNL     1      -2.319  -5.978   1.043  1.00  0.00    -0.200 F 
ENDBRANCH  70  93
ENDBRANCH  44  45
ENDBRANCH  36  39
ENDBRANCH  34  35
ENDBRANCH   1  34
TORSDOF 13
