REMARK SMILES C[C@H](SCc1nc2ccccc2c(=O)[nH]1)C(=O)NCCCNC(=O)c1ccc(-c2c3nc(c(-c4c(F)c(F)c(F)c(F)c4F)c4ccc([nH]4)c(-c4c(F)c(F)c(F)c(F)c4F)c4nc(c(-c5c(F)c(F)c(F)c(F)c5F)c5ccc2[nH]5)C=C4)C=C3)cc1
REMARK SMILES IDX 19 1 18 2 16 3 17 4 2 6 1 7 3 8 4 9 5 10 6 11 15 12 7 13
REMARK SMILES IDX 13 14 8 16 12 17 14 18 9 19 11 20 10 21 20 22 21 23 22 24
REMARK SMILES IDX 23 25 24 27 25 28 26 29 87 30 27 31 86 32 28 33 29 34 30 35
REMARK SMILES IDX 80 36 31 37 85 38 79 39 81 40 32 41 84 42 78 43 77 44 33 46
REMARK SMILES IDX 65 47 45 48 64 49 46 50 49 51 63 52 82 53 47 54 48 55 62 57
REMARK SMILES IDX 83 58 50 59 34 60 35 61 43 62 36 63 37 64 41 65 44 66 38 67
REMARK SMILES IDX 39 68 42 69 40 70 66 71 67 72 75 73 68 74 69 75 73 76 76 77
REMARK SMILES IDX 70 78 71 79 74 80 72 81 51 82 52 83 60 84 53 85 54 86 58 87
REMARK SMILES IDX 61 88 55 89 56 90 59 91 57 92
REMARK H PARENT 18 5 15 15 22 26 81 45 49 56
REMARK Flexibility Score: inf
ROOT
ATOM      1  C   UNL     1      -0.878  -1.299   2.283  1.00  0.00     0.117 C 
ENDROOT
BRANCH   1   2
ATOM      2  N   UNL     1      -1.485  -1.392   0.969  1.00  0.00    -0.355 N 
ATOM      3  C   UNL     1      -0.965  -1.310  -0.278  1.00  0.00     0.232 C 
ATOM      4  O   UNL     1      -1.792  -1.296  -1.197  1.00  0.00    -0.274 OA
ATOM      5  H   UNL     1      -2.457  -1.544   0.987  1.00  0.00     0.163 HD
BRANCH   3   6
ATOM      6  C   UNL     1       0.519  -1.182  -0.583  1.00  0.00     0.133 C 
ATOM      7  C   UNL     1       1.306  -2.392  -0.083  1.00  0.00     0.030 C 
BRANCH   6   8
ATOM      8  S   UNL     1       1.284   0.383  -0.021  1.00  0.00    -0.141 SA
BRANCH   8   9
ATOM      9  C   UNL     1      -0.075   1.589  -0.119  1.00  0.00     0.145 C 
BRANCH   9  10
ATOM     10  C   UNL     1      -0.530   1.916  -1.520  1.00  0.00     0.119 A 
ATOM     11  N   UNL     1       0.113   2.773  -2.247  1.00  0.00    -0.234 NA
ATOM     12  N   UNL     1      -1.697   1.321  -1.927  1.00  0.00    -0.309 N 
ATOM     13  C   UNL     1      -0.409   3.077  -3.517  1.00  0.00     0.078 A 
ATOM     14  C   UNL     1      -2.315   1.588  -3.118  1.00  0.00     0.258 A 
ATOM     15  H   UNL     1      -2.115   0.662  -1.326  1.00  0.00     0.171 HD
ATOM     16  C   UNL     1       0.276   3.977  -4.332  1.00  0.00     0.029 A 
ATOM     17  C   UNL     1      -1.597   2.518  -3.998  1.00  0.00     0.065 A 
ATOM     18  O   UNL     1      -3.395   1.103  -3.419  1.00  0.00    -0.269 OA
ATOM     19  C   UNL     1      -0.208   4.290  -5.606  1.00  0.00     0.002 A 
ATOM     20  C   UNL     1      -2.090   2.818  -5.270  1.00  0.00     0.016 A 
ATOM     21  C   UNL     1      -1.385   3.707  -6.077  1.00  0.00     0.001 A 
ENDBRANCH   9  10
ENDBRANCH   8   9
ENDBRANCH   6   8
ENDBRANCH   3   6
ENDBRANCH   1   2
BRANCH   1  22
ATOM     22  C   UNL     1      -1.279  -0.029   3.031  1.00  0.00     0.042 C 
BRANCH  22  23
ATOM     23  C   UNL     1      -2.779   0.241   3.069  1.00  0.00     0.118 C 
BRANCH  23  24
ATOM     24  N   UNL     1      -3.487  -0.746   3.866  1.00  0.00    -0.352 N 
ATOM     25  C   UNL     1      -4.150  -0.588   5.057  1.00  0.00     0.251 C 
ATOM     26  H   UNL     1      -3.492  -1.659   3.498  1.00  0.00     0.163 HD
ATOM     27  O   UNL     1      -4.442  -1.575   5.725  1.00  0.00    -0.269 OA
BRANCH  25  28
ATOM     28  C   UNL     1      -4.500   0.764   5.547  1.00  0.00     0.039 A 
ATOM     29  C   UNL     1      -4.362   1.041   6.909  1.00  0.00     0.014 A 
ATOM     30  C   UNL     1      -4.995   1.745   4.683  1.00  0.00     0.014 A 
ATOM     31  C   UNL     1      -4.673   2.313   7.392  1.00  0.00     0.010 A 
ATOM     32  C   UNL     1      -5.222   3.038   5.151  1.00  0.00     0.010 A 
ATOM     33  C   UNL     1      -5.075   3.334   6.513  1.00  0.00    -0.014 A 
BRANCH  33  34
ATOM     34  C   UNL     1      -5.332   4.708   7.018  1.00  0.00     0.031 A 
ATOM     35  C   UNL     1      -6.702   5.324   6.915  1.00  0.00     0.074 A 
ATOM     36  C   UNL     1      -4.316   5.417   7.548  1.00  0.00     0.049 A 
ATOM     37  N   UNL     1      -7.112   6.501   7.319  1.00  0.00    -0.248 NA
ATOM     38  C   UNL     1      -7.742   4.525   6.251  1.00  0.00     0.031 C 
ATOM     39  C   UNL     1      -2.930   4.956   7.649  1.00  0.00     0.029 A 
ATOM     40  N   UNL     1      -4.289   6.671   8.106  1.00  0.00    -0.354 N 
ATOM     41  C   UNL     1      -8.450   6.582   6.955  1.00  0.00     0.074 A 
ATOM     42  C   UNL     1      -8.767   5.364   6.241  1.00  0.00     0.031 C 
ATOM     43  C   UNL     1      -2.198   5.895   8.269  1.00  0.00     0.029 A 
ATOM     44  C   UNL     1      -3.051   7.039   8.573  1.00  0.00     0.049 A 
ATOM     45  H   UNL     1      -5.082   7.251   8.165  1.00  0.00     0.167 HD
ATOM     46  C   UNL     1      -9.341   7.570   7.215  1.00  0.00     0.037 A 
ATOM     47  C   UNL     1      -2.648   8.171   9.181  1.00  0.00     0.037 A 
ATOM     48  C   UNL     1      -9.024   8.777   7.935  1.00  0.00     0.049 A 
ATOM     49  C   UNL     1      -3.657   9.254   9.454  1.00  0.00     0.074 A 
ATOM     50  C   UNL     1      -9.867   9.814   8.296  1.00  0.00     0.029 A 
ATOM     51  N   UNL     1      -7.760   9.114   8.398  1.00  0.00    -0.354 N 
ATOM     52  N   UNL     1      -4.938   9.283   9.176  1.00  0.00    -0.248 NA
ATOM     53  C   UNL     1      -3.164  10.455  10.140  1.00  0.00     0.031 C 
ATOM     54  C   UNL     1      -9.102  10.804   8.922  1.00  0.00     0.029 A 
ATOM     55  C   UNL     1      -7.795  10.354   9.017  1.00  0.00     0.049 A 
ATOM     56  H   UNL     1      -6.956   8.554   8.300  1.00  0.00     0.167 HD
ATOM     57  C   UNL     1      -5.410  10.489   9.679  1.00  0.00     0.074 A 
ATOM     58  C   UNL     1      -4.281  11.149  10.300  1.00  0.00     0.031 C 
ATOM     59  C   UNL     1      -6.664  11.002   9.631  1.00  0.00     0.037 A 
BRANCH  46  60
ATOM     60  C   UNL     1     -10.749   7.388   6.718  1.00  0.00     0.064 A 
ATOM     61  C   UNL     1     -11.600   6.407   7.252  1.00  0.00     0.173 A 
ATOM     62  C   UNL     1     -11.268   8.230   5.723  1.00  0.00     0.173 A 
ATOM     63  F   UNL     1     -11.154   5.568   8.199  1.00  0.00    -0.203 F 
ATOM     64  C   UNL     1     -12.905   6.257   6.788  1.00  0.00     0.198 A 
ATOM     65  C   UNL     1     -12.585   8.100   5.286  1.00  0.00     0.198 A 
ATOM     66  F   UNL     1     -10.503   9.189   5.181  1.00  0.00    -0.203 F 
ATOM     67  F   UNL     1     -13.680   5.279   7.276  1.00  0.00    -0.200 F 
ATOM     68  C   UNL     1     -13.399   7.109   5.812  1.00  0.00     0.200 A 
ATOM     69  F   UNL     1     -13.065   8.935   4.354  1.00  0.00    -0.200 F 
ATOM     70  F   UNL     1     -14.657   6.970   5.373  1.00  0.00    -0.200 F 
ENDBRANCH  46  60
BRANCH  47  71
ATOM     71  C   UNL     1      -1.230   8.327   9.599  1.00  0.00     0.064 A 
ATOM     72  C   UNL     1      -0.877   8.374  10.956  1.00  0.00     0.173 A 
ATOM     73  C   UNL     1      -0.199   8.441   8.655  1.00  0.00     0.173 A 
ATOM     74  F   UNL     1      -1.827   8.287  11.898  1.00  0.00    -0.203 F 
ATOM     75  C   UNL     1       0.447   8.558  11.350  1.00  0.00     0.198 A 
ATOM     76  C   UNL     1       1.128   8.590   9.051  1.00  0.00     0.198 A 
ATOM     77  F   UNL     1      -0.480   8.394   7.344  1.00  0.00    -0.203 F 
ATOM     78  F   UNL     1       0.748   8.655  12.652  1.00  0.00    -0.200 F 
ATOM     79  C   UNL     1       1.449   8.660  10.398  1.00  0.00     0.200 A 
ATOM     80  F   UNL     1       2.095   8.669   8.127  1.00  0.00    -0.200 F 
ATOM     81  F   UNL     1       2.723   8.832  10.777  1.00  0.00    -0.200 F 
ENDBRANCH  47  71
BRANCH  59  82
ATOM     82  C   UNL     1      -6.887  12.328  10.306  1.00  0.00     0.064 A 
ATOM     83  C   UNL     1      -6.324  13.516   9.815  1.00  0.00     0.173 A 
ATOM     84  C   UNL     1      -7.680  12.409  11.462  1.00  0.00     0.173 A 
ATOM     85  F   UNL     1      -5.548  13.493   8.721  1.00  0.00    -0.203 F 
ATOM     86  C   UNL     1      -6.507  14.725  10.481  1.00  0.00     0.198 A 
ATOM     87  C   UNL     1      -7.894  13.626  12.103  1.00  0.00     0.198 A 
ATOM     88  F   UNL     1      -8.252  11.307  11.970  1.00  0.00    -0.203 F 
ATOM     89  F   UNL     1      -5.899  15.832  10.034  1.00  0.00    -0.200 F 
ATOM     90  C   UNL     1      -7.295  14.780  11.621  1.00  0.00     0.200 A 
ATOM     91  F   UNL     1      -8.670  13.680  13.193  1.00  0.00    -0.200 F 
ATOM     92  F   UNL     1      -7.468  15.944  12.262  1.00  0.00    -0.200 F 
ENDBRANCH  59  82
ENDBRANCH  33  34
ENDBRANCH  25  28
ENDBRANCH  23  24
ENDBRANCH  22  23
ENDBRANCH   1  22
TORSDOF 13
