REMARK SMILES C[NH2+]C[C@H](C)C(=O)N1CC[C@@](C(=O)NCCCNC(=O)c2ccc(-c3c4nc(c(-c5c(F)c(F)c(F)c(F)c5F)c5ccc([nH]5)c(-c5c(F)c(F)c(F)c(F)c5F)c5nc(c(-c6c(F)c(F)c(F)c(F)c6F)c6ccc3[nH]6)C=C5)C=C4)cc2)(C(F)(F)F)C1
REMARK SMILES IDX 15 1 14 2 12 3 13 4 11 6 8 7 9 8 88 9 10 10 6 11 7 12 4 13
REMARK SMILES IDX 5 14 3 15 2 16 1 17 84 20 85 21 86 22 87 23 16 24 17 25
REMARK SMILES IDX 18 26 19 27 20 29 21 30 22 31 83 32 23 33 82 34 24 35 25 36
REMARK SMILES IDX 26 37 76 38 27 39 81 40 75 41 77 42 28 43 80 44 74 45 73 46
REMARK SMILES IDX 29 48 61 49 41 50 60 51 42 52 45 53 59 54 78 55 43 56 44 57
REMARK SMILES IDX 58 59 79 60 46 61 30 62 31 63 39 64 32 65 33 66 37 67 40 68
REMARK SMILES IDX 34 69 35 70 38 71 36 72 62 73 63 74 71 75 64 76 65 77 69 78
REMARK SMILES IDX 72 79 66 80 67 81 70 82 68 83 47 84 48 85 56 86 49 87 50 88
REMARK SMILES IDX 54 89 57 90 51 91 52 92 55 93 53 94
REMARK H PARENT 14 5 2 18 2 19 18 28 77 47 45 58
REMARK Flexibility Score: inf
ROOT
ATOM      1  C   UNL     1      -3.725   6.001  -0.684  1.00  0.00     0.117 C 
ENDROOT
BRANCH   1   2
ATOM      2  N   UNL     1      -4.988   6.026  -1.397  1.00  0.00    -0.355 N 
ATOM      3  C   UNL     1      -5.689   5.053  -2.046  1.00  0.00     0.237 C 
ATOM      4  O   UNL     1      -6.761   5.426  -2.528  1.00  0.00    -0.274 OA
ATOM      5  H   UNL     1      -5.420   6.911  -1.416  1.00  0.00     0.163 HD
BRANCH   3   6
ATOM      6  C   UNL     1      -5.184   3.622  -2.213  1.00  0.00     0.163 C 
ATOM      7  N   UNL     1      -3.566   2.295  -1.022  1.00  0.00    -0.341 N 
ATOM      8  C   UNL     1      -3.099   2.388  -2.389  1.00  0.00     0.121 C 
ATOM      9  C   UNL     1      -4.891   2.914  -0.887  1.00  0.00     0.146 C 
ATOM     10  C   UNL     1      -3.861   3.555  -2.998  1.00  0.00     0.050 C 
BRANCH   7  11
ATOM     11  C   UNL     1      -3.026   1.612   0.048  1.00  0.00     0.231 C 
ATOM     12  O   UNL     1      -3.657   1.588   1.115  1.00  0.00    -0.274 OA
BRANCH  11  13
ATOM     13  C   UNL     1      -1.631   0.959   0.033  1.00  0.00     0.130 C 
ATOM     14  C   UNL     1      -1.150   0.176  -1.185  1.00  0.00     0.024 C 
BRANCH  13  15
ATOM     15  C   UNL     1      -0.555   1.888   0.634  1.00  0.00     0.273 C 
BRANCH  15  16
ATOM     16  N   UNL     1      -0.011   2.927  -0.235  1.00  0.00    -0.348 N 
ATOM     17  C   UNL     1      -0.777   4.153  -0.182  1.00  0.00     0.330 C 
ATOM     18  H   UNL     1       0.947   3.127   0.054  1.00  0.00     0.346 HD
ATOM     19  H   UNL     1      -0.048   2.580  -1.194  1.00  0.00     0.346 HD
ENDBRANCH  15  16
ENDBRANCH  13  15
ENDBRANCH  11  13
ENDBRANCH   7  11
BRANCH   6  20
ATOM     20  C   UNL     1      -6.267   2.837  -2.939  1.00  0.00     0.404 C 
ATOM     21  F   UNL     1      -5.879   1.547  -3.118  1.00  0.00    -0.170 F 
ATOM     22  F   UNL     1      -7.428   2.796  -2.251  1.00  0.00    -0.170 F 
ATOM     23  F   UNL     1      -6.516   3.324  -4.175  1.00  0.00    -0.170 F 
ENDBRANCH   6  20
ENDBRANCH   3   6
ENDBRANCH   1   2
BRANCH   1  24
ATOM     24  C   UNL     1      -2.664   6.867  -1.354  1.00  0.00     0.042 C 
BRANCH  24  25
ATOM     25  C   UNL     1      -2.736   8.339  -0.975  1.00  0.00     0.118 C 
BRANCH  25  26
ATOM     26  N   UNL     1      -2.382   8.573   0.422  1.00  0.00    -0.352 N 
ATOM     27  C   UNL     1      -1.237   9.028   1.032  1.00  0.00     0.251 C 
ATOM     28  H   UNL     1      -3.108   8.363   1.053  1.00  0.00     0.163 HD
ATOM     29  O   UNL     1      -1.150   8.937   2.255  1.00  0.00    -0.269 OA
BRANCH  27  30
ATOM     30  C   UNL     1      -0.103   9.604   0.269  1.00  0.00     0.039 A 
ATOM     31  C   UNL     1       1.197   9.455   0.770  1.00  0.00     0.014 A 
ATOM     32  C   UNL     1      -0.296  10.344  -0.895  1.00  0.00     0.014 A 
ATOM     33  C   UNL     1       2.291   9.979   0.069  1.00  0.00     0.010 A 
ATOM     34  C   UNL     1       0.795  10.757  -1.654  1.00  0.00     0.010 A 
ATOM     35  C   UNL     1       2.103  10.595  -1.177  1.00  0.00    -0.014 A 
BRANCH  35  36
ATOM     36  C   UNL     1       3.236  11.108  -1.993  1.00  0.00     0.031 A 
ATOM     37  C   UNL     1       3.273  12.560  -2.396  1.00  0.00     0.074 A 
ATOM     38  C   UNL     1       4.172  10.258  -2.461  1.00  0.00     0.049 A 
ATOM     39  N   UNL     1       4.065  13.169  -3.244  1.00  0.00    -0.248 NA
ATOM     40  C   UNL     1       2.254  13.438  -1.797  1.00  0.00     0.031 C 
ATOM     41  C   UNL     1       4.229   8.823  -2.181  1.00  0.00     0.029 A 
ATOM     42  N   UNL     1       5.244  10.476  -3.292  1.00  0.00    -0.354 N 
ATOM     43  C   UNL     1       3.615  14.483  -3.305  1.00  0.00     0.074 A 
ATOM     44  C   UNL     1       2.449  14.571  -2.455  1.00  0.00     0.031 C 
ATOM     45  C   UNL     1       5.289   8.293  -2.812  1.00  0.00     0.029 A 
ATOM     46  C   UNL     1       5.955   9.337  -3.584  1.00  0.00     0.049 A 
ATOM     47  H   UNL     1       5.480  11.364  -3.646  1.00  0.00     0.167 HD
ATOM     48  C   UNL     1       4.142  15.528  -3.988  1.00  0.00     0.037 A 
ATOM     49  C   UNL     1       7.014   9.151  -4.396  1.00  0.00     0.037 A 
ATOM     50  C   UNL     1       5.331  15.446  -4.793  1.00  0.00     0.049 A 
ATOM     51  C   UNL     1       7.583  10.328  -5.141  1.00  0.00     0.074 A 
ATOM     52  C   UNL     1       5.988  16.461  -5.467  1.00  0.00     0.029 A 
ATOM     53  N   UNL     1       6.045  14.281  -5.031  1.00  0.00    -0.354 N 
ATOM     54  N   UNL     1       7.184  11.577  -5.146  1.00  0.00    -0.248 NA
ATOM     55  C   UNL     1       8.755  10.072  -5.991  1.00  0.00     0.031 C 
ATOM     56  C   UNL     1       7.070  15.901  -6.153  1.00  0.00     0.029 A 
ATOM     57  C   UNL     1       7.123  14.548  -5.859  1.00  0.00     0.049 A 
ATOM     58  H   UNL     1       5.819  13.395  -4.665  1.00  0.00     0.167 HD
ATOM     59  C   UNL     1       8.071  12.259  -5.968  1.00  0.00     0.074 A 
ATOM     60  C   UNL     1       9.037  11.288  -6.437  1.00  0.00     0.031 C 
ATOM     61  C   UNL     1       8.086  13.572  -6.302  1.00  0.00     0.037 A 
BRANCH  48  62
ATOM     62  C   UNL     1       3.439  16.853  -3.890  1.00  0.00     0.064 A 
ATOM     63  C   UNL     1       3.412  17.590  -2.696  1.00  0.00     0.173 A 
ATOM     64  C   UNL     1       2.815  17.412  -5.016  1.00  0.00     0.173 A 
ATOM     65  F   UNL     1       3.984  17.098  -1.586  1.00  0.00    -0.203 F 
ATOM     66  C   UNL     1       2.758  18.817  -2.624  1.00  0.00     0.198 A 
ATOM     67  C   UNL     1       2.193  18.656  -4.950  1.00  0.00     0.198 A 
ATOM     68  F   UNL     1       2.816  16.755  -6.186  1.00  0.00    -0.203 F 
ATOM     69  F   UNL     1       2.698  19.474  -1.457  1.00  0.00    -0.200 F 
ATOM     70  C   UNL     1       2.156  19.353  -3.752  1.00  0.00     0.200 A 
ATOM     71  F   UNL     1       1.625  19.179  -6.045  1.00  0.00    -0.200 F 
ATOM     72  F   UNL     1       1.535  20.538  -3.683  1.00  0.00    -0.200 F 
ENDBRANCH  48  62
BRANCH  49  73
ATOM     73  C   UNL     1       7.616   7.798  -4.534  1.00  0.00     0.064 A 
ATOM     74  C   UNL     1       8.892   7.524  -4.024  1.00  0.00     0.173 A 
ATOM     75  C   UNL     1       6.935   6.754  -5.178  1.00  0.00     0.173 A 
ATOM     76  F   UNL     1       9.592   8.494  -3.417  1.00  0.00    -0.203 F 
ATOM     77  C   UNL     1       9.474   6.266  -4.172  1.00  0.00     0.198 A 
ATOM     78  C   UNL     1       7.504   5.488  -5.298  1.00  0.00     0.198 A 
ATOM     79  F   UNL     1       5.708   6.960  -5.680  1.00  0.00    -0.203 F 
ATOM     80  F   UNL     1      10.715   6.047  -3.718  1.00  0.00    -0.200 F 
ATOM     81  C   UNL     1       8.777   5.248  -4.803  1.00  0.00     0.200 A 
ATOM     82  F   UNL     1       6.821   4.502  -5.895  1.00  0.00    -0.200 F 
ATOM     83  F   UNL     1       9.335   4.037  -4.942  1.00  0.00    -0.200 F 
ENDBRANCH  49  73
BRANCH  61  84
ATOM     84  C   UNL     1       9.206  14.053  -7.177  1.00  0.00     0.064 A 
ATOM     85  C   UNL     1       9.272  13.728  -8.540  1.00  0.00     0.173 A 
ATOM     86  C   UNL     1      10.194  14.903  -6.655  1.00  0.00     0.173 A 
ATOM     87  F   UNL     1       8.359  12.909  -9.083  1.00  0.00    -0.203 F 
ATOM     88  C   UNL     1      10.298  14.220  -9.343  1.00  0.00     0.198 A 
ATOM     89  C   UNL     1      11.200  15.418  -7.468  1.00  0.00     0.198 A 
ATOM     90  F   UNL     1      10.172  15.250  -5.360  1.00  0.00    -0.203 F 
ATOM     91  F   UNL     1      10.365  13.862 -10.633  1.00  0.00    -0.200 F 
ATOM     92  C   UNL     1      11.254  15.071  -8.810  1.00  0.00     0.200 A 
ATOM     93  F   UNL     1      12.113  16.253  -6.955  1.00  0.00    -0.200 F 
ATOM     94  F   UNL     1      12.231  15.555  -9.588  1.00  0.00    -0.200 F 
ENDBRANCH  61  84
ENDBRANCH  35  36
ENDBRANCH  27  30
ENDBRANCH  25  26
ENDBRANCH  24  25
ENDBRANCH   1  24
TORSDOF 15
