REMARK SMILES CC(C)[C@H](NC(=O)[C@H](Cc1ccccc1)n1c(=O)[nH]c2ccccc2c1=O)C(=O)NCCCNC(=O)c1ccc(-c2c3nc(c(-c4c(F)c(F)c(F)c(F)c4F)c4ccc([nH]4)c(-c4c(F)c(F)c(F)c(F)c4F)c4nc(c(-c5c(F)c(F)c(F)c(F)c5F)c5ccc2[nH]5)C=C4)C=C3)cc1
REMARK SMILES IDX 31 1 30 2 28 3 29 4 4 6 2 7 1 8 3 9 5 10 6 11 7 13 8 14
REMARK SMILES IDX 16 15 17 16 26 17 18 18 19 19 25 20 27 21 20 22 24 24 21 25
REMARK SMILES IDX 23 26 22 27 9 28 10 29 11 30 15 31 12 32 14 33 13 34 32 35
REMARK SMILES IDX 33 36 34 37 35 38 36 40 37 41 38 42 99 43 39 44 98 45 40 46
REMARK SMILES IDX 41 47 42 48 92 49 43 50 97 51 91 52 93 53 44 54 96 55 90 56
REMARK SMILES IDX 89 57 45 59 77 60 57 61 76 62 58 63 61 64 75 65 94 66 59 67
REMARK SMILES IDX 60 68 74 70 95 71 62 72 46 73 47 74 55 75 48 76 49 77 53 78
REMARK SMILES IDX 56 79 50 80 51 81 54 82 52 83 78 84 79 85 87 86 80 87 81 88
REMARK SMILES IDX 85 89 88 90 82 91 83 92 86 93 84 94 63 95 64 96 72 97 65 98
REMARK SMILES IDX 66 99 70 100 73 101 67 102 68 103 71 104 69 105
REMARK H PARENT 30 5 5 12 19 23 34 39 93 58 61 69
REMARK Flexibility Score: inf
ROOT
ATOM      1  C   UNL     1       1.656   1.531  -5.481  1.00  0.00     0.117 C 
ENDROOT
BRANCH   1   2
ATOM      2  N   UNL     1       0.783   1.674  -6.617  1.00  0.00    -0.354 N 
ATOM      3  C   UNL     1      -0.576   1.699  -6.651  1.00  0.00     0.242 C 
ATOM      4  O   UNL     1      -1.103   1.938  -7.743  1.00  0.00    -0.273 OA
ATOM      5  H   UNL     1       1.232   1.766  -7.489  1.00  0.00     0.163 HD
BRANCH   3   6
ATOM      6  C   UNL     1      -1.451   1.562  -5.372  1.00  0.00     0.173 C 
BRANCH   6   7
ATOM      7  C   UNL     1      -1.536   2.821  -4.510  1.00  0.00     0.015 C 
ATOM      8  C   UNL     1      -1.248   4.151  -5.208  1.00  0.00     0.010 C 
ATOM      9  C   UNL     1      -2.911   2.894  -3.836  1.00  0.00     0.010 C 
ENDBRANCH   6   7
BRANCH   6  10
ATOM     10  N   UNL     1      -1.237   0.285  -4.645  1.00  0.00    -0.342 N 
ATOM     11  C   UNL     1      -0.588  -0.252  -3.583  1.00  0.00     0.244 C 
ATOM     12  H   UNL     1      -1.750  -0.425  -5.095  1.00  0.00     0.164 HD
ATOM     13  O   UNL     1      -0.350  -1.455  -3.784  1.00  0.00    -0.273 OA
BRANCH  11  14
ATOM     14  C   UNL     1       0.068   0.472  -2.359  1.00  0.00     0.189 C 
BRANCH  14  15
ATOM     15  N   UNL     1      -0.666   1.532  -1.643  1.00  0.00    -0.247 N 
ATOM     16  C   UNL     1      -1.852   1.214  -1.011  1.00  0.00     0.329 A 
ATOM     17  C   UNL     1      -0.080   2.799  -1.551  1.00  0.00     0.264 A 
ATOM     18  O   UNL     1      -2.493   0.190  -1.222  1.00  0.00    -0.248 OA
ATOM     19  N   UNL     1      -2.349   2.133  -0.126  1.00  0.00    -0.307 N 
ATOM     20  C   UNL     1      -0.880   3.855  -0.906  1.00  0.00     0.064 A 
ATOM     21  O   UNL     1       1.021   3.090  -2.013  1.00  0.00    -0.268 OA
ATOM     22  C   UNL     1      -1.938   3.462  -0.100  1.00  0.00     0.055 A 
ATOM     23  H   UNL     1      -3.029   1.839   0.522  1.00  0.00     0.171 HD
ATOM     24  C   UNL     1      -0.631   5.211  -1.133  1.00  0.00     0.016 A 
ATOM     25  C   UNL     1      -2.668   4.410   0.613  1.00  0.00     0.027 A 
ATOM     26  C   UNL     1      -1.422   6.168  -0.495  1.00  0.00     0.001 A 
ATOM     27  C   UNL     1      -2.411   5.768   0.406  1.00  0.00     0.002 A 
ENDBRANCH  14  15
BRANCH  14  28
ATOM     28  C   UNL     1       0.840  -0.485  -1.385  1.00  0.00     0.071 C 
BRANCH  28  29
ATOM     29  C   UNL     1       0.073  -1.623  -0.751  1.00  0.00    -0.045 A 
ATOM     30  C   UNL     1       0.081  -2.894  -1.346  1.00  0.00     0.004 A 
ATOM     31  C   UNL     1      -0.713  -1.428   0.389  1.00  0.00     0.004 A 
ATOM     32  C   UNL     1      -0.782  -3.896  -0.906  1.00  0.00     0.000 A 
ATOM     33  C   UNL     1      -1.593  -2.423   0.819  1.00  0.00     0.000 A 
ATOM     34  C   UNL     1      -1.645  -3.647   0.156  1.00  0.00     0.000 A 
ENDBRANCH  28  29
ENDBRANCH  14  28
ENDBRANCH  11  14
ENDBRANCH   6  10
ENDBRANCH   3   6
ENDBRANCH   1   2
BRANCH   1  35
ATOM     35  C   UNL     1       2.185   0.108  -5.354  1.00  0.00     0.042 C 
BRANCH  35  36
ATOM     36  C   UNL     1       3.433  -0.126  -6.189  1.00  0.00     0.118 C 
BRANCH  36  37
ATOM     37  N   UNL     1       4.580   0.606  -5.668  1.00  0.00    -0.352 N 
ATOM     38  C   UNL     1       5.871   0.185  -5.457  1.00  0.00     0.251 C 
ATOM     39  H   UNL     1       4.404   1.546  -5.433  1.00  0.00     0.163 HD
ATOM     40  O   UNL     1       6.656   0.902  -4.857  1.00  0.00    -0.269 OA
BRANCH  38  41
ATOM     41  C   UNL     1       6.296  -1.150  -5.929  1.00  0.00     0.039 A 
ATOM     42  C   UNL     1       7.118  -1.920  -5.102  1.00  0.00     0.014 A 
ATOM     43  C   UNL     1       5.893  -1.640  -7.173  1.00  0.00     0.014 A 
ATOM     44  C   UNL     1       7.486  -3.206  -5.499  1.00  0.00     0.010 A 
ATOM     45  C   UNL     1       6.184  -2.953  -7.525  1.00  0.00     0.010 A 
ATOM     46  C   UNL     1       6.990  -3.746  -6.697  1.00  0.00    -0.014 A 
BRANCH  46  47
ATOM     47  C   UNL     1       7.309  -5.136  -7.104  1.00  0.00     0.031 A 
ATOM     48  C   UNL     1       8.067  -5.391  -8.377  1.00  0.00     0.074 A 
ATOM     49  C   UNL     1       6.849  -6.165  -6.367  1.00  0.00     0.049 A 
ATOM     50  N   UNL     1       8.370  -6.530  -8.946  1.00  0.00    -0.248 NA
ATOM     51  C   UNL     1       8.515  -4.209  -9.132  1.00  0.00     0.031 C 
ATOM     52  C   UNL     1       6.047  -6.041  -5.148  1.00  0.00     0.029 A 
ATOM     53  N   UNL     1       6.974  -7.521  -6.543  1.00  0.00    -0.354 N 
ATOM     54  C   UNL     1       9.016  -6.200 -10.131  1.00  0.00     0.074 A 
ATOM     55  C   UNL     1       9.020  -4.758 -10.226  1.00  0.00     0.031 C 
ATOM     56  C   UNL     1       5.768  -7.267  -4.677  1.00  0.00     0.029 A 
ATOM     57  C   UNL     1       6.334  -8.263  -5.581  1.00  0.00     0.049 A 
ATOM     58  H   UNL     1       7.475  -7.923  -7.289  1.00  0.00     0.167 HD
ATOM     59  C   UNL     1       9.574  -7.029 -11.044  1.00  0.00     0.037 A 
ATOM     60  C   UNL     1       6.207  -9.597  -5.452  1.00  0.00     0.037 A 
ATOM     61  C   UNL     1       9.604  -8.462 -10.918  1.00  0.00     0.049 A 
ATOM     62  C   UNL     1       6.861 -10.493  -6.469  1.00  0.00     0.074 A 
ATOM     63  C   UNL     1      10.227  -9.386 -11.738  1.00  0.00     0.029 A 
ATOM     64  N   UNL     1       8.981  -9.178  -9.906  1.00  0.00    -0.354 N 
ATOM     65  N   UNL     1       7.550 -10.169  -7.536  1.00  0.00    -0.248 NA
ATOM     66  C   UNL     1       6.727 -11.941  -6.260  1.00  0.00     0.031 C 
ATOM     67  C   UNL     1       9.934 -10.665 -11.255  1.00  0.00     0.029 A 
ATOM     68  C   UNL     1       9.180 -10.536 -10.099  1.00  0.00     0.049 A 
ATOM     69  H   UNL     1       8.474  -8.781  -9.162  1.00  0.00     0.167 HD
ATOM     70  C   UNL     1       7.955 -11.367  -8.108  1.00  0.00     0.074 A 
ATOM     71  C   UNL     1       7.450 -12.426  -7.259  1.00  0.00     0.031 C 
ATOM     72  C   UNL     1       8.676 -11.574  -9.237  1.00  0.00     0.037 A 
BRANCH  59  73
ATOM     73  C   UNL     1      10.202  -6.414 -12.261  1.00  0.00     0.064 A 
ATOM     74  C   UNL     1      11.391  -5.672 -12.185  1.00  0.00     0.173 A 
ATOM     75  C   UNL     1       9.638  -6.620 -13.529  1.00  0.00     0.173 A 
ATOM     76  F   UNL     1      11.966  -5.436 -10.996  1.00  0.00    -0.203 F 
ATOM     77  C   UNL     1      11.978  -5.141 -13.331  1.00  0.00     0.198 A 
ATOM     78  C   UNL     1      10.245  -6.114 -14.675  1.00  0.00     0.198 A 
ATOM     79  F   UNL     1       8.504  -7.325 -13.659  1.00  0.00    -0.203 F 
ATOM     80  F   UNL     1      13.091  -4.400 -13.229  1.00  0.00    -0.200 F 
ATOM     81  C   UNL     1      11.411  -5.370 -14.575  1.00  0.00     0.200 A 
ATOM     82  F   UNL     1       9.703  -6.349 -15.879  1.00  0.00    -0.200 F 
ATOM     83  F   UNL     1      11.986  -4.871 -15.678  1.00  0.00    -0.200 F 
ENDBRANCH  59  73
BRANCH  60  84
ATOM     84  C   UNL     1       5.438 -10.168  -4.313  1.00  0.00     0.064 A 
ATOM     85  C   UNL     1       6.079 -10.893  -3.299  1.00  0.00     0.173 A 
ATOM     86  C   UNL     1       4.046 -10.016  -4.225  1.00  0.00     0.173 A 
ATOM     87  F   UNL     1       7.406 -11.083  -3.348  1.00  0.00    -0.203 F 
ATOM     88  C   UNL     1       5.355 -11.472  -2.259  1.00  0.00     0.198 A 
ATOM     89  C   UNL     1       3.327 -10.566  -3.166  1.00  0.00     0.198 A 
ATOM     90  F   UNL     1       3.385  -9.325  -5.165  1.00  0.00    -0.203 F 
ATOM     91  F   UNL     1       5.986 -12.210  -1.336  1.00  0.00    -0.200 F 
ATOM     92  C   UNL     1       3.980 -11.303  -2.190  1.00  0.00     0.200 A 
ATOM     93  F   UNL     1       2.001 -10.389  -3.096  1.00  0.00    -0.200 F 
ATOM     94  F   UNL     1       3.284 -11.861  -1.191  1.00  0.00    -0.200 F 
ENDBRANCH  60  84
BRANCH  72  95
ATOM     95  C   UNL     1       8.995 -12.995  -9.600  1.00  0.00     0.064 A 
ATOM     96  C   UNL     1       8.008 -13.875 -10.067  1.00  0.00     0.173 A 
ATOM     97  C   UNL     1      10.314 -13.468  -9.520  1.00  0.00     0.173 A 
ATOM     98  F   UNL     1       6.730 -13.476 -10.149  1.00  0.00    -0.203 F 
ATOM     99  C   UNL     1       8.326 -15.185 -10.415  1.00  0.00     0.198 A 
ATOM    100  C   UNL     1      10.633 -14.768  -9.900  1.00  0.00     0.198 A 
ATOM    101  F   UNL     1      11.296 -12.664  -9.087  1.00  0.00    -0.203 F 
ATOM    102  F   UNL     1       7.358 -16.024 -10.811  1.00  0.00    -0.200 F 
ATOM    103  C   UNL     1       9.638 -15.628 -10.340  1.00  0.00     0.200 A 
ATOM    104  F   UNL     1      11.904 -15.188  -9.843  1.00  0.00    -0.200 F 
ATOM    105  F   UNL     1       9.943 -16.886 -10.684  1.00  0.00    -0.200 F 
ENDBRANCH  72  95
ENDBRANCH  46  47
ENDBRANCH  38  41
ENDBRANCH  36  37
ENDBRANCH  35  36
ENDBRANCH   1  35
TORSDOF 16
