REMARK SMILES O=C(C[C@H]1CN(C(=O)C[C@H]2CCS(=O)(=O)C2)CCO1)NCCCNC(=O)c1ccc(-c2c3nc(c(-c4c(F)c(F)c(F)c(F)c4F)c4ccc([nH]4)c(-c4c(F)c(F)c(F)c(F)c4F)c4nc(c(-c5c(F)c(F)c(F)c(F)c5F)c5ccc2[nH]5)C=C4)C=C3)cc1
REMARK SMILES IDX 21 1 20 2 1 3 2 4 3 6 4 7 5 8 19 9 6 10 18 11 17 12 7 13
REMARK SMILES IDX 8 14 9 15 10 16 11 17 16 18 12 19 13 20 14 21 15 22 22 23
REMARK SMILES IDX 23 24 24 25 25 26 26 28 27 29 28 30 89 31 29 32 88 33 30 34
REMARK SMILES IDX 31 35 32 36 82 37 33 38 87 39 81 40 83 41 34 42 86 43 80 44
REMARK SMILES IDX 79 45 35 47 67 48 47 49 66 50 48 51 51 52 65 53 84 54 49 55
REMARK SMILES IDX 50 56 64 58 85 59 52 60 36 61 37 62 45 63 38 64 39 65 43 66
REMARK SMILES IDX 46 67 40 68 41 69 44 70 42 71 68 72 69 73 77 74 70 75 71 76
REMARK SMILES IDX 75 77 78 78 72 79 73 80 76 81 74 82 53 83 54 84 62 85 55 86
REMARK SMILES IDX 56 87 60 88 63 89 57 90 58 91 61 92 59 93
REMARK H PARENT 20 5 24 27 83 46 51 57
REMARK Flexibility Score: inf
ROOT
ATOM      1  C   UNL     1       6.613  -1.657   3.338  1.00  0.00     0.117 C 
ENDROOT
BRANCH   1   2
ATOM      2  N   UNL     1       5.710  -1.115   2.343  1.00  0.00    -0.356 N 
ATOM      3  O   UNL     1       6.676  -2.087   0.491  1.00  0.00    -0.275 OA
ATOM      4  C   UNL     1       5.761  -1.463   1.015  1.00  0.00     0.222 C 
ATOM      5  H   UNL     1       5.028  -0.467   2.632  1.00  0.00     0.163 HD
BRANCH   4   6
ATOM      6  C   UNL     1       4.548  -1.002   0.245  1.00  0.00     0.133 C 
BRANCH   6   7
ATOM      7  C   UNL     1       3.328  -1.925   0.361  1.00  0.00     0.147 C 
ATOM      8  C   UNL     1       3.519  -3.296  -0.279  1.00  0.00     0.152 C 
ATOM      9  O   UNL     1       2.746  -2.010   1.670  1.00  0.00    -0.374 OA
ATOM     10  N   UNL     1       4.301  -4.175   0.578  1.00  0.00    -0.338 N 
ATOM     11  C   UNL     1       3.231  -3.044   2.539  1.00  0.00     0.182 C 
ATOM     12  C   UNL     1       3.726  -4.350   1.903  1.00  0.00     0.148 C 
BRANCH  10  13
ATOM     13  C   UNL     1       5.404  -4.929   0.203  1.00  0.00     0.223 C 
ATOM     14  O   UNL     1       5.978  -5.690   0.983  1.00  0.00    -0.275 OA
BRANCH  13  15
ATOM     15  C   UNL     1       5.823  -4.899  -1.258  1.00  0.00     0.105 C 
BRANCH  15  16
ATOM     16  C   UNL     1       5.015  -5.852  -2.159  1.00  0.00     0.014 C 
ATOM     17  C   UNL     1       5.727  -7.198  -2.377  1.00  0.00     0.021 C 
ATOM     18  C   UNL     1       3.616  -6.238  -1.661  1.00  0.00     0.141 C 
ATOM     19  C   UNL     1       4.768  -8.096  -3.158  1.00  0.00     0.137 C 
ATOM     20  S   UNL     1       3.125  -7.638  -2.639  1.00  0.00     0.150 S 
ATOM     21  O   UNL     1       2.389  -7.146  -3.784  1.00  0.00    -0.229 OA
ATOM     22  O   UNL     1       2.593  -8.655  -1.754  1.00  0.00    -0.229 OA
ENDBRANCH  15  16
ENDBRANCH  13  15
ENDBRANCH  10  13
ENDBRANCH   6   7
ENDBRANCH   4   6
ENDBRANCH   1   2
BRANCH   1  23
ATOM     23  C   UNL     1       6.917  -0.672   4.457  1.00  0.00     0.042 C 
BRANCH  23  24
ATOM     24  C   UNL     1       5.708  -0.025   5.124  1.00  0.00     0.118 C 
BRANCH  24  25
ATOM     25  N   UNL     1       4.909  -0.922   5.943  1.00  0.00    -0.352 N 
ATOM     26  C   UNL     1       4.442  -0.737   7.227  1.00  0.00     0.251 C 
ATOM     27  H   UNL     1       4.668  -1.779   5.523  1.00  0.00     0.163 HD
ATOM     28  O   UNL     1       3.836  -1.640   7.795  1.00  0.00    -0.269 OA
BRANCH  26  29
ATOM     29  C   UNL     1       4.710   0.533   7.943  1.00  0.00     0.039 A 
ATOM     30  C   UNL     1       5.155   0.478   9.266  1.00  0.00     0.014 A 
ATOM     31  C   UNL     1       4.553   1.771   7.315  1.00  0.00     0.014 A 
ATOM     32  C   UNL     1       5.513   1.656   9.929  1.00  0.00     0.010 A 
ATOM     33  C   UNL     1       5.005   2.932   7.941  1.00  0.00     0.010 A 
ATOM     34  C   UNL     1       5.482   2.891   9.259  1.00  0.00    -0.014 A 
BRANCH  34  35
ATOM     35  C   UNL     1       5.932   4.141   9.932  1.00  0.00     0.031 A 
ATOM     36  C   UNL     1       4.971   5.282  10.141  1.00  0.00     0.074 A 
ATOM     37  C   UNL     1       7.216   4.269  10.324  1.00  0.00     0.049 A 
ATOM     38  N   UNL     1       5.179   6.450  10.698  1.00  0.00    -0.248 NA
ATOM     39  C   UNL     1       3.604   5.100   9.632  1.00  0.00     0.031 C 
ATOM     40  C   UNL     1       8.264   3.266  10.129  1.00  0.00     0.029 A 
ATOM     41  N   UNL     1       7.859   5.297  10.969  1.00  0.00    -0.354 N 
ATOM     42  C   UNL     1       3.975   7.137  10.598  1.00  0.00     0.074 A 
ATOM     43  C   UNL     1       3.065   6.287   9.864  1.00  0.00     0.031 C 
ATOM     44  C   UNL     1       9.406   3.710  10.676  1.00  0.00     0.029 A 
ATOM     45  C   UNL     1       9.185   5.043  11.226  1.00  0.00     0.049 A 
ATOM     46  H   UNL     1       7.413   6.137  11.222  1.00  0.00     0.167 HD
ATOM     47  C   UNL     1       3.646   8.353  11.099  1.00  0.00     0.037 A 
ATOM     48  C   UNL     1      10.117   5.800  11.839  1.00  0.00     0.037 A 
ATOM     49  C   UNL     1       4.548   9.193  11.843  1.00  0.00     0.049 A 
ATOM     50  C   UNL     1       9.727   7.149  12.382  1.00  0.00     0.074 A 
ATOM     51  C   UNL     1       4.297  10.419  12.434  1.00  0.00     0.029 A 
ATOM     52  N   UNL     1       5.880   8.896  12.094  1.00  0.00    -0.354 N 
ATOM     53  N   UNL     1       8.565   7.754  12.347  1.00  0.00    -0.248 NA
ATOM     54  C   UNL     1      10.780   7.914  13.064  1.00  0.00     0.031 C 
ATOM     55  C   UNL     1       5.490  10.891  12.991  1.00  0.00     0.029 A 
ATOM     56  C   UNL     1       6.468   9.926  12.812  1.00  0.00     0.049 A 
ATOM     57  H   UNL     1       6.339   8.075  11.805  1.00  0.00     0.167 HD
ATOM     58  C   UNL     1       8.735   8.950  13.034  1.00  0.00     0.074 A 
ATOM     59  C   UNL     1      10.109   8.974  13.490  1.00  0.00     0.031 C 
ATOM     60  C   UNL     1       7.835   9.937  13.268  1.00  0.00     0.037 A 
BRANCH  47  61
ATOM     61  C   UNL     1       2.246   8.846  10.858  1.00  0.00     0.064 A 
ATOM     62  C   UNL     1       1.133   8.230  11.453  1.00  0.00     0.173 A 
ATOM     63  C   UNL     1       2.014   9.968  10.047  1.00  0.00     0.173 A 
ATOM     64  F   UNL     1       1.294   7.147  12.228  1.00  0.00    -0.203 F 
ATOM     65  C   UNL     1      -0.158   8.695  11.216  1.00  0.00     0.198 A 
ATOM     66  C   UNL     1       0.725  10.453   9.843  1.00  0.00     0.198 A 
ATOM     67  F   UNL     1       3.040  10.601   9.458  1.00  0.00    -0.203 F 
ATOM     68  F   UNL     1      -1.208   8.053  11.746  1.00  0.00    -0.200 F 
ATOM     69  C   UNL     1      -0.360   9.811  10.418  1.00  0.00     0.200 A 
ATOM     70  F   UNL     1       0.533  11.541   9.084  1.00  0.00    -0.200 F 
ATOM     71  F   UNL     1      -1.603  10.262  10.197  1.00  0.00    -0.200 F 
ENDBRANCH  47  61
BRANCH  48  72
ATOM     72  C   UNL     1      11.505   5.288  12.004  1.00  0.00     0.064 A 
ATOM     73  C   UNL     1      12.017   4.984  13.274  1.00  0.00     0.173 A 
ATOM     74  C   UNL     1      12.355   5.114  10.902  1.00  0.00     0.173 A 
ATOM     75  F   UNL     1      11.252   5.153  14.363  1.00  0.00    -0.203 F 
ATOM     76  C   UNL     1      13.333   4.555  13.438  1.00  0.00     0.198 A 
ATOM     77  C   UNL     1      13.660   4.652  11.064  1.00  0.00     0.198 A 
ATOM     78  F   UNL     1      11.915   5.384   9.665  1.00  0.00    -0.203 F 
ATOM     79  F   UNL     1      13.814   4.330  14.668  1.00  0.00    -0.200 F 
ATOM     80  C   UNL     1      14.152   4.384  12.332  1.00  0.00     0.200 A 
ATOM     81  F   UNL     1      14.442   4.472   9.991  1.00  0.00    -0.200 F 
ATOM     82  F   UNL     1      15.417   3.971  12.489  1.00  0.00    -0.200 F 
ENDBRANCH  48  72
BRANCH  60  83
ATOM     83  C   UNL     1       8.293  11.103  14.101  1.00  0.00     0.064 A 
ATOM     84  C   UNL     1       9.253  12.017  13.640  1.00  0.00     0.173 A 
ATOM     85  C   UNL     1       7.755  11.311  15.381  1.00  0.00     0.173 A 
ATOM     86  F   UNL     1       9.808  11.861  12.428  1.00  0.00    -0.203 F 
ATOM     87  C   UNL     1       9.691  13.065  14.446  1.00  0.00     0.198 A 
ATOM     88  C   UNL     1       8.166  12.382  16.168  1.00  0.00     0.198 A 
ATOM     89  F   UNL     1       6.826  10.475  15.869  1.00  0.00    -0.203 F 
ATOM     90  F   UNL     1      10.662  13.881  14.012  1.00  0.00    -0.200 F 
ATOM     91  C   UNL     1       9.144  13.249  15.707  1.00  0.00     0.200 A 
ATOM     92  F   UNL     1       7.621  12.570  17.378  1.00  0.00    -0.200 F 
ATOM     93  F   UNL     1       9.568  14.257  16.482  1.00  0.00    -0.200 F 
ENDBRANCH  60  83
ENDBRANCH  34  35
ENDBRANCH  26  29
ENDBRANCH  24  25
ENDBRANCH  23  24
ENDBRANCH   1  23
TORSDOF 14
