REMARK SMILES COCc1cc(OCC(=O)NCCCNC(=O)c2ccc(-c3c4nc(c(-c5c(F)c(F)c(F)c(F)c5F)c5ccc([nH]5)c(-c5c(F)c(F)c(F)c(F)c5F)c5nc(c(-c6c(F)c(F)c(F)c(F)c6F)c6ccc3[nH]6)C=C5)C=C4)cc2)nc(Nc2cccc(C)c2C)n1
REMARK SMILES IDX 12 1 11 2 9 3 10 4 8 6 7 7 6 8 4 9 5 10 92 11 82 12 81 13
REMARK SMILES IDX 3 14 2 15 1 16 83 17 84 19 85 20 90 21 86 22 88 23 91 24
REMARK SMILES IDX 87 25 89 26 13 27 14 28 15 29 16 30 17 32 18 33 19 34 80 35
REMARK SMILES IDX 20 36 79 37 21 38 22 39 23 40 73 41 24 42 78 43 72 44 74 45
REMARK SMILES IDX 25 46 77 47 71 48 70 49 26 51 58 52 38 53 57 54 39 55 42 56
REMARK SMILES IDX 56 57 75 58 40 59 41 60 55 62 76 63 43 64 27 65 28 66 36 67
REMARK SMILES IDX 29 68 30 69 34 70 37 71 31 72 32 73 35 74 33 75 59 76 60 77
REMARK SMILES IDX 68 78 61 79 62 80 66 81 69 82 63 83 64 84 67 85 65 86 44 87
REMARK SMILES IDX 45 88 53 89 46 90 47 91 51 92 54 93 48 94 49 95 52 96 50 97
REMARK H PARENT 11 5 83 18 15 31 74 50 42 61
REMARK Flexibility Score: inf
ROOT
ATOM      1  C   UNL     1       3.749  -6.996  -0.998  1.00  0.00     0.117 C 
ENDROOT
BRANCH   1   2
ATOM      2  N   UNL     1       3.895  -6.276   0.253  1.00  0.00    -0.353 N 
ATOM      3  C   UNL     1       2.963  -6.055   1.222  1.00  0.00     0.258 C 
ATOM      4  O   UNL     1       3.296  -5.418   2.224  1.00  0.00    -0.271 OA
ATOM      5  H   UNL     1       4.787  -5.896   0.424  1.00  0.00     0.163 HD
BRANCH   3   6
ATOM      6  C   UNL     1       1.537  -6.599   1.060  1.00  0.00     0.331 C 
BRANCH   6   7
ATOM      7  O   UNL     1       0.783  -6.109  -0.034  1.00  0.00    -0.467 OA
BRANCH   7   8
ATOM      8  C   UNL     1       0.472  -4.778  -0.061  1.00  0.00     0.218 A 
ATOM      9  C   UNL     1       0.479  -2.554   0.680  1.00  0.00     0.076 A 
ATOM     10  C   UNL     1       0.740  -3.881   0.946  1.00  0.00     0.095 A 
ATOM     11  N   UNL     1      -0.044  -2.171  -0.496  1.00  0.00    -0.215 NA
ATOM     12  C   UNL     1      -0.350  -3.110  -1.403  1.00  0.00     0.230 A 
ATOM     13  N   UNL     1      -0.101  -4.413  -1.221  1.00  0.00    -0.177 NA
BRANCH   9  14
ATOM     14  C   UNL     1       0.898  -1.508   1.700  1.00  0.00     0.216 C 
BRANCH  14  15
ATOM     15  O   UNL     1       0.353  -0.196   1.549  1.00  0.00    -0.378 OA
ATOM     16  C   UNL     1       0.911   0.527   0.461  1.00  0.00     0.195 C 
ENDBRANCH  14  15
ENDBRANCH   9  14
BRANCH  12  17
ATOM     17  N   UNL     1      -0.956  -2.744  -2.605  1.00  0.00    -0.324 N 
ATOM     18  H   UNL     1      -1.203  -3.483  -3.207  1.00  0.00     0.170 HD
BRANCH  17  19
ATOM     19  C   UNL     1      -1.256  -1.450  -3.059  1.00  0.00     0.044 A 
ATOM     20  C   UNL     1      -2.605  -1.119  -3.255  1.00  0.00     0.026 A 
ATOM     21  C   UNL     1      -0.266  -0.449  -3.219  1.00  0.00    -0.025 A 
ATOM     22  C   UNL     1      -2.987   0.186  -3.560  1.00  0.00     0.002 A 
ATOM     23  C   UNL     1      -0.660   0.885  -3.487  1.00  0.00    -0.046 A 
ATOM     24  C   UNL     1       1.202  -0.798  -3.171  1.00  0.00     0.047 C 
ATOM     25  C   UNL     1      -2.022   1.182  -3.657  1.00  0.00     0.004 A 
ATOM     26  C   UNL     1       0.313   2.029  -3.590  1.00  0.00     0.044 C 
ENDBRANCH  17  19
ENDBRANCH  12  17
ENDBRANCH   7   8
ENDBRANCH   6   7
ENDBRANCH   3   6
ENDBRANCH   1   2
BRANCH   1  27
ATOM     27  C   UNL     1       3.778  -6.072  -2.211  1.00  0.00     0.042 C 
BRANCH  27  28
ATOM     28  C   UNL     1       5.071  -5.275  -2.374  1.00  0.00     0.118 C 
BRANCH  28  29
ATOM     29  N   UNL     1       6.251  -6.117  -2.533  1.00  0.00    -0.352 N 
ATOM     30  C   UNL     1       7.134  -6.234  -3.577  1.00  0.00     0.251 C 
ATOM     31  H   UNL     1       6.447  -6.699  -1.763  1.00  0.00     0.163 HD
ATOM     32  O   UNL     1       7.975  -7.132  -3.562  1.00  0.00    -0.269 OA
BRANCH  30  33
ATOM     33  C   UNL     1       7.072  -5.314  -4.732  1.00  0.00     0.039 A 
ATOM     34  C   UNL     1       7.200  -5.843  -6.021  1.00  0.00     0.014 A 
ATOM     35  C   UNL     1       6.908  -3.938  -4.557  1.00  0.00     0.014 A 
ATOM     36  C   UNL     1       7.068  -5.007  -7.133  1.00  0.00     0.010 A 
ATOM     37  C   UNL     1       6.706  -3.118  -5.665  1.00  0.00     0.010 A 
ATOM     38  C   UNL     1       6.767  -3.647  -6.964  1.00  0.00    -0.014 A 
BRANCH  38  39
ATOM     39  C   UNL     1       6.464  -2.769  -8.124  1.00  0.00     0.031 A 
ATOM     40  C   UNL     1       7.340  -1.591  -8.439  1.00  0.00     0.074 A 
ATOM     41  C   UNL     1       5.342  -2.985  -8.839  1.00  0.00     0.049 A 
ATOM     42  N   UNL     1       7.168  -0.646  -9.329  1.00  0.00    -0.248 NA
ATOM     43  C   UNL     1       8.560  -1.442  -7.632  1.00  0.00     0.031 C 
ATOM     44  C   UNL     1       4.392  -4.075  -8.611  1.00  0.00     0.029 A 
ATOM     45  N   UNL     1       4.796  -2.285  -9.888  1.00  0.00    -0.354 N 
ATOM     46  C   UNL     1       8.248   0.214  -9.181  1.00  0.00     0.074 A 
ATOM     47  C   UNL     1       9.046  -0.295  -8.085  1.00  0.00     0.031 C 
ATOM     48  C   UNL     1       3.389  -3.978  -9.497  1.00  0.00     0.029 A 
ATOM     49  C   UNL     1       3.594  -2.790 -10.320  1.00  0.00     0.049 A 
ATOM     50  H   UNL     1       5.227  -1.497 -10.292  1.00  0.00     0.167 HD
ATOM     51  C   UNL     1       8.553   1.319  -9.904  1.00  0.00     0.037 A 
ATOM     52  C   UNL     1       2.737  -2.333 -11.254  1.00  0.00     0.037 A 
ATOM     53  C   UNL     1       7.761   1.812 -11.001  1.00  0.00     0.049 A 
ATOM     54  C   UNL     1       3.075  -1.075 -12.007  1.00  0.00     0.074 A 
ATOM     55  C   UNL     1       8.023   2.882 -11.839  1.00  0.00     0.029 A 
ATOM     56  N   UNL     1       6.546   1.277 -11.405  1.00  0.00    -0.354 N 
ATOM     57  N   UNL     1       4.136  -0.313 -11.911  1.00  0.00    -0.248 NA
ATOM     58  C   UNL     1       2.092  -0.611 -12.997  1.00  0.00     0.031 C 
ATOM     59  C   UNL     1       6.937   3.034 -12.708  1.00  0.00     0.029 A 
ATOM     60  C   UNL     1       6.026   2.023 -12.452  1.00  0.00     0.049 A 
ATOM     61  H   UNL     1       6.118   0.485 -11.007  1.00  0.00     0.167 HD
ATOM     62  C   UNL     1       3.959   0.708 -12.835  1.00  0.00     0.074 A 
ATOM     63  C   UNL     1       2.699   0.455 -13.501  1.00  0.00     0.031 C 
ATOM     64  C   UNL     1       4.768   1.762 -13.104  1.00  0.00     0.037 A 
BRANCH  51  65
ATOM     65  C   UNL     1       9.792   2.080  -9.529  1.00  0.00     0.064 A 
ATOM     66  C   UNL     1      11.075   1.553  -9.743  1.00  0.00     0.173 A 
ATOM     67  C   UNL     1       9.697   3.374  -8.994  1.00  0.00     0.173 A 
ATOM     68  F   UNL     1      11.222   0.318 -10.246  1.00  0.00    -0.203 F 
ATOM     69  C   UNL     1      12.214   2.280  -9.408  1.00  0.00     0.198 A 
ATOM     70  C   UNL     1      10.839   4.111  -8.691  1.00  0.00     0.198 A 
ATOM     71  F   UNL     1       8.496   3.930  -8.777  1.00  0.00    -0.203 F 
ATOM     72  F   UNL     1      13.428   1.736  -9.577  1.00  0.00    -0.200 F 
ATOM     73  C   UNL     1      12.096   3.561  -8.890  1.00  0.00     0.200 A 
ATOM     74  F   UNL     1      10.723   5.355  -8.206  1.00  0.00    -0.200 F 
ATOM     75  F   UNL     1      13.194   4.263  -8.578  1.00  0.00    -0.200 F 
ENDBRANCH  51  65
BRANCH  52  76
ATOM     76  C   UNL     1       1.470  -3.065 -11.521  1.00  0.00     0.064 A 
ATOM     77  C   UNL     1       1.260  -3.717 -12.744  1.00  0.00     0.173 A 
ATOM     78  C   UNL     1       0.443  -3.122 -10.567  1.00  0.00     0.173 A 
ATOM     79  F   UNL     1       2.202  -3.672 -13.697  1.00  0.00    -0.203 F 
ATOM     80  C   UNL     1       0.064  -4.381 -13.009  1.00  0.00     0.198 A 
ATOM     81  C   UNL     1      -0.740  -3.814 -10.821  1.00  0.00     0.198 A 
ATOM     82  F   UNL     1       0.594  -2.518  -9.380  1.00  0.00    -0.203 F 
ATOM     83  F   UNL     1      -0.130  -4.955 -14.205  1.00  0.00    -0.200 F 
ATOM     84  C   UNL     1      -0.932  -4.436 -12.046  1.00  0.00     0.200 A 
ATOM     85  F   UNL     1      -1.692  -3.878  -9.881  1.00  0.00    -0.200 F 
ATOM     86  F   UNL     1      -2.079  -5.079 -12.300  1.00  0.00    -0.200 F 
ENDBRANCH  52  76
BRANCH  64  87
ATOM     87  C   UNL     1       4.323   2.720 -14.171  1.00  0.00     0.064 A 
ATOM     88  C   UNL     1       3.255   3.605 -13.963  1.00  0.00     0.173 A 
ATOM     89  C   UNL     1       5.011   2.798 -15.392  1.00  0.00     0.173 A 
ATOM     90  F   UNL     1       2.554   3.560 -12.820  1.00  0.00    -0.203 F 
ATOM     91  C   UNL     1       2.882   4.522 -14.943  1.00  0.00     0.198 A 
ATOM     92  C   UNL     1       4.656   3.736 -16.357  1.00  0.00     0.198 A 
ATOM     93  F   UNL     1       6.043   1.978 -15.640  1.00  0.00    -0.203 F 
ATOM     94  F   UNL     1       1.834   5.330 -14.737  1.00  0.00    -0.200 F 
ATOM     95  C   UNL     1       3.590   4.594 -16.134  1.00  0.00     0.200 A 
ATOM     96  F   UNL     1       5.351   3.815 -17.500  1.00  0.00    -0.200 F 
ATOM     97  F   UNL     1       3.240   5.488 -17.069  1.00  0.00    -0.200 F 
ENDBRANCH  64  87
ENDBRANCH  38  39
ENDBRANCH  30  33
ENDBRANCH  28  29
ENDBRANCH  27  28
ENDBRANCH   1  27
TORSDOF 16
