REMARK SMILES COc1ccc([C@@H]([NH3+])[C@](C)(C(N)=O)C(=O)NCCCNC(=O)c2ccc(-c3c4nc(c(-c5c(F)c(F)c(F)c(F)c5F)c5ccc([nH]5)c(-c5c(F)c(F)c(F)c(F)c5F)c5nc(c(-c6c(F)c(F)c(F)c(F)c6F)c6ccc3[nH]6)C=C5)C=C4)cc2)cc1OC
REMARK SMILES IDX 17 1 16 2 14 3 15 4 9 6 10 7 7 8 6 9 3 10 4 11 87 12 5 13
REMARK SMILES IDX 86 14 2 15 1 16 88 17 89 18 8 19 11 23 12 24 13 25 18 28
REMARK SMILES IDX 19 29 20 30 21 31 22 33 23 34 24 35 85 36 25 37 84 38 26 39
REMARK SMILES IDX 27 40 28 41 78 42 29 43 83 44 77 45 79 46 30 47 82 48 76 49
REMARK SMILES IDX 75 50 31 52 63 53 43 54 62 55 44 56 47 57 61 58 80 59 45 60
REMARK SMILES IDX 46 61 60 63 81 64 48 65 32 66 33 67 41 68 34 69 35 70 39 71
REMARK SMILES IDX 42 72 36 73 37 74 40 75 38 76 64 77 65 78 73 79 66 80 67 81
REMARK SMILES IDX 71 82 74 83 68 84 69 85 72 86 70 87 49 88 50 89 58 90 51 91
REMARK SMILES IDX 52 92 56 93 59 94 53 95 54 96 57 97 55 98
REMARK H PARENT 16 5 8 20 8 21 8 22 12 26 12 27 20 32 79 51 47 62
REMARK Flexibility Score: inf
ROOT
ATOM      1  C   UNL     1      -0.842  -8.280  -1.830  1.00  0.00     0.117 C 
ENDROOT
BRANCH   1   2
ATOM      2  N   UNL     1      -0.995  -7.473  -0.631  1.00  0.00    -0.355 N 
ATOM      3  C   UNL     1      -0.074  -6.987   0.251  1.00  0.00     0.241 C 
ATOM      4  O   UNL     1      -0.539  -6.379   1.221  1.00  0.00    -0.274 OA
ATOM      5  H   UNL     1      -1.926  -7.234  -0.418  1.00  0.00     0.163 HD
BRANCH   3   6
ATOM      6  C   UNL     1       1.443  -7.222   0.077  1.00  0.00     0.180 C 
ATOM      7  C   UNL     1       2.138  -6.646   1.341  1.00  0.00     0.039 C 
BRANCH   6   8
ATOM      8  C   UNL     1       1.901  -6.491  -1.265  1.00  0.00     0.237 C 
BRANCH   8   9
ATOM      9  C   UNL     1       2.685  -5.187  -1.114  1.00  0.00     0.015 A 
ATOM     10  C   UNL     1       4.184  -2.803  -1.058  1.00  0.00     0.160 A 
ATOM     11  C   UNL     1       4.789  -4.025  -0.745  1.00  0.00     0.051 A 
ATOM     12  C   UNL     1       2.834  -2.760  -1.429  1.00  0.00     0.161 A 
ATOM     13  C   UNL     1       4.048  -5.204  -0.777  1.00  0.00     0.014 A 
ATOM     14  C   UNL     1       2.095  -3.954  -1.434  1.00  0.00     0.060 A 
BRANCH  10  15
ATOM     15  O   UNL     1       4.973  -1.684  -1.079  1.00  0.00    -0.493 OA
ATOM     16  C   UNL     1       5.338  -1.283   0.242  1.00  0.00     0.278 C 
ENDBRANCH  10  15
BRANCH  12  17
ATOM     17  O   UNL     1       2.091  -1.680  -1.825  1.00  0.00    -0.493 OA
ATOM     18  C   UNL     1       2.695  -0.396  -1.800  1.00  0.00     0.278 C 
ENDBRANCH  12  17
ENDBRANCH   8   9
BRANCH   8  19
ATOM     19  N   UNL     1       2.641  -7.272  -2.268  1.00  0.00    -0.350 N 
ATOM     20  H   UNL     1       3.587  -7.450  -1.930  1.00  0.00     0.345 HD
ATOM     21  H   UNL     1       2.684  -6.750  -3.142  1.00  0.00     0.345 HD
ATOM     22  H   UNL     1       2.164  -8.161  -2.426  1.00  0.00     0.345 HD
ENDBRANCH   8  19
ENDBRANCH   6   8
BRANCH   6  23
ATOM     23  C   UNL     1       1.733  -8.736   0.135  1.00  0.00     0.239 C 
ATOM     24  N   UNL     1       1.102  -9.462   1.108  1.00  0.00    -0.369 N 
ATOM     25  O   UNL     1       2.512  -9.338  -0.601  1.00  0.00    -0.274 OA
ATOM     26  H   UNL     1       0.470  -9.020   1.719  1.00  0.00     0.159 HD
ATOM     27  H   UNL     1       1.281 -10.426   1.196  1.00  0.00     0.159 HD
ENDBRANCH   6  23
ENDBRANCH   3   6
ENDBRANCH   1   2
BRANCH   1  28
ATOM     28  C   UNL     1      -1.343  -9.707  -1.653  1.00  0.00     0.042 C 
BRANCH  28  29
ATOM     29  C   UNL     1      -2.824  -9.814  -1.315  1.00  0.00     0.118 C 
BRANCH  29  30
ATOM     30  N   UNL     1      -3.683  -9.343  -2.392  1.00  0.00    -0.352 N 
ATOM     31  C   UNL     1      -4.570 -10.026  -3.183  1.00  0.00     0.251 C 
ATOM     32  H   UNL     1      -3.617  -8.380  -2.582  1.00  0.00     0.163 HD
ATOM     33  O   UNL     1      -5.055  -9.467  -4.169  1.00  0.00    -0.269 OA
BRANCH  31  34
ATOM     34  C   UNL     1      -4.946 -11.424  -2.881  1.00  0.00     0.039 A 
ATOM     35  C   UNL     1      -5.121 -12.321  -3.940  1.00  0.00     0.014 A 
ATOM     36  C   UNL     1      -5.177 -11.848  -1.570  1.00  0.00     0.014 A 
ATOM     37  C   UNL     1      -5.476 -13.647  -3.681  1.00  0.00     0.010 A 
ATOM     38  C   UNL     1      -5.438 -13.189  -1.306  1.00  0.00     0.010 A 
ATOM     39  C   UNL     1      -5.614 -14.099  -2.359  1.00  0.00    -0.014 A 
BRANCH  39  40
ATOM     40  C   UNL     1      -5.991 -15.503  -2.056  1.00  0.00     0.031 A 
ATOM     41  C   UNL     1      -7.287 -15.795  -1.348  1.00  0.00     0.074 A 
ATOM     42  C   UNL     1      -5.150 -16.509  -2.364  1.00  0.00     0.049 A 
ATOM     43  N   UNL     1      -7.765 -16.939  -0.926  1.00  0.00    -0.248 NA
ATOM     44  C   UNL     1      -8.148 -14.640  -1.044  1.00  0.00     0.031 C 
ATOM     45  C   UNL     1      -3.846 -16.355  -3.009  1.00  0.00     0.029 A 
ATOM     46  N   UNL     1      -5.266 -17.863  -2.168  1.00  0.00    -0.354 N 
ATOM     47  C   UNL     1      -8.963 -16.637  -0.291  1.00  0.00     0.074 A 
ATOM     48  C   UNL     1      -9.111 -15.200  -0.328  1.00  0.00     0.031 C 
ATOM     49  C   UNL     1      -3.294 -17.567  -3.179  1.00  0.00     0.029 A 
ATOM     50  C   UNL     1      -4.189 -18.580  -2.626  1.00  0.00     0.049 A 
ATOM     51  H   UNL     1      -6.048 -18.280  -1.739  1.00  0.00     0.167 HD
ATOM     52  C   UNL     1      -9.872 -17.483   0.250  1.00  0.00     0.037 A 
ATOM     53  C   UNL     1      -3.950 -19.905  -2.602  1.00  0.00     0.037 A 
ATOM     54  C   UNL     1      -9.741 -18.916   0.250  1.00  0.00     0.049 A 
ATOM     55  C   UNL     1      -4.982 -20.826  -2.008  1.00  0.00     0.074 A 
ATOM     56  C   UNL     1     -10.632 -19.865   0.721  1.00  0.00     0.029 A 
ATOM     57  N   UNL     1      -8.648 -19.607  -0.252  1.00  0.00    -0.354 N 
ATOM     58  N   UNL     1      -6.138 -20.534  -1.464  1.00  0.00    -0.248 NA
ATOM     59  C   UNL     1      -4.679 -22.264  -2.035  1.00  0.00     0.031 C 
ATOM     60  C   UNL     1     -10.061 -21.129   0.538  1.00  0.00     0.029 A 
ATOM     61  C   UNL     1      -8.836 -20.970  -0.090  1.00  0.00     0.049 A 
ATOM     62  H   UNL     1      -7.856 -19.190  -0.662  1.00  0.00     0.167 HD
ATOM     63  C   UNL     1      -6.714 -21.748  -1.114  1.00  0.00     0.074 A 
ATOM     64  C   UNL     1      -5.784 -22.782  -1.518  1.00  0.00     0.031 C 
ATOM     65  C   UNL     1      -7.906 -21.986  -0.514  1.00  0.00     0.037 A 
BRANCH  52  66
ATOM     66  C   UNL     1     -11.093 -16.877   0.879  1.00  0.00     0.064 A 
ATOM     67  C   UNL     1     -12.083 -16.247   0.107  1.00  0.00     0.173 A 
ATOM     68  C   UNL     1     -11.288 -16.942   2.267  1.00  0.00     0.173 A 
ATOM     69  F   UNL     1     -11.939 -16.146  -1.223  1.00  0.00    -0.203 F 
ATOM     70  C   UNL     1     -13.203 -15.675   0.705  1.00  0.00     0.198 A 
ATOM     71  C   UNL     1     -12.425 -16.396   2.857  1.00  0.00     0.198 A 
ATOM     72  F   UNL     1     -10.377 -17.536   3.051  1.00  0.00    -0.203 F 
ATOM     73  F   UNL     1     -14.104 -15.028  -0.047  1.00  0.00    -0.200 F 
ATOM     74  C   UNL     1     -13.376 -15.755   2.078  1.00  0.00     0.200 A 
ATOM     75  F   UNL     1     -12.598 -16.486   4.184  1.00  0.00    -0.200 F 
ATOM     76  F   UNL     1     -14.456 -15.206   2.651  1.00  0.00    -0.200 F 
ENDBRANCH  52  66
BRANCH  53  77
ATOM     77  C   UNL     1      -2.699 -20.446  -3.194  1.00  0.00     0.064 A 
ATOM     78  C   UNL     1      -2.732 -21.190  -4.382  1.00  0.00     0.173 A 
ATOM     79  C   UNL     1      -1.452 -20.235  -2.589  1.00  0.00     0.173 A 
ATOM     80  F   UNL     1      -3.904 -21.435  -4.986  1.00  0.00    -0.203 F 
ATOM     81  C   UNL     1      -1.567 -21.720  -4.931  1.00  0.00     0.198 A 
ATOM     82  C   UNL     1      -0.284 -20.743  -3.155  1.00  0.00     0.198 A 
ATOM     83  F   UNL     1      -1.367 -19.525  -1.455  1.00  0.00    -0.203 F 
ATOM     84  F   UNL     1      -1.633 -22.465  -6.043  1.00  0.00    -0.200 F 
ATOM     85  C   UNL     1      -0.343 -21.492  -4.321  1.00  0.00     0.200 A 
ATOM     86  F   UNL     1       0.898 -20.509  -2.569  1.00  0.00    -0.200 F 
ATOM     87  F   UNL     1       0.778 -21.999  -4.851  1.00  0.00    -0.200 F 
ENDBRANCH  53  77
BRANCH  65  88
ATOM     88  C   UNL     1      -8.295 -23.419  -0.299  1.00  0.00     0.064 A 
ATOM     89  C   UNL     1      -7.670 -24.215   0.671  1.00  0.00     0.173 A 
ATOM     90  C   UNL     1      -9.336 -23.989  -1.048  1.00  0.00     0.173 A 
ATOM     91  F   UNL     1      -6.661 -23.721   1.403  1.00  0.00    -0.203 F 
ATOM     92  C   UNL     1      -8.056 -25.539   0.865  1.00  0.00     0.198 A 
ATOM     93  C   UNL     1      -9.738 -25.303  -0.831  1.00  0.00     0.198 A 
ATOM     94  F   UNL     1      -9.970 -23.266  -1.984  1.00  0.00    -0.203 F 
ATOM     95  F   UNL     1      -7.413 -26.297   1.765  1.00  0.00    -0.200 F 
ATOM     96  C   UNL     1      -9.093 -26.079   0.120  1.00  0.00     0.200 A 
ATOM     97  F   UNL     1     -10.750 -25.819  -1.543  1.00  0.00    -0.200 F 
ATOM     98  F   UNL     1      -9.467 -27.352   0.314  1.00  0.00    -0.200 F 
ENDBRANCH  65  88
ENDBRANCH  39  40
ENDBRANCH  31  34
ENDBRANCH  29  30
ENDBRANCH  28  29
ENDBRANCH   1  28
TORSDOF 16
