REMARK SMILES C[C@H](C(=O)NCCCNC(=O)c1ccc(-c2c3nc(c(-c4c(F)c(F)c(F)c(F)c4F)c4ccc([nH]4)c(-c4c(F)c(F)c(F)c(F)c4F)c4nc(c(-c5c(F)c(F)c(F)c(F)c5F)c5ccc2[nH]5)C=C4)C=C3)cc1)[C@@H](C)[N@H+]1CCCSCC1
REMARK SMILES IDX 3 1 4 2 5 3 2 5 1 6 75 7 76 8 77 9 78 11 79 12 83 14 82 15
REMARK SMILES IDX 81 16 80 17 6 19 7 20 8 21 9 22 10 23 11 25 12 26 13 27
REMARK SMILES IDX 74 28 14 29 73 30 15 31 16 32 17 33 67 34 18 35 72 36 66 37
REMARK SMILES IDX 68 38 19 39 71 40 65 41 64 42 20 44 52 45 32 46 51 47 33 48
REMARK SMILES IDX 36 49 50 50 69 51 34 52 35 53 49 55 70 56 37 57 21 58 22 59
REMARK SMILES IDX 30 60 23 61 24 62 28 63 31 64 25 65 26 66 29 67 27 68 53 69
REMARK SMILES IDX 54 70 62 71 55 72 56 73 60 74 63 75 57 76 58 77 61 78 59 79
REMARK SMILES IDX 38 80 39 81 47 82 40 83 41 84 45 85 48 86 42 87 43 88 46 89
REMARK SMILES IDX 44 90
REMARK H PARENT 5 4 77 10 9 24 68 43 36 54
REMARK Flexibility Score: 80.00
ROOT
ATOM      1  C   UNL     1       1.207   0.096   0.214  1.00  0.00     0.228 C 
ATOM      2  O   UNL     1       1.871   0.283  -0.812  1.00  0.00    -0.275 OA
ATOM      3  N   UNL     1       0.953   1.189   0.974  1.00  0.00    -0.356 N 
ATOM      4  H   UNL     1       1.281   2.030   0.582  1.00  0.00     0.163 HD
ENDROOT
BRANCH   1   5
ATOM      5  C   UNL     1       0.690  -1.305   0.541  1.00  0.00     0.133 C 
ATOM      6  C   UNL     1       1.159  -1.781   1.915  1.00  0.00     0.024 C 
BRANCH   5   7
ATOM      7  C   UNL     1      -0.844  -1.456   0.292  1.00  0.00     0.193 C 
ATOM      8  C   UNL     1      -1.196  -1.070  -1.159  1.00  0.00     0.076 C 
BRANCH   7   9
ATOM      9  N   UNL     1      -1.407  -2.783   0.702  1.00  0.00    -0.331 N 
ATOM     10  H   UNL     1      -1.194  -2.864   1.696  1.00  0.00     0.348 HD
BRANCH   9  11
ATOM     11  C   UNL     1      -2.874  -2.825   0.555  1.00  0.00     0.263 C 
BRANCH  11  12
ATOM     12  C   UNL     1      -3.608  -4.060   1.097  1.00  0.00     0.072 CG0
ATOM     13  G   UNL     1      -3.463  -5.299   0.219  1.00  0.00     0.000 G0
ENDBRANCH  11  12
ENDBRANCH   9  11
BRANCH   9  14
ATOM     14  C   UNL     1      -0.741  -3.952   0.101  1.00  0.00     0.273 C 
BRANCH  14  15
ATOM     15  C   UNL     1      -0.789  -5.168   1.040  1.00  0.00     0.131 C 
BRANCH  15  16
ATOM     16  S   UNL     1      -2.079  -6.388   0.656  1.00  0.00    -0.156 SA
BRANCH  16  17
ATOM     17  C   UNL     1      -3.463  -5.299   0.219  1.00  0.00     0.075 CG0
ATOM     18  G   UNL     1      -3.608  -4.060   1.097  1.00  0.00     0.000 G0
ENDBRANCH  16  17
ENDBRANCH  15  16
ENDBRANCH  14  15
ENDBRANCH   9  14
ENDBRANCH   7   9
ENDBRANCH   5   7
ENDBRANCH   1   5
BRANCH   3  19
ATOM     19  C   UNL     1       0.293   1.359   2.254  1.00  0.00     0.117 C 
BRANCH  19  20
ATOM     20  C   UNL     1       1.264   1.329   3.431  1.00  0.00     0.042 C 
BRANCH  20  21
ATOM     21  C   UNL     1       2.415   2.323   3.335  1.00  0.00     0.118 C 
BRANCH  21  22
ATOM     22  N   UNL     1       1.983   3.703   3.478  1.00  0.00    -0.352 N 
ATOM     23  C   UNL     1       2.320   4.637   4.423  1.00  0.00     0.251 C 
ATOM     24  H   UNL     1       1.352   4.016   2.790  1.00  0.00     0.163 HD
ATOM     25  O   UNL     1       1.704   5.705   4.465  1.00  0.00    -0.269 OA
BRANCH  23  26
ATOM     26  C   UNL     1       3.394   4.378   5.408  1.00  0.00     0.039 A 
ATOM     27  C   UNL     1       3.206   4.790   6.731  1.00  0.00     0.014 A 
ATOM     28  C   UNL     1       4.599   3.776   5.034  1.00  0.00     0.014 A 
ATOM     29  C   UNL     1       4.200   4.554   7.685  1.00  0.00     0.010 A 
ATOM     30  C   UNL     1       5.555   3.469   6.001  1.00  0.00     0.010 A 
ATOM     31  C   UNL     1       5.373   3.868   7.334  1.00  0.00    -0.014 A 
BRANCH  31  32
ATOM     32  C   UNL     1       6.434   3.589   8.336  1.00  0.00     0.031 A 
ATOM     33  C   UNL     1       7.795   4.211   8.186  1.00  0.00     0.074 A 
ATOM     34  C   UNL     1       6.195   2.733   9.348  1.00  0.00     0.049 A 
ATOM     35  N   UNL     1       8.872   4.039   8.911  1.00  0.00    -0.248 NA
ATOM     36  C   UNL     1       7.979   5.128   7.051  1.00  0.00     0.031 C 
ATOM     37  C   UNL     1       4.932   2.032   9.584  1.00  0.00     0.029 A 
ATOM     38  N   UNL     1       7.010   2.299  10.364  1.00  0.00    -0.354 N 
ATOM     39  C   UNL     1       9.862   4.802   8.306  1.00  0.00     0.074 A 
ATOM     40  C   UNL     1       9.273   5.401   7.128  1.00  0.00     0.031 C 
ATOM     41  C   UNL     1       5.049   1.276  10.687  1.00  0.00     0.029 A 
ATOM     42  C   UNL     1       6.403   1.410  11.217  1.00  0.00     0.049 A 
ATOM     43  H   UNL     1       7.942   2.598  10.472  1.00  0.00     0.167 HD
ATOM     44  C   UNL     1      11.140   5.004   8.706  1.00  0.00     0.037 A 
ATOM     45  C   UNL     1       6.885   0.774  12.301  1.00  0.00     0.037 A 
ATOM     46  C   UNL     1      11.715   4.439   9.899  1.00  0.00     0.049 A 
ATOM     47  C   UNL     1       8.305   1.023  12.732  1.00  0.00     0.074 A 
ATOM     48  C   UNL     1      12.978   4.638  10.427  1.00  0.00     0.029 A 
ATOM     49  N   UNL     1      11.059   3.562  10.751  1.00  0.00    -0.354 N 
ATOM     50  N   UNL     1       9.211   1.798  12.190  1.00  0.00    -0.248 NA
ATOM     51  C   UNL     1       8.765   0.312  13.934  1.00  0.00     0.031 C 
ATOM     52  C   UNL     1      13.101   3.849  11.576  1.00  0.00     0.029 A 
ATOM     53  C   UNL     1      11.898   3.196  11.791  1.00  0.00     0.049 A 
ATOM     54  H   UNL     1      10.134   3.246  10.633  1.00  0.00     0.167 HD
ATOM     55  C   UNL     1      10.335   1.698  12.999  1.00  0.00     0.074 A 
ATOM     56  C   UNL     1       9.993   0.791  14.076  1.00  0.00     0.031 C 
ATOM     57  C   UNL     1      11.539   2.305  12.865  1.00  0.00     0.037 A 
BRANCH  44  58
ATOM     58  C   UNL     1      12.007   5.874   7.841  1.00  0.00     0.064 A 
ATOM     59  C   UNL     1      11.794   7.257   7.736  1.00  0.00     0.173 A 
ATOM     60  C   UNL     1      13.079   5.320   7.125  1.00  0.00     0.173 A 
ATOM     61  F   UNL     1      10.775   7.834   8.392  1.00  0.00    -0.203 F 
ATOM     62  C   UNL     1      12.597   8.046   6.917  1.00  0.00     0.198 A 
ATOM     63  C   UNL     1      13.900   6.118   6.332  1.00  0.00     0.198 A 
ATOM     64  F   UNL     1      13.333   4.005   7.195  1.00  0.00    -0.203 F 
ATOM     65  F   UNL     1      12.338   9.355   6.788  1.00  0.00    -0.200 F 
ATOM     66  C   UNL     1      13.653   7.478   6.221  1.00  0.00     0.200 A 
ATOM     67  F   UNL     1      14.928   5.569   5.670  1.00  0.00    -0.200 F 
ATOM     68  F   UNL     1      14.427   8.239   5.436  1.00  0.00    -0.200 F 
ENDBRANCH  44  58
BRANCH  45  69
ATOM     69  C   UNL     1       6.002  -0.131  13.082  1.00  0.00     0.064 A 
ATOM     70  C   UNL     1       5.552   0.236  14.358  1.00  0.00     0.173 A 
ATOM     71  C   UNL     1       5.590  -1.371  12.574  1.00  0.00     0.173 A 
ATOM     72  F   UNL     1       5.937   1.403  14.894  1.00  0.00    -0.203 F 
ATOM     73  C   UNL     1       4.736  -0.612  15.104  1.00  0.00     0.198 A 
ATOM     74  C   UNL     1       4.753  -2.206  13.311  1.00  0.00     0.198 A 
ATOM     75  F   UNL     1       5.990  -1.765  11.357  1.00  0.00    -0.203 F 
ATOM     76  F   UNL     1       4.353  -0.255  16.338  1.00  0.00    -0.200 F 
ATOM     77  C   UNL     1       4.332  -1.829  14.578  1.00  0.00     0.200 A 
ATOM     78  F   UNL     1       4.354  -3.376  12.794  1.00  0.00    -0.200 F 
ATOM     79  F   UNL     1       3.543  -2.642  15.293  1.00  0.00    -0.200 F 
ENDBRANCH  45  69
BRANCH  57  80
ATOM     80  C   UNL     1      12.562   2.051  13.933  1.00  0.00     0.064 A 
ATOM     81  C   UNL     1      13.223   0.819  14.045  1.00  0.00     0.173 A 
ATOM     82  C   UNL     1      12.912   3.070  14.832  1.00  0.00     0.173 A 
ATOM     83  F   UNL     1      12.912  -0.191  13.218  1.00  0.00    -0.203 F 
ATOM     84  C   UNL     1      14.179   0.608  15.035  1.00  0.00     0.198 A 
ATOM     85  C   UNL     1      13.889   2.864  15.802  1.00  0.00     0.198 A 
ATOM     86  F   UNL     1      12.315   4.268  14.763  1.00  0.00    -0.203 F 
ATOM     87  F   UNL     1      14.764  -0.592  15.154  1.00  0.00    -0.200 F 
ATOM     88  C   UNL     1      14.516   1.632  15.908  1.00  0.00     0.200 A 
ATOM     89  F   UNL     1      14.223   3.859  16.636  1.00  0.00    -0.200 F 
ATOM     90  F   UNL     1      15.441   1.429  16.856  1.00  0.00    -0.200 F 
ENDBRANCH  57  80
ENDBRANCH  31  32
ENDBRANCH  23  26
ENDBRANCH  21  22
ENDBRANCH  20  21
ENDBRANCH  19  20
ENDBRANCH   3  19
TORSDOF 12
