REMARK SMILES Cc1ccc(NC(=O)c2cnn3c2NC2=C(C(=O)CCC2)[C@H]3c2ccc(C(=O)NCCCNC(=O)c3ccc(-c4c5nc(c(-c6c(F)c(F)c(F)c(F)c6F)c6ccc([nH]6)c(-c6c(F)c(F)c(F)c(F)c6F)c6nc(c(-c7c(F)c(F)c(F)c(F)c7F)c7ccc4[nH]7)C=C6)C=C5)cc3)cc2)cc1
REMARK SMILES IDX 30 1 29 2 27 3 28 4 26 6 23 7 24 8 100 9 25 10 99 11 22 12
REMARK SMILES IDX 9 13 10 14 13 15 11 16 12 17 14 18 15 19 16 21 21 22 17 23
REMARK SMILES IDX 20 24 18 25 19 26 7 27 6 28 8 30 5 31 1 32 2 33 3 34 102 35
REMARK SMILES IDX 4 36 101 37 31 38 32 39 33 40 34 41 35 43 36 44 37 45 98 46
REMARK SMILES IDX 38 47 97 48 39 49 40 50 41 51 91 52 42 53 96 54 90 55 92 56
REMARK SMILES IDX 43 57 95 58 89 59 88 60 44 62 76 63 56 64 75 65 57 66 60 67
REMARK SMILES IDX 74 68 93 69 58 70 59 71 73 73 94 74 61 75 45 76 46 77 54 78
REMARK SMILES IDX 47 79 48 80 52 81 55 82 49 83 50 84 53 85 51 86 77 87 78 88
REMARK SMILES IDX 86 89 79 90 80 91 84 92 87 93 81 94 82 95 85 96 83 97 62 98
REMARK SMILES IDX 63 99 71 100 64 101 65 102 69 103 72 104 66 105 67 106
REMARK SMILES IDX 70 107 68 108
REMARK H PARENT 29 5 14 20 6 29 33 42 92 61 60 72
REMARK Flexibility Score: inf
ROOT
ATOM      1  C   UNL     1      -2.054  -2.947  -6.403  1.00  0.00     0.118 C 
ENDROOT
BRANCH   1   2
ATOM      2  N   UNL     1      -1.616  -4.214  -6.975  1.00  0.00    -0.352 N 
ATOM      3  C   UNL     1      -1.399  -5.455  -6.413  1.00  0.00     0.251 C 
ATOM      4  O   UNL     1      -1.196  -6.397  -7.179  1.00  0.00    -0.269 OA
ATOM      5  H   UNL     1      -1.444  -4.178  -7.944  1.00  0.00     0.163 HD
BRANCH   3   6
ATOM      6  C   UNL     1      -1.445  -5.721  -4.944  1.00  0.00     0.039 A 
ATOM      7  C   UNL     1      -1.834  -6.263  -2.179  1.00  0.00    -0.019 A 
ATOM      8  C   UNL     1      -2.057  -7.259  -3.145  1.00  0.00     0.007 A 
ATOM      9  C   UNL     1      -1.197  -5.090  -2.614  1.00  0.00     0.007 A 
ATOM     10  C   UNL     1      -1.873  -6.984  -4.511  1.00  0.00     0.014 A 
ATOM     11  C   UNL     1      -1.034  -4.811  -3.975  1.00  0.00     0.014 A 
BRANCH   7  12
ATOM     12  C   UNL     1      -2.453  -6.366  -0.747  1.00  0.00     0.175 C 
ATOM     13  C   UNL     1      -3.468  -2.966  -0.265  1.00  0.00     0.102 A 
ATOM     14  C   UNL     1      -2.545  -3.206   0.798  1.00  0.00     0.151 A 
ATOM     15  C   UNL     1      -3.723  -4.231  -0.747  1.00  0.00     0.142 A 
ATOM     16  N   UNL     1      -2.044  -4.447   0.795  1.00  0.00    -0.178 NA
ATOM     17  N   UNL     1      -2.706  -5.014  -0.225  1.00  0.00    -0.237 N 
ATOM     18  N   UNL     1      -4.642  -4.843  -1.559  1.00  0.00    -0.343 N 
ATOM     19  C   UNL     1      -4.821  -6.233  -1.444  1.00  0.00     0.026 C 
ATOM     20  H   UNL     1      -5.165  -4.321  -2.209  1.00  0.00     0.168 HD
ATOM     21  C   UNL     1      -3.849  -6.947  -0.822  1.00  0.00     0.044 C 
ATOM     22  C   UNL     1      -6.171  -6.849  -1.678  1.00  0.00     0.055 C 
ATOM     23  C   UNL     1      -4.350  -7.747   0.326  1.00  0.00     0.163 C 
ATOM     24  C   UNL     1      -6.713  -7.560  -0.433  1.00  0.00     0.014 C 
ATOM     25  O   UNL     1      -3.592  -8.466   0.969  1.00  0.00    -0.294 OA
ATOM     26  C   UNL     1      -5.777  -7.449   0.764  1.00  0.00     0.081 C 
BRANCH  13  27
ATOM     27  C   UNL     1      -4.065  -1.720  -0.688  1.00  0.00     0.261 C 
ATOM     28  N   UNL     1      -3.320  -0.555  -0.630  1.00  0.00    -0.322 N 
ATOM     29  H   UNL     1      -3.859   0.269  -0.646  1.00  0.00     0.170 HD
ATOM     30  O   UNL     1      -5.235  -1.664  -1.069  1.00  0.00    -0.269 OA
BRANCH  28  31
ATOM     31  C   UNL     1      -1.927  -0.334  -0.551  1.00  0.00     0.041 A 
ATOM     32  C   UNL     1       2.292   0.416   0.042  1.00  0.00     0.044 C 
ATOM     33  C   UNL     1       0.832   0.188  -0.217  1.00  0.00    -0.051 A 
ATOM     34  C   UNL     1       0.397  -1.047  -0.696  1.00  0.00     0.005 A 
ATOM     35  C   UNL     1      -0.120   1.177   0.051  1.00  0.00     0.005 A 
ATOM     36  C   UNL     1      -0.966  -1.285  -0.895  1.00  0.00     0.026 A 
ATOM     37  C   UNL     1      -1.487   0.921  -0.124  1.00  0.00     0.026 A 
ENDBRANCH  28  31
ENDBRANCH  13  27
ENDBRANCH   7  12
ENDBRANCH   3   6
ENDBRANCH   1   2
BRANCH   1  38
ATOM     38  C   UNL     1      -0.879  -2.048  -6.018  1.00  0.00     0.042 C 
BRANCH  38  39
ATOM     39  C   UNL     1      -0.401  -1.111  -7.120  1.00  0.00     0.118 C 
BRANCH  39  40
ATOM     40  N   UNL     1      -0.732   0.292  -6.878  1.00  0.00    -0.352 N 
ATOM     41  C   UNL     1      -0.287   1.427  -7.552  1.00  0.00     0.251 C 
ATOM     42  H   UNL     1      -1.355   0.458  -6.134  1.00  0.00     0.163 HD
ATOM     43  O   UNL     1      -0.706   2.524  -7.288  1.00  0.00    -0.269 OA
BRANCH  41  44
ATOM     44  C   UNL     1       0.637   1.221  -8.694  1.00  0.00     0.039 A 
ATOM     45  C   UNL     1       0.198   1.605  -9.964  1.00  0.00     0.014 A 
ATOM     46  C   UNL     1       1.765   0.423  -8.534  1.00  0.00     0.014 A 
ATOM     47  C   UNL     1       0.734   0.968 -11.079  1.00  0.00     0.010 A 
ATOM     48  C   UNL     1       2.227  -0.282  -9.628  1.00  0.00     0.010 A 
ATOM     49  C   UNL     1       1.652  -0.065 -10.887  1.00  0.00    -0.014 A 
BRANCH  49  50
ATOM     50  C   UNL     1       1.926  -1.069 -11.911  1.00  0.00     0.031 A 
ATOM     51  C   UNL     1       3.218  -1.103 -12.623  1.00  0.00     0.074 A 
ATOM     52  C   UNL     1       1.005  -2.029 -12.160  1.00  0.00     0.049 A 
ATOM     53  N   UNL     1       3.380  -1.615 -13.797  1.00  0.00    -0.248 NA
ATOM     54  C   UNL     1       4.437  -0.525 -12.075  1.00  0.00     0.031 C 
ATOM     55  C   UNL     1       1.196  -3.258 -12.928  1.00  0.00     0.029 A 
ATOM     56  N   UNL     1      -0.380  -1.981 -11.919  1.00  0.00    -0.354 N 
ATOM     57  C   UNL     1       4.731  -1.690 -14.040  1.00  0.00     0.074 A 
ATOM     58  C   UNL     1       5.343  -0.938 -12.968  1.00  0.00     0.031 C 
ATOM     59  C   UNL     1       0.001  -3.687 -13.361  1.00  0.00     0.029 A 
ATOM     60  C   UNL     1      -0.973  -2.674 -13.000  1.00  0.00     0.049 A 
ATOM     61  H   UNL     1      -0.839  -1.555 -11.159  1.00  0.00     0.167 HD
ATOM     62  C   UNL     1       5.187  -2.497 -15.043  1.00  0.00     0.037 A 
ATOM     63  C   UNL     1      -1.829  -2.066 -13.870  1.00  0.00     0.037 A 
ATOM     64  C   UNL     1       4.085  -3.134 -15.760  1.00  0.00     0.049 A 
ATOM     65  C   UNL     1      -1.407  -2.156 -15.316  1.00  0.00     0.074 A 
ATOM     66  C   UNL     1       3.517  -4.396 -15.673  1.00  0.00     0.029 A 
ATOM     67  N   UNL     1       3.212  -2.362 -16.516  1.00  0.00    -0.354 N 
ATOM     68  N   UNL     1      -0.185  -2.392 -15.700  1.00  0.00    -0.248 NA
ATOM     69  C   UNL     1      -2.317  -1.952 -16.438  1.00  0.00     0.031 C 
ATOM     70  C   UNL     1       2.292  -4.380 -16.379  1.00  0.00     0.029 A 
ATOM     71  C   UNL     1       2.115  -3.110 -16.899  1.00  0.00     0.049 A 
ATOM     72  H   UNL     1       3.354  -1.415 -16.746  1.00  0.00     0.167 HD
ATOM     73  C   UNL     1      -0.120  -2.359 -17.072  1.00  0.00     0.074 A 
ATOM     74  C   UNL     1      -1.486  -2.102 -17.485  1.00  0.00     0.031 C 
ATOM     75  C   UNL     1       1.065  -2.539 -17.729  1.00  0.00     0.037 A 
BRANCH  62  76
ATOM     76  C   UNL     1       6.628  -2.945 -15.170  1.00  0.00     0.064 A 
ATOM     77  C   UNL     1       6.955  -4.220 -15.686  1.00  0.00     0.173 A 
ATOM     78  C   UNL     1       7.733  -2.186 -14.746  1.00  0.00     0.173 A 
ATOM     79  F   UNL     1       6.034  -5.007 -16.253  1.00  0.00    -0.203 F 
ATOM     80  C   UNL     1       8.251  -4.742 -15.638  1.00  0.00     0.198 A 
ATOM     81  C   UNL     1       9.020  -2.726 -14.646  1.00  0.00     0.198 A 
ATOM     82  F   UNL     1       7.611  -0.881 -14.468  1.00  0.00    -0.203 F 
ATOM     83  F   UNL     1       8.493  -5.966 -16.128  1.00  0.00    -0.200 F 
ATOM     84  C   UNL     1       9.275  -4.012 -15.076  1.00  0.00     0.200 A 
ATOM     85  F   UNL     1      10.012  -1.988 -14.126  1.00  0.00    -0.200 F 
ATOM     86  F   UNL     1      10.506  -4.532 -14.977  1.00  0.00    -0.200 F 
ENDBRANCH  62  76
BRANCH  63  87
ATOM     87  C   UNL     1      -2.578  -0.932 -13.273  1.00  0.00     0.064 A 
ATOM     88  C   UNL     1      -3.465  -1.200 -12.213  1.00  0.00     0.173 A 
ATOM     89  C   UNL     1      -2.171   0.393 -13.460  1.00  0.00     0.173 A 
ATOM     90  F   UNL     1      -3.880  -2.457 -11.987  1.00  0.00    -0.203 F 
ATOM     91  C   UNL     1      -3.835  -0.206 -11.310  1.00  0.00     0.198 A 
ATOM     92  C   UNL     1      -2.555   1.390 -12.561  1.00  0.00     0.198 A 
ATOM     93  F   UNL     1      -1.309   0.707 -14.438  1.00  0.00    -0.203 F 
ATOM     94  F   UNL     1      -4.586  -0.517 -10.244  1.00  0.00    -0.200 F 
ATOM     95  C   UNL     1      -3.357   1.083 -11.470  1.00  0.00     0.200 A 
ATOM     96  F   UNL     1      -2.066   2.631 -12.694  1.00  0.00    -0.200 F 
ATOM     97  F   UNL     1      -3.631   2.019 -10.551  1.00  0.00    -0.200 F 
ENDBRANCH  63  87
BRANCH  75  98
ATOM     98  C   UNL     1       1.354  -2.312 -19.200  1.00  0.00     0.064 A 
ATOM     99  C   UNL     1       0.587  -1.497 -20.049  1.00  0.00     0.173 A 
ATOM    100  C   UNL     1       2.543  -2.828 -19.783  1.00  0.00     0.173 A 
ATOM    101  F   UNL     1      -0.492  -0.842 -19.605  1.00  0.00    -0.203 F 
ATOM    102  C   UNL     1       0.942  -1.268 -21.384  1.00  0.00     0.198 A 
ATOM    103  C   UNL     1       2.925  -2.548 -21.095  1.00  0.00     0.198 A 
ATOM    104  F   UNL     1       3.393  -3.598 -19.090  1.00  0.00    -0.203 F 
ATOM    105  F   UNL     1       0.149  -0.514 -22.159  1.00  0.00    -0.200 F 
ATOM    106  C   UNL     1       2.115  -1.781 -21.902  1.00  0.00     0.200 A 
ATOM    107  F   UNL     1       4.094  -3.010 -21.561  1.00  0.00    -0.200 F 
ATOM    108  F   UNL     1       2.475  -1.516 -23.165  1.00  0.00    -0.200 F 
ENDBRANCH  75  98
ENDBRANCH  49  50
ENDBRANCH  41  44
ENDBRANCH  39  40
ENDBRANCH  38  39
ENDBRANCH   1  38
TORSDOF 13
