REMARK SMILES Cc1cc(C(=O)N2CCCO[C@H](C)C2)sc1/C=C/C(=O)NCCCNC(=O)c1ccc(-c2c3nc(c(-c4c(F)c(F)c(F)c(F)c4F)c4ccc([nH]4)c(-c4c(F)c(F)c(F)c(F)c4F)c4nc(c(-c5c(F)c(F)c(F)c(F)c5F)c5ccc2[nH]5)C=C4)C=C3)cc1
REMARK SMILES IDX 17 1 18 2 16 3 1 4 2 5 3 6 4 7 15 8 5 9 6 10 7 11 8 12 9 13
REMARK SMILES IDX 14 15 12 16 13 17 11 18 10 19 19 21 20 22 21 23 22 25 23 26
REMARK SMILES IDX 24 27 25 28 26 29 27 31 28 32 29 33 90 34 30 35 89 36 31 37
REMARK SMILES IDX 32 38 33 39 83 40 34 41 88 42 82 43 84 44 35 45 87 46 81 47
REMARK SMILES IDX 80 48 36 50 68 51 48 52 67 53 49 54 52 55 66 56 85 57 50 58
REMARK SMILES IDX 51 59 65 61 86 62 53 63 37 64 38 65 46 66 39 67 40 68 44 69
REMARK SMILES IDX 47 70 41 71 42 72 45 73 43 74 69 75 70 76 78 77 71 78 72 79
REMARK SMILES IDX 76 80 79 81 73 82 74 83 77 84 75 85 54 86 55 87 63 88 56 89
REMARK SMILES IDX 57 90 61 91 64 92 58 93 59 94 62 95 60 96
REMARK H PARENT 21 24 25 30 84 49 52 60
REMARK Flexibility Score: 80.00
ROOT
ATOM      1  C   UNL     1       0.220  -2.345   0.407  1.00  0.00     0.025 C 
ATOM      2  C   UNL     1      -0.502  -3.277  -0.231  1.00  0.00     0.072 C 
ENDROOT
BRANCH   1   3
ATOM      3  C   UNL     1       0.035  -0.944   0.199  1.00  0.00     0.031 A 
ATOM      4  C   UNL     1       2.482  -0.136   0.231  1.00  0.00     0.046 C 
ATOM      5  C   UNL     1       1.000   0.058   0.167  1.00  0.00    -0.032 A 
ATOM      6  C   UNL     1       0.402   1.356   0.024  1.00  0.00     0.029 A 
ATOM      7  C   UNL     1      -0.974   1.325  -0.092  1.00  0.00     0.093 A 
ATOM      8  S   UNL     1      -1.532  -0.285  -0.059  1.00  0.00    -0.130 S 
BRANCH   7   9
ATOM      9  C   UNL     1      -1.835   2.462  -0.414  1.00  0.00     0.264 C 
ATOM     10  O   UNL     1      -1.363   3.473  -0.939  1.00  0.00    -0.268 OA
BRANCH   9  11
ATOM     11  N   UNL     1      -3.218   2.373  -0.214  1.00  0.00    -0.335 N 
BRANCH  11  12
ATOM     12  C   UNL     1      -4.078   2.958  -1.231  1.00  0.00     0.122 C 
BRANCH  12  13
ATOM     13  C   UNL     1      -5.042   4.020  -0.726  1.00  0.00     0.050 CG0
ATOM     14  G   UNL     1      -6.076   3.430   0.217  1.00  0.00     0.000 G0
ENDBRANCH  12  13
ENDBRANCH  11  12
BRANCH  11  15
ATOM     15  C   UNL     1      -3.848   1.772   0.971  1.00  0.00     0.151 C 
BRANCH  15  16
ATOM     16  C   UNL     1      -4.466   2.791   1.954  1.00  0.00     0.134 C 
ATOM     17  C   UNL     1      -3.467   3.849   2.417  1.00  0.00     0.040 C 
BRANCH  16  18
ATOM     18  O   UNL     1      -5.680   3.443   1.579  1.00  0.00    -0.377 OA
BRANCH  18  19
ATOM     19  C   UNL     1      -6.076   3.430   0.217  1.00  0.00     0.162 CG0
ATOM     20  G   UNL     1      -5.042   4.020  -0.726  1.00  0.00     0.000 G0
ENDBRANCH  18  19
ENDBRANCH  16  18
ENDBRANCH  15  16
ENDBRANCH  11  15
ENDBRANCH   9  11
ENDBRANCH   7   9
ENDBRANCH   1   3
BRANCH   2  21
ATOM     21  C   UNL     1      -0.313  -4.727  -0.029  1.00  0.00     0.244 C 
ATOM     22  O   UNL     1      -1.287  -5.441   0.193  1.00  0.00    -0.270 OA
ATOM     23  N   UNL     1       0.917  -5.288  -0.175  1.00  0.00    -0.352 N 
ATOM     24  H   UNL     1       0.954  -6.256  -0.001  1.00  0.00     0.163 HD
BRANCH  23  25
ATOM     25  C   UNL     1       2.187  -4.686  -0.546  1.00  0.00     0.118 C 
BRANCH  25  26
ATOM     26  C   UNL     1       3.143  -4.628   0.643  1.00  0.00     0.042 C 
BRANCH  26  27
ATOM     27  C   UNL     1       3.713  -5.990   1.031  1.00  0.00     0.118 C 
BRANCH  27  28
ATOM     28  N   UNL     1       4.636  -6.501   0.030  1.00  0.00    -0.352 N 
ATOM     29  C   UNL     1       5.953  -6.870   0.144  1.00  0.00     0.251 C 
ATOM     30  H   UNL     1       4.256  -6.598  -0.873  1.00  0.00     0.163 HD
ATOM     31  O   UNL     1       6.612  -7.069  -0.872  1.00  0.00    -0.269 OA
BRANCH  29  32
ATOM     32  C   UNL     1       6.590  -7.021   1.470  1.00  0.00     0.039 A 
ATOM     33  C   UNL     1       7.913  -6.595   1.629  1.00  0.00     0.014 A 
ATOM     34  C   UNL     1       5.923  -7.633   2.536  1.00  0.00     0.014 A 
ATOM     35  C   UNL     1       8.549  -6.737   2.865  1.00  0.00     0.010 A 
ATOM     36  C   UNL     1       6.535  -7.714   3.786  1.00  0.00     0.010 A 
ATOM     37  C   UNL     1       7.856  -7.275   3.961  1.00  0.00    -0.014 A 
BRANCH  37  38
ATOM     38  C   UNL     1       8.500  -7.392   5.293  1.00  0.00     0.031 A 
ATOM     39  C   UNL     1       8.761  -8.745   5.893  1.00  0.00     0.074 A 
ATOM     40  C   UNL     1       8.796  -6.277   5.988  1.00  0.00     0.049 A 
ATOM     41  N   UNL     1       9.246  -9.050   7.071  1.00  0.00    -0.248 NA
ATOM     42  C   UNL     1       8.407  -9.912   5.070  1.00  0.00     0.031 C 
ATOM     43  C   UNL     1       8.552  -4.908   5.532  1.00  0.00     0.029 A 
ATOM     44  N   UNL     1       9.356  -6.119   7.231  1.00  0.00    -0.354 N 
ATOM     45  C   UNL     1       9.239 -10.437   7.135  1.00  0.00     0.074 A 
ATOM     46  C   UNL     1       8.659 -10.915   5.898  1.00  0.00     0.031 C 
ATOM     47  C   UNL     1       8.974  -4.050   6.473  1.00  0.00     0.029 A 
ATOM     48  C   UNL     1       9.486  -4.806   7.612  1.00  0.00     0.049 A 
ATOM     49  H   UNL     1       9.637  -6.875   7.795  1.00  0.00     0.167 HD
ATOM     50  C   UNL     1       9.694 -11.240   8.127  1.00  0.00     0.037 A 
ATOM     51  C   UNL     1       9.958  -4.273   8.755  1.00  0.00     0.037 A 
ATOM     52  C   UNL     1      10.295 -10.762   9.345  1.00  0.00     0.049 A 
ATOM     53  C   UNL     1      10.464  -5.186   9.838  1.00  0.00     0.074 A 
ATOM     54  C   UNL     1      10.837 -11.495  10.386  1.00  0.00     0.029 A 
ATOM     55  N   UNL     1      10.433  -9.424   9.684  1.00  0.00    -0.354 N 
ATOM     56  N   UNL     1      10.506  -6.495   9.863  1.00  0.00    -0.248 NA
ATOM     57  C   UNL     1      10.996  -4.545  11.048  1.00  0.00     0.031 C 
ATOM     58  C   UNL     1      11.268 -10.602  11.373  1.00  0.00     0.029 A 
ATOM     59  C   UNL     1      11.037  -9.311  10.926  1.00  0.00     0.049 A 
ATOM     60  H   UNL     1      10.145  -8.667   9.125  1.00  0.00     0.167 HD
ATOM     61  C   UNL     1      11.089  -6.835  11.075  1.00  0.00     0.074 A 
ATOM     62  C   UNL     1      11.400  -5.593  11.752  1.00  0.00     0.031 C 
ATOM     63  C   UNL     1      11.344  -8.066  11.583  1.00  0.00     0.037 A 
BRANCH  50  64
ATOM     64  C   UNL     1       9.563 -12.723   7.934  1.00  0.00     0.064 A 
ATOM     65  C   UNL     1      10.346 -13.414   6.997  1.00  0.00     0.173 A 
ATOM     66  C   UNL     1       8.670 -13.469   8.719  1.00  0.00     0.173 A 
ATOM     67  F   UNL     1      11.207 -12.747   6.214  1.00  0.00    -0.203 F 
ATOM     68  C   UNL     1      10.219 -14.791   6.832  1.00  0.00     0.198 A 
ATOM     69  C   UNL     1       8.566 -14.850   8.571  1.00  0.00     0.198 A 
ATOM     70  F   UNL     1       7.902 -12.859   9.634  1.00  0.00    -0.203 F 
ATOM     71  F   UNL     1      10.942 -15.421   5.896  1.00  0.00    -0.200 F 
ATOM     72  C   UNL     1       9.335 -15.508   7.623  1.00  0.00     0.200 A 
ATOM     73  F   UNL     1       7.720 -15.544   9.345  1.00  0.00    -0.200 F 
ATOM     74  F   UNL     1       9.217 -16.834   7.467  1.00  0.00    -0.200 F 
ENDBRANCH  50  64
BRANCH  51  75
ATOM     75  C   UNL     1       9.998  -2.797   8.919  1.00  0.00     0.064 A 
ATOM     76  C   UNL     1      11.218  -2.107   8.915  1.00  0.00     0.173 A 
ATOM     77  C   UNL     1       8.824  -2.048   9.077  1.00  0.00     0.173 A 
ATOM     78  F   UNL     1      12.369  -2.784   8.786  1.00  0.00    -0.203 F 
ATOM     79  C   UNL     1      11.264  -0.724   9.078  1.00  0.00     0.198 A 
ATOM     80  C   UNL     1       8.868  -0.662   9.214  1.00  0.00     0.198 A 
ATOM     81  F   UNL     1       7.631  -2.661   9.082  1.00  0.00    -0.203 F 
ATOM     82  F   UNL     1      12.445  -0.094   9.110  1.00  0.00    -0.200 F 
ATOM     83  C   UNL     1      10.088  -0.002   9.222  1.00  0.00     0.200 A 
ATOM     84  F   UNL     1       7.730   0.034   9.338  1.00  0.00    -0.200 F 
ATOM     85  F   UNL     1      10.132   1.328   9.372  1.00  0.00    -0.200 F 
ENDBRANCH  51  75
BRANCH  63  86
ATOM     86  C   UNL     1      12.019  -8.130  12.921  1.00  0.00     0.064 A 
ATOM     87  C   UNL     1      11.337  -7.810  14.104  1.00  0.00     0.173 A 
ATOM     88  C   UNL     1      13.354  -8.550  13.024  1.00  0.00     0.173 A 
ATOM     89  F   UNL     1      10.065  -7.387  14.056  1.00  0.00    -0.203 F 
ATOM     90  C   UNL     1      11.975  -7.886  15.339  1.00  0.00     0.198 A 
ATOM     91  C   UNL     1      13.979  -8.652  14.263  1.00  0.00     0.198 A 
ATOM     92  F   UNL     1      14.048  -8.873  11.922  1.00  0.00    -0.203 F 
ATOM     93  F   UNL     1      11.318  -7.532  16.453  1.00  0.00    -0.200 F 
ATOM     94  C   UNL     1      13.292  -8.313  15.418  1.00  0.00     0.200 A 
ATOM     95  F   UNL     1      15.248  -9.076  14.338  1.00  0.00    -0.200 F 
ATOM     96  F   UNL     1      13.902  -8.391  16.609  1.00  0.00    -0.200 F 
ENDBRANCH  63  86
ENDBRANCH  37  38
ENDBRANCH  29  32
ENDBRANCH  27  28
ENDBRANCH  26  27
ENDBRANCH  25  26
ENDBRANCH  23  25
ENDBRANCH   2  21
TORSDOF 13
