REMARK SMILES C[NH+]1CCC2(CC1)OC[C@H](C(=O)NCCCNC(=O)c1ccc(-c3c4nc(c(-c5c(F)c(F)c(F)c(F)c5F)c5ccc([nH]5)c(-c5c(F)c(F)c(F)c(F)c5F)c5nc(c(-c6c(F)c(F)c(F)c(F)c6F)c6ccc3[nH]6)C=C5)C=C4)cc1)N2C(=O)c1cc(C(F)(F)F)cc(C(F)(F)F)c1
REMARK SMILES IDX 14 1 13 2 11 3 12 4 10 6 1 7 2 8 3 9 7 10 4 12 6 13 5 14
REMARK SMILES IDX 8 15 83 16 9 17 84 18 85 19 86 20 87 21 99 22 88 23 94 24
REMARK SMILES IDX 93 25 89 26 90 27 91 28 92 29 95 30 96 31 97 32 98 33 15 34
REMARK SMILES IDX 16 35 17 36 18 37 19 39 20 40 21 41 82 42 22 43 81 44 23 45
REMARK SMILES IDX 24 46 25 47 75 48 26 49 80 50 74 51 76 52 27 53 79 54 73 55
REMARK SMILES IDX 72 56 28 58 60 59 40 60 59 61 41 62 44 63 58 64 77 65 42 66
REMARK SMILES IDX 43 67 57 69 78 70 45 71 29 72 30 73 38 74 31 75 32 76 36 77
REMARK SMILES IDX 39 78 33 79 34 80 37 81 35 82 61 83 62 84 70 85 63 86 64 87
REMARK SMILES IDX 68 88 71 89 65 90 66 91 69 92 67 93 46 94 47 95 55 96 48 97
REMARK SMILES IDX 49 98 53 99 56 100 50 101 51 102 54 103 52 104
REMARK H PARENT 13 5 2 11 17 38 76 57 44 68
REMARK Flexibility Score: inf
ROOT
ATOM      1  C   UNL     1      -4.619   0.091   0.495  1.00  0.00     0.117 C 
ENDROOT
BRANCH   1   2
ATOM      2  N   UNL     1      -5.076  -0.437  -0.779  1.00  0.00    -0.354 N 
ATOM      3  C   UNL     1      -4.687  -0.233  -2.072  1.00  0.00     0.245 C 
ATOM      4  O   UNL     1      -5.071  -1.108  -2.860  1.00  0.00    -0.273 OA
ATOM      5  H   UNL     1      -5.821  -1.075  -0.692  1.00  0.00     0.163 HD
BRANCH   3   6
ATOM      6  C   UNL     1      -3.777   0.923  -2.583  1.00  0.00     0.203 C 
ATOM      7  C   UNL     1       1.484   0.235   0.838  1.00  0.00     0.332 C 
ATOM      8  N   UNL     1       0.923  -0.005  -0.484  1.00  0.00    -0.337 N 
ATOM      9  C   UNL     1      -0.298  -0.787  -0.420  1.00  0.00     0.267 C 
ATOM     10  C   UNL     1       0.890   1.194  -1.320  1.00  0.00     0.267 C 
ATOM     11  H   UNL     1       1.568  -0.606  -0.997  1.00  0.00     0.347 HD
ATOM     12  C   UNL     1      -1.570   0.016  -0.366  1.00  0.00     0.120 C 
ATOM     13  C   UNL     1      -0.423   1.952  -1.463  1.00  0.00     0.120 C 
ATOM     14  C   UNL     1      -1.697   1.111  -1.433  1.00  0.00     0.155 C 
ATOM     15  O   UNL     1      -2.672   2.080  -0.895  1.00  0.00    -0.352 OA
ATOM     16  N   UNL     1      -2.342   0.649  -2.677  1.00  0.00    -0.295 N 
ATOM     17  C   UNL     1      -3.800   2.183  -1.777  1.00  0.00     0.198 C 
BRANCH  16  18
ATOM     18  C   UNL     1      -1.870   0.156  -3.889  1.00  0.00     0.256 C 
ATOM     19  O   UNL     1      -2.597  -0.044  -4.861  1.00  0.00    -0.269 OA
BRANCH  18  20
ATOM     20  C   UNL     1      -0.440  -0.096  -4.125  1.00  0.00     0.041 A 
ATOM     21  C   UNL     1       0.310   0.792  -4.904  1.00  0.00     0.027 A 
ATOM     22  C   UNL     1       0.146  -1.263  -3.642  1.00  0.00     0.027 A 
ATOM     23  C   UNL     1       1.690   0.580  -5.084  1.00  0.00     0.057 A 
ATOM     24  C   UNL     1       1.540  -1.422  -3.685  1.00  0.00     0.057 A 
ATOM     25  C   UNL     1       2.301  -0.506  -4.431  1.00  0.00     0.026 A 
BRANCH  23  26
ATOM     26  C   UNL     1       2.505   1.526  -5.937  1.00  0.00     0.416 C 
ATOM     27  F   UNL     1       2.174   1.452  -7.253  1.00  0.00    -0.166 F 
ATOM     28  F   UNL     1       2.336   2.827  -5.574  1.00  0.00    -0.166 F 
ATOM     29  F   UNL     1       3.845   1.292  -5.872  1.00  0.00    -0.166 F 
ENDBRANCH  23  26
BRANCH  24  30
ATOM     30  C   UNL     1       2.226  -2.478  -2.846  1.00  0.00     0.416 C 
ATOM     31  F   UNL     1       2.904  -3.385  -3.599  1.00  0.00    -0.166 F 
ATOM     32  F   UNL     1       3.146  -1.942  -1.995  1.00  0.00    -0.166 F 
ATOM     33  F   UNL     1       1.371  -3.197  -2.066  1.00  0.00    -0.166 F 
ENDBRANCH  24  30
ENDBRANCH  18  20
ENDBRANCH  16  18
ENDBRANCH   3   6
ENDBRANCH   1   2
BRANCH   1  34
ATOM     34  C   UNL     1      -5.670   0.814   1.306  1.00  0.00     0.042 C 
BRANCH  34  35
ATOM     35  C   UNL     1      -6.636  -0.126   1.998  1.00  0.00     0.118 C 
BRANCH  35  36
ATOM     36  N   UNL     1      -5.991  -0.968   3.003  1.00  0.00    -0.352 N 
ATOM     37  C   UNL     1      -6.101  -0.983   4.375  1.00  0.00     0.251 C 
ATOM     38  H   UNL     1      -5.370  -1.639   2.637  1.00  0.00     0.163 HD
ATOM     39  O   UNL     1      -5.323  -1.652   5.041  1.00  0.00    -0.269 OA
BRANCH  37  40
ATOM     40  C   UNL     1      -7.139  -0.172   5.047  1.00  0.00     0.039 A 
ATOM     41  C   UNL     1      -6.833   0.472   6.248  1.00  0.00     0.014 A 
ATOM     42  C   UNL     1      -8.412  -0.043   4.493  1.00  0.00     0.014 A 
ATOM     43  C   UNL     1      -7.777   1.316   6.839  1.00  0.00     0.010 A 
ATOM     44  C   UNL     1      -9.299   0.891   5.008  1.00  0.00     0.010 A 
ATOM     45  C   UNL     1      -8.997   1.573   6.194  1.00  0.00    -0.014 A 
BRANCH  45  46
ATOM     46  C   UNL     1      -9.985   2.536   6.741  1.00  0.00     0.031 A 
ATOM     47  C   UNL     1     -11.371   2.069   7.090  1.00  0.00     0.074 A 
ATOM     48  C   UNL     1      -9.661   3.840   6.841  1.00  0.00     0.049 A 
ATOM     49  N   UNL     1     -12.407   2.766   7.483  1.00  0.00    -0.248 NA
ATOM     50  C   UNL     1     -11.642   0.629   6.943  1.00  0.00     0.031 C 
ATOM     51  C   UNL     1      -8.368   4.423   6.479  1.00  0.00     0.029 A 
ATOM     52  N   UNL     1     -10.401   4.915   7.265  1.00  0.00    -0.354 N 
ATOM     53  C   UNL     1     -13.448   1.855   7.609  1.00  0.00     0.074 A 
ATOM     54  C   UNL     1     -12.942   0.569   7.186  1.00  0.00     0.031 C 
ATOM     55  C   UNL     1      -8.395   5.742   6.725  1.00  0.00     0.029 A 
ATOM     56  C   UNL     1      -9.720   6.107   7.214  1.00  0.00     0.049 A 
ATOM     57  H   UNL     1     -11.332   4.840   7.576  1.00  0.00     0.167 HD
ATOM     58  C   UNL     1     -14.705   2.067   8.065  1.00  0.00     0.037 A 
ATOM     59  C   UNL     1     -10.124   7.355   7.518  1.00  0.00     0.037 A 
ATOM     60  C   UNL     1     -15.193   3.345   8.511  1.00  0.00     0.049 A 
ATOM     61  C   UNL     1     -11.530   7.566   8.014  1.00  0.00     0.074 A 
ATOM     62  C   UNL     1     -16.427   3.656   9.052  1.00  0.00     0.029 A 
ATOM     63  N   UNL     1     -14.466   4.526   8.464  1.00  0.00    -0.354 N 
ATOM     64  N   UNL     1     -12.483   6.685   8.200  1.00  0.00    -0.248 NA
ATOM     65  C   UNL     1     -11.915   8.944   8.346  1.00  0.00     0.031 C 
ATOM     66  C   UNL     1     -16.469   5.035   9.278  1.00  0.00     0.029 A 
ATOM     67  C   UNL     1     -15.237   5.574   8.940  1.00  0.00     0.049 A 
ATOM     68  H   UNL     1     -13.540   4.608   8.140  1.00  0.00     0.167 HD
ATOM     69  C   UNL     1     -13.567   7.394   8.700  1.00  0.00     0.074 A 
ATOM     70  C   UNL     1     -13.147   8.776   8.803  1.00  0.00     0.031 C 
ATOM     71  C   UNL     1     -14.799   6.943   9.043  1.00  0.00     0.037 A 
BRANCH  58  72
ATOM     72  C   UNL     1     -15.638   0.890   8.110  1.00  0.00     0.064 A 
ATOM     73  C   UNL     1     -15.437  -0.179   8.997  1.00  0.00     0.173 A 
ATOM     74  C   UNL     1     -16.766   0.844   7.277  1.00  0.00     0.173 A 
ATOM     75  F   UNL     1     -14.366  -0.193   9.806  1.00  0.00    -0.203 F 
ATOM     76  C   UNL     1     -16.310  -1.263   9.026  1.00  0.00     0.198 A 
ATOM     77  C   UNL     1     -17.658  -0.224   7.334  1.00  0.00     0.198 A 
ATOM     78  F   UNL     1     -17.011   1.841   6.412  1.00  0.00    -0.203 F 
ATOM     79  F   UNL     1     -16.064  -2.298   9.841  1.00  0.00    -0.200 F 
ATOM     80  C   UNL     1     -17.424  -1.281   8.201  1.00  0.00     0.200 A 
ATOM     81  F   UNL     1     -18.742  -0.233   6.546  1.00  0.00    -0.200 F 
ATOM     82  F   UNL     1     -18.269  -2.320   8.236  1.00  0.00    -0.200 F 
ENDBRANCH  58  72
BRANCH  59  83
ATOM     83  C   UNL     1      -9.182   8.498   7.385  1.00  0.00     0.064 A 
ATOM     84  C   UNL     1      -8.717   9.184   8.516  1.00  0.00     0.173 A 
ATOM     85  C   UNL     1      -8.733   8.934   6.129  1.00  0.00     0.173 A 
ATOM     86  F   UNL     1      -9.131   8.817   9.738  1.00  0.00    -0.203 F 
ATOM     87  C   UNL     1      -7.861  10.277   8.395  1.00  0.00     0.198 A 
ATOM     88  C   UNL     1      -7.851  10.007   6.012  1.00  0.00     0.198 A 
ATOM     89  F   UNL     1      -9.140   8.309   5.015  1.00  0.00    -0.203 F 
ATOM     90  F   UNL     1      -7.475  10.946   9.490  1.00  0.00    -0.200 F 
ATOM     91  C   UNL     1      -7.425  10.684   7.144  1.00  0.00     0.200 A 
ATOM     92  F   UNL     1      -7.417  10.386   4.802  1.00  0.00    -0.200 F 
ATOM     93  F   UNL     1      -6.599  11.733   7.029  1.00  0.00    -0.200 F 
ENDBRANCH  59  83
BRANCH  71  94
ATOM     94  C   UNL     1     -15.769   7.944   9.600  1.00  0.00     0.064 A 
ATOM     95  C   UNL     1     -16.348   8.939   8.798  1.00  0.00     0.173 A 
ATOM     96  C   UNL     1     -16.160   7.877  10.947  1.00  0.00     0.173 A 
ATOM     97  F   UNL     1     -15.997   9.055   7.508  1.00  0.00    -0.203 F 
ATOM     98  C   UNL     1     -17.259   9.846   9.331  1.00  0.00     0.198 A 
ATOM     99  C   UNL     1     -17.098   8.763  11.467  1.00  0.00     0.198 A 
ATOM    100  F   UNL     1     -15.643   6.939  11.755  1.00  0.00    -0.203 F 
ATOM    101  F   UNL     1     -17.759  10.821   8.559  1.00  0.00    -0.200 F 
ATOM    102  C   UNL     1     -17.641   9.752  10.661  1.00  0.00     0.200 A 
ATOM    103  F   UNL     1     -17.479   8.658  12.748  1.00  0.00    -0.200 F 
ATOM    104  F   UNL     1     -18.527  10.620  11.169  1.00  0.00    -0.200 F 
ENDBRANCH  71  94
ENDBRANCH  45  46
ENDBRANCH  37  40
ENDBRANCH  35  36
ENDBRANCH  34  35
ENDBRANCH   1  34
TORSDOF 14
