REMARK SMILES CC1(C)C[C@@]([NH2+]CCN=[N+]=[N-])(C(=O)NCCCNC(=O)c2ccc(-c3c4nc(c(-c5c(F)c(F)c(F)c(F)c5F)c5ccc([nH]5)c(-c5c(F)c(F)c(F)c(F)c5F)c5nc(c(-c6c(F)c(F)c(F)c(F)c6F)c6ccc3[nH]6)C=C5)C=C4)cc2)C(C)(C)O1
REMARK SMILES IDX 15 1 14 2 12 3 13 4 5 6 1 7 2 8 3 9 4 10 87 11 84 12 85 13
REMARK SMILES IDX 86 14 6 15 7 18 8 19 9 20 10 21 11 22 16 23 17 24 18 25
REMARK SMILES IDX 19 26 20 28 21 29 22 30 83 31 23 32 82 33 24 34 25 35 26 36
REMARK SMILES IDX 76 37 27 38 81 39 75 40 77 41 28 42 80 43 74 44 73 45 29 47
REMARK SMILES IDX 61 48 41 49 60 50 42 51 45 52 59 53 78 54 43 55 44 56 58 58
REMARK SMILES IDX 79 59 46 60 30 61 31 62 39 63 32 64 33 65 37 66 40 67 34 68
REMARK SMILES IDX 35 69 38 70 36 71 62 72 63 73 71 74 64 75 65 76 69 77 72 78
REMARK SMILES IDX 66 79 67 80 70 81 68 82 47 83 48 84 56 85 49 86 50 87 54 88
REMARK SMILES IDX 57 89 51 90 52 91 55 92 53 93
REMARK H PARENT 14 5 6 16 6 17 18 27 77 46 45 57
REMARK Flexibility Score: inf
ROOT
ATOM      1  C   UNL     1      -3.451   0.598  -2.810  1.00  0.00     0.118 C 
ENDROOT
BRANCH   1   2
ATOM      2  N   UNL     1      -3.401   1.908  -2.191  1.00  0.00    -0.351 N 
ATOM      3  C   UNL     1      -2.309   2.702  -1.937  1.00  0.00     0.284 C 
ATOM      4  O   UNL     1      -2.547   3.844  -1.546  1.00  0.00    -0.268 OA
ATOM      5  H   UNL     1      -4.269   2.280  -1.914  1.00  0.00     0.163 HD
BRANCH   3   6
ATOM      6  C   UNL     1      -0.865   2.152  -2.237  1.00  0.00     0.206 C 
ATOM      7  C   UNL     1       1.089   0.538   0.440  1.00  0.00     0.042 C 
ATOM      8  C   UNL     1       0.872   0.869  -1.042  1.00  0.00     0.070 C 
ATOM      9  C   UNL     1       1.677  -0.150  -1.857  1.00  0.00     0.042 C 
ATOM     10  C   UNL     1      -0.621   0.900  -1.373  1.00  0.00     0.117 C 
ATOM     11  O   UNL     1       1.386   2.176  -1.337  1.00  0.00    -0.362 OA
ATOM     12  C   UNL     1       0.296   3.073  -1.706  1.00  0.00     0.127 C 
ATOM     13  C   UNL     1      -0.007   3.871  -0.421  1.00  0.00     0.049 C 
ATOM     14  C   UNL     1       0.851   4.056  -2.743  1.00  0.00     0.049 C 
BRANCH   6  15
ATOM     15  N   UNL     1      -0.889   1.955  -3.717  1.00  0.00    -0.331 N 
ATOM     16  H   UNL     1      -0.656   2.856  -4.135  1.00  0.00     0.347 HD
ATOM     17  H   UNL     1      -1.823   1.579  -3.881  1.00  0.00     0.347 HD
BRANCH  15  18
ATOM     18  C   UNL     1      -0.030   0.971  -4.347  1.00  0.00     0.267 C 
BRANCH  18  19
ATOM     19  C   UNL     1      -0.428   0.722  -5.815  1.00  0.00     0.152 C 
BRANCH  19  20
ATOM     20  N   UNL     1       0.229   1.667  -6.729  1.00  0.00    -0.088 NA
ATOM     21  N   UNL     1      -0.112   2.859  -6.630  1.00  0.00     0.001 N 
ATOM     22  N   UNL     1      -0.418   3.947  -6.509  1.00  0.00    -0.003 NA
ENDBRANCH  19  20
ENDBRANCH  18  19
ENDBRANCH  15  18
ENDBRANCH   6  15
ENDBRANCH   3   6
ENDBRANCH   1   2
BRANCH   1  23
ATOM     23  C   UNL     1      -3.827  -0.478  -1.808  1.00  0.00     0.042 C 
BRANCH  23  24
ATOM     24  C   UNL     1      -5.321  -0.507  -1.557  1.00  0.00     0.118 C 
BRANCH  24  25
ATOM     25  N   UNL     1      -6.055  -0.897  -2.758  1.00  0.00    -0.352 N 
ATOM     26  C   UNL     1      -6.741  -2.053  -3.026  1.00  0.00     0.251 C 
ATOM     27  H   UNL     1      -6.057  -0.231  -3.483  1.00  0.00     0.163 HD
ATOM     28  O   UNL     1      -7.032  -2.347  -4.181  1.00  0.00    -0.269 OA
BRANCH  26  29
ATOM     29  C   UNL     1      -7.124  -2.938  -1.912  1.00  0.00     0.039 A 
ATOM     30  C   UNL     1      -7.062  -4.322  -2.078  1.00  0.00     0.014 A 
ATOM     31  C   UNL     1      -7.547  -2.388  -0.700  1.00  0.00     0.014 A 
ATOM     32  C   UNL     1      -7.372  -5.152  -1.002  1.00  0.00     0.010 A 
ATOM     33  C   UNL     1      -7.730  -3.207   0.400  1.00  0.00     0.010 A 
ATOM     34  C   UNL     1      -7.672  -4.599   0.254  1.00  0.00    -0.014 A 
BRANCH  34  35
ATOM     35  C   UNL     1      -7.970  -5.451   1.427  1.00  0.00     0.031 A 
ATOM     36  C   UNL     1      -9.311  -5.346   2.099  1.00  0.00     0.074 A 
ATOM     37  C   UNL     1      -7.013  -6.258   1.922  1.00  0.00     0.049 A 
ATOM     38  N   UNL     1      -9.742  -5.938   3.183  1.00  0.00    -0.248 NA
ATOM     39  C   UNL     1     -10.286  -4.422   1.495  1.00  0.00     0.031 C 
ATOM     40  C   UNL     1      -5.659  -6.397   1.381  1.00  0.00     0.029 A 
ATOM     41  N   UNL     1      -7.030  -7.107   2.997  1.00  0.00    -0.354 N 
ATOM     42  C   UNL     1     -11.023  -5.446   3.394  1.00  0.00     0.074 A 
ATOM     43  C   UNL     1     -11.274  -4.454   2.374  1.00  0.00     0.031 C 
ATOM     44  C   UNL     1      -4.987  -7.304   2.107  1.00  0.00     0.029 A 
ATOM     45  C   UNL     1      -5.844  -7.772   3.191  1.00  0.00     0.049 A 
ATOM     46  H   UNL     1      -7.817  -7.229   3.576  1.00  0.00     0.167 HD
ATOM     47  C   UNL     1     -11.921  -5.813   4.338  1.00  0.00     0.037 A 
ATOM     48  C   UNL     1      -5.490  -8.653   4.145  1.00  0.00     0.037 A 
ATOM     49  C   UNL     1     -11.667  -6.820   5.332  1.00  0.00     0.049 A 
ATOM     50  C   UNL     1      -6.503  -9.034   5.191  1.00  0.00     0.074 A 
ATOM     51  C   UNL     1     -12.525  -7.314   6.297  1.00  0.00     0.029 A 
ATOM     52  N   UNL     1     -10.459  -7.484   5.489  1.00  0.00    -0.354 N 
ATOM     53  N   UNL     1      -7.738  -8.619   5.339  1.00  0.00    -0.248 NA
ATOM     54  C   UNL     1      -6.074 -10.010   6.201  1.00  0.00     0.031 C 
ATOM     55  C   UNL     1     -11.816  -8.231   7.080  1.00  0.00     0.029 A 
ATOM     56  C   UNL     1     -10.539  -8.363   6.557  1.00  0.00     0.049 A 
ATOM     57  H   UNL     1      -9.663  -7.351   4.925  1.00  0.00     0.167 HD
ATOM     58  C   UNL     1      -8.245  -9.308   6.432  1.00  0.00     0.074 A 
ATOM     59  C   UNL     1      -7.186 -10.178   6.901  1.00  0.00     0.031 C 
ATOM     60  C   UNL     1      -9.475  -9.229   6.999  1.00  0.00     0.037 A 
BRANCH  47  61
ATOM     61  C   UNL     1     -13.256  -5.122   4.337  1.00  0.00     0.064 A 
ATOM     62  C   UNL     1     -14.181  -5.299   3.296  1.00  0.00     0.173 A 
ATOM     63  C   UNL     1     -13.627  -4.294   5.406  1.00  0.00     0.173 A 
ATOM     64  F   UNL     1     -13.873  -6.069   2.241  1.00  0.00    -0.203 F 
ATOM     65  C   UNL     1     -15.411  -4.647   3.309  1.00  0.00     0.198 A 
ATOM     66  C   UNL     1     -14.874  -3.673   5.435  1.00  0.00     0.198 A 
ATOM     67  F   UNL     1     -12.784  -4.090   6.430  1.00  0.00    -0.203 F 
ATOM     68  F   UNL     1     -16.252  -4.785   2.275  1.00  0.00    -0.200 F 
ATOM     69  C   UNL     1     -15.760  -3.842   4.383  1.00  0.00     0.200 A 
ATOM     70  F   UNL     1     -15.215  -2.907   6.481  1.00  0.00    -0.200 F 
ATOM     71  F   UNL     1     -16.948  -3.223   4.399  1.00  0.00    -0.200 F 
ENDBRANCH  47  61
BRANCH  48  72
ATOM     72  C   UNL     1      -4.128  -9.249   4.141  1.00  0.00     0.064 A 
ATOM     73  C   UNL     1      -3.939 -10.615   3.885  1.00  0.00     0.173 A 
ATOM     74  C   UNL     1      -2.988  -8.473   4.398  1.00  0.00     0.173 A 
ATOM     75  F   UNL     1      -4.998 -11.404   3.647  1.00  0.00    -0.203 F 
ATOM     76  C   UNL     1      -2.668 -11.186   3.915  1.00  0.00     0.198 A 
ATOM     77  C   UNL     1      -1.715  -9.037   4.394  1.00  0.00     0.198 A 
ATOM     78  F   UNL     1      -3.111  -7.159   4.639  1.00  0.00    -0.203 F 
ATOM     79  F   UNL     1      -2.524 -12.503   3.721  1.00  0.00    -0.200 F 
ATOM     80  C   UNL     1      -1.557 -10.396   4.165  1.00  0.00     0.200 A 
ATOM     81  F   UNL     1      -0.642  -8.266   4.615  1.00  0.00    -0.200 F 
ATOM     82  F   UNL     1      -0.335 -10.944   4.191  1.00  0.00    -0.200 F 
ENDBRANCH  48  72
BRANCH  60  83
ATOM     83  C   UNL     1      -9.760 -10.140   8.158  1.00  0.00     0.064 A 
ATOM     84  C   UNL     1      -9.152  -9.960   9.409  1.00  0.00     0.173 A 
ATOM     85  C   UNL     1     -10.691 -11.182   8.023  1.00  0.00     0.173 A 
ATOM     86  F   UNL     1      -8.245  -8.988   9.586  1.00  0.00    -0.203 F 
ATOM     87  C   UNL     1      -9.444 -10.809  10.474  1.00  0.00     0.198 A 
ATOM     88  C   UNL     1     -11.009 -12.003   9.100  1.00  0.00     0.198 A 
ATOM     89  F   UNL     1     -11.308 -11.392   6.850  1.00  0.00    -0.203 F 
ATOM     90  F   UNL     1      -8.810 -10.653  11.644  1.00  0.00    -0.200 F 
ATOM     91  C   UNL     1     -10.379 -11.822  10.322  1.00  0.00     0.200 A 
ATOM     92  F   UNL     1     -11.927 -12.969   8.956  1.00  0.00    -0.200 F 
ATOM     93  F   UNL     1     -10.667 -12.630  11.351  1.00  0.00    -0.200 F 
ENDBRANCH  60  83
ENDBRANCH  34  35
ENDBRANCH  26  29
ENDBRANCH  24  25
ENDBRANCH  23  24
ENDBRANCH   1  23
TORSDOF 14
