REMARK SMILES CC1=C(C)C[C@@H](C(=O)NCCCNC(=O)c2ccc(-c3c4nc(c(-c5c(F)c(F)c(F)c(F)c5F)c5ccc([nH]5)c(-c5c(F)c(F)c(F)c(F)c5F)c5nc(c(-c6c(F)c(F)c(F)c(F)c6F)c6ccc3[nH]6)C=C5)C=C4)cc2)[C@@H](C(=O)N2CCN(c3cccc(C(F)(F)F)c3)CC2)C1
REMARK SMILES IDX 10 1 9 2 7 3 8 4 6 6 1 7 2 8 3 9 98 10 4 11 5 12 79 13 80 14
REMARK SMILES IDX 81 15 82 16 83 17 97 18 84 19 96 20 85 21 86 22 87 23 95 24
REMARK SMILES IDX 88 25 90 26 89 27 91 28 92 29 93 30 94 31 11 32 12 33 13 34
REMARK SMILES IDX 14 35 15 37 16 38 17 39 78 40 18 41 77 42 19 43 20 44 21 45
REMARK SMILES IDX 71 46 22 47 76 48 70 49 72 50 23 51 75 52 69 53 68 54 24 56
REMARK SMILES IDX 56 57 36 58 55 59 37 60 40 61 54 62 73 63 38 64 39 65 53 67
REMARK SMILES IDX 74 68 41 69 25 70 26 71 34 72 27 73 28 74 32 75 35 76 29 77
REMARK SMILES IDX 30 78 33 79 31 80 57 81 58 82 66 83 59 84 60 85 64 86 67 87
REMARK SMILES IDX 61 88 62 89 65 90 63 91 42 92 43 93 51 94 44 95 45 96 49 97
REMARK SMILES IDX 52 98 46 99 47 100 50 101 48 102
REMARK H PARENT 9 5 13 36 72 55 40 66
REMARK Flexibility Score: inf
ROOT
ATOM      1  C   UNL     1       2.774  -1.002   3.663  1.00  0.00     0.117 C 
ENDROOT
BRANCH   1   2
ATOM      2  N   UNL     1       2.098  -0.877   4.936  1.00  0.00    -0.356 N 
ATOM      3  C   UNL     1       0.817  -0.608   5.289  1.00  0.00     0.224 C 
ATOM      4  O   UNL     1       0.529  -0.803   6.478  1.00  0.00    -0.275 OA
ATOM      5  H   UNL     1       2.693  -1.018   5.707  1.00  0.00     0.163 HD
BRANCH   3   6
ATOM      6  C   UNL     1      -0.282  -0.136   4.325  1.00  0.00     0.095 C 
ATOM      7  C   UNL     1       0.644   0.158   0.002  1.00  0.00     0.039 C 
ATOM      8  C   UNL     1       0.142  -0.013   1.415  1.00  0.00    -0.074 C 
ATOM      9  C   UNL     1      -0.206  -1.191   1.967  1.00  0.00    -0.074 C 
ATOM     10  C   UNL     1       0.069   1.285   2.176  1.00  0.00     0.045 C 
ATOM     11  C   UNL     1      -0.088  -2.534   1.288  1.00  0.00     0.039 C 
ATOM     12  C   UNL     1      -0.711  -1.269   3.385  1.00  0.00     0.045 C 
ATOM     13  C   UNL     1      -0.204   1.280   3.699  1.00  0.00     0.095 C 
BRANCH  13  14
ATOM     14  C   UNL     1       0.760   2.244   4.426  1.00  0.00     0.226 C 
ATOM     15  O   UNL     1       1.402   1.912   5.422  1.00  0.00    -0.275 OA
ATOM     16  N   UNL     1       0.979   3.497   3.892  1.00  0.00    -0.339 N 
ATOM     17  C   UNL     1       2.313   4.086   4.046  1.00  0.00     0.141 C 
ATOM     18  C   UNL     1       0.034   4.341   3.152  1.00  0.00     0.141 C 
ATOM     19  C   UNL     1       2.916   4.308   2.651  1.00  0.00     0.138 C 
ATOM     20  C   UNL     1       0.590   4.812   1.789  1.00  0.00     0.138 C 
ATOM     21  N   UNL     1       2.018   5.145   1.849  1.00  0.00    -0.368 N 
BRANCH  21  22
ATOM     22  C   UNL     1       2.474   6.399   1.510  1.00  0.00     0.037 A 
ATOM     23  C   UNL     1       3.259   6.552   0.365  1.00  0.00     0.026 A 
ATOM     24  C   UNL     1       2.245   7.510   2.327  1.00  0.00     0.039 A 
ATOM     25  C   UNL     1       3.798   7.790   0.032  1.00  0.00     0.003 A 
ATOM     26  C   UNL     1       2.803   8.761   2.019  1.00  0.00     0.058 A 
ATOM     27  C   UNL     1       3.576   8.889   0.858  1.00  0.00     0.013 A 
BRANCH  26  28
ATOM     28  C   UNL     1       2.606   9.949   2.924  1.00  0.00     0.416 C 
ATOM     29  F   UNL     1       3.780  10.419   3.430  1.00  0.00    -0.166 F 
ATOM     30  F   UNL     1       2.027  11.002   2.283  1.00  0.00    -0.166 F 
ATOM     31  F   UNL     1       1.815   9.689   4.002  1.00  0.00    -0.166 F 
ENDBRANCH  26  28
ENDBRANCH  21  22
ENDBRANCH  13  14
ENDBRANCH   3   6
ENDBRANCH   1   2
BRANCH   1  32
ATOM     32  C   UNL     1       3.433   0.277   3.165  1.00  0.00     0.042 C 
BRANCH  32  33
ATOM     33  C   UNL     1       4.596   0.765   4.019  1.00  0.00     0.118 C 
BRANCH  33  34
ATOM     34  N   UNL     1       5.765  -0.090   3.883  1.00  0.00    -0.352 N 
ATOM     35  C   UNL     1       7.013   0.184   3.394  1.00  0.00     0.251 C 
ATOM     36  H   UNL     1       5.638  -1.016   4.192  1.00  0.00     0.163 HD
ATOM     37  O   UNL     1       7.781  -0.753   3.150  1.00  0.00    -0.269 OA
BRANCH  35  38
ATOM     38  C   UNL     1       7.471   1.571   3.150  1.00  0.00     0.039 A 
ATOM     39  C   UNL     1       8.304   1.815   2.052  1.00  0.00     0.014 A 
ATOM     40  C   UNL     1       7.176   2.612   4.036  1.00  0.00     0.014 A 
ATOM     41  C   UNL     1       8.819   3.096   1.831  1.00  0.00     0.010 A 
ATOM     42  C   UNL     1       7.640   3.905   3.781  1.00  0.00     0.010 A 
ATOM     43  C   UNL     1       8.483   4.155   2.687  1.00  0.00    -0.014 A 
BRANCH  43  44
ATOM     44  C   UNL     1       9.059   5.511   2.485  1.00  0.00     0.031 A 
ATOM     45  C   UNL     1      10.021   6.081   3.495  1.00  0.00     0.074 A 
ATOM     46  C   UNL     1       8.709   6.242   1.409  1.00  0.00     0.049 A 
ATOM     47  N   UNL     1      10.574   7.268   3.537  1.00  0.00    -0.248 NA
ATOM     48  C   UNL     1      10.392   5.208   4.619  1.00  0.00     0.031 C 
ATOM     49  C   UNL     1       7.771   5.823   0.366  1.00  0.00     0.029 A 
ATOM     50  N   UNL     1       9.104   7.497   1.016  1.00  0.00    -0.354 N 
ATOM     51  C   UNL     1      11.338   7.290   4.697  1.00  0.00     0.074 A 
ATOM     52  C   UNL     1      11.147   6.013   5.352  1.00  0.00     0.031 C 
ATOM     53  C   UNL     1       7.681   6.793  -0.559  1.00  0.00     0.029 A 
ATOM     54  C   UNL     1       8.529   7.913  -0.159  1.00  0.00     0.049 A 
ATOM     55  H   UNL     1       9.740   8.046   1.528  1.00  0.00     0.167 HD
ATOM     56  C   UNL     1      12.139   8.277   5.167  1.00  0.00     0.037 A 
ATOM     57  C   UNL     1       8.660   9.072  -0.830  1.00  0.00     0.037 A 
ATOM     58  C   UNL     1      12.358   9.534   4.500  1.00  0.00     0.049 A 
ATOM     59  C   UNL     1       9.538  10.156  -0.280  1.00  0.00     0.074 A 
ATOM     60  C   UNL     1      13.198  10.572   4.867  1.00  0.00     0.029 A 
ATOM     61  N   UNL     1      11.733   9.924   3.325  1.00  0.00    -0.354 N 
ATOM     62  N   UNL     1      10.256  10.162   0.814  1.00  0.00    -0.248 NA
ATOM     63  C   UNL     1       9.613  11.399  -1.061  1.00  0.00     0.031 C 
ATOM     64  C   UNL     1      13.054  11.605   3.934  1.00  0.00     0.029 A 
ATOM     65  C   UNL     1      12.158  11.193   2.962  1.00  0.00     0.049 A 
ATOM     66  H   UNL     1      11.084   9.380   2.823  1.00  0.00     0.167 HD
ATOM     67  C   UNL     1      10.876  11.403   0.852  1.00  0.00     0.074 A 
ATOM     68  C   UNL     1      10.457  12.119  -0.335  1.00  0.00     0.031 C 
ATOM     69  C   UNL     1      11.720  11.900   1.787  1.00  0.00     0.037 A 
BRANCH  56  70
ATOM     70  C   UNL     1      12.846   8.039   6.470  1.00  0.00     0.064 A 
ATOM     71  C   UNL     1      13.912   7.132   6.574  1.00  0.00     0.173 A 
ATOM     72  C   UNL     1      12.483   8.759   7.618  1.00  0.00     0.173 A 
ATOM     73  F   UNL     1      14.291   6.412   5.507  1.00  0.00    -0.203 F 
ATOM     74  C   UNL     1      14.571   6.937   7.785  1.00  0.00     0.198 A 
ATOM     75  C   UNL     1      13.162   8.581   8.820  1.00  0.00     0.198 A 
ATOM     76  F   UNL     1      11.475   9.643   7.572  1.00  0.00    -0.203 F 
ATOM     77  F   UNL     1      15.558   6.034   7.870  1.00  0.00    -0.200 F 
ATOM     78  C   UNL     1      14.201   7.666   8.905  1.00  0.00     0.200 A 
ATOM     79  F   UNL     1      12.812   9.296   9.899  1.00  0.00    -0.200 F 
ATOM     80  F   UNL     1      14.842   7.483  10.067  1.00  0.00    -0.200 F 
ENDBRANCH  56  70
BRANCH  57  81
ATOM     81  C   UNL     1       7.909   9.287  -2.088  1.00  0.00     0.064 A 
ATOM     82  C   UNL     1       8.523   9.158  -3.339  1.00  0.00     0.173 A 
ATOM     83  C   UNL     1       6.557   9.644  -2.054  1.00  0.00     0.173 A 
ATOM     84  F   UNL     1       9.829   8.870  -3.417  1.00  0.00    -0.203 F 
ATOM     85  C   UNL     1       7.800   9.362  -4.513  1.00  0.00     0.198 A 
ATOM     86  C   UNL     1       5.827   9.816  -3.225  1.00  0.00     0.198 A 
ATOM     87  F   UNL     1       5.953   9.835  -0.875  1.00  0.00    -0.203 F 
ATOM     88  F   UNL     1       8.413   9.265  -5.701  1.00  0.00    -0.200 F 
ATOM     89  C   UNL     1       6.449   9.677  -4.456  1.00  0.00     0.200 A 
ATOM     90  F   UNL     1       4.523  10.117  -3.159  1.00  0.00    -0.200 F 
ATOM     91  F   UNL     1       5.751   9.858  -5.585  1.00  0.00    -0.200 F 
ENDBRANCH  57  81
BRANCH  69  92
ATOM     92  C   UNL     1      12.263  13.276   1.549  1.00  0.00     0.064 A 
ATOM     93  C   UNL     1      11.471  14.419   1.726  1.00  0.00     0.173 A 
ATOM     94  C   UNL     1      13.598  13.452   1.154  1.00  0.00     0.173 A 
ATOM     95  F   UNL     1      10.183  14.299   2.081  1.00  0.00    -0.203 F 
ATOM     96  C   UNL     1      11.990  15.690   1.494  1.00  0.00     0.198 A 
ATOM     97  C   UNL     1      14.120  14.725   0.947  1.00  0.00     0.198 A 
ATOM     98  F   UNL     1      14.394  12.388   0.971  1.00  0.00    -0.203 F 
ATOM     99  F   UNL     1      11.203  16.767   1.623  1.00  0.00    -0.200 F 
ATOM    100  C   UNL     1      13.314  15.842   1.110  1.00  0.00     0.200 A 
ATOM    101  F   UNL     1      15.401  14.870   0.582  1.00  0.00    -0.200 F 
ATOM    102  F   UNL     1      13.812  17.066   0.887  1.00  0.00    -0.200 F 
ENDBRANCH  69  92
ENDBRANCH  43  44
ENDBRANCH  35  38
ENDBRANCH  33  34
ENDBRANCH  32  33
ENDBRANCH   1  32
TORSDOF 13
