REMARK SMILES CCC[C@]1(C(=O)NCCCNC(=O)c2ccc(-c3c4nc(c(-c5c(F)c(F)c(F)c(F)c5F)c5ccc([nH]5)c(-c5c(F)c(F)c(F)c(F)c5F)c5nc(c(-c6c(F)c(F)c(F)c(F)c6F)c6ccc3[nH]6)C=C5)C=C4)cc2)CCCN(C(=O)c2ccc(NS(=O)(=O)CC)cc2)C1
REMARK SMILES IDX 5 1 6 2 7 3 4 5 77 6 95 7 78 8 80 9 79 10 3 11 2 12 1 13
REMARK SMILES IDX 81 14 82 15 83 16 84 17 94 18 85 19 93 20 86 21 87 22 88 24
REMARK SMILES IDX 89 25 90 26 91 27 92 28 8 29 9 30 10 31 11 32 12 33 13 35
REMARK SMILES IDX 14 36 15 37 76 38 16 39 75 40 17 41 18 42 19 43 69 44 20 45
REMARK SMILES IDX 74 46 68 47 70 48 21 49 73 50 67 51 66 52 22 54 54 55 34 56
REMARK SMILES IDX 53 57 35 58 38 59 52 60 71 61 36 62 37 63 51 65 72 66 39 67
REMARK SMILES IDX 23 68 24 69 32 70 25 71 26 72 30 73 33 74 27 75 28 76 31 77
REMARK SMILES IDX 29 78 55 79 56 80 64 81 57 82 58 83 62 84 65 85 59 86 60 87
REMARK SMILES IDX 63 88 61 89 40 90 41 91 49 92 42 93 43 94 47 95 50 96 44 97
REMARK SMILES IDX 45 98 48 99 46 100
REMARK H PARENT 7 4 87 23 11 34 70 53 38 64
REMARK Flexibility Score: inf
ROOT
ATOM      1  C   UNL     1      -0.922  -1.851   1.476  1.00  0.00     0.228 C 
ATOM      2  O   UNL     1      -1.620  -1.228   0.675  1.00  0.00    -0.274 OA
ATOM      3  N   UNL     1      -1.425  -1.929   2.740  1.00  0.00    -0.355 N 
ATOM      4  H   UNL     1      -2.251  -1.409   2.865  1.00  0.00     0.163 HD
ENDROOT
BRANCH   1   5
ATOM      5  C   UNL     1       0.392  -2.547   1.072  1.00  0.00     0.067 C 
ATOM      6  C   UNL     1       1.584  -2.095   1.967  1.00  0.00     0.020 C 
ATOM      7  C   UNL     1       0.088  -4.067   1.216  1.00  0.00     0.136 C 
ATOM      8  C   UNL     1       2.755  -3.078   2.006  1.00  0.00     0.023 C 
ATOM      9  N   UNL     1       1.283  -4.888   1.298  1.00  0.00    -0.338 N 
ATOM     10  C   UNL     1       2.279  -4.491   2.287  1.00  0.00     0.120 C 
BRANCH   5  11
ATOM     11  C   UNL     1       0.771  -2.305  -0.437  1.00  0.00     0.018 C 
BRANCH  11  12
ATOM     12  C   UNL     1       0.607  -0.923  -1.093  1.00  0.00    -0.002 C 
ATOM     13  C   UNL     1       1.128   0.281  -0.334  1.00  0.00     0.004 C 
ENDBRANCH  11  12
ENDBRANCH   5  11
BRANCH   9  14
ATOM     14  C   UNL     1       1.346  -6.017   0.502  1.00  0.00     0.253 C 
ATOM     15  O   UNL     1       0.445  -6.409  -0.233  1.00  0.00    -0.269 OA
BRANCH  14  16
ATOM     16  C   UNL     1       2.602  -6.765   0.474  1.00  0.00     0.040 A 
ATOM     17  C   UNL     1       3.505  -6.472  -0.543  1.00  0.00     0.016 A 
ATOM     18  C   UNL     1       2.838  -7.791   1.385  1.00  0.00     0.016 A 
ATOM     19  C   UNL     1       4.642  -7.259  -0.686  1.00  0.00     0.027 A 
ATOM     20  C   UNL     1       3.966  -8.592   1.212  1.00  0.00     0.027 A 
ATOM     21  C   UNL     1       4.853  -8.360   0.149  1.00  0.00     0.049 A 
BRANCH  21  22
ATOM     22  N   UNL     1       5.715  -9.437  -0.201  1.00  0.00    -0.284 N 
ATOM     23  H   UNL     1       5.514 -10.317   0.194  1.00  0.00     0.180 HD
BRANCH  22  24
ATOM     24  S   UNL     1       7.030  -9.350  -1.211  1.00  0.00     0.232 S 
ATOM     25  O   UNL     1       7.837  -8.217  -0.800  1.00  0.00    -0.207 OA
ATOM     26  O   UNL     1       7.584 -10.684  -1.204  1.00  0.00    -0.207 OA
BRANCH  24  27
ATOM     27  C   UNL     1       6.403  -9.032  -2.865  1.00  0.00     0.156 C 
ATOM     28  C   UNL     1       5.054  -9.635  -3.193  1.00  0.00     0.023 C 
ENDBRANCH  24  27
ENDBRANCH  22  24
ENDBRANCH  21  22
ENDBRANCH  14  16
ENDBRANCH   9  14
ENDBRANCH   1   5
BRANCH   3  29
ATOM     29  C   UNL     1      -0.989  -2.625   3.941  1.00  0.00     0.117 C 
BRANCH  29  30
ATOM     30  C   UNL     1      -0.591  -1.666   5.049  1.00  0.00     0.042 C 
BRANCH  30  31
ATOM     31  C   UNL     1      -1.716  -0.744   5.479  1.00  0.00     0.118 C 
BRANCH  31  32
ATOM     32  N   UNL     1      -2.858  -1.475   6.005  1.00  0.00    -0.352 N 
ATOM     33  C   UNL     1      -3.409  -1.461   7.260  1.00  0.00     0.251 C 
ATOM     34  H   UNL     1      -3.304  -2.071   5.361  1.00  0.00     0.163 HD
ATOM     35  O   UNL     1      -4.230  -2.317   7.573  1.00  0.00    -0.269 OA
BRANCH  33  36
ATOM     36  C   UNL     1      -3.011  -0.425   8.236  1.00  0.00     0.039 A 
ATOM     37  C   UNL     1      -2.915  -0.773   9.585  1.00  0.00     0.014 A 
ATOM     38  C   UNL     1      -2.771   0.891   7.835  1.00  0.00     0.014 A 
ATOM     39  C   UNL     1      -2.552   0.195  10.521  1.00  0.00     0.010 A 
ATOM     40  C   UNL     1      -2.293   1.821   8.748  1.00  0.00     0.010 A 
ATOM     41  C   UNL     1      -2.220   1.496  10.108  1.00  0.00    -0.014 A 
BRANCH  41  42
ATOM     42  C   UNL     1      -1.869   2.545  11.095  1.00  0.00     0.031 A 
ATOM     43  C   UNL     1      -2.739   3.767  11.229  1.00  0.00     0.074 A 
ATOM     44  C   UNL     1      -0.761   2.412  11.848  1.00  0.00     0.049 A 
ATOM     45  N   UNL     1      -2.603   4.799  12.024  1.00  0.00    -0.248 NA
ATOM     46  C   UNL     1      -3.901   3.860  10.329  1.00  0.00     0.031 C 
ATOM     47  C   UNL     1       0.190   1.302  11.767  1.00  0.00     0.029 A 
ATOM     48  N   UNL     1      -0.251   3.217  12.834  1.00  0.00    -0.354 N 
ATOM     49  C   UNL     1      -3.650   5.657  11.710  1.00  0.00     0.074 A 
ATOM     50  C   UNL     1      -4.364   5.069  10.601  1.00  0.00     0.031 C 
ATOM     51  C   UNL     1       1.145   1.474  12.695  1.00  0.00     0.029 A 
ATOM     52  C   UNL     1       0.893   2.721  13.411  1.00  0.00     0.049 A 
ATOM     53  H   UNL     1      -0.664   4.069  13.103  1.00  0.00     0.167 HD
ATOM     54  C   UNL     1      -4.008   6.814  12.316  1.00  0.00     0.037 A 
ATOM     55  C   UNL     1       1.646   3.218  14.409  1.00  0.00     0.037 A 
ATOM     56  C   UNL     1      -3.309   7.382  13.438  1.00  0.00     0.049 A 
ATOM     57  C   UNL     1       1.225   4.505  15.067  1.00  0.00     0.074 A 
ATOM     58  C   UNL     1      -3.613   8.522  14.159  1.00  0.00     0.029 A 
ATOM     59  N   UNL     1      -2.161   6.845  14.003  1.00  0.00    -0.354 N 
ATOM     60  N   UNL     1       0.191   5.271  14.811  1.00  0.00    -0.248 NA
ATOM     61  C   UNL     1       2.071   4.989  16.165  1.00  0.00     0.031 C 
ATOM     62  C   UNL     1      -2.621   8.703  15.129  1.00  0.00     0.029 A 
ATOM     63  C   UNL     1      -1.732   7.642  15.052  1.00  0.00     0.049 A 
ATOM     64  H   UNL     1      -1.716   6.019  13.703  1.00  0.00     0.167 HD
ATOM     65  C   UNL     1       0.245   6.306  15.734  1.00  0.00     0.074 A 
ATOM     66  C   UNL     1       1.399   6.055  16.572  1.00  0.00     0.031 C 
ATOM     67  C   UNL     1      -0.582   7.372  15.877  1.00  0.00     0.037 A 
BRANCH  54  68
ATOM     68  C   UNL     1      -5.215   7.532  11.782  1.00  0.00     0.064 A 
ATOM     69  C   UNL     1      -6.507   6.995  11.906  1.00  0.00     0.173 A 
ATOM     70  C   UNL     1      -5.084   8.780  11.155  1.00  0.00     0.173 A 
ATOM     71  F   UNL     1      -6.689   5.797  12.483  1.00  0.00    -0.203 F 
ATOM     72  C   UNL     1      -7.616   7.664  11.393  1.00  0.00     0.198 A 
ATOM     73  C   UNL     1      -6.199   9.463  10.675  1.00  0.00     0.198 A 
ATOM     74  F   UNL     1      -3.875   9.342  11.011  1.00  0.00    -0.203 F 
ATOM     75  F   UNL     1      -8.830   7.102  11.471  1.00  0.00    -0.200 F 
ATOM     76  C   UNL     1      -7.462   8.900  10.786  1.00  0.00     0.200 A 
ATOM     77  F   UNL     1      -6.051  10.664  10.100  1.00  0.00    -0.200 F 
ATOM     78  F   UNL     1      -8.530   9.546  10.299  1.00  0.00    -0.200 F 
ENDBRANCH  54  68
BRANCH  55  79
ATOM     79  C   UNL     1       2.849   2.480  14.878  1.00  0.00     0.064 A 
ATOM     80  C   UNL     1       2.888   1.902  16.155  1.00  0.00     0.173 A 
ATOM     81  C   UNL     1       3.990   2.356  14.072  1.00  0.00     0.173 A 
ATOM     82  F   UNL     1       1.827   2.007  16.970  1.00  0.00    -0.203 F 
ATOM     83  C   UNL     1       4.032   1.257  16.620  1.00  0.00     0.198 A 
ATOM     84  C   UNL     1       5.122   1.682  14.526  1.00  0.00     0.198 A 
ATOM     85  F   UNL     1       4.003   2.883  12.839  1.00  0.00    -0.203 F 
ATOM     86  F   UNL     1       4.060   0.765  17.866  1.00  0.00    -0.200 F 
ATOM     87  C   UNL     1       5.146   1.144  15.804  1.00  0.00     0.200 A 
ATOM     88  F   UNL     1       6.191   1.560  13.728  1.00  0.00    -0.200 F 
ATOM     89  F   UNL     1       6.247   0.525  16.252  1.00  0.00    -0.200 F 
ENDBRANCH  55  79
BRANCH  67  90
ATOM     90  C   UNL     1      -0.286   8.320  17.004  1.00  0.00     0.064 A 
ATOM     91  C   UNL     1       0.849   9.144  16.999  1.00  0.00     0.173 A 
ATOM     92  C   UNL     1      -1.157   8.409  18.102  1.00  0.00     0.173 A 
ATOM     93  F   UNL     1       1.720   9.088  15.979  1.00  0.00    -0.203 F 
ATOM     94  C   UNL     1       1.127   9.987  18.072  1.00  0.00     0.198 A 
ATOM     95  C   UNL     1      -0.896   9.282  19.154  1.00  0.00     0.198 A 
ATOM     96  F   UNL     1      -2.263   7.652  18.152  1.00  0.00    -0.203 F 
ATOM     97  F   UNL     1       2.255  10.711  18.077  1.00  0.00    -0.200 F 
ATOM     98  C   UNL     1       0.252  10.059  19.145  1.00  0.00     0.200 A 
ATOM     99  F   UNL     1      -1.752   9.363  20.182  1.00  0.00    -0.200 F 
ATOM    100  F   UNL     1       0.522  10.870  20.178  1.00  0.00    -0.200 F 
ENDBRANCH  67  90
ENDBRANCH  41  42
ENDBRANCH  33  36
ENDBRANCH  31  32
ENDBRANCH  30  31
ENDBRANCH  29  30
ENDBRANCH   3  29
TORSDOF 17
