REMARK SMILES COc1ccc(N2C(=O)/C(=C/c3c(C(=O)NCCCNC(=O)c4ccc(-c5c6nc(c(-c7c(F)c(F)c(F)c(F)c7F)c7ccc([nH]7)c(-c7c(F)c(F)c(F)c(F)c7F)c7nc(c(-c8c(F)c(F)c(F)c(F)c8F)c8ccc5[nH]8)C=C7)C=C6)cc4)[nH]c4cc(OC)ccc34)SC2=S)cc1
REMARK SMILES IDX 17 1 16 2 14 3 15 4 13 6 12 7 94 8 86 9 87 10 93 11 88 13
REMARK SMILES IDX 92 14 89 15 11 16 7 17 8 18 96 19 9 20 10 21 95 22 97 23
REMARK SMILES IDX 6 24 3 25 4 26 99 27 5 28 98 29 2 30 1 31 90 32 91 33 18 34
REMARK SMILES IDX 19 35 20 36 21 37 22 39 23 40 24 41 85 42 25 43 84 44 26 45
REMARK SMILES IDX 27 46 28 47 78 48 29 49 83 50 77 51 79 52 30 53 82 54 76 55
REMARK SMILES IDX 75 56 31 58 63 59 43 60 62 61 44 62 47 63 61 64 80 65 45 66
REMARK SMILES IDX 46 67 60 69 81 70 48 71 32 72 33 73 41 74 34 75 35 76 39 77
REMARK SMILES IDX 42 78 36 79 37 80 40 81 38 82 64 83 65 84 73 85 66 86 67 87
REMARK SMILES IDX 71 88 74 89 68 90 69 91 72 92 70 93 49 94 50 95 58 96 51 97
REMARK SMILES IDX 52 98 56 99 59 100 53 101 54 102 57 103 55 104
REMARK H PARENT 16 5 86 12 20 38 79 57 47 68
REMARK Flexibility Score: inf
ROOT
ATOM      1  C   UNL     1       1.146   7.787  -5.418  1.00  0.00     0.118 C 
ENDROOT
BRANCH   1   2
ATOM      2  N   UNL     1       2.318   7.283  -6.119  1.00  0.00    -0.351 N 
ATOM      3  C   UNL     1       3.469   7.978  -6.412  1.00  0.00     0.268 C 
ATOM      4  O   UNL     1       4.268   7.484  -7.206  1.00  0.00    -0.268 OA
ATOM      5  H   UNL     1       2.283   6.345  -6.415  1.00  0.00     0.163 HD
BRANCH   3   6
ATOM      6  C   UNL     1       3.630   9.302  -5.868  1.00  0.00     0.112 A 
ATOM      7  C   UNL     1       3.439   9.867  -4.603  1.00  0.00     0.014 A 
ATOM      8  C   UNL     1       3.168  11.270  -4.866  1.00  0.00     0.008 A 
ATOM      9  N   UNL     1       4.044  10.322  -6.681  1.00  0.00    -0.350 N 
ATOM     10  C   UNL     1       3.521  11.491  -6.201  1.00  0.00     0.050 A 
ATOM     11  C   UNL     1       2.607  12.379  -4.181  1.00  0.00     0.015 A 
ATOM     12  H   UNL     1       4.618  10.230  -7.475  1.00  0.00     0.167 HD
ATOM     13  C   UNL     1       3.314  12.686  -6.889  1.00  0.00     0.073 A 
ATOM     14  C   UNL     1       2.358  13.597  -4.878  1.00  0.00     0.047 A 
ATOM     15  C   UNL     1       2.695  13.737  -6.223  1.00  0.00     0.120 A 
BRANCH   7  16
ATOM     16  C   UNL     1       3.231   9.047  -3.419  1.00  0.00     0.032 C 
ATOM     17  N   UNL     1       3.886   5.542  -2.760  1.00  0.00    -0.261 N 
ATOM     18  C   UNL     1       3.250   6.740  -2.401  1.00  0.00     0.270 C 
ATOM     19  C   UNL     1       4.970   5.652  -3.617  1.00  0.00     0.152 C 
ATOM     20  O   UNL     1       2.225   6.875  -1.747  1.00  0.00    -0.268 OA
ATOM     21  C   UNL     1       3.889   7.893  -3.139  1.00  0.00     0.081 C 
ATOM     22  S   UNL     1       5.370   7.349  -3.837  1.00  0.00    -0.054 SA
ATOM     23  S   UNL     1       5.858   4.448  -4.365  1.00  0.00    -0.051 S 
BRANCH  17  24
ATOM     24  C   UNL     1       3.369   4.270  -2.367  1.00  0.00     0.051 A 
ATOM     25  C   UNL     1       2.543   1.656  -1.680  1.00  0.00     0.119 A 
ATOM     26  C   UNL     1       2.291   2.164  -2.950  1.00  0.00     0.048 A 
ATOM     27  C   UNL     1       3.268   2.427  -0.772  1.00  0.00     0.048 A 
ATOM     28  C   UNL     1       2.697   3.461  -3.293  1.00  0.00     0.030 A 
ATOM     29  C   UNL     1       3.671   3.733  -1.110  1.00  0.00     0.030 A 
BRANCH  25  30
ATOM     30  O   UNL     1       2.087   0.386  -1.454  1.00  0.00    -0.497 OA
ATOM     31  C   UNL     1       1.662   0.125  -0.119  1.00  0.00     0.278 C 
ENDBRANCH  25  30
ENDBRANCH  17  24
ENDBRANCH   7  16
BRANCH  15  32
ATOM     32  O   UNL     1       2.432  14.795  -7.047  1.00  0.00    -0.497 OA
ATOM     33  C   UNL     1       2.254  16.073  -6.463  1.00  0.00     0.278 C 
ENDBRANCH  15  32
ENDBRANCH   3   6
ENDBRANCH   1   2
BRANCH   1  34
ATOM     34  C   UNL     1      -0.125   6.998  -5.667  1.00  0.00     0.042 C 
BRANCH  34  35
ATOM     35  C   UNL     1      -0.094   5.597  -5.076  1.00  0.00     0.118 C 
BRANCH  35  36
ATOM     36  N   UNL     1      -0.029   5.521  -3.623  1.00  0.00    -0.352 N 
ATOM     37  C   UNL     1      -0.399   4.500  -2.770  1.00  0.00     0.251 C 
ATOM     38  H   UNL     1       0.334   6.322  -3.180  1.00  0.00     0.163 HD
ATOM     39  O   UNL     1      -0.319   4.678  -1.557  1.00  0.00    -0.269 OA
BRANCH  37  40
ATOM     40  C   UNL     1      -0.962   3.219  -3.274  1.00  0.00     0.039 A 
ATOM     41  C   UNL     1      -1.840   2.515  -2.438  1.00  0.00     0.014 A 
ATOM     42  C   UNL     1      -0.702   2.723  -4.552  1.00  0.00     0.014 A 
ATOM     43  C   UNL     1      -2.591   1.457  -2.946  1.00  0.00     0.010 A 
ATOM     44  C   UNL     1      -1.501   1.731  -5.092  1.00  0.00     0.010 A 
ATOM     45  C   UNL     1      -2.503   1.153  -4.311  1.00  0.00    -0.014 A 
BRANCH  45  46
ATOM     46  C   UNL     1      -3.597   0.460  -5.019  1.00  0.00     0.031 A 
ATOM     47  C   UNL     1      -3.354  -0.828  -5.734  1.00  0.00     0.074 A 
ATOM     48  C   UNL     1      -4.743   1.154  -5.175  1.00  0.00     0.049 A 
ATOM     49  N   UNL     1      -4.161  -1.502  -6.509  1.00  0.00    -0.248 NA
ATOM     50  C   UNL     1      -2.011  -1.414  -5.603  1.00  0.00     0.031 C 
ATOM     51  C   UNL     1      -4.997   2.492  -4.624  1.00  0.00     0.029 A 
ATOM     52  N   UNL     1      -5.889   0.866  -5.865  1.00  0.00    -0.354 N 
ATOM     53  C   UNL     1      -3.429  -2.592  -6.956  1.00  0.00     0.074 A 
ATOM     54  C   UNL     1      -2.092  -2.455  -6.420  1.00  0.00     0.031 C 
ATOM     55  C   UNL     1      -6.224   2.897  -4.978  1.00  0.00     0.029 A 
ATOM     56  C   UNL     1      -6.830   1.867  -5.806  1.00  0.00     0.049 A 
ATOM     57  H   UNL     1      -6.027   0.024  -6.355  1.00  0.00     0.167 HD
ATOM     58  C   UNL     1      -3.857  -3.619  -7.729  1.00  0.00     0.037 A 
ATOM     59  C   UNL     1      -8.051   1.940  -6.364  1.00  0.00     0.037 A 
ATOM     60  C   UNL     1      -5.196  -3.703  -8.256  1.00  0.00     0.049 A 
ATOM     61  C   UNL     1      -8.517   0.767  -7.173  1.00  0.00     0.074 A 
ATOM     62  C   UNL     1      -5.777  -4.717  -8.994  1.00  0.00     0.029 A 
ATOM     63  N   UNL     1      -6.163  -2.714  -8.103  1.00  0.00    -0.354 N 
ATOM     64  N   UNL     1      -7.861  -0.323  -7.492  1.00  0.00    -0.248 NA
ATOM     65  C   UNL     1      -9.890   0.819  -7.684  1.00  0.00     0.031 C 
ATOM     66  C   UNL     1      -7.079  -4.324  -9.324  1.00  0.00     0.029 A 
ATOM     67  C   UNL     1      -7.331  -3.089  -8.745  1.00  0.00     0.049 A 
ATOM     68  H   UNL     1      -6.035  -1.872  -7.610  1.00  0.00     0.167 HD
ATOM     69  C   UNL     1      -8.747  -1.104  -8.213  1.00  0.00     0.074 A 
ATOM     70  C   UNL     1      -9.994  -0.364  -8.273  1.00  0.00     0.031 C 
ATOM     71  C   UNL     1      -8.553  -2.322  -8.775  1.00  0.00     0.037 A 
BRANCH  58  72
ATOM     72  C   UNL     1      -2.881  -4.721  -8.030  1.00  0.00     0.064 A 
ATOM     73  C   UNL     1      -2.398  -5.569  -7.019  1.00  0.00     0.173 A 
ATOM     74  C   UNL     1      -2.440  -4.959  -9.341  1.00  0.00     0.173 A 
ATOM     75  F   UNL     1      -2.779  -5.386  -5.745  1.00  0.00    -0.203 F 
ATOM     76  C   UNL     1      -1.488  -6.585  -7.302  1.00  0.00     0.198 A 
ATOM     77  C   UNL     1      -1.555  -5.998  -9.626  1.00  0.00     0.198 A 
ATOM     78  F   UNL     1      -2.870  -4.187 -10.351  1.00  0.00    -0.203 F 
ATOM     79  F   UNL     1      -1.004  -7.344  -6.309  1.00  0.00    -0.200 F 
ATOM     80  C   UNL     1      -1.073  -6.803  -8.606  1.00  0.00     0.200 A 
ATOM     81  F   UNL     1      -1.165  -6.216 -10.890  1.00  0.00    -0.200 F 
ATOM     82  F   UNL     1      -0.203  -7.786  -8.878  1.00  0.00    -0.200 F 
ENDBRANCH  58  72
BRANCH  59  83
ATOM     83  C   UNL     1      -8.917   3.119  -6.100  1.00  0.00     0.064 A 
ATOM     84  C   UNL     1     -10.042   3.006  -5.271  1.00  0.00     0.173 A 
ATOM     85  C   UNL     1      -8.615   4.388  -6.617  1.00  0.00     0.173 A 
ATOM     86  F   UNL     1     -10.373   1.814  -4.754  1.00  0.00    -0.203 F 
ATOM     87  C   UNL     1     -10.843   4.109  -4.986  1.00  0.00     0.198 A 
ATOM     88  C   UNL     1      -9.401   5.497  -6.308  1.00  0.00     0.198 A 
ATOM     89  F   UNL     1      -7.536   4.558  -7.396  1.00  0.00    -0.203 F 
ATOM     90  F   UNL     1     -11.931   3.963  -4.218  1.00  0.00    -0.200 F 
ATOM     91  C   UNL     1     -10.519   5.356  -5.499  1.00  0.00     0.200 A 
ATOM     92  F   UNL     1      -9.070   6.705  -6.786  1.00  0.00    -0.200 F 
ATOM     93  F   UNL     1     -11.282   6.419  -5.214  1.00  0.00    -0.200 F 
ENDBRANCH  59  83
BRANCH  71  94
ATOM     94  C   UNL     1      -9.731  -2.936  -9.468  1.00  0.00     0.064 A 
ATOM     95  C   UNL     1     -10.193  -2.452 -10.700  1.00  0.00     0.173 A 
ATOM     96  C   UNL     1     -10.381  -4.044  -8.905  1.00  0.00     0.173 A 
ATOM     97  F   UNL     1      -9.614  -1.382 -11.266  1.00  0.00    -0.203 F 
ATOM     98  C   UNL     1     -11.281  -3.043 -11.334  1.00  0.00     0.198 A 
ATOM     99  C   UNL     1     -11.448  -4.652  -9.557  1.00  0.00     0.198 A 
ATOM    100  F   UNL     1      -9.972  -4.542  -7.729  1.00  0.00    -0.203 F 
ATOM    101  F   UNL     1     -11.738  -2.536 -12.487  1.00  0.00    -0.200 F 
ATOM    102  C   UNL     1     -11.901  -4.147 -10.767  1.00  0.00     0.200 A 
ATOM    103  F   UNL     1     -12.038  -5.726  -9.014  1.00  0.00    -0.200 F 
ATOM    104  F   UNL     1     -12.943  -4.721 -11.383  1.00  0.00    -0.200 F 
ENDBRANCH  71  94
ENDBRANCH  45  46
ENDBRANCH  37  40
ENDBRANCH  35  36
ENDBRANCH  34  35
ENDBRANCH   1  34
TORSDOF 14
