REMARK SMILES Cc1cc(=O)n2nc(C[N@@H+](C)CC(=O)NCCCNC(=O)c3ccc(-c4c5nc(c(-c6c(F)c(F)c(F)c(F)c6F)c6ccc([nH]6)c(-c6c(F)c(F)c(F)c(F)c6F)c6nc(c(-c7c(F)c(F)c(F)c(F)c7F)c7ccc4[nH]7)C=C6)C=C5)cc3)sc2n1
REMARK SMILES IDX 16 1 15 2 13 3 14 4 12 6 10 7 11 8 9 10 8 11 1 12 2 13 3 14
REMARK SMILES IDX 87 15 4 16 86 17 5 18 6 19 85 20 7 21 17 22 18 23 19 24
REMARK SMILES IDX 20 25 21 27 22 28 23 29 84 30 24 31 83 32 25 33 26 34 27 35
REMARK SMILES IDX 77 36 28 37 82 38 76 39 78 40 29 41 81 42 75 43 74 44 30 46
REMARK SMILES IDX 62 47 42 48 61 49 43 50 46 51 60 52 79 53 44 54 45 55 59 57
REMARK SMILES IDX 80 58 47 59 31 60 32 61 40 62 33 63 34 64 38 65 41 66 35 67
REMARK SMILES IDX 36 68 39 69 37 70 63 71 64 72 72 73 65 74 66 75 70 76 73 77
REMARK SMILES IDX 67 78 68 79 71 80 69 81 48 82 49 83 57 84 50 85 51 86 55 87
REMARK SMILES IDX 58 88 52 89 53 90 56 91 54 92
REMARK H PARENT 15 5 10 9 19 26 78 45 46 56
REMARK Flexibility Score: inf
ROOT
ATOM      1  C   UNL     1      -5.086  -2.776  -8.656  1.00  0.00     0.118 C 
ENDROOT
BRANCH   1   2
ATOM      2  N   UNL     1      -4.298  -3.627  -7.782  1.00  0.00    -0.351 N 
ATOM      3  C   UNL     1      -3.594  -3.311  -6.660  1.00  0.00     0.275 C 
ATOM      4  O   UNL     1      -2.959  -4.217  -6.114  1.00  0.00    -0.269 OA
ATOM      5  H   UNL     1      -4.269  -4.577  -8.040  1.00  0.00     0.163 HD
BRANCH   3   6
ATOM      6  C   UNL     1      -3.599  -1.891  -6.095  1.00  0.00     0.363 C 
BRANCH   6   7
ATOM      7  N   UNL     1      -2.563  -0.996  -6.630  1.00  0.00    -0.324 N 
ATOM      8  C   UNL     1      -2.900  -0.198  -7.786  1.00  0.00     0.333 C 
ATOM      9  H   UNL     1      -2.553  -0.304  -5.881  1.00  0.00     0.348 HD
BRANCH   7  10
ATOM     10  C   UNL     1      -1.196  -1.530  -6.657  1.00  0.00     0.333 C 
BRANCH  10  11
ATOM     11  C   UNL     1      -0.600  -1.433  -5.279  1.00  0.00     0.172 A 
ATOM     12  C   UNL     1       1.195  -0.036   0.242  1.00  0.00     0.067 C 
ATOM     13  C   UNL     1       0.871  -0.782  -1.020  1.00  0.00     0.046 A 
ATOM     14  C   UNL     1       0.939  -2.122  -1.069  1.00  0.00     0.097 A 
ATOM     15  N   UNL     1       0.490   0.007  -2.078  1.00  0.00    -0.224 NA
ATOM     16  C   UNL     1       0.591  -2.828  -2.325  1.00  0.00     0.275 A 
ATOM     17  C   UNL     1       0.162  -0.625  -3.152  1.00  0.00     0.215 A 
ATOM     18  O   UNL     1       0.693  -4.050  -2.380  1.00  0.00    -0.267 OA
ATOM     19  N   UNL     1       0.176  -1.982  -3.330  1.00  0.00    -0.167 N 
ATOM     20  S   UNL     1      -0.365   0.165  -4.594  1.00  0.00    -0.073 S 
ATOM     21  N   UNL     1      -0.260  -2.449  -4.549  1.00  0.00    -0.150 NA
ENDBRANCH  10  11
ENDBRANCH   7  10
ENDBRANCH   6   7
ENDBRANCH   3   6
ENDBRANCH   1   2
BRANCH   1  22
ATOM     22  C   UNL     1      -4.336  -2.418  -9.940  1.00  0.00     0.042 C 
BRANCH  22  23
ATOM     23  C   UNL     1      -4.225  -3.575 -10.903  1.00  0.00     0.118 C 
BRANCH  23  24
ATOM     24  N   UNL     1      -5.458  -3.892 -11.617  1.00  0.00    -0.352 N 
ATOM     25  C   UNL     1      -5.588  -4.757 -12.691  1.00  0.00     0.251 C 
ATOM     26  H   UNL     1      -6.279  -3.448 -11.304  1.00  0.00     0.163 HD
ATOM     27  O   UNL     1      -6.574  -4.721 -13.424  1.00  0.00    -0.269 OA
BRANCH  25  28
ATOM     28  C   UNL     1      -4.504  -5.725 -12.937  1.00  0.00     0.039 A 
ATOM     29  C   UNL     1      -4.056  -6.048 -14.218  1.00  0.00     0.014 A 
ATOM     30  C   UNL     1      -3.880  -6.264 -11.816  1.00  0.00     0.014 A 
ATOM     31  C   UNL     1      -2.942  -6.876 -14.338  1.00  0.00     0.010 A 
ATOM     32  C   UNL     1      -2.646  -6.828 -11.932  1.00  0.00     0.010 A 
ATOM     33  C   UNL     1      -2.236  -7.250 -13.181  1.00  0.00    -0.014 A 
BRANCH  33  34
ATOM     34  C   UNL     1      -1.022  -8.049 -13.233  1.00  0.00     0.031 A 
ATOM     35  C   UNL     1       0.015  -7.502 -14.136  1.00  0.00     0.074 A 
ATOM     36  C   UNL     1      -0.791  -9.092 -12.403  1.00  0.00     0.049 A 
ATOM     37  N   UNL     1       0.378  -7.979 -15.278  1.00  0.00    -0.248 NA
ATOM     38  C   UNL     1       0.596  -6.187 -13.823  1.00  0.00     0.031 C 
ATOM     39  C   UNL     1      -1.584  -9.566 -11.259  1.00  0.00     0.029 A 
ATOM     40  N   UNL     1       0.279  -9.932 -12.377  1.00  0.00    -0.354 N 
ATOM     41  C   UNL     1       1.385  -7.140 -15.739  1.00  0.00     0.074 A 
ATOM     42  C   UNL     1       1.344  -5.966 -14.907  1.00  0.00     0.031 C 
ATOM     43  C   UNL     1      -0.865 -10.452 -10.533  1.00  0.00     0.029 A 
ATOM     44  C   UNL     1       0.354 -10.751 -11.254  1.00  0.00     0.049 A 
ATOM     45  H   UNL     1       0.949  -9.958 -13.098  1.00  0.00     0.167 HD
ATOM     46  C   UNL     1       2.324  -7.607 -16.605  1.00  0.00     0.037 A 
ATOM     47  C   UNL     1       1.357 -11.614 -10.954  1.00  0.00     0.037 A 
ATOM     48  C   UNL     1       1.892  -8.843 -17.214  1.00  0.00     0.049 A 
ATOM     49  C   UNL     1       2.066 -11.899 -12.226  1.00  0.00     0.074 A 
ATOM     50  C   UNL     1       0.838  -9.208 -18.029  1.00  0.00     0.029 A 
ATOM     51  N   UNL     1       2.364 -10.013 -16.671  1.00  0.00    -0.354 N 
ATOM     52  N   UNL     1       1.532 -12.550 -13.221  1.00  0.00    -0.248 NA
ATOM     53  C   UNL     1       3.196 -11.050 -12.564  1.00  0.00     0.031 C 
ATOM     54  C   UNL     1       0.437 -10.496 -17.563  1.00  0.00     0.029 A 
ATOM     55  C   UNL     1       1.310 -10.880 -16.544  1.00  0.00     0.049 A 
ATOM     56  H   UNL     1       3.297 -10.197 -16.418  1.00  0.00     0.167 HD
ATOM     57  C   UNL     1       1.960 -11.874 -14.353  1.00  0.00     0.074 A 
ATOM     58  C   UNL     1       3.046 -11.011 -13.891  1.00  0.00     0.031 C 
ATOM     59  C   UNL     1       1.204 -11.863 -15.489  1.00  0.00     0.037 A 
BRANCH  46  60
ATOM     60  C   UNL     1       3.769  -7.173 -16.608  1.00  0.00     0.064 A 
ATOM     61  C   UNL     1       4.620  -7.638 -17.630  1.00  0.00     0.173 A 
ATOM     62  C   UNL     1       4.417  -6.575 -15.505  1.00  0.00     0.173 A 
ATOM     63  F   UNL     1       4.116  -8.245 -18.715  1.00  0.00    -0.203 F 
ATOM     64  C   UNL     1       6.012  -7.574 -17.520  1.00  0.00     0.198 A 
ATOM     65  C   UNL     1       5.803  -6.464 -15.423  1.00  0.00     0.198 A 
ATOM     66  F   UNL     1       3.753  -6.178 -14.414  1.00  0.00    -0.203 F 
ATOM     67  F   UNL     1       6.780  -8.143 -18.459  1.00  0.00    -0.200 F 
ATOM     68  C   UNL     1       6.602  -6.991 -16.414  1.00  0.00     0.200 A 
ATOM     69  F   UNL     1       6.355  -5.915 -14.331  1.00  0.00    -0.200 F 
ATOM     70  F   UNL     1       7.934  -6.981 -16.277  1.00  0.00    -0.200 F 
ENDBRANCH  46  60
BRANCH  47  71
ATOM     71  C   UNL     1       1.972 -11.912  -9.636  1.00  0.00     0.064 A 
ATOM     72  C   UNL     1       2.878 -12.978  -9.497  1.00  0.00     0.173 A 
ATOM     73  C   UNL     1       1.945 -10.974  -8.586  1.00  0.00     0.173 A 
ATOM     74  F   UNL     1       2.991 -13.897 -10.467  1.00  0.00    -0.203 F 
ATOM     75  C   UNL     1       3.747 -13.068  -8.404  1.00  0.00     0.198 A 
ATOM     76  C   UNL     1       2.811 -11.068  -7.493  1.00  0.00     0.198 A 
ATOM     77  F   UNL     1       1.157  -9.892  -8.651  1.00  0.00    -0.203 F 
ATOM     78  F   UNL     1       4.654 -14.054  -8.351  1.00  0.00    -0.200 F 
ATOM     79  C   UNL     1       3.725 -12.103  -7.412  1.00  0.00     0.200 A 
ATOM     80  F   UNL     1       2.807 -10.108  -6.558  1.00  0.00    -0.200 F 
ATOM     81  F   UNL     1       4.612 -12.143  -6.408  1.00  0.00    -0.200 F 
ENDBRANCH  47  71
BRANCH  59  82
ATOM     82  C   UNL     1       0.036 -12.814 -15.559  1.00  0.00     0.064 A 
ATOM     83  C   UNL     1      -1.092 -12.750 -14.720  1.00  0.00     0.173 A 
ATOM     84  C   UNL     1      -0.001 -13.739 -16.609  1.00  0.00     0.173 A 
ATOM     85  F   UNL     1      -1.178 -11.837 -13.746  1.00  0.00    -0.203 F 
ATOM     86  C   UNL     1      -2.186 -13.595 -14.907  1.00  0.00     0.198 A 
ATOM     87  C   UNL     1      -1.109 -14.557 -16.817  1.00  0.00     0.198 A 
ATOM     88  F   UNL     1       1.025 -13.814 -17.472  1.00  0.00    -0.203 F 
ATOM     89  F   UNL     1      -3.246 -13.518 -14.088  1.00  0.00    -0.200 F 
ATOM     90  C   UNL     1      -2.196 -14.492 -15.962  1.00  0.00     0.200 A 
ATOM     91  F   UNL     1      -1.132 -15.390 -17.866  1.00  0.00    -0.200 F 
ATOM     92  F   UNL     1      -3.265 -15.274 -16.171  1.00  0.00    -0.200 F 
ENDBRANCH  59  82
ENDBRANCH  33  34
ENDBRANCH  25  28
ENDBRANCH  23  24
ENDBRANCH  22  23
ENDBRANCH   1  22
TORSDOF 13
