REMARK SMILES C[C@@H](C(=O)NCCCNC(=O)c1ccc(-c2c3nc(c(-c4c(F)c(F)c(F)c(F)c4F)c4ccc([nH]4)c(-c4c(F)c(F)c(F)c(F)c4F)c4nc(c(-c5c(F)c(F)c(F)c(F)c5F)c5ccc2[nH]5)C=C4)C=C3)cc1)[N@@H+]1CCc2n[nH]c(C(c3ccccc3)c3ccccc3)c2C1
REMARK SMILES IDX 6 1 5 2 3 3 4 4 2 6 1 7 75 8 76 9 96 10 77 12 95 13 78 14
REMARK SMILES IDX 81 15 79 16 80 17 82 19 83 20 84 21 88 22 85 23 87 24 86 25
REMARK SMILES IDX 89 26 90 27 94 28 91 29 93 30 92 31 7 32 8 33 9 34 10 35
REMARK SMILES IDX 11 37 12 38 13 39 74 40 14 41 73 42 15 43 16 44 17 45 67 46
REMARK SMILES IDX 18 47 72 48 66 49 68 50 19 51 71 52 65 53 64 54 20 56 52 57
REMARK SMILES IDX 32 58 51 59 33 60 36 61 50 62 69 63 34 64 35 65 49 67 70 68
REMARK SMILES IDX 37 69 21 70 22 71 30 72 23 73 24 74 28 75 31 76 25 77 26 78
REMARK SMILES IDX 29 79 27 80 53 81 54 82 62 83 55 84 56 85 60 86 63 87 57 88
REMARK SMILES IDX 58 89 61 90 59 91 38 92 39 93 47 94 40 95 41 96 45 97 48 98
REMARK SMILES IDX 42 99 43 100 46 101 44 102
REMARK H PARENT 5 5 75 11 80 18 9 36 68 55 36 66
REMARK Flexibility Score: inf
ROOT
ATOM      1  C   UNL     1       3.282   1.729   3.927  1.00  0.00     0.118 C 
ENDROOT
BRANCH   1   2
ATOM      2  N   UNL     1       2.022   1.194   3.315  1.00  0.00    -0.351 N 
ATOM      3  C   UNL     1       1.069   0.185   3.497  1.00  0.00     0.278 C 
ATOM      4  O   UNL     1       1.109  -0.518   4.516  1.00  0.00    -0.268 OA
ATOM      5  H   UNL     1       1.787   1.729   2.523  1.00  0.00     0.163 HD
BRANCH   3   6
ATOM      6  C   UNL     1      -0.216  -0.095   2.313  1.00  0.00     0.271 C 
ATOM      7  C   UNL     1      -0.084  -0.922   1.004  1.00  0.00     0.086 C 
BRANCH   6   8
ATOM      8  N   UNL     1      -1.050   1.147   2.038  1.00  0.00    -0.321 N 
ATOM      9  C   UNL     1      -1.825   1.267   0.726  1.00  0.00     0.269 C 
ATOM     10  C   UNL     1      -0.151   2.267   2.088  1.00  0.00     0.303 C 
ATOM     11  H   UNL     1      -1.784   1.103   2.745  1.00  0.00     0.349 HD
ATOM     12  C   UNL     1      -1.337   2.377  -0.329  1.00  0.00     0.120 C 
ATOM     13  C   UNL     1       0.818   2.096   0.906  1.00  0.00     0.052 A 
ATOM     14  C   UNL     1       0.156   2.439  -0.290  1.00  0.00     0.077 A 
ATOM     15  C   UNL     1       1.964   1.393   0.380  1.00  0.00     0.056 A 
ATOM     16  N   UNL     1       1.029   2.683  -1.257  1.00  0.00    -0.180 NA
ATOM     17  N   UNL     1       2.182   2.325  -0.646  1.00  0.00    -0.281 N 
ATOM     18  H   UNL     1       3.067   2.677  -0.892  1.00  0.00     0.190 HD
BRANCH  15  19
ATOM     19  C   UNL     1       3.080   0.130   0.473  1.00  0.00     0.098 C 
BRANCH  19  20
ATOM     20  C   UNL     1       3.484  -0.758   1.748  1.00  0.00    -0.035 A 
ATOM     21  C   UNL     1       4.777  -0.635   2.309  1.00  0.00     0.005 A 
ATOM     22  C   UNL     1       2.772  -1.844   2.303  1.00  0.00     0.005 A 
ATOM     23  C   UNL     1       5.193  -1.345   3.462  1.00  0.00     0.000 A 
ATOM     24  C   UNL     1       3.164  -2.559   3.453  1.00  0.00     0.000 A 
ATOM     25  C   UNL     1       4.361  -2.273   4.067  1.00  0.00     0.000 A 
ENDBRANCH  19  20
BRANCH  19  26
ATOM     26  C   UNL     1       3.231  -0.683  -0.865  1.00  0.00    -0.035 A 
ATOM     27  C   UNL     1       3.446  -2.075  -0.881  1.00  0.00     0.005 A 
ATOM     28  C   UNL     1       3.357  -0.038  -2.112  1.00  0.00     0.005 A 
ATOM     29  C   UNL     1       3.783  -2.763  -2.055  1.00  0.00     0.000 A 
ATOM     30  C   UNL     1       3.681  -0.719  -3.288  1.00  0.00     0.000 A 
ATOM     31  C   UNL     1       3.907  -2.083  -3.258  1.00  0.00     0.000 A 
ENDBRANCH  19  26
ENDBRANCH  15  19
ENDBRANCH   6   8
ENDBRANCH   3   6
ENDBRANCH   1   2
BRANCH   1  32
ATOM     32  C   UNL     1       4.035   2.518   2.789  1.00  0.00     0.042 C 
BRANCH  32  33
ATOM     33  C   UNL     1       5.226   3.449   3.004  1.00  0.00     0.118 C 
BRANCH  33  34
ATOM     34  N   UNL     1       6.482   2.780   3.304  1.00  0.00    -0.352 N 
ATOM     35  C   UNL     1       7.659   2.582   2.632  1.00  0.00     0.251 C 
ATOM     36  H   UNL     1       6.488   2.374   4.201  1.00  0.00     0.163 HD
ATOM     37  O   UNL     1       8.503   1.861   3.216  1.00  0.00    -0.269 OA
BRANCH  35  38
ATOM     38  C   UNL     1       8.039   3.116   1.288  1.00  0.00     0.039 A 
ATOM     39  C   UNL     1       9.058   2.449   0.576  1.00  0.00     0.014 A 
ATOM     40  C   UNL     1       7.542   4.296   0.733  1.00  0.00     0.014 A 
ATOM     41  C   UNL     1       9.552   2.932  -0.650  1.00  0.00     0.010 A 
ATOM     42  C   UNL     1       7.975   4.735  -0.532  1.00  0.00     0.010 A 
ATOM     43  C   UNL     1       9.003   4.079  -1.233  1.00  0.00    -0.014 A 
BRANCH  43  44
ATOM     44  C   UNL     1       9.516   4.664  -2.514  1.00  0.00     0.031 A 
ATOM     45  C   UNL     1      10.028   6.085  -2.535  1.00  0.00     0.074 A 
ATOM     46  C   UNL     1       9.445   3.983  -3.678  1.00  0.00     0.049 A 
ATOM     47  N   UNL     1      10.283   6.873  -3.552  1.00  0.00    -0.248 NA
ATOM     48  C   UNL     1      10.234   6.713  -1.222  1.00  0.00     0.031 C 
ATOM     49  C   UNL     1       8.970   2.610  -3.826  1.00  0.00     0.029 A 
ATOM     50  N   UNL     1       9.741   4.372  -4.965  1.00  0.00    -0.354 N 
ATOM     51  C   UNL     1      10.613   8.105  -3.001  1.00  0.00     0.074 A 
ATOM     52  C   UNL     1      10.491   7.977  -1.567  1.00  0.00     0.031 C 
ATOM     53  C   UNL     1       8.994   2.273  -5.126  1.00  0.00     0.029 A 
ATOM     54  C   UNL     1       9.439   3.422  -5.912  1.00  0.00     0.049 A 
ATOM     55  H   UNL     1      10.132   5.248  -5.187  1.00  0.00     0.167 HD
ATOM     56  C   UNL     1      11.000   9.247  -3.631  1.00  0.00     0.037 A 
ATOM     57  C   UNL     1       9.481   3.474  -7.259  1.00  0.00     0.037 A 
ATOM     58  C   UNL     1      11.190   9.359  -5.053  1.00  0.00     0.049 A 
ATOM     59  C   UNL     1       9.940   4.735  -7.944  1.00  0.00     0.074 A 
ATOM     60  C   UNL     1      11.658  10.442  -5.780  1.00  0.00     0.029 A 
ATOM     61  N   UNL     1      10.930   8.348  -5.968  1.00  0.00    -0.354 N 
ATOM     62  N   UNL     1      10.278   5.885  -7.413  1.00  0.00    -0.248 NA
ATOM     63  C   UNL     1      10.025   4.707  -9.412  1.00  0.00     0.031 C 
ATOM     64  C   UNL     1      11.639  10.100  -7.136  1.00  0.00     0.029 A 
ATOM     65  C   UNL     1      11.211   8.787  -7.251  1.00  0.00     0.049 A 
ATOM     66  H   UNL     1      10.595   7.452  -5.738  1.00  0.00     0.167 HD
ATOM     67  C   UNL     1      10.642   6.705  -8.473  1.00  0.00     0.074 A 
ATOM     68  C   UNL     1      10.487   5.921  -9.681  1.00  0.00     0.031 C 
ATOM     69  C   UNL     1      11.069   7.992  -8.445  1.00  0.00     0.037 A 
BRANCH  56  70
ATOM     70  C   UNL     1      11.229  10.467  -2.781  1.00  0.00     0.064 A 
ATOM     71  C   UNL     1      12.281  10.544  -1.855  1.00  0.00     0.173 A 
ATOM     72  C   UNL     1      10.383  11.582  -2.897  1.00  0.00     0.173 A 
ATOM     73  F   UNL     1      13.120   9.509  -1.699  1.00  0.00    -0.203 F 
ATOM     74  C   UNL     1      12.440  11.661  -1.038  1.00  0.00     0.198 A 
ATOM     75  C   UNL     1      10.569  12.714  -2.107  1.00  0.00     0.198 A 
ATOM     76  F   UNL     1       9.370  11.575  -3.777  1.00  0.00    -0.203 F 
ATOM     77  F   UNL     1      13.403  11.675  -0.105  1.00  0.00    -0.200 F 
ATOM     78  C   UNL     1      11.587  12.746  -1.166  1.00  0.00     0.200 A 
ATOM     79  F   UNL     1       9.755  13.770  -2.246  1.00  0.00    -0.200 F 
ATOM     80  F   UNL     1      11.738  13.818  -0.375  1.00  0.00    -0.200 F 
ENDBRANCH  56  70
BRANCH  57  81
ATOM     81  C   UNL     1       9.075   2.280  -8.049  1.00  0.00     0.064 A 
ATOM     82  C   UNL     1      10.026   1.508  -8.731  1.00  0.00     0.173 A 
ATOM     83  C   UNL     1       7.737   1.864  -8.107  1.00  0.00     0.173 A 
ATOM     84  F   UNL     1      11.315   1.878  -8.726  1.00  0.00    -0.203 F 
ATOM     85  C   UNL     1       9.654   0.368  -9.441  1.00  0.00     0.198 A 
ATOM     86  C   UNL     1       7.370   0.709  -8.795  1.00  0.00     0.198 A 
ATOM     87  F   UNL     1       6.787   2.565  -7.470  1.00  0.00    -0.203 F 
ATOM     88  F   UNL     1      10.580  -0.337 -10.106  1.00  0.00    -0.200 F 
ATOM     89  C   UNL     1       8.328  -0.037  -9.464  1.00  0.00     0.200 A 
ATOM     90  F   UNL     1       6.089   0.312  -8.800  1.00  0.00    -0.200 F 
ATOM     91  F   UNL     1       7.974  -1.145 -10.130  1.00  0.00    -0.200 F 
ENDBRANCH  57  81
BRANCH  69  92
ATOM     92  C   UNL     1      11.447   8.634  -9.748  1.00  0.00     0.064 A 
ATOM     93  C   UNL     1      10.480   9.049 -10.674  1.00  0.00     0.173 A 
ATOM     94  C   UNL     1      12.793   8.918 -10.030  1.00  0.00     0.173 A 
ATOM     95  F   UNL     1       9.182   8.790 -10.457  1.00  0.00    -0.203 F 
ATOM     96  C   UNL     1      10.847   9.720 -11.838  1.00  0.00     0.198 A 
ATOM     97  C   UNL     1      13.153   9.611 -11.182  1.00  0.00     0.198 A 
ATOM     98  F   UNL     1      13.755   8.546  -9.173  1.00  0.00    -0.203 F 
ATOM     99  F   UNL     1       9.908  10.087 -12.722  1.00  0.00    -0.200 F 
ATOM    100  C   UNL     1      12.181  10.011 -12.086  1.00  0.00     0.200 A 
ATOM    101  F   UNL     1      14.441   9.904 -11.411  1.00  0.00    -0.200 F 
ATOM    102  F   UNL     1      12.529  10.676 -13.196  1.00  0.00    -0.200 F 
ENDBRANCH  69  92
ENDBRANCH  43  44
ENDBRANCH  35  38
ENDBRANCH  33  34
ENDBRANCH  32  33
ENDBRANCH   1  32
TORSDOF 14
