REMARK SMILES Cc1ccc(F)c(C(=O)Nc2cccc(C(=O)NCCCNC(=O)c3ccc(-c4c5nc(c(-c6c(F)c(F)c(F)c(F)c6F)c6ccc([nH]6)c(-c6c(F)c(F)c(F)c(F)c6F)c6nc(c(-c7c(F)c(F)c(F)c(F)c7F)c7ccc4[nH]7)C=C6)C=C5)cc3)c2)c1
REMARK SMILES IDX 20 1 19 2 18 3 16 4 17 5 15 7 11 8 12 9 88 10 13 11 14 12
REMARK SMILES IDX 10 13 8 14 9 15 7 17 1 18 2 19 3 20 89 21 4 22 5 23 6 24
REMARK SMILES IDX 21 25 22 26 23 27 24 29 25 30 26 31 87 32 27 33 86 34 28 35
REMARK SMILES IDX 29 36 30 37 80 38 31 39 85 40 79 41 81 42 32 43 84 44 78 45
REMARK SMILES IDX 77 46 33 48 65 49 45 50 64 51 46 52 49 53 63 54 82 55 47 56
REMARK SMILES IDX 48 57 62 59 83 60 50 61 34 62 35 63 43 64 36 65 37 66 41 67
REMARK SMILES IDX 44 68 38 69 39 70 42 71 40 72 66 73 67 74 75 75 68 76 69 77
REMARK SMILES IDX 73 78 76 79 70 80 71 81 74 82 72 83 51 84 52 85 60 86 53 87
REMARK SMILES IDX 54 88 58 89 61 90 55 91 56 92 59 93 57 94
REMARK H PARENT 18 6 10 16 22 28 81 47 49 58
REMARK Flexibility Score: inf
ROOT
ATOM      1  C   UNL     1       0.725  -1.697   3.297  1.00  0.00     0.042 C 
ENDROOT
BRANCH   1   2
ATOM      2  C   UNL     1       1.858  -1.141   2.433  1.00  0.00     0.118 C 
BRANCH   2   3
ATOM      3  N   UNL     1       3.111  -1.828   2.646  1.00  0.00    -0.352 N 
ATOM      4  C   UNL     1       3.629  -2.938   2.022  1.00  0.00     0.251 C 
ATOM      5  O   UNL     1       4.777  -3.271   2.315  1.00  0.00    -0.269 OA
ATOM      6  H   UNL     1       3.683  -1.441   3.348  1.00  0.00     0.163 HD
BRANCH   4   7
ATOM      7  C   UNL     1       2.888  -3.694   0.964  1.00  0.00     0.041 A 
ATOM      8  C   UNL     1       0.896  -4.194  -0.343  1.00  0.00     0.042 A 
ATOM      9  C   UNL     1       1.635  -5.015  -1.184  1.00  0.00     0.026 A 
ATOM     10  C   UNL     1       1.503  -3.656   0.786  1.00  0.00     0.040 A 
ATOM     11  C   UNL     1       3.011  -5.141  -0.983  1.00  0.00     0.003 A 
ATOM     12  C   UNL     1       3.640  -4.453   0.060  1.00  0.00     0.014 A 
BRANCH   8  13
ATOM     13  N   UNL     1      -0.433  -3.891  -0.671  1.00  0.00    -0.322 N 
ATOM     14  C   UNL     1      -1.142  -2.699  -0.598  1.00  0.00     0.258 C 
ATOM     15  O   UNL     1      -2.368  -2.770  -0.696  1.00  0.00    -0.269 OA
ATOM     16  H   UNL     1      -0.953  -4.655  -1.012  1.00  0.00     0.170 HD
BRANCH  14  17
ATOM     17  C   UNL     1      -0.492  -1.345  -0.531  1.00  0.00     0.076 A 
ATOM     18  C   UNL     1       2.943   0.296  -0.800  1.00  0.00     0.044 C 
ATOM     19  C   UNL     1       1.449   0.146  -0.695  1.00  0.00    -0.050 A 
ATOM     20  C   UNL     1       0.675   1.220  -0.248  1.00  0.00     0.006 A 
ATOM     21  C   UNL     1       0.835  -1.103  -0.927  1.00  0.00     0.020 A 
ATOM     22  C   UNL     1      -0.675   1.026   0.033  1.00  0.00     0.040 A 
ATOM     23  C   UNL     1      -1.240  -0.248  -0.081  1.00  0.00     0.135 A 
ATOM     24  F   UNL     1      -2.521  -0.380   0.290  1.00  0.00    -0.206 F 
ENDBRANCH  14  17
ENDBRANCH   8  13
ENDBRANCH   4   7
ENDBRANCH   2   3
ENDBRANCH   1   2
BRANCH   1  25
ATOM     25  C   UNL     1       0.513  -0.790   4.466  1.00  0.00     0.118 C 
BRANCH  25  26
ATOM     26  N   UNL     1      -0.116   0.469   4.048  1.00  0.00    -0.352 N 
ATOM     27  C   UNL     1      -0.660   1.446   4.855  1.00  0.00     0.251 C 
ATOM     28  H   UNL     1      -0.155   0.634   3.079  1.00  0.00     0.163 HD
ATOM     29  O   UNL     1      -1.402   2.306   4.416  1.00  0.00    -0.269 OA
BRANCH  27  30
ATOM     30  C   UNL     1      -0.270   1.430   6.269  1.00  0.00     0.039 A 
ATOM     31  C   UNL     1      -1.135   1.782   7.309  1.00  0.00     0.014 A 
ATOM     32  C   UNL     1       1.036   1.040   6.525  1.00  0.00     0.014 A 
ATOM     33  C   UNL     1      -0.649   1.749   8.613  1.00  0.00     0.010 A 
ATOM     34  C   UNL     1       1.387   0.685   7.779  1.00  0.00     0.010 A 
ATOM     35  C   UNL     1       0.624   1.220   8.812  1.00  0.00    -0.014 A 
BRANCH  35  36
ATOM     36  C   UNL     1       1.432   1.337  10.005  1.00  0.00     0.031 A 
ATOM     37  C   UNL     1       1.284   0.369  11.080  1.00  0.00     0.074 A 
ATOM     38  C   UNL     1       2.546   2.079   9.796  1.00  0.00     0.049 A 
ATOM     39  N   UNL     1       1.841   0.494  12.227  1.00  0.00    -0.248 NA
ATOM     40  C   UNL     1       0.494  -0.847  10.938  1.00  0.00     0.031 C 
ATOM     41  C   UNL     1       3.855   2.032  10.423  1.00  0.00     0.029 A 
ATOM     42  N   UNL     1       2.677   3.109   8.846  1.00  0.00    -0.354 N 
ATOM     43  C   UNL     1       1.807  -0.748  12.818  1.00  0.00     0.074 A 
ATOM     44  C   UNL     1       0.830  -1.495  12.059  1.00  0.00     0.031 C 
ATOM     45  C   UNL     1       4.518   3.163  10.101  1.00  0.00     0.029 A 
ATOM     46  C   UNL     1       3.579   4.030   9.401  1.00  0.00     0.049 A 
ATOM     47  H   UNL     1       2.228   3.171   7.971  1.00  0.00     0.167 HD
ATOM     48  C   UNL     1       2.757  -1.033  13.756  1.00  0.00     0.037 A 
ATOM     49  C   UNL     1       3.033   5.191   9.880  1.00  0.00     0.037 A 
ATOM     50  C   UNL     1       3.657   0.119  13.931  1.00  0.00     0.049 A 
ATOM     51  C   UNL     1       3.043   5.248  11.397  1.00  0.00     0.074 A 
ATOM     52  C   UNL     1       4.929   0.436  13.481  1.00  0.00     0.029 A 
ATOM     53  N   UNL     1       3.111   1.317  14.356  1.00  0.00    -0.354 N 
ATOM     54  N   UNL     1       3.406   4.261  12.170  1.00  0.00    -0.248 NA
ATOM     55  C   UNL     1       2.583   6.402  12.161  1.00  0.00     0.031 C 
ATOM     56  C   UNL     1       5.113   1.850  13.619  1.00  0.00     0.029 A 
ATOM     57  C   UNL     1       3.960   2.388  14.164  1.00  0.00     0.049 A 
ATOM     58  H   UNL     1       2.214   1.396  14.753  1.00  0.00     0.167 HD
ATOM     59  C   UNL     1       3.211   4.589  13.479  1.00  0.00     0.074 A 
ATOM     60  C   UNL     1       2.679   5.942  13.421  1.00  0.00     0.031 C 
ATOM     61  C   UNL     1       3.474   3.721  14.504  1.00  0.00     0.037 A 
BRANCH  48  62
ATOM     62  C   UNL     1       3.043  -2.405  14.330  1.00  0.00     0.064 A 
ATOM     63  C   UNL     1       4.287  -2.674  14.941  1.00  0.00     0.173 A 
ATOM     64  C   UNL     1       2.152  -3.497  14.322  1.00  0.00     0.173 A 
ATOM     65  F   UNL     1       5.205  -1.713  15.114  1.00  0.00    -0.203 F 
ATOM     66  C   UNL     1       4.639  -3.940  15.415  1.00  0.00     0.198 A 
ATOM     67  C   UNL     1       2.519  -4.777  14.755  1.00  0.00     0.198 A 
ATOM     68  F   UNL     1       0.872  -3.361  13.965  1.00  0.00    -0.203 F 
ATOM     69  F   UNL     1       5.837  -4.124  15.987  1.00  0.00    -0.200 F 
ATOM     70  C   UNL     1       3.765  -5.000  15.298  1.00  0.00     0.200 A 
ATOM     71  F   UNL     1       1.644  -5.788  14.656  1.00  0.00    -0.200 F 
ATOM     72  F   UNL     1       4.109  -6.218  15.735  1.00  0.00    -0.200 F 
ENDBRANCH  48  62
BRANCH  49  73
ATOM     73  C   UNL     1       1.902   5.652   8.993  1.00  0.00     0.064 A 
ATOM     74  C   UNL     1       2.191   5.888   7.628  1.00  0.00     0.173 A 
ATOM     75  C   UNL     1       0.562   5.399   9.323  1.00  0.00     0.173 A 
ATOM     76  F   UNL     1       3.455   6.126   7.243  1.00  0.00    -0.203 F 
ATOM     77  C   UNL     1       1.222   5.720   6.636  1.00  0.00     0.198 A 
ATOM     78  C   UNL     1      -0.411   5.262   8.326  1.00  0.00     0.198 A 
ATOM     79  F   UNL     1       0.209   5.159  10.593  1.00  0.00    -0.203 F 
ATOM     80  F   UNL     1       1.570   5.797   5.343  1.00  0.00    -0.200 F 
ATOM     81  C   UNL     1      -0.072   5.380   6.986  1.00  0.00     0.200 A 
ATOM     82  F   UNL     1      -1.665   4.923   8.662  1.00  0.00    -0.200 F 
ATOM     83  F   UNL     1      -0.982   5.131   6.034  1.00  0.00    -0.200 F 
ENDBRANCH  49  73
BRANCH  61  84
ATOM     84  C   UNL     1       3.250   4.074  15.950  1.00  0.00     0.064 A 
ATOM     85  C   UNL     1       3.609   5.322  16.476  1.00  0.00     0.173 A 
ATOM     86  C   UNL     1       2.750   3.135  16.883  1.00  0.00     0.173 A 
ATOM     87  F   UNL     1       4.200   6.249  15.708  1.00  0.00    -0.203 F 
ATOM     88  C   UNL     1       3.387   5.643  17.816  1.00  0.00     0.198 A 
ATOM     89  C   UNL     1       2.600   3.433  18.232  1.00  0.00     0.198 A 
ATOM     90  F   UNL     1       2.356   1.908  16.521  1.00  0.00    -0.203 F 
ATOM     91  F   UNL     1       3.660   6.879  18.255  1.00  0.00    -0.200 F 
ATOM     92  C   UNL     1       2.889   4.698  18.694  1.00  0.00     0.200 A 
ATOM     93  F   UNL     1       2.156   2.488  19.073  1.00  0.00    -0.200 F 
ATOM     94  F   UNL     1       2.685   5.004  19.982  1.00  0.00    -0.200 F 
ENDBRANCH  61  84
ENDBRANCH  35  36
ENDBRANCH  27  30
ENDBRANCH  25  26
ENDBRANCH   1  25
TORSDOF 12
