REMARK SMILES COc1ccc(C(=O)NCCCNC(=O)c2ccc(-c3c4nc(c(-c5c(F)c(F)c(F)c(F)c5F)c5ccc([nH]5)c(-c5c(F)c(F)c(F)c(F)c5F)c5nc(c(-c6c(F)c(F)c(F)c(F)c6F)c6ccc3[nH]6)C=C5)C=C4)cc2)cc1C(F)(F)F
REMARK SMILES IDX 11 1 10 2 9 3 7 4 8 5 6 7 3 8 4 9 80 10 5 11 79 12 2 13 1 14
REMARK SMILES IDX 81 15 82 16 83 17 84 18 12 19 13 20 14 21 15 23 16 24 17 25
REMARK SMILES IDX 78 26 18 27 77 28 19 29 20 30 21 31 71 32 22 33 76 34 70 35
REMARK SMILES IDX 72 36 23 37 75 38 69 39 68 40 24 42 56 43 36 44 55 45 37 46
REMARK SMILES IDX 40 47 54 48 73 49 38 50 39 51 53 53 74 54 41 55 25 56 26 57
REMARK SMILES IDX 34 58 27 59 28 60 32 61 35 62 29 63 30 64 33 65 31 66 57 67
REMARK SMILES IDX 58 68 66 69 59 70 60 71 64 72 67 73 61 74 62 75 65 76 63 77
REMARK SMILES IDX 42 78 43 79 51 80 44 81 45 82 49 83 52 84 46 85 47 86 50 87
REMARK SMILES IDX 48 88
REMARK H PARENT 9 6 13 22 72 41 40 52
REMARK Flexibility Score: inf
ROOT
ATOM      1  C   UNL     1       5.370  -5.431   2.319  1.00  0.00     0.042 C 
ENDROOT
BRANCH   1   2
ATOM      2  C   UNL     1       4.102  -5.892   1.599  1.00  0.00     0.118 C 
BRANCH   2   3
ATOM      3  N   UNL     1       3.025  -6.157   2.536  1.00  0.00    -0.352 N 
ATOM      4  C   UNL     1       1.921  -5.431   2.904  1.00  0.00     0.251 C 
ATOM      5  O   UNL     1       1.117  -5.966   3.667  1.00  0.00    -0.269 OA
ATOM      6  H   UNL     1       3.103  -7.023   2.997  1.00  0.00     0.163 HD
BRANCH   4   7
ATOM      7  C   UNL     1       1.633  -4.056   2.402  1.00  0.00     0.040 A 
ATOM      8  C   UNL     1       0.933  -1.488   1.492  1.00  0.00     0.131 A 
ATOM      9  C   UNL     1      -0.057  -2.379   1.911  1.00  0.00     0.048 A 
ATOM     10  C   UNL     1       2.282  -1.839   1.570  1.00  0.00     0.098 A 
ATOM     11  C   UNL     1       0.291  -3.659   2.350  1.00  0.00     0.017 A 
ATOM     12  C   UNL     1       2.614  -3.126   2.045  1.00  0.00     0.030 A 
BRANCH   8  13
ATOM     13  O   UNL     1       0.530  -0.238   1.117  1.00  0.00    -0.496 OA
ATOM     14  C   UNL     1       0.453  -0.111  -0.303  1.00  0.00     0.278 C 
ENDBRANCH   8  13
BRANCH  10  15
ATOM     15  C   UNL     1       3.385  -0.922   1.112  1.00  0.00     0.419 C 
ATOM     16  F   UNL     1       4.584  -1.206   1.702  1.00  0.00    -0.166 F 
ATOM     17  F   UNL     1       3.610  -1.041  -0.229  1.00  0.00    -0.166 F 
ATOM     18  F   UNL     1       3.170   0.399   1.344  1.00  0.00    -0.166 F 
ENDBRANCH  10  15
ENDBRANCH   4   7
ENDBRANCH   2   3
ENDBRANCH   1   2
BRANCH   1  19
ATOM     19  C   UNL     1       6.139  -6.565   2.991  1.00  0.00     0.118 C 
BRANCH  19  20
ATOM     20  N   UNL     1       6.795  -7.428   2.021  1.00  0.00    -0.352 N 
ATOM     21  C   UNL     1       8.112  -7.790   1.908  1.00  0.00     0.251 C 
ATOM     22  H   UNL     1       6.199  -7.813   1.338  1.00  0.00     0.163 HD
ATOM     23  O   UNL     1       8.491  -8.365   0.885  1.00  0.00    -0.269 OA
BRANCH  21  24
ATOM     24  C   UNL     1       9.087  -7.500   2.982  1.00  0.00     0.039 A 
ATOM     25  C   UNL     1      10.386  -7.124   2.621  1.00  0.00     0.014 A 
ATOM     26  C   UNL     1       8.762  -7.662   4.332  1.00  0.00     0.014 A 
ATOM     27  C   UNL     1      11.342  -6.872   3.608  1.00  0.00     0.010 A 
ATOM     28  C   UNL     1       9.699  -7.352   5.318  1.00  0.00     0.010 A 
ATOM     29  C   UNL     1      11.000  -6.964   4.966  1.00  0.00    -0.014 A 
BRANCH  29  30
ATOM     30  C   UNL     1      11.996  -6.672   6.027  1.00  0.00     0.031 A 
ATOM     31  C   UNL     1      12.474  -7.766   6.941  1.00  0.00     0.074 A 
ATOM     32  C   UNL     1      12.430  -5.409   6.204  1.00  0.00     0.049 A 
ATOM     33  N   UNL     1      13.284  -7.695   7.968  1.00  0.00    -0.248 NA
ATOM     34  C   UNL     1      11.952  -9.117   6.681  1.00  0.00     0.031 C 
ATOM     35  C   UNL     1      12.011  -4.254   5.410  1.00  0.00     0.029 A 
ATOM     36  N   UNL     1      13.309  -4.884   7.118  1.00  0.00    -0.354 N 
ATOM     37  C   UNL     1      13.355  -8.982   8.484  1.00  0.00     0.074 A 
ATOM     38  C   UNL     1      12.473  -9.807   7.685  1.00  0.00     0.031 C 
ATOM     39  C   UNL     1      12.643  -3.159   5.861  1.00  0.00     0.029 A 
ATOM     40  C   UNL     1      13.485  -3.528   6.995  1.00  0.00     0.049 A 
ATOM     41  H   UNL     1      13.771  -5.428   7.796  1.00  0.00     0.167 HD
ATOM     42  C   UNL     1      14.102  -9.439   9.517  1.00  0.00     0.037 A 
ATOM     43  C   UNL     1      14.235  -2.677   7.720  1.00  0.00     0.037 A 
ATOM     44  C   UNL     1      15.000  -8.623  10.292  1.00  0.00     0.049 A 
ATOM     45  C   UNL     1      15.065  -3.211   8.855  1.00  0.00     0.074 A 
ATOM     46  C   UNL     1      15.842  -9.004  11.322  1.00  0.00     0.029 A 
ATOM     47  N   UNL     1      15.173  -7.258  10.119  1.00  0.00    -0.354 N 
ATOM     48  N   UNL     1      15.168  -4.441   9.297  1.00  0.00    -0.248 NA
ATOM     49  C   UNL     1      15.889  -2.239   9.588  1.00  0.00     0.031 C 
ATOM     50  C   UNL     1      16.498  -7.862  11.797  1.00  0.00     0.029 A 
ATOM     51  C   UNL     1      16.097  -6.778  11.033  1.00  0.00     0.049 A 
ATOM     52  H   UNL     1      14.708  -6.710   9.445  1.00  0.00     0.167 HD
ATOM     53  C   UNL     1      16.083  -4.396  10.339  1.00  0.00     0.074 A 
ATOM     54  C   UNL     1      16.517  -3.020  10.456  1.00  0.00     0.031 C 
ATOM     55  C   UNL     1      16.523  -5.405  11.130  1.00  0.00     0.037 A 
BRANCH  42  56
ATOM     56  C   UNL     1      13.983 -10.893   9.869  1.00  0.00     0.064 A 
ATOM     57  C   UNL     1      14.509 -11.895   9.039  1.00  0.00     0.173 A 
ATOM     58  C   UNL     1      13.369 -11.289  11.066  1.00  0.00     0.173 A 
ATOM     59  F   UNL     1      15.097 -11.570   7.878  1.00  0.00    -0.203 F 
ATOM     60  C   UNL     1      14.399 -13.241   9.381  1.00  0.00     0.198 A 
ATOM     61  C   UNL     1      13.285 -12.634  11.419  1.00  0.00     0.198 A 
ATOM     62  F   UNL     1      12.855 -10.372  11.899  1.00  0.00    -0.203 F 
ATOM     63  F   UNL     1      14.867 -14.182   8.550  1.00  0.00    -0.200 F 
ATOM     64  C   UNL     1      13.793 -13.609  10.573  1.00  0.00     0.200 A 
ATOM     65  F   UNL     1      12.709 -12.988  12.576  1.00  0.00    -0.200 F 
ATOM     66  F   UNL     1      13.692 -14.904  10.903  1.00  0.00    -0.200 F 
ENDBRANCH  42  56
BRANCH  43  67
ATOM     67  C   UNL     1      14.255  -1.233   7.375  1.00  0.00     0.064 A 
ATOM     68  C   UNL     1      15.391  -0.648   6.798  1.00  0.00     0.173 A 
ATOM     69  C   UNL     1      13.143  -0.411   7.609  1.00  0.00     0.173 A 
ATOM     70  F   UNL     1      16.485  -1.390   6.575  1.00  0.00    -0.203 F 
ATOM     71  C   UNL     1      15.419   0.709   6.483  1.00  0.00     0.198 A 
ATOM     72  C   UNL     1      13.164   0.940   7.269  1.00  0.00     0.198 A 
ATOM     73  F   UNL     1      12.031  -0.925   8.155  1.00  0.00    -0.203 F 
ATOM     74  F   UNL     1      16.532   1.251   5.969  1.00  0.00    -0.200 F 
ATOM     75  C   UNL     1      14.304   1.500   6.713  1.00  0.00     0.200 A 
ATOM     76  F   UNL     1      12.080   1.698   7.481  1.00  0.00    -0.200 F 
ATOM     77  F   UNL     1      14.330   2.804   6.405  1.00  0.00    -0.200 F 
ENDBRANCH  43  67
BRANCH  55  78
ATOM     78  C   UNL     1      17.550  -5.064  12.169  1.00  0.00     0.064 A 
ATOM     79  C   UNL     1      17.214  -4.347  13.326  1.00  0.00     0.173 A 
ATOM     80  C   UNL     1      18.878  -5.491  12.021  1.00  0.00     0.173 A 
ATOM     81  F   UNL     1      15.960  -3.904  13.505  1.00  0.00    -0.203 F 
ATOM     82  C   UNL     1      18.176  -4.050  14.287  1.00  0.00     0.198 A 
ATOM     83  C   UNL     1      19.832  -5.215  12.997  1.00  0.00     0.198 A 
ATOM     84  F   UNL     1      19.249  -6.185  10.934  1.00  0.00    -0.203 F 
ATOM     85  F   UNL     1      17.843  -3.325  15.364  1.00  0.00    -0.200 F 
ATOM     86  C   UNL     1      19.482  -4.489  14.125  1.00  0.00     0.200 A 
ATOM     87  F   UNL     1      21.090  -5.649  12.844  1.00  0.00    -0.200 F 
ATOM     88  F   UNL     1      20.405  -4.206  15.054  1.00  0.00    -0.200 F 
ENDBRANCH  55  78
ENDBRANCH  29  30
ENDBRANCH  21  24
ENDBRANCH  19  20
ENDBRANCH   1  19
TORSDOF 12
