REMARK SMILES CC[C@](NC(=O)c1cccc(CS(C)(=O)=O)c1)(C(=O)NCCCNC(=O)c1ccc(-c2c3nc(c(-c4c(F)c(F)c(F)c(F)c4F)c4ccc([nH]4)c(-c4c(F)c(F)c(F)c(F)c4F)c4nc(c(-c5c(F)c(F)c(F)c(F)c5F)c5ccc2[nH]5)C=C4)C=C3)cc1)c1ccccc1
REMARK SMILES IDX 21 1 20 2 18 3 19 4 3 6 2 7 1 8 90 9 91 10 95 11 92 12 94 13
REMARK SMILES IDX 93 14 4 15 5 16 6 18 7 19 8 20 17 21 9 22 11 23 10 24 12 25
REMARK SMILES IDX 13 26 14 27 15 28 16 29 22 30 23 31 24 32 25 33 26 35 27 36
REMARK SMILES IDX 28 37 89 38 29 39 88 40 30 41 31 42 32 43 82 44 33 45 87 46
REMARK SMILES IDX 81 47 83 48 34 49 86 50 80 51 79 52 35 54 67 55 47 56 66 57
REMARK SMILES IDX 48 58 51 59 65 60 84 61 49 62 50 63 64 65 85 66 52 67 36 68
REMARK SMILES IDX 37 69 45 70 38 71 39 72 43 73 46 74 40 75 41 76 44 77 42 78
REMARK SMILES IDX 68 79 69 80 77 81 70 82 71 83 75 84 78 85 72 86 73 87 76 88
REMARK SMILES IDX 74 89 53 90 54 91 62 92 55 93 56 94 60 95 63 96 57 97 58 98
REMARK SMILES IDX 61 99 59 100
REMARK H PARENT 20 5 4 17 24 34 83 53 51 64
REMARK Flexibility Score: inf
ROOT
ATOM      1  C   UNL     1      -2.341   1.455   2.540  1.00  0.00     0.117 C 
ENDROOT
BRANCH   1   2
ATOM      2  N   UNL     1      -1.299   1.512   3.559  1.00  0.00    -0.354 N 
ATOM      3  C   UNL     1       0.066   1.319   3.534  1.00  0.00     0.250 C 
ATOM      4  O   UNL     1       0.645   1.566   4.599  1.00  0.00    -0.272 OA
ATOM      5  H   UNL     1      -1.643   1.735   4.454  1.00  0.00     0.163 HD
BRANCH   3   6
ATOM      6  C   UNL     1       0.837   0.852   2.241  1.00  0.00     0.144 C 
BRANCH   6   7
ATOM      7  C   UNL     1       0.598   2.031   1.188  1.00  0.00     0.040 C 
ATOM      8  C   UNL     1       0.027   1.693  -0.186  1.00  0.00     0.007 C 
ENDBRANCH   6   7
BRANCH   6   9
ATOM      9  C   UNL     1       2.384   0.762   2.459  1.00  0.00    -0.013 A 
ATOM     10  C   UNL     1       3.119  -0.430   2.325  1.00  0.00     0.007 A 
ATOM     11  C   UNL     1       3.133   1.931   2.736  1.00  0.00     0.007 A 
ATOM     12  C   UNL     1       4.517  -0.449   2.426  1.00  0.00     0.000 A 
ATOM     13  C   UNL     1       4.532   1.920   2.793  1.00  0.00     0.000 A 
ATOM     14  C   UNL     1       5.225   0.728   2.637  1.00  0.00     0.000 A 
ENDBRANCH   6   9
BRANCH   6  15
ATOM     15  N   UNL     1       0.280  -0.443   1.727  1.00  0.00    -0.334 N 
ATOM     16  C   UNL     1       0.152  -1.731   2.205  1.00  0.00     0.252 C 
ATOM     17  H   UNL     1      -0.087  -0.349   0.819  1.00  0.00     0.165 HD
ATOM     18  O   UNL     1       0.024  -2.618   1.357  1.00  0.00    -0.269 OA
BRANCH  16  19
ATOM     19  C   UNL     1       0.170  -2.149   3.633  1.00  0.00     0.040 A 
ATOM     20  C   UNL     1       0.762  -3.366   3.980  1.00  0.00     0.014 A 
ATOM     21  C   UNL     1      -0.501  -1.456   4.635  1.00  0.00     0.018 A 
ATOM     22  C   UNL     1       0.739  -3.814   5.308  1.00  0.00     0.001 A 
ATOM     23  C   UNL     1      -0.475  -1.836   5.987  1.00  0.00    -0.032 A 
ATOM     24  C   UNL     1       0.151  -3.038   6.312  1.00  0.00     0.005 A 
BRANCH  23  25
ATOM     25  C   UNL     1      -0.983  -0.867   7.028  1.00  0.00     0.172 C 
BRANCH  25  26
ATOM     26  S   UNL     1      -2.598  -1.243   7.679  1.00  0.00     0.151 S 
ATOM     27  C   UNL     1      -2.436  -2.776   8.552  1.00  0.00     0.158 C 
ATOM     28  O   UNL     1      -2.903  -0.228   8.667  1.00  0.00    -0.229 OA
ATOM     29  O   UNL     1      -3.518  -1.472   6.579  1.00  0.00    -0.229 OA
ENDBRANCH  25  26
ENDBRANCH  23  25
ENDBRANCH  16  19
ENDBRANCH   6  15
ENDBRANCH   3   6
ENDBRANCH   1   2
BRANCH   1  30
ATOM     30  C   UNL     1      -3.038   0.111   2.329  1.00  0.00     0.042 C 
BRANCH  30  31
ATOM     31  C   UNL     1      -3.838  -0.436   3.506  1.00  0.00     0.118 C 
BRANCH  31  32
ATOM     32  N   UNL     1      -4.873   0.460   3.983  1.00  0.00    -0.352 N 
ATOM     33  C   UNL     1      -6.189   0.220   4.282  1.00  0.00     0.251 C 
ATOM     34  H   UNL     1      -4.583   1.392   4.113  1.00  0.00     0.163 HD
ATOM     35  O   UNL     1      -6.905   1.163   4.613  1.00  0.00    -0.269 OA
BRANCH  33  36
ATOM     36  C   UNL     1      -6.781  -1.135   4.175  1.00  0.00     0.039 A 
ATOM     37  C   UNL     1      -8.063  -1.251   3.629  1.00  0.00     0.014 A 
ATOM     38  C   UNL     1      -6.133  -2.276   4.651  1.00  0.00     0.014 A 
ATOM     39  C   UNL     1      -8.668  -2.506   3.520  1.00  0.00     0.010 A 
ATOM     40  C   UNL     1      -6.710  -3.534   4.497  1.00  0.00     0.010 A 
ATOM     41  C   UNL     1      -7.984  -3.660   3.932  1.00  0.00    -0.014 A 
BRANCH  41  42
ATOM     42  C   UNL     1      -8.570  -5.008   3.742  1.00  0.00     0.031 A 
ATOM     43  C   UNL     1      -8.964  -5.847   4.923  1.00  0.00     0.074 A 
ATOM     44  C   UNL     1      -8.669  -5.501   2.493  1.00  0.00     0.049 A 
ATOM     45  N   UNL     1      -9.460  -7.059   4.949  1.00  0.00    -0.248 NA
ATOM     46  C   UNL     1      -8.750  -5.258   6.253  1.00  0.00     0.031 C 
ATOM     47  C   UNL     1      -8.252  -4.800   1.278  1.00  0.00     0.029 A 
ATOM     48  N   UNL     1      -9.133  -6.709   2.039  1.00  0.00    -0.354 N 
ATOM     49  C   UNL     1      -9.615  -7.376   6.292  1.00  0.00     0.074 A 
ATOM     50  C   UNL     1      -9.107  -6.254   7.051  1.00  0.00     0.031 C 
ATOM     51  C   UNL     1      -8.492  -5.582   0.216  1.00  0.00     0.029 A 
ATOM     52  C   UNL     1      -9.049  -6.850   0.676  1.00  0.00     0.049 A 
ATOM     53  H   UNL     1      -9.491  -7.407   2.633  1.00  0.00     0.167 HD
ATOM     54  C   UNL     1     -10.152  -8.495   6.837  1.00  0.00     0.037 A 
ATOM     55  C   UNL     1      -9.378  -7.890  -0.112  1.00  0.00     0.037 A 
ATOM     56  C   UNL     1     -10.651  -9.607   6.066  1.00  0.00     0.049 A 
ATOM     57  C   UNL     1      -9.964  -9.124   0.517  1.00  0.00     0.074 A 
ATOM     58  C   UNL     1     -11.271 -10.760   6.514  1.00  0.00     0.029 A 
ATOM     59  N   UNL     1     -10.571  -9.709   4.684  1.00  0.00    -0.354 N 
ATOM     60  N   UNL     1     -10.197  -9.377   1.782  1.00  0.00    -0.248 NA
ATOM     61  C   UNL     1     -10.346 -10.212  -0.393  1.00  0.00     0.031 C 
ATOM     62  C   UNL     1     -11.510 -11.585   5.410  1.00  0.00     0.029 A 
ATOM     63  C   UNL     1     -11.103 -10.919   4.265  1.00  0.00     0.049 A 
ATOM     64  H   UNL     1     -10.193  -9.022   4.088  1.00  0.00     0.167 HD
ATOM     65  C   UNL     1     -10.778 -10.637   1.819  1.00  0.00     0.074 A 
ATOM     66  C   UNL     1     -10.877 -11.089   0.446  1.00  0.00     0.031 C 
ATOM     67  C   UNL     1     -11.194 -11.354   2.893  1.00  0.00     0.037 A 
BRANCH  54  68
ATOM     68  C   UNL     1     -10.225  -8.575   8.337  1.00  0.00     0.064 A 
ATOM     69  C   UNL     1     -11.068  -7.733   9.081  1.00  0.00     0.173 A 
ATOM     70  C   UNL     1      -9.473  -9.530   9.040  1.00  0.00     0.173 A 
ATOM     71  F   UNL     1     -11.806  -6.800   8.462  1.00  0.00    -0.203 F 
ATOM     72  C   UNL     1     -11.126  -7.819  10.470  1.00  0.00     0.198 A 
ATOM     73  C   UNL     1      -9.561  -9.636  10.426  1.00  0.00     0.198 A 
ATOM     74  F   UNL     1      -8.658 -10.368   8.382  1.00  0.00    -0.203 F 
ATOM     75  F   UNL     1     -11.896  -6.966  11.160  1.00  0.00    -0.200 F 
ATOM     76  C   UNL     1     -10.378  -8.774  11.140  1.00  0.00     0.200 A 
ATOM     77  F   UNL     1      -8.850 -10.572  11.071  1.00  0.00    -0.200 F 
ATOM     78  F   UNL     1     -10.440  -8.860  12.476  1.00  0.00    -0.200 F 
ENDBRANCH  54  68
BRANCH  55  79
ATOM     79  C   UNL     1      -9.194  -7.787  -1.583  1.00  0.00     0.064 A 
ATOM     80  C   UNL     1     -10.298  -7.713  -2.443  1.00  0.00     0.173 A 
ATOM     81  C   UNL     1      -7.915  -7.743  -2.158  1.00  0.00     0.173 A 
ATOM     82  F   UNL     1     -11.541  -7.768  -1.943  1.00  0.00    -0.203 F 
ATOM     83  C   UNL     1     -10.131  -7.619  -3.823  1.00  0.00     0.198 A 
ATOM     84  C   UNL     1      -7.749  -7.617  -3.535  1.00  0.00     0.198 A 
ATOM     85  F   UNL     1      -6.825  -7.801  -1.378  1.00  0.00    -0.203 F 
ATOM     86  F   UNL     1     -11.204  -7.593  -4.625  1.00  0.00    -0.200 F 
ATOM     87  C   UNL     1      -8.857  -7.563  -4.367  1.00  0.00     0.200 A 
ATOM     88  F   UNL     1      -6.516  -7.545  -4.056  1.00  0.00    -0.200 F 
ATOM     89  F   UNL     1      -8.697  -7.463  -5.694  1.00  0.00    -0.200 F 
ENDBRANCH  55  79
BRANCH  67  90
ATOM     90  C   UNL     1     -11.829 -12.689   2.623  1.00  0.00     0.064 A 
ATOM     91  C   UNL     1     -11.084 -13.782   2.158  1.00  0.00     0.173 A 
ATOM     92  C   UNL     1     -13.197 -12.884   2.868  1.00  0.00     0.173 A 
ATOM     93  F   UNL     1      -9.775 -13.645   1.894  1.00  0.00    -0.203 F 
ATOM     94  C   UNL     1     -11.691 -15.012   1.918  1.00  0.00     0.198 A 
ATOM     95  C   UNL     1     -13.793 -14.125   2.661  1.00  0.00     0.198 A 
ATOM     96  F   UNL     1     -13.955 -11.874   3.320  1.00  0.00    -0.203 F 
ATOM     97  F   UNL     1     -10.970 -16.027   1.420  1.00  0.00    -0.200 F 
ATOM     98  C   UNL     1     -13.042 -15.185   2.178  1.00  0.00     0.200 A 
ATOM     99  F   UNL     1     -15.095 -14.294   2.929  1.00  0.00    -0.200 F 
ATOM    100  F   UNL     1     -13.622 -16.372   1.954  1.00  0.00    -0.200 F 
ENDBRANCH  67  90
ENDBRANCH  41  42
ENDBRANCH  33  36
ENDBRANCH  31  32
ENDBRANCH  30  31
ENDBRANCH   1  30
TORSDOF 16
