REMARK SMILES COc1cc(OC)cc(-c2ccc([C@@H](C)C(=O)NCCCNC(=O)c3ccc(-c4c5nc(c(-c6c(F)c(F)c(F)c(F)c6F)c6ccc([nH]6)c(-c6c(F)c(F)c(F)c(F)c6F)c6nc(c(-c7c(F)c(F)c(F)c(F)c7F)c7ccc4[nH]7)C=C6)C=C5)cc3)cc2F)c1
REMARK SMILES IDX 19 1 18 2 16 3 17 4 14 6 15 7 13 8 10 9 11 10 89 11 12 12
REMARK SMILES IDX 88 13 90 14 9 15 3 16 4 17 91 18 5 19 8 20 2 21 1 22 6 23
REMARK SMILES IDX 7 24 20 25 21 26 22 27 23 28 24 30 25 31 26 32 87 33 27 34
REMARK SMILES IDX 86 35 28 36 29 37 30 38 80 39 31 40 85 41 79 42 81 43 32 44
REMARK SMILES IDX 84 45 78 46 77 47 33 49 65 50 45 51 64 52 46 53 49 54 63 55
REMARK SMILES IDX 82 56 47 57 48 58 62 60 83 61 50 62 34 63 35 64 43 65 36 66
REMARK SMILES IDX 37 67 41 68 44 69 38 70 39 71 42 72 40 73 66 74 67 75 75 76
REMARK SMILES IDX 68 77 69 78 73 79 76 80 70 81 71 82 74 83 72 84 51 85 52 86
REMARK SMILES IDX 60 87 53 88 54 89 58 90 61 91 55 92 56 93 59 94 57 95
REMARK H PARENT 18 5 22 29 81 48 49 59
REMARK Flexibility Score: inf
ROOT
ATOM      1  C   UNL     1       7.324   7.190   1.553  1.00  0.00     0.117 C 
ENDROOT
BRANCH   1   2
ATOM      2  N   UNL     1       8.185   6.033   1.402  1.00  0.00    -0.356 N 
ATOM      3  C   UNL     1       8.480   5.247   0.331  1.00  0.00     0.227 C 
ATOM      4  O   UNL     1       9.214   4.276   0.556  1.00  0.00    -0.274 OA
ATOM      5  H   UNL     1       8.643   5.765   2.231  1.00  0.00     0.163 HD
BRANCH   3   6
ATOM      6  C   UNL     1       7.956   5.493  -1.092  1.00  0.00     0.105 C 
ATOM      7  C   UNL     1       8.323   6.857  -1.678  1.00  0.00     0.023 C 
BRANCH   6   8
ATOM      8  C   UNL     1       6.511   5.059  -1.278  1.00  0.00    -0.033 A 
ATOM      9  C   UNL     1       3.812   4.126  -1.502  1.00  0.00     0.018 A 
ATOM     10  C   UNL     1       4.114   5.447  -1.126  1.00  0.00     0.012 A 
ATOM     11  C   UNL     1       4.904   3.292  -1.778  1.00  0.00     0.131 A 
ATOM     12  C   UNL     1       5.432   5.914  -1.052  1.00  0.00     0.005 A 
ATOM     13  C   UNL     1       6.225   3.737  -1.654  1.00  0.00     0.044 A 
ATOM     14  F   UNL     1       4.710   2.027  -2.184  1.00  0.00    -0.206 F 
BRANCH   9  15
ATOM     15  C   UNL     1       2.401   3.683  -1.611  1.00  0.00    -0.008 A 
ATOM     16  C   UNL     1       0.641   2.013  -1.321  1.00  0.00     0.123 A 
ATOM     17  C   UNL     1      -0.298   2.915  -1.821  1.00  0.00     0.092 A 
ATOM     18  C   UNL     1       1.983   2.397  -1.218  1.00  0.00     0.055 A 
ATOM     19  C   UNL     1       0.080   4.197  -2.209  1.00  0.00     0.123 A 
ATOM     20  C   UNL     1       1.422   4.566  -2.111  1.00  0.00     0.055 A 
BRANCH  16  21
ATOM     21  O   UNL     1       0.134   0.783  -1.002  1.00  0.00    -0.497 OA
ATOM     22  C   UNL     1       0.888   0.001  -0.085  1.00  0.00     0.278 C 
ENDBRANCH  16  21
BRANCH  19  23
ATOM     23  O   UNL     1      -0.935   4.993  -2.663  1.00  0.00    -0.497 OA
ATOM     24  C   UNL     1      -0.581   6.298  -3.105  1.00  0.00     0.278 C 
ENDBRANCH  19  23
ENDBRANCH   9  15
ENDBRANCH   6   8
ENDBRANCH   3   6
ENDBRANCH   1   2
BRANCH   1  25
ATOM     25  C   UNL     1       5.952   6.824   2.114  1.00  0.00     0.042 C 
BRANCH  25  26
ATOM     26  C   UNL     1       5.926   6.643   3.626  1.00  0.00     0.118 C 
BRANCH  26  27
ATOM     27  N   UNL     1       6.072   7.906   4.336  1.00  0.00    -0.352 N 
ATOM     28  C   UNL     1       5.219   8.563   5.188  1.00  0.00     0.251 C 
ATOM     29  H   UNL     1       6.928   8.366   4.178  1.00  0.00     0.163 HD
ATOM     30  O   UNL     1       5.475   9.722   5.506  1.00  0.00    -0.269 OA
BRANCH  28  31
ATOM     31  C   UNL     1       3.998   7.915   5.723  1.00  0.00     0.039 A 
ATOM     32  C   UNL     1       2.862   8.705   5.939  1.00  0.00     0.014 A 
ATOM     33  C   UNL     1       3.975   6.566   6.087  1.00  0.00     0.014 A 
ATOM     34  C   UNL     1       1.702   8.138   6.474  1.00  0.00     0.010 A 
ATOM     35  C   UNL     1       2.794   5.983   6.543  1.00  0.00     0.010 A 
ATOM     36  C   UNL     1       1.651   6.766   6.760  1.00  0.00    -0.014 A 
BRANCH  36  37
ATOM     37  C   UNL     1       0.427   6.138   7.324  1.00  0.00     0.031 A 
ATOM     38  C   UNL     1       0.457   5.532   8.701  1.00  0.00     0.074 A 
ATOM     39  C   UNL     1      -0.692   6.060   6.579  1.00  0.00     0.049 A 
ATOM     40  N   UNL     1      -0.475   4.868   9.337  1.00  0.00    -0.248 NA
ATOM     41  C   UNL     1       1.715   5.665   9.453  1.00  0.00     0.031 C 
ATOM     42  C   UNL     1      -0.837   6.570   5.215  1.00  0.00     0.029 A 
ATOM     43  N   UNL     1      -1.917   5.510   6.861  1.00  0.00    -0.354 N 
ATOM     44  C   UNL     1       0.091   4.485  10.546  1.00  0.00     0.074 A 
ATOM     45  C   UNL     1       1.461   4.948  10.537  1.00  0.00     0.031 C 
ATOM     46  C   UNL     1      -2.086   6.328   4.787  1.00  0.00     0.029 A 
ATOM     47  C   UNL     1      -2.819   5.617   5.830  1.00  0.00     0.049 A 
ATOM     48  H   UNL     1      -2.130   5.080   7.721  1.00  0.00     0.167 HD
ATOM     49  C   UNL     1      -0.485   3.826  11.580  1.00  0.00     0.037 A 
ATOM     50  C   UNL     1      -4.091   5.186   5.737  1.00  0.00     0.037 A 
ATOM     51  C   UNL     1      -1.860   3.400  11.604  1.00  0.00     0.049 A 
ATOM     52  C   UNL     1      -4.714   4.473   6.906  1.00  0.00     0.074 A 
ATOM     53  C   UNL     1      -2.555   2.779  12.627  1.00  0.00     0.029 A 
ATOM     54  N   UNL     1      -2.751   3.556  10.552  1.00  0.00    -0.354 N 
ATOM     55  N   UNL     1      -4.186   4.166   8.066  1.00  0.00    -0.248 NA
ATOM     56  C   UNL     1      -6.115   4.053   6.754  1.00  0.00     0.031 C 
ATOM     57  C   UNL     1      -3.858   2.527  12.181  1.00  0.00     0.029 A 
ATOM     58  C   UNL     1      -3.986   3.031  10.897  1.00  0.00     0.049 A 
ATOM     59  H   UNL     1      -2.537   3.978   9.688  1.00  0.00     0.167 HD
ATOM     60  C   UNL     1      -5.194   3.546   8.792  1.00  0.00     0.074 A 
ATOM     61  C   UNL     1      -6.369   3.530   7.945  1.00  0.00     0.031 C 
ATOM     62  C   UNL     1      -5.149   3.035  10.047  1.00  0.00     0.037 A 
BRANCH  49  63
ATOM     63  C   UNL     1       0.373   3.529  12.776  1.00  0.00     0.064 A 
ATOM     64  C   UNL     1       0.811   4.546  13.639  1.00  0.00     0.173 A 
ATOM     65  C   UNL     1       0.744   2.210  13.077  1.00  0.00     0.173 A 
ATOM     66  F   UNL     1       0.494   5.825  13.389  1.00  0.00    -0.203 F 
ATOM     67  C   UNL     1       1.616   4.257  14.738  1.00  0.00     0.198 A 
ATOM     68  C   UNL     1       1.525   1.921  14.194  1.00  0.00     0.198 A 
ATOM     69  F   UNL     1       0.348   1.199  12.289  1.00  0.00    -0.203 F 
ATOM     70  F   UNL     1       2.067   5.251  15.515  1.00  0.00    -0.200 F 
ATOM     71  C   UNL     1       1.968   2.945  15.018  1.00  0.00     0.200 A 
ATOM     72  F   UNL     1       1.854   0.652  14.470  1.00  0.00    -0.200 F 
ATOM     73  F   UNL     1       2.741   2.669  16.076  1.00  0.00    -0.200 F 
ENDBRANCH  49  63
BRANCH  50  74
ATOM     74  C   UNL     1      -4.872   5.452   4.503  1.00  0.00     0.064 A 
ATOM     75  C   UNL     1      -5.913   6.391   4.503  1.00  0.00     0.173 A 
ATOM     76  C   UNL     1      -4.593   4.786   3.301  1.00  0.00     0.173 A 
ATOM     77  F   UNL     1      -6.230   7.038   5.635  1.00  0.00    -0.203 F 
ATOM     78  C   UNL     1      -6.656   6.642   3.352  1.00  0.00     0.198 A 
ATOM     79  C   UNL     1      -5.321   5.057   2.144  1.00  0.00     0.198 A 
ATOM     80  F   UNL     1      -3.604   3.882   3.249  1.00  0.00    -0.203 F 
ATOM     81  F   UNL     1      -7.671   7.516   3.390  1.00  0.00    -0.200 F 
ATOM     82  C   UNL     1      -6.356   5.980   2.172  1.00  0.00     0.200 A 
ATOM     83  F   UNL     1      -5.020   4.423   1.002  1.00  0.00    -0.200 F 
ATOM     84  F   UNL     1      -7.067   6.227   1.063  1.00  0.00    -0.200 F 
ENDBRANCH  50  74
BRANCH  62  85
ATOM     85  C   UNL     1      -6.418   2.454  10.597  1.00  0.00     0.064 A 
ATOM     86  C   UNL     1      -6.918   1.223  10.149  1.00  0.00     0.173 A 
ATOM     87  C   UNL     1      -7.119   3.119  11.614  1.00  0.00     0.173 A 
ATOM     88  F   UNL     1      -6.291   0.556   9.169  1.00  0.00    -0.203 F 
ATOM     89  C   UNL     1      -8.088   0.690  10.683  1.00  0.00     0.198 A 
ATOM     90  C   UNL     1      -8.274   2.571  12.164  1.00  0.00     0.198 A 
ATOM     91  F   UNL     1      -6.677   4.297  12.081  1.00  0.00    -0.203 F 
ATOM     92  F   UNL     1      -8.573  -0.466  10.210  1.00  0.00    -0.200 F 
ATOM     93  C   UNL     1      -8.761   1.361  11.694  1.00  0.00     0.200 A 
ATOM     94  F   UNL     1      -8.916   3.214  13.149  1.00  0.00    -0.200 F 
ATOM     95  F   UNL     1      -9.884   0.844  12.211  1.00  0.00    -0.200 F 
ENDBRANCH  62  85
ENDBRANCH  36  37
ENDBRANCH  28  31
ENDBRANCH  26  27
ENDBRANCH  25  26
ENDBRANCH   1  25
TORSDOF 14
