REMARK SMILES Cc1cc2[nH]ccc2nc1C(=O)NCCCNC(=O)c1ccc(-c2c3nc(c(-c4c(F)c(F)c(F)c(F)c4F)c4ccc([nH]4)c(-c4c(F)c(F)c(F)c(F)c4F)c4nc(c(-c5c(F)c(F)c(F)c(F)c5F)c5ccc2[nH]5)C=C4)C=C3)cc1
REMARK SMILES IDX 16 1 15 2 14 3 13 4 11 5 12 6 10 8 1 9 2 10 3 11 4 12 9 13
REMARK SMILES IDX 5 14 8 15 6 16 7 18 17 19 18 20 19 22 20 23 21 24 82 25
REMARK SMILES IDX 22 26 81 27 23 28 24 29 25 30 75 31 26 32 80 33 74 34 76 35
REMARK SMILES IDX 27 36 79 37 73 38 72 39 28 41 60 42 40 43 59 44 41 45 44 46
REMARK SMILES IDX 58 47 77 48 42 49 43 50 57 52 78 53 45 54 29 55 30 56 38 57
REMARK SMILES IDX 31 58 32 59 36 60 39 61 33 62 34 63 37 64 35 65 61 66 62 67
REMARK SMILES IDX 70 68 63 69 64 70 68 71 71 72 65 73 66 74 69 75 67 76 46 77
REMARK SMILES IDX 47 78 55 79 48 80 49 81 53 82 56 83 50 84 51 85 54 86 52 87
REMARK H PARENT 13 7 5 17 17 21 76 40 44 51
REMARK Flexibility Score: inf
ROOT
ATOM      1  C   UNL     1       3.945  -1.880  -0.580  1.00  0.00     0.118 C 
ENDROOT
BRANCH   1   2
ATOM      2  C   UNL     1       2.639  -1.205  -0.271  1.00  0.00     0.042 C 
BRANCH   2   3
ATOM      3  C   UNL     1       2.688  -0.272   0.947  1.00  0.00     0.118 C 
BRANCH   3   4
ATOM      4  N   UNL     1       3.091   1.062   0.550  1.00  0.00    -0.351 N 
ATOM      5  C   UNL     1       2.422   2.203   0.171  1.00  0.00     0.270 C 
ATOM      6  O   UNL     1       3.175   3.136  -0.137  1.00  0.00    -0.268 OA
ATOM      7  H   UNL     1       4.069   1.179   0.553  1.00  0.00     0.163 HD
BRANCH   5   8
ATOM      8  C   UNL     1       0.914   2.439   0.163  1.00  0.00     0.131 A 
ATOM      9  C   UNL     1       0.014   0.150  -0.677  1.00  0.00     0.047 C 
ATOM     10  C   UNL     1      -0.122   1.531  -0.137  1.00  0.00    -0.018 A 
ATOM     11  C   UNL     1      -1.460   1.960  -0.071  1.00  0.00     0.034 A 
ATOM     12  C   UNL     1      -1.662   3.320   0.048  1.00  0.00     0.064 A 
ATOM     13  N   UNL     1       0.672   3.763   0.378  1.00  0.00    -0.241 NA
ATOM     14  N   UNL     1      -2.802   4.073  -0.059  1.00  0.00    -0.360 N 
ATOM     15  C   UNL     1      -0.600   4.185   0.237  1.00  0.00     0.089 A 
ATOM     16  C   UNL     1      -2.476   5.404  -0.029  1.00  0.00     0.085 A 
ATOM     17  H   UNL     1      -3.715   3.714  -0.145  1.00  0.00     0.166 HD
ATOM     18  C   UNL     1      -1.118   5.500   0.192  1.00  0.00     0.048 A 
ENDBRANCH   5   8
ENDBRANCH   3   4
ENDBRANCH   2   3
ENDBRANCH   1   2
BRANCH   1  19
ATOM     19  N   UNL     1       4.230  -3.032   0.272  1.00  0.00    -0.352 N 
ATOM     20  C   UNL     1       5.285  -3.926   0.141  1.00  0.00     0.251 C 
ATOM     21  H   UNL     1       3.608  -3.192   1.018  1.00  0.00     0.163 HD
ATOM     22  O   UNL     1       5.239  -5.035   0.643  1.00  0.00    -0.269 OA
BRANCH  20  23
ATOM     23  C   UNL     1       6.455  -3.496  -0.652  1.00  0.00     0.039 A 
ATOM     24  C   UNL     1       7.190  -4.366  -1.454  1.00  0.00     0.014 A 
ATOM     25  C   UNL     1       6.755  -2.142  -0.636  1.00  0.00     0.014 A 
ATOM     26  C   UNL     1       8.180  -3.818  -2.267  1.00  0.00     0.010 A 
ATOM     27  C   UNL     1       7.429  -1.595  -1.682  1.00  0.00     0.010 A 
ATOM     28  C   UNL     1       8.273  -2.417  -2.388  1.00  0.00    -0.014 A 
BRANCH  28  29
ATOM     29  C   UNL     1       9.228  -1.767  -3.267  1.00  0.00     0.031 A 
ATOM     30  C   UNL     1       9.255  -2.338  -4.626  1.00  0.00     0.074 A 
ATOM     31  C   UNL     1       9.950  -0.673  -2.934  1.00  0.00     0.049 A 
ATOM     32  N   UNL     1      10.148  -3.141  -5.089  1.00  0.00    -0.248 NA
ATOM     33  C   UNL     1       8.083  -2.170  -5.493  1.00  0.00     0.031 C 
ATOM     34  C   UNL     1       9.858   0.197  -1.754  1.00  0.00     0.029 A 
ATOM     35  N   UNL     1      10.932  -0.073  -3.659  1.00  0.00    -0.354 N 
ATOM     36  C   UNL     1       9.763  -3.433  -6.388  1.00  0.00     0.074 A 
ATOM     37  C   UNL     1       8.407  -2.965  -6.516  1.00  0.00     0.031 C 
ATOM     38  C   UNL     1      10.585   1.320  -1.952  1.00  0.00     0.029 A 
ATOM     39  C   UNL     1      11.337   1.167  -3.182  1.00  0.00     0.049 A 
ATOM     40  H   UNL     1      11.326  -0.486  -4.461  1.00  0.00     0.167 HD
ATOM     41  C   UNL     1      10.699  -3.818  -7.297  1.00  0.00     0.037 A 
ATOM     42  C   UNL     1      12.230   2.003  -3.768  1.00  0.00     0.037 A 
ATOM     43  C   UNL     1      11.921  -4.215  -6.633  1.00  0.00     0.049 A 
ATOM     44  C   UNL     1      13.078   1.165  -4.657  1.00  0.00     0.074 A 
ATOM     45  C   UNL     1      12.242  -5.191  -5.708  1.00  0.00     0.029 A 
ATOM     46  N   UNL     1      12.946  -3.299  -6.576  1.00  0.00    -0.354 N 
ATOM     47  N   UNL     1      13.907   0.258  -4.213  1.00  0.00    -0.248 NA
ATOM     48  C   UNL     1      12.633   0.986  -6.032  1.00  0.00     0.031 C 
ATOM     49  C   UNL     1      13.163  -4.566  -4.816  1.00  0.00     0.029 A 
ATOM     50  C   UNL     1      13.416  -3.278  -5.288  1.00  0.00     0.049 A 
ATOM     51  H   UNL     1      13.281  -2.756  -7.326  1.00  0.00     0.167 HD
ATOM     52  C   UNL     1      13.743  -0.819  -5.072  1.00  0.00     0.074 A 
ATOM     53  C   UNL     1      12.997  -0.287  -6.212  1.00  0.00     0.031 C 
ATOM     54  C   UNL     1      13.962  -2.099  -4.652  1.00  0.00     0.037 A 
BRANCH  41  55
ATOM     55  C   UNL     1      10.666  -3.459  -8.759  1.00  0.00     0.064 A 
ATOM     56  C   UNL     1      11.683  -3.963  -9.596  1.00  0.00     0.173 A 
ATOM     57  C   UNL     1       9.894  -2.411  -9.304  1.00  0.00     0.173 A 
ATOM     58  F   UNL     1      12.477  -4.962  -9.182  1.00  0.00    -0.203 F 
ATOM     59  C   UNL     1      11.976  -3.382 -10.830  1.00  0.00     0.198 A 
ATOM     60  C   UNL     1      10.157  -1.869 -10.560  1.00  0.00     0.198 A 
ATOM     61  F   UNL     1       8.931  -1.791  -8.614  1.00  0.00    -0.203 F 
ATOM     62  F   UNL     1      13.044  -3.801 -11.523  1.00  0.00    -0.200 F 
ATOM     63  C   UNL     1      11.222  -2.327 -11.306  1.00  0.00     0.200 A 
ATOM     64  F   UNL     1       9.421  -0.837 -10.997  1.00  0.00    -0.200 F 
ATOM     65  F   UNL     1      11.545  -1.721 -12.454  1.00  0.00    -0.200 F 
ENDBRANCH  41  55
BRANCH  42  66
ATOM     66  C   UNL     1      12.138   3.479  -3.896  1.00  0.00     0.064 A 
ATOM     67  C   UNL     1      13.229   4.238  -4.354  1.00  0.00     0.173 A 
ATOM     68  C   UNL     1      10.895   4.143  -3.850  1.00  0.00     0.173 A 
ATOM     69  F   UNL     1      14.439   3.673  -4.474  1.00  0.00    -0.203 F 
ATOM     70  C   UNL     1      13.079   5.567  -4.769  1.00  0.00     0.198 A 
ATOM     71  C   UNL     1      10.748   5.469  -4.261  1.00  0.00     0.198 A 
ATOM     72  F   UNL     1       9.779   3.489  -3.499  1.00  0.00    -0.203 F 
ATOM     73  F   UNL     1      14.130   6.237  -5.262  1.00  0.00    -0.200 F 
ATOM     74  C   UNL     1      11.836   6.177  -4.734  1.00  0.00     0.200 A 
ATOM     75  F   UNL     1       9.532   6.034  -4.260  1.00  0.00    -0.200 F 
ATOM     76  F   UNL     1      11.679   7.427  -5.193  1.00  0.00    -0.200 F 
ENDBRANCH  42  66
BRANCH  54  77
ATOM     77  C   UNL     1      14.622  -2.313  -3.316  1.00  0.00     0.064 A 
ATOM     78  C   UNL     1      14.049  -1.948  -2.085  1.00  0.00     0.173 A 
ATOM     79  C   UNL     1      15.786  -3.093  -3.276  1.00  0.00     0.173 A 
ATOM     80  F   UNL     1      12.893  -1.276  -2.033  1.00  0.00    -0.203 F 
ATOM     81  C   UNL     1      14.625  -2.336  -0.875  1.00  0.00     0.198 A 
ATOM     82  C   UNL     1      16.339  -3.509  -2.068  1.00  0.00     0.198 A 
ATOM     83  F   UNL     1      16.351  -3.512  -4.419  1.00  0.00    -0.203 F 
ATOM     84  F   UNL     1      14.054  -1.983   0.287  1.00  0.00    -0.200 F 
ATOM     85  C   UNL     1      15.761  -3.127  -0.868  1.00  0.00     0.200 A 
ATOM     86  F   UNL     1      17.410  -4.314  -2.070  1.00  0.00    -0.200 F 
ATOM     87  F   UNL     1      16.283  -3.549   0.292  1.00  0.00    -0.200 F 
ENDBRANCH  54  77
ENDBRANCH  28  29
ENDBRANCH  20  23
ENDBRANCH   1  19
TORSDOF 10
