REMARK SMILES O=C(NCCCNC(=O)[C@H]1COc2c(O)cccc2C1)c1ccc(-c2c3nc(c(-c4c(F)c(F)c(F)c(F)c4F)c4ccc([nH]4)c(-c4c(F)c(F)c(F)c(F)c4F)c4nc(c(-c5c(F)c(F)c(F)c(F)c5F)c5ccc2[nH]5)C=C4)C=C3)cc1
REMARK SMILES IDX 4 1 3 2 1 3 2 4 21 6 22 7 83 8 23 9 82 10 24 11 25 12 26 13
REMARK SMILES IDX 76 14 27 15 81 16 75 17 77 18 28 19 80 20 74 21 73 22 29 24
REMARK SMILES IDX 61 25 41 26 60 27 42 28 45 29 59 30 78 31 43 32 44 33 58 35
REMARK SMILES IDX 79 36 46 37 30 38 31 39 39 40 32 41 33 42 37 43 40 44 34 45
REMARK SMILES IDX 35 46 38 47 36 48 62 49 63 50 71 51 64 52 65 53 69 54 72 55
REMARK SMILES IDX 66 56 67 57 70 58 68 59 47 60 48 61 56 62 49 63 50 64 54 65
REMARK SMILES IDX 57 66 51 67 52 68 55 69 53 70 5 71 6 72 7 73 8 74 9 76 10 77
REMARK SMILES IDX 11 78 20 79 12 80 19 81 13 82 18 83 14 84 17 85 16 86 15 87
REMARK H PARENT 3 5 77 23 45 34 7 75 15 88
REMARK Flexibility Score: inf
ROOT
ATOM      1  C   UNL     1       3.236   0.737  -5.183  1.00  0.00     0.118 C 
ENDROOT
BRANCH   1   2
ATOM      2  N   UNL     1       3.464   0.106  -6.475  1.00  0.00    -0.352 N 
ATOM      3  O   UNL     1       3.808  -1.596  -7.907  1.00  0.00    -0.269 OA
ATOM      4  C   UNL     1       3.309  -1.203  -6.857  1.00  0.00     0.251 C 
ATOM      5  H   UNL     1       3.779   0.712  -7.184  1.00  0.00     0.163 HD
BRANCH   4   6
ATOM      6  C   UNL     1       2.544  -2.149  -6.016  1.00  0.00     0.039 A 
ATOM      7  C   UNL     1       1.319  -1.780  -5.454  1.00  0.00     0.014 A 
ATOM      8  C   UNL     1       3.018  -3.457  -5.860  1.00  0.00     0.014 A 
ATOM      9  C   UNL     1       0.622  -2.679  -4.654  1.00  0.00     0.010 A 
ATOM     10  C   UNL     1       2.288  -4.380  -5.106  1.00  0.00     0.010 A 
ATOM     11  C   UNL     1       1.094  -3.990  -4.483  1.00  0.00    -0.014 A 
BRANCH  11  12
ATOM     12  C   UNL     1       0.277  -4.954  -3.709  1.00  0.00     0.031 A 
ATOM     13  C   UNL     1       0.700  -5.405  -2.344  1.00  0.00     0.074 A 
ATOM     14  C   UNL     1      -0.886  -5.380  -4.237  1.00  0.00     0.049 A 
ATOM     15  N   UNL     1       0.052  -6.155  -1.488  1.00  0.00    -0.248 NA
ATOM     16  C   UNL     1       2.020  -4.960  -1.874  1.00  0.00     0.031 C 
ATOM     17  C   UNL     1      -1.388  -5.013  -5.562  1.00  0.00     0.029 A 
ATOM     18  N   UNL     1      -1.865  -6.188  -3.719  1.00  0.00    -0.354 N 
ATOM     19  C   UNL     1       0.877  -6.263  -0.379  1.00  0.00     0.074 A 
ATOM     20  C   UNL     1       2.091  -5.536  -0.681  1.00  0.00     0.031 C 
ATOM     21  C   UNL     1      -2.601  -5.558  -5.736  1.00  0.00     0.029 A 
ATOM     22  C   UNL     1      -2.947  -6.335  -4.550  1.00  0.00     0.049 A 
ATOM     23  H   UNL     1      -1.798  -6.621  -2.838  1.00  0.00     0.167 HD
ATOM     24  C   UNL     1       0.631  -6.900   0.791  1.00  0.00     0.037 A 
ATOM     25  C   UNL     1      -4.096  -7.014  -4.372  1.00  0.00     0.037 A 
ATOM     26  C   UNL     1      -0.579  -7.622   1.085  1.00  0.00     0.049 A 
ATOM     27  C   UNL     1      -4.325  -7.743  -3.081  1.00  0.00     0.074 A 
ATOM     28  C   UNL     1      -0.931  -8.274   2.254  1.00  0.00     0.029 A 
ATOM     29  N   UNL     1      -1.631  -7.795   0.198  1.00  0.00    -0.354 N 
ATOM     30  N   UNL     1      -3.559  -7.797  -2.019  1.00  0.00    -0.248 NA
ATOM     31  C   UNL     1      -5.576  -8.505  -2.961  1.00  0.00     0.031 C 
ATOM     32  C   UNL     1      -2.181  -8.873   2.061  1.00  0.00     0.029 A 
ATOM     33  C   UNL     1      -2.623  -8.563   0.785  1.00  0.00     0.049 A 
ATOM     34  H   UNL     1      -1.667  -7.426  -0.714  1.00  0.00     0.167 HD
ATOM     35  C   UNL     1      -4.237  -8.584  -1.100  1.00  0.00     0.074 A 
ATOM     36  C   UNL     1      -5.483  -8.978  -1.725  1.00  0.00     0.031 C 
ATOM     37  C   UNL     1      -3.857  -8.946   0.149  1.00  0.00     0.037 A 
BRANCH  24  38
ATOM     38  C   UNL     1       1.689  -6.842   1.851  1.00  0.00     0.064 A 
ATOM     39  C   UNL     1       1.907  -5.676   2.599  1.00  0.00     0.173 A 
ATOM     40  C   UNL     1       2.447  -7.979   2.167  1.00  0.00     0.173 A 
ATOM     41  F   UNL     1       1.214  -4.560   2.327  1.00  0.00    -0.203 F 
ATOM     42  C   UNL     1       2.854  -5.647   3.619  1.00  0.00     0.198 A 
ATOM     43  C   UNL     1       3.379  -7.952   3.200  1.00  0.00     0.198 A 
ATOM     44  F   UNL     1       2.272  -9.120   1.483  1.00  0.00    -0.203 F 
ATOM     45  F   UNL     1       3.065  -4.514   4.304  1.00  0.00    -0.200 F 
ATOM     46  C   UNL     1       3.584  -6.787   3.924  1.00  0.00     0.200 A 
ATOM     47  F   UNL     1       4.078  -9.056   3.500  1.00  0.00    -0.200 F 
ATOM     48  F   UNL     1       4.488  -6.760   4.912  1.00  0.00    -0.200 F 
ENDBRANCH  24  38
BRANCH  25  49
ATOM     49  C   UNL     1      -5.124  -6.992  -5.441  1.00  0.00     0.064 A 
ATOM     50  C   UNL     1      -6.295  -6.239  -5.293  1.00  0.00     0.173 A 
ATOM     51  C   UNL     1      -4.931  -7.675  -6.650  1.00  0.00     0.173 A 
ATOM     52  F   UNL     1      -6.528  -5.582  -4.147  1.00  0.00    -0.203 F 
ATOM     53  C   UNL     1      -7.237  -6.168  -6.317  1.00  0.00     0.198 A 
ATOM     54  C   UNL     1      -5.863  -7.587  -7.681  1.00  0.00     0.198 A 
ATOM     55  F   UNL     1      -3.821  -8.404  -6.839  1.00  0.00    -0.203 F 
ATOM     56  F   UNL     1      -8.358  -5.453  -6.146  1.00  0.00    -0.200 F 
ATOM     57  C   UNL     1      -7.016  -6.834  -7.513  1.00  0.00     0.200 A 
ATOM     58  F   UNL     1      -5.640  -8.221  -8.840  1.00  0.00    -0.200 F 
ATOM     59  F   UNL     1      -7.914  -6.751  -8.504  1.00  0.00    -0.200 F 
ENDBRANCH  25  49
BRANCH  37  60
ATOM     60  C   UNL     1      -4.799  -9.805   0.934  1.00  0.00     0.064 A 
ATOM     61  C   UNL     1      -4.916 -11.178   0.679  1.00  0.00     0.173 A 
ATOM     62  C   UNL     1      -5.532  -9.265   2.001  1.00  0.00     0.173 A 
ATOM     63  F   UNL     1      -4.243 -11.734  -0.340  1.00  0.00    -0.203 F 
ATOM     64  C   UNL     1      -5.738 -11.982   1.463  1.00  0.00     0.198 A 
ATOM     65  C   UNL     1      -6.338 -10.075   2.796  1.00  0.00     0.198 A 
ATOM     66  F   UNL     1      -5.448  -7.957   2.286  1.00  0.00    -0.203 F 
ATOM     67  F   UNL     1      -5.852 -13.289   1.190  1.00  0.00    -0.200 F 
ATOM     68  C   UNL     1      -6.441 -11.432   2.526  1.00  0.00     0.200 A 
ATOM     69  F   UNL     1      -7.009  -9.545   3.828  1.00  0.00    -0.200 F 
ATOM     70  F   UNL     1      -7.221 -12.210   3.289  1.00  0.00    -0.200 F 
ENDBRANCH  37  60
ENDBRANCH  11  12
ENDBRANCH   4   6
ENDBRANCH   1   2
BRANCH   1  71
ATOM     71  C   UNL     1       4.541   0.985  -4.435  1.00  0.00     0.042 C 
BRANCH  71  72
ATOM     72  C   UNL     1       5.407   2.070  -5.066  1.00  0.00     0.117 C 
BRANCH  72  73
ATOM     73  N   UNL     1       4.824   3.389  -4.891  1.00  0.00    -0.356 N 
ATOM     74  C   UNL     1       5.247   4.567  -4.385  1.00  0.00     0.226 C 
ATOM     75  H   UNL     1       3.897   3.434  -5.219  1.00  0.00     0.163 HD
ATOM     76  O   UNL     1       4.396   5.468  -4.422  1.00  0.00    -0.275 OA
BRANCH  74  77
ATOM     77  C   UNL     1       6.598   4.849  -3.722  1.00  0.00     0.120 C 
ATOM     78  C   UNL     1       7.766   3.902  -3.916  1.00  0.00     0.243 C 
ATOM     79  C   UNL     1       7.100   6.221  -4.207  1.00  0.00     0.056 C 
ATOM     80  O   UNL     1       8.078   3.681  -5.295  1.00  0.00    -0.489 OA
ATOM     81  C   UNL     1       7.720   6.083  -5.574  1.00  0.00    -0.001 A 
ATOM     82  C   UNL     1       8.152   4.835  -6.037  1.00  0.00     0.164 A 
ATOM     83  C   UNL     1       7.870   7.204  -6.400  1.00  0.00     0.008 A 
ATOM     84  C   UNL     1       8.659   4.710  -7.332  1.00  0.00     0.157 A 
ATOM     85  C   UNL     1       8.404   7.070  -7.685  1.00  0.00     0.004 A 
ATOM     86  C   UNL     1       8.789   5.816  -8.159  1.00  0.00     0.050 A 
BRANCH  84  87
ATOM     87  O   UNL     1       9.032   3.486  -7.814  1.00  0.00    -0.504 OA
ATOM     88  H   UNL     1       8.952   2.725  -7.273  1.00  0.00     0.293 HD
ENDBRANCH  84  87
ENDBRANCH  74  77
ENDBRANCH  72  73
ENDBRANCH  71  72
ENDBRANCH   1  71
TORSDOF 11
