REMARK SMILES CCc1ccc(Oc2ncnc(N3CCC(C(=O)NCCCNC(=O)c4ccc(-c5c6nc(c(-c7c(F)c(F)c(F)c(F)c7F)c7ccc([nH]7)c(-c7c(F)c(F)c(F)c(F)c7F)c7nc(c(-c8c(F)c(F)c(F)c(F)c8F)c8ccc5[nH]8)C=C7)C=C6)cc4)CC3)c2[N+](=O)[O-])cc1
REMARK SMILES IDX 20 1 19 2 17 3 18 4 16 6 13 7 14 8 90 9 15 10 89 11 12 12
REMARK SMILES IDX 8 13 9 14 91 15 10 16 11 17 7 18 6 19 3 20 4 21 96 22 5 23
REMARK SMILES IDX 95 24 2 25 1 26 92 27 93 28 94 29 21 30 22 31 23 32 24 33
REMARK SMILES IDX 25 35 26 36 27 37 88 38 28 39 87 40 29 41 30 42 31 43 81 44
REMARK SMILES IDX 32 45 86 46 80 47 82 48 33 49 85 50 79 51 78 52 34 54 66 55
REMARK SMILES IDX 46 56 65 57 47 58 50 59 64 60 83 61 48 62 49 63 63 65 84 66
REMARK SMILES IDX 51 67 35 68 36 69 44 70 37 71 38 72 42 73 45 74 39 75 40 76
REMARK SMILES IDX 43 77 41 78 67 79 68 80 76 81 69 82 70 83 74 84 77 85 71 86
REMARK SMILES IDX 72 87 75 88 73 89 52 90 53 91 61 92 54 93 55 94 59 95 62 96
REMARK SMILES IDX 56 97 57 98 60 99 58 100
REMARK H PARENT 19 5 23 34 82 53 50 64
REMARK Flexibility Score: inf
ROOT
ATOM      1  C   UNL     1      -0.929  12.118   1.865  1.00  0.00     0.117 C 
ENDROOT
BRANCH   1   2
ATOM      2  N   UNL     1      -2.252  12.406   1.325  1.00  0.00    -0.356 N 
ATOM      3  C   UNL     1      -3.257  11.575   0.934  1.00  0.00     0.223 C 
ATOM      4  O   UNL     1      -4.281  12.086   0.476  1.00  0.00    -0.275 OA
ATOM      5  H   UNL     1      -2.452  13.365   1.227  1.00  0.00     0.163 HD
BRANCH   3   6
ATOM      6  C   UNL     1      -3.138  10.065   1.067  1.00  0.00     0.082 C 
ATOM      7  N   UNL     1      -1.347   8.076   1.955  1.00  0.00    -0.351 N 
ATOM      8  C   UNL     1      -1.558   8.136   0.516  1.00  0.00     0.119 C 
ATOM      9  C   UNL     1      -2.523   8.265   2.786  1.00  0.00     0.119 C 
ATOM     10  C   UNL     1      -2.038   9.525   0.139  1.00  0.00     0.035 C 
ATOM     11  C   UNL     1      -3.058   9.670   2.554  1.00  0.00     0.035 C 
BRANCH   7  12
ATOM     12  C   UNL     1      -0.134   7.624   2.409  1.00  0.00     0.215 A 
ATOM     13  C   UNL     1       1.363   6.111   3.442  1.00  0.00     0.305 A 
ATOM     14  N   UNL     1       2.435   6.832   3.057  1.00  0.00    -0.195 NA
ATOM     15  C   UNL     1       0.065   6.509   3.198  1.00  0.00     0.373 A 
ATOM     16  C   UNL     1       2.161   7.928   2.349  1.00  0.00     0.228 A 
ATOM     17  N   UNL     1       0.936   8.336   1.980  1.00  0.00    -0.212 NA
BRANCH  13  18
ATOM     18  O   UNL     1       1.678   4.916   4.047  1.00  0.00    -0.434 OA
BRANCH  18  19
ATOM     19  C   UNL     1       1.474   3.760   3.317  1.00  0.00     0.129 A 
ATOM     20  C   UNL     1       0.914   1.290   2.078  1.00  0.00    -0.048 A 
ATOM     21  C   UNL     1       1.324   1.344   3.418  1.00  0.00     0.007 A 
ATOM     22  C   UNL     1       0.812   2.488   1.363  1.00  0.00     0.007 A 
ATOM     23  C   UNL     1       1.600   2.569   4.032  1.00  0.00     0.047 A 
ATOM     24  C   UNL     1       1.122   3.709   1.965  1.00  0.00     0.047 A 
BRANCH  20  25
ATOM     25  C   UNL     1       0.517  -0.031   1.462  1.00  0.00     0.032 C 
ATOM     26  C   UNL     1       1.012  -0.237   0.036  1.00  0.00     0.009 C 
ENDBRANCH  20  25
ENDBRANCH  18  19
ENDBRANCH  13  18
BRANCH  15  27
ATOM     27  N   UNL     1      -1.021   5.698   3.649  1.00  0.00     0.072 N 
ATOM     28  O   UNL     1      -1.734   5.158   2.791  1.00  0.00    -0.258 OA
ATOM     29  O   UNL     1      -1.185   5.612   4.874  1.00  0.00    -0.258 OA
ENDBRANCH  15  27
ENDBRANCH   7  12
ENDBRANCH   3   6
ENDBRANCH   1   2
BRANCH   1  30
ATOM     30  C   UNL     1       0.183  12.549   0.918  1.00  0.00     0.042 C 
BRANCH  30  31
ATOM     31  C   UNL     1       0.244  14.052   0.692  1.00  0.00     0.118 C 
BRANCH  31  32
ATOM     32  N   UNL     1       0.582  14.787   1.904  1.00  0.00    -0.352 N 
ATOM     33  C   UNL     1       1.679  15.560   2.187  1.00  0.00     0.251 C 
ATOM     34  H   UNL     1      -0.078  14.717   2.631  1.00  0.00     0.163 HD
ATOM     35  O   UNL     1       1.883  15.934   3.341  1.00  0.00    -0.269 OA
BRANCH  33  36
ATOM     36  C   UNL     1       2.628  15.927   1.117  1.00  0.00     0.039 A 
ATOM     37  C   UNL     1       3.999  15.888   1.385  1.00  0.00     0.014 A 
ATOM     38  C   UNL     1       2.173  16.315  -0.145  1.00  0.00     0.014 A 
ATOM     39  C   UNL     1       4.912  16.166   0.365  1.00  0.00     0.010 A 
ATOM     40  C   UNL     1       3.080  16.496  -1.183  1.00  0.00     0.010 A 
ATOM     41  C   UNL     1       4.460  16.430  -0.938  1.00  0.00    -0.014 A 
BRANCH  41  42
ATOM     42  C   UNL     1       5.410  16.646  -2.058  1.00  0.00     0.031 A 
ATOM     43  C   UNL     1       5.424  17.959  -2.791  1.00  0.00     0.074 A 
ATOM     44  C   UNL     1       6.205  15.637  -2.463  1.00  0.00     0.049 A 
ATOM     45  N   UNL     1       6.113  18.311  -3.848  1.00  0.00    -0.248 NA
ATOM     46  C   UNL     1       4.521  19.007  -2.289  1.00  0.00     0.031 C 
ATOM     47  C   UNL     1       6.249  14.302  -1.863  1.00  0.00     0.029 A 
ATOM     48  N   UNL     1       7.121  15.572  -3.483  1.00  0.00    -0.354 N 
ATOM     49  C   UNL     1       5.715  19.609  -4.142  1.00  0.00     0.074 A 
ATOM     50  C   UNL     1       4.683  19.961  -3.193  1.00  0.00     0.031 C 
ATOM     51  C   UNL     1       7.161  13.559  -2.510  1.00  0.00     0.029 A 
ATOM     52  C   UNL     1       7.732  14.346  -3.597  1.00  0.00     0.049 A 
ATOM     53  H   UNL     1       7.321  16.331  -4.077  1.00  0.00     0.167 HD
ATOM     54  C   UNL     1       6.185  20.439  -5.103  1.00  0.00     0.037 A 
ATOM     55  C   UNL     1       8.641  13.905  -4.487  1.00  0.00     0.037 A 
ATOM     56  C   UNL     1       7.229  20.090  -6.030  1.00  0.00     0.049 A 
ATOM     57  C   UNL     1       9.136  14.843  -5.556  1.00  0.00     0.074 A 
ATOM     58  C   UNL     1       7.820  20.880  -7.001  1.00  0.00     0.029 A 
ATOM     59  N   UNL     1       7.834  18.844  -6.106  1.00  0.00    -0.354 N 
ATOM     60  N   UNL     1       8.804  16.091  -5.780  1.00  0.00    -0.248 NA
ATOM     61  C   UNL     1      10.136  14.312  -6.492  1.00  0.00     0.031 C 
ATOM     62  C   UNL     1       8.741  20.096  -7.701  1.00  0.00     0.029 A 
ATOM     63  C   UNL     1       8.773  18.836  -7.126  1.00  0.00     0.049 A 
ATOM     64  H   UNL     1       7.628  18.079  -5.521  1.00  0.00     0.167 HD
ATOM     65  C   UNL     1       9.575  16.504  -6.859  1.00  0.00     0.074 A 
ATOM     66  C   UNL     1      10.402  15.376  -7.235  1.00  0.00     0.031 C 
ATOM     67  C   UNL     1       9.596  17.708  -7.481  1.00  0.00     0.037 A 
BRANCH  54  68
ATOM     68  C   UNL     1       5.575  21.809  -5.200  1.00  0.00     0.064 A 
ATOM     69  C   UNL     1       5.772  22.777  -4.204  1.00  0.00     0.173 A 
ATOM     70  C   UNL     1       4.814  22.171  -6.322  1.00  0.00     0.173 A 
ATOM     71  F   UNL     1       6.482  22.481  -3.105  1.00  0.00    -0.203 F 
ATOM     72  C   UNL     1       5.204  24.044  -4.311  1.00  0.00     0.198 A 
ATOM     73  C   UNL     1       4.276  23.450  -6.443  1.00  0.00     0.198 A 
ATOM     74  F   UNL     1       4.598  21.286  -7.308  1.00  0.00    -0.203 F 
ATOM     75  F   UNL     1       5.362  24.934  -3.321  1.00  0.00    -0.200 F 
ATOM     76  C   UNL     1       4.464  24.382  -5.434  1.00  0.00     0.200 A 
ATOM     77  F   UNL     1       3.574  23.779  -7.536  1.00  0.00    -0.200 F 
ATOM     78  F   UNL     1       3.926  25.605  -5.541  1.00  0.00    -0.200 F 
ENDBRANCH  54  68
BRANCH  55  79
ATOM     79  C   UNL     1       9.156  12.513  -4.397  1.00  0.00     0.064 A 
ATOM     80  C   UNL     1      10.489  12.259  -4.043  1.00  0.00     0.173 A 
ATOM     81  C   UNL     1       8.334  11.409  -4.669  1.00  0.00     0.173 A 
ATOM     82  F   UNL     1      11.320  13.281  -3.792  1.00  0.00    -0.203 F 
ATOM     83  C   UNL     1      10.986  10.959  -3.989  1.00  0.00     0.198 A 
ATOM     84  C   UNL     1       8.824  10.107  -4.583  1.00  0.00     0.198 A 
ATOM     85  F   UNL     1       7.049  11.595  -5.006  1.00  0.00    -0.203 F 
ATOM     86  F   UNL     1      12.277  10.749  -3.697  1.00  0.00    -0.200 F 
ATOM     87  C   UNL     1      10.152   9.883  -4.253  1.00  0.00     0.200 A 
ATOM     88  F   UNL     1       8.009   9.071  -4.822  1.00  0.00    -0.200 F 
ATOM     89  F   UNL     1      10.629   8.633  -4.197  1.00  0.00    -0.200 F 
ENDBRANCH  55  79
BRANCH  67  90
ATOM     90  C   UNL     1      10.574  17.887  -8.607  1.00  0.00     0.064 A 
ATOM     91  C   UNL     1      10.402  17.248  -9.844  1.00  0.00     0.173 A 
ATOM     92  C   UNL     1      11.673  18.747  -8.460  1.00  0.00     0.173 A 
ATOM     93  F   UNL     1       9.376  16.404 -10.032  1.00  0.00    -0.203 F 
ATOM     94  C   UNL     1      11.309  17.445 -10.883  1.00  0.00     0.198 A 
ATOM     95  C   UNL     1      12.557  18.968  -9.511  1.00  0.00     0.198 A 
ATOM     96  F   UNL     1      11.879  19.389  -7.300  1.00  0.00    -0.203 F 
ATOM     97  F   UNL     1      11.153  16.785 -12.039  1.00  0.00    -0.200 F 
ATOM     98  C   UNL     1      12.379  18.311 -10.719  1.00  0.00     0.200 A 
ATOM     99  F   UNL     1      13.581  19.819  -9.356  1.00  0.00    -0.200 F 
ATOM    100  F   UNL     1      13.244  18.508 -11.723  1.00  0.00    -0.200 F 
ENDBRANCH  67  90
ENDBRANCH  41  42
ENDBRANCH  33  36
ENDBRANCH  31  32
ENDBRANCH  30  31
ENDBRANCH   1  30
TORSDOF 15
