REMARK SMILES CCCCCCNC(=O)Oc1cccc(-c2ccc([C@@H](C)C(=O)NCCCNC(=O)c3ccc(-c4c5nc(c(-c6c(F)c(F)c(F)c(F)c6F)c6ccc([nH]6)c(-c6c(F)c(F)c(F)c(F)c6F)c6nc(c(-c7c(F)c(F)c(F)c(F)c7F)c7ccc4[nH]7)C=C6)C=C5)cc3)cc2)c1
REMARK SMILES IDX 16 1 17 2 18 3 19 4 94 5 95 6 15 7 11 8 12 9 96 10 13 11
REMARK SMILES IDX 14 12 10 13 8 14 7 15 9 17 6 18 5 19 4 20 3 21 2 22 1 23
REMARK SMILES IDX 20 24 21 25 22 26 23 27 24 28 25 30 26 31 27 32 28 33 29 34
REMARK SMILES IDX 30 36 31 37 32 38 93 39 33 40 92 41 34 42 35 43 36 44 86 45
REMARK SMILES IDX 37 46 91 47 85 48 87 49 38 50 90 51 84 52 83 53 39 55 71 56
REMARK SMILES IDX 51 57 70 58 52 59 55 60 69 61 88 62 53 63 54 64 68 66 89 67
REMARK SMILES IDX 56 68 40 69 41 70 49 71 42 72 43 73 47 74 50 75 44 76 45 77
REMARK SMILES IDX 48 78 46 79 72 80 73 81 81 82 74 83 75 84 79 85 82 86 76 87
REMARK SMILES IDX 77 88 80 89 78 90 57 91 58 92 66 93 59 94 60 95 64 96 67 97
REMARK SMILES IDX 61 98 62 99 65 100 63 101
REMARK H PARENT 7 16 24 29 28 35 87 54 55 65
REMARK Flexibility Score: inf
ROOT
ATOM      1  C   UNL     1      -5.222   9.337   2.515  1.00  0.00    -0.018 A 
ATOM      2  C   UNL     1      -5.763  10.454   3.168  1.00  0.00     0.009 A 
ATOM      3  C   UNL     1      -5.673  11.742   2.623  1.00  0.00     0.005 A 
ATOM      4  C   UNL     1      -4.980  11.972   1.432  1.00  0.00    -0.036 A 
ATOM      5  C   UNL     1      -4.460  10.859   0.757  1.00  0.00     0.005 A 
ATOM      6  C   UNL     1      -4.598   9.567   1.279  1.00  0.00     0.009 A 
ENDROOT
BRANCH   1   7
ATOM      7  C   UNL     1      -5.288   7.983   3.114  1.00  0.00    -0.015 A 
ATOM      8  C   UNL     1      -4.319   5.783   3.508  1.00  0.00     0.133 A 
ATOM      9  C   UNL     1      -5.417   5.395   4.267  1.00  0.00     0.047 A 
ATOM     10  C   UNL     1      -4.247   7.054   2.934  1.00  0.00     0.056 A 
ATOM     11  C   UNL     1      -6.454   6.299   4.466  1.00  0.00     0.004 A 
ATOM     12  C   UNL     1      -6.392   7.573   3.889  1.00  0.00     0.009 A 
BRANCH   8  13
ATOM     13  O   UNL     1      -3.358   4.797   3.230  1.00  0.00    -0.410 OA
BRANCH  13  14
ATOM     14  C   UNL     1      -2.019   5.088   3.447  1.00  0.00     0.412 C 
ATOM     15  N   UNL     1      -1.184   4.089   3.029  1.00  0.00    -0.321 N 
ATOM     16  H   UNL     1      -0.221   4.227   3.178  1.00  0.00     0.167 HD
ATOM     17  O   UNL     1      -1.576   6.109   3.958  1.00  0.00    -0.224 OA
BRANCH  15  18
ATOM     18  C   UNL     1      -1.572   2.846   2.389  1.00  0.00     0.119 C 
BRANCH  18  19
ATOM     19  C   UNL     1      -0.971   2.712   0.990  1.00  0.00     0.021 C 
BRANCH  19  20
ATOM     20  C   UNL     1       0.559   2.612   0.954  1.00  0.00     0.002 C 
BRANCH  20  21
ATOM     21  C   UNL     1       1.164   1.450   1.749  1.00  0.00    -0.000 C 
BRANCH  21  22
ATOM     22  C   UNL     1       0.677   0.055   1.349  1.00  0.00    -0.003 C 
ATOM     23  C   UNL     1       1.034  -0.320  -0.081  1.00  0.00     0.004 C 
ENDBRANCH  21  22
ENDBRANCH  20  21
ENDBRANCH  19  20
ENDBRANCH  18  19
ENDBRANCH  15  18
ENDBRANCH  13  14
ENDBRANCH   8  13
ENDBRANCH   1   7
BRANCH   4  24
ATOM     24  C   UNL     1      -4.727  13.362   0.872  1.00  0.00     0.105 C 
ATOM     25  C   UNL     1      -5.922  14.314   0.878  1.00  0.00     0.023 C 
BRANCH  24  26
ATOM     26  C   UNL     1      -3.410  13.981   1.366  1.00  0.00     0.227 C 
ATOM     27  O   UNL     1      -2.423  14.006   0.620  1.00  0.00    -0.274 OA
ATOM     28  N   UNL     1      -3.239  14.522   2.603  1.00  0.00    -0.356 N 
ATOM     29  H   UNL     1      -2.349  14.916   2.749  1.00  0.00     0.163 HD
BRANCH  28  30
ATOM     30  C   UNL     1      -4.125  14.625   3.744  1.00  0.00     0.117 C 
BRANCH  30  31
ATOM     31  C   UNL     1      -3.848  13.559   4.801  1.00  0.00     0.042 C 
BRANCH  31  32
ATOM     32  C   UNL     1      -2.669  13.871   5.716  1.00  0.00     0.118 C 
BRANCH  32  33
ATOM     33  N   UNL     1      -2.924  15.018   6.575  1.00  0.00    -0.352 N 
ATOM     34  C   UNL     1      -2.957  15.143   7.939  1.00  0.00     0.251 C 
ATOM     35  H   UNL     1      -3.106  15.855   6.088  1.00  0.00     0.163 HD
ATOM     36  O   UNL     1      -3.401  16.184   8.421  1.00  0.00    -0.269 OA
BRANCH  34  37
ATOM     37  C   UNL     1      -2.481  14.071   8.847  1.00  0.00     0.039 A 
ATOM     38  C   UNL     1      -3.100  13.947  10.096  1.00  0.00     0.014 A 
ATOM     39  C   UNL     1      -1.394  13.248   8.539  1.00  0.00     0.014 A 
ATOM     40  C   UNL     1      -2.657  12.989  11.011  1.00  0.00     0.010 A 
ATOM     41  C   UNL     1      -1.005  12.235   9.418  1.00  0.00     0.010 A 
ATOM     42  C   UNL     1      -1.619  12.106  10.671  1.00  0.00    -0.014 A 
BRANCH  42  43
ATOM     43  C   UNL     1      -1.177  11.062  11.632  1.00  0.00     0.031 A 
ATOM     44  C   UNL     1       0.204  11.096  12.227  1.00  0.00     0.074 A 
ATOM     45  C   UNL     1      -2.027  10.070  11.962  1.00  0.00     0.049 A 
ATOM     46  N   UNL     1       0.741  10.300  13.120  1.00  0.00    -0.248 NA
ATOM     47  C   UNL     1       1.113  12.146  11.742  1.00  0.00     0.031 C 
ATOM     48  C   UNL     1      -3.367   9.888  11.403  1.00  0.00     0.029 A 
ATOM     49  N   UNL     1      -1.893   9.033  12.851  1.00  0.00    -0.354 N 
ATOM     50  C   UNL     1       2.044  10.747  13.294  1.00  0.00     0.074 A 
ATOM     51  C   UNL     1       2.238  11.848  12.376  1.00  0.00     0.031 C 
ATOM     52  C   UNL     1      -3.949   8.831  11.991  1.00  0.00     0.029 A 
ATOM     53  C   UNL     1      -3.015   8.246  12.949  1.00  0.00     0.049 A 
ATOM     54  H   UNL     1      -1.072   8.868  13.369  1.00  0.00     0.167 HD
ATOM     55  C   UNL     1       2.987  10.297  14.158  1.00  0.00     0.037 A 
ATOM     56  C   UNL     1      -3.267   7.182  13.733  1.00  0.00     0.037 A 
ATOM     57  C   UNL     1       2.786   9.213  15.085  1.00  0.00     0.049 A 
ATOM     58  C   UNL     1      -2.218   6.726  14.710  1.00  0.00     0.074 A 
ATOM     59  C   UNL     1       3.658   8.715  16.038  1.00  0.00     0.029 A 
ATOM     60  N   UNL     1       1.626   8.455  15.172  1.00  0.00    -0.354 N 
ATOM     61  N   UNL     1      -1.018   7.209  14.922  1.00  0.00    -0.248 NA
ATOM     62  C   UNL     1      -2.569   5.588  15.569  1.00  0.00     0.031 C 
ATOM     63  C   UNL     1       3.041   7.632  16.675  1.00  0.00     0.029 A 
ATOM     64  C   UNL     1       1.766   7.486  16.154  1.00  0.00     0.049 A 
ATOM     65  H   UNL     1       0.823   8.587  14.619  1.00  0.00     0.167 HD
ATOM     66  C   UNL     1      -0.479   6.452  15.953  1.00  0.00     0.074 A 
ATOM     67  C   UNL     1      -1.495   5.494  16.340  1.00  0.00     0.031 C 
ATOM     68  C   UNL     1       0.746   6.539  16.526  1.00  0.00     0.037 A 
BRANCH  55  69
ATOM     69  C   UNL     1       4.323  10.984  14.148  1.00  0.00     0.064 A 
ATOM     70  C   UNL     1       4.478  12.297  14.622  1.00  0.00     0.173 A 
ATOM     71  C   UNL     1       5.468  10.314  13.693  1.00  0.00     0.173 A 
ATOM     72  F   UNL     1       3.413  12.987  15.058  1.00  0.00    -0.203 F 
ATOM     73  C   UNL     1       5.722  12.921  14.613  1.00  0.00     0.198 A 
ATOM     74  C   UNL     1       6.717  10.931  13.713  1.00  0.00     0.198 A 
ATOM     75  F   UNL     1       5.380   9.056  13.235  1.00  0.00    -0.203 F 
ATOM     76  F   UNL     1       5.836  14.192  15.025  1.00  0.00    -0.200 F 
ATOM     77  C   UNL     1       6.842  12.236  14.166  1.00  0.00     0.200 A 
ATOM     78  F   UNL     1       7.801  10.264  13.294  1.00  0.00    -0.200 F 
ATOM     79  F   UNL     1       8.040  12.836  14.165  1.00  0.00    -0.200 F 
ENDBRANCH  55  69
BRANCH  56  80
ATOM     80  C   UNL     1      -4.590   6.510  13.665  1.00  0.00     0.064 A 
ATOM     81  C   UNL     1      -5.506   6.617  14.721  1.00  0.00     0.173 A 
ATOM     82  C   UNL     1      -4.967   5.752  12.547  1.00  0.00     0.173 A 
ATOM     83  F   UNL     1      -5.183   7.315  15.819  1.00  0.00    -0.203 F 
ATOM     84  C   UNL     1      -6.741   5.973  14.671  1.00  0.00     0.198 A 
ATOM     85  C   UNL     1      -6.214   5.133  12.486  1.00  0.00     0.198 A 
ATOM     86  F   UNL     1      -4.129   5.624  11.508  1.00  0.00    -0.203 F 
ATOM     87  F   UNL     1      -7.579   6.054  15.713  1.00  0.00    -0.200 F 
ATOM     88  C   UNL     1      -7.096   5.237  13.551  1.00  0.00     0.200 A 
ATOM     89  F   UNL     1      -6.560   4.434  11.396  1.00  0.00    -0.200 F 
ATOM     90  F   UNL     1      -8.286   4.622  13.501  1.00  0.00    -0.200 F 
ENDBRANCH  56  80
BRANCH  68  91
ATOM     91  C   UNL     1       1.040   5.588  17.650  1.00  0.00     0.064 A 
ATOM     92  C   UNL     1       1.219   4.215  17.426  1.00  0.00     0.173 A 
ATOM     93  C   UNL     1       1.144   6.058  18.968  1.00  0.00     0.173 A 
ATOM     94  F   UNL     1       1.115   3.714  16.186  1.00  0.00    -0.203 F 
ATOM     95  C   UNL     1       1.450   3.341  18.485  1.00  0.00     0.198 A 
ATOM     96  C   UNL     1       1.407   5.186  20.021  1.00  0.00     0.198 A 
ATOM     97  F   UNL     1       0.989   7.363  19.236  1.00  0.00    -0.203 F 
ATOM     98  F   UNL     1       1.554   2.025  18.255  1.00  0.00    -0.200 F 
ATOM     99  C   UNL     1       1.548   3.828  19.780  1.00  0.00     0.200 A 
ATOM    100  F   UNL     1       1.513   5.659  21.270  1.00  0.00    -0.200 F 
ATOM    101  F   UNL     1       1.765   2.984  20.799  1.00  0.00    -0.200 F 
ENDBRANCH  68  91
ENDBRANCH  42  43
ENDBRANCH  34  37
ENDBRANCH  32  33
ENDBRANCH  31  32
ENDBRANCH  30  31
ENDBRANCH  28  30
ENDBRANCH  24  26
ENDBRANCH   4  24
TORSDOF 19
