REMARK SMILES [NH3+]C[C@@H]1CC[C@H](C(=O)N[C@@H](Cc2ccccc2)C(=O)NCCCNC(=O)c2ccc(-c3c4nc(c(-c5c(F)c(F)c(F)c(F)c5F)c5ccc([nH]5)c(-c5c(F)c(F)c(F)c(F)c5F)c5nc(c(-c6c(F)c(F)c(F)c(F)c6F)c6ccc3[nH]6)C=C5)C=C4)cc2)O1
REMARK SMILES IDX 21 1 20 2 18 3 19 4 10 6 9 7 7 8 8 9 6 11 3 12 4 13 90 14
REMARK SMILES IDX 5 15 2 16 1 17 11 21 12 22 13 23 17 24 14 25 16 26 15 27
REMARK SMILES IDX 22 28 23 29 24 30 25 31 26 33 27 34 28 35 89 36 29 37 88 38
REMARK SMILES IDX 30 39 31 40 32 41 82 42 33 43 87 44 81 45 83 46 34 47 86 48
REMARK SMILES IDX 80 49 79 50 35 52 67 53 47 54 66 55 48 56 51 57 65 58 84 59
REMARK SMILES IDX 49 60 50 61 64 63 85 64 52 65 36 66 37 67 45 68 38 69 39 70
REMARK SMILES IDX 43 71 46 72 40 73 41 74 44 75 42 76 68 77 69 78 77 79 70 80
REMARK SMILES IDX 71 81 75 82 78 83 72 84 73 85 76 86 74 87 53 88 54 89 62 90
REMARK SMILES IDX 55 91 56 92 60 93 63 94 57 95 58 96 61 97 59 98
REMARK H PARENT 20 5 9 10 1 18 1 19 1 20 24 32 83 51 51 62
REMARK Flexibility Score: inf
ROOT
ATOM      1  C   UNL     1      -3.468  -1.995   0.913  1.00  0.00     0.117 C 
ENDROOT
BRANCH   1   2
ATOM      2  N   UNL     1      -2.408  -1.023   0.808  1.00  0.00    -0.354 N 
ATOM      3  C   UNL     1      -1.927  -0.484  -0.348  1.00  0.00     0.242 C 
ATOM      4  O   UNL     1      -1.626   0.714  -0.315  1.00  0.00    -0.273 OA
ATOM      5  H   UNL     1      -1.993  -0.721   1.649  1.00  0.00     0.163 HD
BRANCH   3   6
ATOM      6  C   UNL     1      -1.890  -1.264  -1.682  1.00  0.00     0.175 C 
BRANCH   6   7
ATOM      7  N   UNL     1      -1.582  -2.697  -1.609  1.00  0.00    -0.342 N 
ATOM      8  C   UNL     1      -0.454  -3.373  -1.962  1.00  0.00     0.249 C 
ATOM      9  O   UNL     1      -0.454  -4.597  -1.797  1.00  0.00    -0.272 OA
ATOM     10  H   UNL     1      -2.306  -3.258  -1.248  1.00  0.00     0.164 HD
BRANCH   8  11
ATOM     11  C   UNL     1       0.758  -2.659  -2.577  1.00  0.00     0.207 C 
ATOM     12  C   UNL     1       1.693  -0.533  -2.581  1.00  0.00     0.174 C 
ATOM     13  C   UNL     1       0.901  -0.625  -3.875  1.00  0.00     0.041 C 
ATOM     14  O   UNL     1       1.203  -1.592  -1.741  1.00  0.00    -0.359 OA
ATOM     15  C   UNL     1       0.525  -2.092  -3.972  1.00  0.00     0.045 C 
BRANCH  12  16
ATOM     16  C   UNL     1       1.538   0.807  -1.844  1.00  0.00     0.291 C 
BRANCH  16  17
ATOM     17  N   UNL     1       1.990   0.712  -0.449  1.00  0.00    -0.355 N 
ATOM     18  H   UNL     1       1.874   1.616   0.009  1.00  0.00     0.344 HD
ATOM     19  H   UNL     1       2.974   0.444  -0.428  1.00  0.00     0.344 HD
ATOM     20  H   UNL     1       1.436   0.009   0.041  1.00  0.00     0.344 HD
ENDBRANCH  16  17
ENDBRANCH  12  16
ENDBRANCH   8  11
ENDBRANCH   6   7
BRANCH   6  21
ATOM     21  C   UNL     1      -3.077  -0.954  -2.617  1.00  0.00     0.070 C 
BRANCH  21  22
ATOM     22  C   UNL     1      -4.442  -1.318  -2.088  1.00  0.00    -0.045 A 
ATOM     23  C   UNL     1      -5.255  -0.329  -1.514  1.00  0.00     0.004 A 
ATOM     24  C   UNL     1      -4.885  -2.649  -2.088  1.00  0.00     0.004 A 
ATOM     25  C   UNL     1      -6.455  -0.675  -0.890  1.00  0.00     0.000 A 
ATOM     26  C   UNL     1      -6.076  -2.994  -1.445  1.00  0.00     0.000 A 
ATOM     27  C   UNL     1      -6.853  -2.010  -0.837  1.00  0.00     0.000 A 
ENDBRANCH  21  22
ENDBRANCH   6  21
ENDBRANCH   3   6
ENDBRANCH   1   2
BRANCH   1  28
ATOM     28  C   UNL     1      -3.483  -2.779   2.199  1.00  0.00     0.042 C 
BRANCH  28  29
ATOM     29  C   UNL     1      -3.816  -1.924   3.405  1.00  0.00     0.118 C 
BRANCH  29  30
ATOM     30  N   UNL     1      -5.120  -1.264   3.314  1.00  0.00    -0.352 N 
ATOM     31  C   UNL     1      -6.278  -1.453   4.029  1.00  0.00     0.251 C 
ATOM     32  H   UNL     1      -5.175  -0.564   2.624  1.00  0.00     0.163 HD
ATOM     33  O   UNL     1      -7.318  -0.902   3.677  1.00  0.00    -0.269 OA
BRANCH  31  34
ATOM     34  C   UNL     1      -6.278  -2.351   5.200  1.00  0.00     0.039 A 
ATOM     35  C   UNL     1      -7.364  -3.199   5.424  1.00  0.00     0.014 A 
ATOM     36  C   UNL     1      -5.177  -2.386   6.052  1.00  0.00     0.014 A 
ATOM     37  C   UNL     1      -7.293  -4.146   6.447  1.00  0.00     0.010 A 
ATOM     38  C   UNL     1      -5.037  -3.432   6.946  1.00  0.00     0.010 A 
ATOM     39  C   UNL     1      -6.106  -4.305   7.181  1.00  0.00    -0.014 A 
BRANCH  39  40
ATOM     40  C   UNL     1      -5.963  -5.344   8.229  1.00  0.00     0.031 A 
ATOM     41  C   UNL     1      -5.601  -4.943   9.635  1.00  0.00     0.074 A 
ATOM     42  C   UNL     1      -6.064  -6.645   7.898  1.00  0.00     0.049 A 
ATOM     43  N   UNL     1      -5.355  -5.697  10.675  1.00  0.00    -0.248 NA
ATOM     44  C   UNL     1      -5.429  -3.503   9.892  1.00  0.00     0.031 C 
ATOM     45  C   UNL     1      -6.298  -7.162   6.549  1.00  0.00     0.029 A 
ATOM     46  N   UNL     1      -5.971  -7.773   8.673  1.00  0.00    -0.354 N 
ATOM     47  C   UNL     1      -4.967  -4.826  11.685  1.00  0.00     0.074 A 
ATOM     48  C   UNL     1      -4.918  -3.502  11.111  1.00  0.00     0.031 C 
ATOM     49  C   UNL     1      -6.372  -8.502   6.597  1.00  0.00     0.029 A 
ATOM     50  C   UNL     1      -6.163  -8.938   7.974  1.00  0.00     0.049 A 
ATOM     51  H   UNL     1      -5.785  -7.749   9.640  1.00  0.00     0.167 HD
ATOM     52  C   UNL     1      -4.721  -5.096  12.989  1.00  0.00     0.037 A 
ATOM     53  C   UNL     1      -6.179 -10.214   8.401  1.00  0.00     0.037 A 
ATOM     54  C   UNL     1      -4.835  -6.408  13.563  1.00  0.00     0.049 A 
ATOM     55  C   UNL     1      -5.991 -10.489   9.867  1.00  0.00     0.074 A 
ATOM     56  C   UNL     1      -4.707  -6.788  14.885  1.00  0.00     0.029 A 
ATOM     57  N   UNL     1      -5.113  -7.558  12.837  1.00  0.00    -0.354 N 
ATOM     58  N   UNL     1      -5.729  -9.648  10.838  1.00  0.00    -0.248 NA
ATOM     59  C   UNL     1      -6.121 -11.886  10.301  1.00  0.00     0.031 C 
ATOM     60  C   UNL     1      -4.872  -8.176  14.955  1.00  0.00     0.029 A 
ATOM     61  C   UNL     1      -5.148  -8.653  13.682  1.00  0.00     0.049 A 
ATOM     62  H   UNL     1      -5.263  -7.590  11.864  1.00  0.00     0.167 HD
ATOM     63  C   UNL     1      -5.681 -10.405  11.999  1.00  0.00     0.074 A 
ATOM     64  C   UNL     1      -5.959 -11.774  11.613  1.00  0.00     0.031 C 
ATOM     65  C   UNL     1      -5.428 -10.006  13.270  1.00  0.00     0.037 A 
BRANCH  52  66
ATOM     66  C   UNL     1      -4.329  -3.941  13.867  1.00  0.00     0.064 A 
ATOM     67  C   UNL     1      -5.221  -2.895  14.155  1.00  0.00     0.173 A 
ATOM     68  C   UNL     1      -3.038  -3.864  14.410  1.00  0.00     0.173 A 
ATOM     69  F   UNL     1      -6.465  -2.910  13.650  1.00  0.00    -0.203 F 
ATOM     70  C   UNL     1      -4.819  -1.792  14.903  1.00  0.00     0.198 A 
ATOM     71  C   UNL     1      -2.651  -2.777  15.191  1.00  0.00     0.198 A 
ATOM     72  F   UNL     1      -2.145  -4.837  14.174  1.00  0.00    -0.203 F 
ATOM     73  F   UNL     1      -5.665  -0.769  15.092  1.00  0.00    -0.200 F 
ATOM     74  C   UNL     1      -3.536  -1.735  15.423  1.00  0.00     0.200 A 
ATOM     75  F   UNL     1      -1.414  -2.729  15.704  1.00  0.00    -0.200 F 
ATOM     76  F   UNL     1      -3.148  -0.670  16.137  1.00  0.00    -0.200 F 
ENDBRANCH  52  66
BRANCH  53  77
ATOM     77  C   UNL     1      -6.450 -11.306   7.431  1.00  0.00     0.064 A 
ATOM     78  C   UNL     1      -7.687 -11.966   7.420  1.00  0.00     0.173 A 
ATOM     79  C   UNL     1      -5.504 -11.675   6.465  1.00  0.00     0.173 A 
ATOM     80  F   UNL     1      -8.620 -11.656   8.332  1.00  0.00    -0.203 F 
ATOM     81  C   UNL     1      -7.963 -12.961   6.484  1.00  0.00     0.198 A 
ATOM     82  C   UNL     1      -5.790 -12.653   5.514  1.00  0.00     0.198 A 
ATOM     83  F   UNL     1      -4.311 -11.063   6.426  1.00  0.00    -0.203 F 
ATOM     84  F   UNL     1      -9.144 -13.594   6.511  1.00  0.00    -0.200 F 
ATOM     85  C   UNL     1      -7.018 -13.298   5.527  1.00  0.00     0.200 A 
ATOM     86  F   UNL     1      -4.881 -12.963   4.580  1.00  0.00    -0.200 F 
ATOM     87  F   UNL     1      -7.290 -14.243   4.617  1.00  0.00    -0.200 F 
ENDBRANCH  53  77
BRANCH  65  88
ATOM     88  C   UNL     1      -5.460 -11.058  14.338  1.00  0.00     0.064 A 
ATOM     89  C   UNL     1      -4.439 -12.011  14.460  1.00  0.00     0.173 A 
ATOM     90  C   UNL     1      -6.498 -11.077  15.282  1.00  0.00     0.173 A 
ATOM     91  F   UNL     1      -3.433 -12.039  13.572  1.00  0.00    -0.203 F 
ATOM     92  C   UNL     1      -4.467 -12.960  15.477  1.00  0.00     0.198 A 
ATOM     93  C   UNL     1      -6.506 -12.009  16.315  1.00  0.00     0.198 A 
ATOM     94  F   UNL     1      -7.493 -10.180  15.213  1.00  0.00    -0.203 F 
ATOM     95  F   UNL     1      -3.503 -13.888  15.551  1.00  0.00    -0.200 F 
ATOM     96  C   UNL     1      -5.495 -12.953  16.408  1.00  0.00     0.200 A 
ATOM     97  F   UNL     1      -7.493 -11.993  17.222  1.00  0.00    -0.200 F 
ATOM     98  F   UNL     1      -5.514 -13.862  17.393  1.00  0.00    -0.200 F 
ENDBRANCH  65  88
ENDBRANCH  39  40
ENDBRANCH  31  34
ENDBRANCH  29  30
ENDBRANCH  28  29
ENDBRANCH   1  28
TORSDOF 16
