REMARK SMILES C[C@H](NS(=O)(=O)c1ccc(-c2cc(-c3ccccc3)c3cc([N+](=O)[O-])ccc3n2)cc1)C(=O)NCCCNC(=O)c1ccc(-c2c3nc(c(-c4c(F)c(F)c(F)c(F)c4F)c4ccc([nH]4)c(-c4c(F)c(F)c(F)c(F)c4F)c4nc(c(-c5c(F)c(F)c(F)c(F)c5F)c5ccc2[nH]5)C=C4)C=C3)cc1
REMARK SMILES IDX 32 1 33 2 34 3 2 5 1 6 3 7 4 9 5 10 6 11 7 12 8 13 31 14
REMARK SMILES IDX 9 15 30 16 10 17 11 18 12 19 29 20 13 21 28 22 20 23 27 24
REMARK SMILES IDX 21 25 26 26 22 27 14 28 15 29 19 30 16 31 18 32 17 33 23 34
REMARK SMILES IDX 24 35 25 36 35 37 36 38 37 39 38 40 39 41 40 43 41 44 42 45
REMARK SMILES IDX 103 46 43 47 102 48 44 49 45 50 46 51 96 52 47 53 101 54
REMARK SMILES IDX 95 55 97 56 48 57 100 58 94 59 93 60 49 62 81 63 61 64 80 65
REMARK SMILES IDX 62 66 65 67 79 68 98 69 63 70 64 71 78 73 99 74 66 75 50 76
REMARK SMILES IDX 51 77 59 78 52 79 53 80 57 81 60 82 54 83 55 84 58 85 56 86
REMARK SMILES IDX 82 87 83 88 91 89 84 90 85 91 89 92 92 93 86 94 87 95 90 96
REMARK SMILES IDX 88 97 67 98 68 99 76 100 69 101 70 102 74 103 77 104 71 105
REMARK SMILES IDX 72 106 75 107 73 108
REMARK H PARENT 34 4 3 8 38 42 97 61 65 72
REMARK Flexibility Score: inf
ROOT
ATOM      1  C   UNL     1      -0.464  -0.660  -1.150  1.00  0.00     0.237 C 
ATOM      2  O   UNL     1      -0.429   0.057  -2.157  1.00  0.00    -0.273 OA
ATOM      3  N   UNL     1      -1.679  -0.802  -0.544  1.00  0.00    -0.355 N 
ATOM      4  H   UNL     1      -2.458  -0.814  -1.145  1.00  0.00     0.163 HD
ENDROOT
BRANCH   1   5
ATOM      5  C   UNL     1       0.773  -1.457  -0.733  1.00  0.00     0.155 C 
ATOM      6  C   UNL     1       0.484  -2.876  -0.270  1.00  0.00     0.036 C 
BRANCH   5   7
ATOM      7  N   UNL     1       1.947  -0.855  -0.066  1.00  0.00    -0.199 NA
ATOM      8  H   UNL     1       2.334  -0.204  -0.750  1.00  0.00     0.142 HD
BRANCH   7   9
ATOM      9  S   UNL     1       1.956  -0.018   1.379  1.00  0.00     0.241 S 
ATOM     10  O   UNL     1       3.136   0.802   1.333  1.00  0.00    -0.207 OA
ATOM     11  O   UNL     1       0.639   0.563   1.575  1.00  0.00    -0.207 OA
BRANCH   9  12
ATOM     12  C   UNL     1       2.222  -1.195   2.696  1.00  0.00     0.082 A 
ATOM     13  C   UNL     1       2.288  -2.566   2.467  1.00  0.00     0.022 A 
ATOM     14  C   UNL     1       2.162  -0.723   4.008  1.00  0.00     0.022 A 
ATOM     15  C   UNL     1       1.942  -3.457   3.498  1.00  0.00     0.012 A 
ATOM     16  C   UNL     1       1.941  -1.625   5.057  1.00  0.00     0.012 A 
ATOM     17  C   UNL     1       1.600  -2.974   4.773  1.00  0.00     0.000 A 
BRANCH  17  18
ATOM     18  C   UNL     1       0.333  -3.483   5.423  1.00  0.00     0.072 A 
ATOM     19  C   UNL     1       0.171  -3.671   6.795  1.00  0.00     0.038 A 
ATOM     20  N   UNL     1      -0.683  -2.908   4.739  1.00  0.00    -0.248 NA
ATOM     21  C   UNL     1      -0.784  -2.870   7.438  1.00  0.00    -0.007 A 
ATOM     22  C   UNL     1      -1.186  -1.841   5.340  1.00  0.00     0.072 A 
ATOM     23  C   UNL     1      -1.168  -1.723   6.725  1.00  0.00     0.015 A 
ATOM     24  C   UNL     1      -1.452  -0.737   4.569  1.00  0.00     0.036 A 
ATOM     25  C   UNL     1      -1.331  -0.457   7.325  1.00  0.00     0.096 A 
ATOM     26  C   UNL     1      -1.512   0.536   5.126  1.00  0.00     0.088 A 
ATOM     27  C   UNL     1      -1.399   0.668   6.506  1.00  0.00     0.270 A 
BRANCH  21  28
ATOM     28  C   UNL     1      -1.396  -3.097   8.758  1.00  0.00    -0.018 A 
ATOM     29  C   UNL     1      -2.806  -2.970   8.847  1.00  0.00     0.009 A 
ATOM     30  C   UNL     1      -0.687  -3.329   9.935  1.00  0.00     0.009 A 
ATOM     31  C   UNL     1      -3.475  -2.988  10.067  1.00  0.00     0.001 A 
ATOM     32  C   UNL     1      -1.363  -3.362  11.165  1.00  0.00     0.001 A 
ATOM     33  C   UNL     1      -2.747  -3.172  11.232  1.00  0.00     0.000 A 
ENDBRANCH  21  28
BRANCH  27  34
ATOM     34  N   UNL     1      -1.177   1.987   7.082  1.00  0.00     0.062 N 
ATOM     35  O   UNL     1      -1.384   2.132   8.293  1.00  0.00    -0.258 OA
ATOM     36  O   UNL     1      -0.760   2.874   6.323  1.00  0.00    -0.258 OA
ENDBRANCH  27  34
ENDBRANCH  17  18
ENDBRANCH   9  12
ENDBRANCH   7   9
ENDBRANCH   5   7
ENDBRANCH   1   5
BRANCH   3  37
ATOM     37  C   UNL     1      -1.970  -0.937   0.872  1.00  0.00     0.117 C 
BRANCH  37  38
ATOM     38  C   UNL     1      -2.493   0.404   1.411  1.00  0.00     0.042 C 
BRANCH  38  39
ATOM     39  C   UNL     1      -3.978   0.426   1.774  1.00  0.00     0.118 C 
BRANCH  39  40
ATOM     40  N   UNL     1      -4.357  -0.415   2.905  1.00  0.00    -0.352 N 
ATOM     41  C   UNL     1      -4.773  -0.181   4.196  1.00  0.00     0.251 C 
ATOM     42  H   UNL     1      -4.302  -1.376   2.695  1.00  0.00     0.163 HD
ATOM     43  O   UNL     1      -5.000  -1.167   4.901  1.00  0.00    -0.269 OA
BRANCH  41  44
ATOM     44  C   UNL     1      -4.911   1.168   4.816  1.00  0.00     0.039 A 
ATOM     45  C   UNL     1      -4.755   1.264   6.214  1.00  0.00     0.014 A 
ATOM     46  C   UNL     1      -5.244   2.322   4.115  1.00  0.00     0.014 A 
ATOM     47  C   UNL     1      -4.868   2.495   6.879  1.00  0.00     0.010 A 
ATOM     48  C   UNL     1      -5.295   3.562   4.763  1.00  0.00     0.010 A 
ATOM     49  C   UNL     1      -5.129   3.662   6.153  1.00  0.00    -0.014 A 
BRANCH  49  50
ATOM     50  C   UNL     1      -5.354   4.978   6.813  1.00  0.00     0.031 A 
ATOM     51  C   UNL     1      -6.721   5.596   6.766  1.00  0.00     0.074 A 
ATOM     52  C   UNL     1      -4.343   5.661   7.380  1.00  0.00     0.049 A 
ATOM     53  N   UNL     1      -7.104   6.796   7.120  1.00  0.00    -0.248 NA
ATOM     54  C   UNL     1      -7.797   4.758   6.213  1.00  0.00     0.031 C 
ATOM     55  C   UNL     1      -2.972   5.187   7.477  1.00  0.00     0.029 A 
ATOM     56  N   UNL     1      -4.299   6.907   7.957  1.00  0.00    -0.354 N 
ATOM     57  C   UNL     1      -8.452   6.869   6.803  1.00  0.00     0.074 A 
ATOM     58  C   UNL     1      -8.813   5.607   6.191  1.00  0.00     0.031 C 
ATOM     59  C   UNL     1      -2.211   6.117   8.073  1.00  0.00     0.029 A 
ATOM     60  C   UNL     1      -3.040   7.279   8.367  1.00  0.00     0.049 A 
ATOM     61  H   UNL     1      -5.093   7.479   8.066  1.00  0.00     0.167 HD
ATOM     62  C   UNL     1      -9.315   7.889   7.017  1.00  0.00     0.037 A 
ATOM     63  C   UNL     1      -2.600   8.434   8.902  1.00  0.00     0.037 A 
ATOM     64  C   UNL     1      -8.963   9.128   7.659  1.00  0.00     0.049 A 
ATOM     65  C   UNL     1      -3.579   9.549   9.138  1.00  0.00     0.074 A 
ATOM     66  C   UNL     1      -9.778  10.204   7.964  1.00  0.00     0.029 A 
ATOM     67  N   UNL     1      -7.689   9.453   8.102  1.00  0.00    -0.354 N 
ATOM     68  N   UNL     1      -4.859   9.596   8.863  1.00  0.00    -0.248 NA
ATOM     69  C   UNL     1      -3.055  10.768   9.769  1.00  0.00     0.031 C 
ATOM     70  C   UNL     1      -8.992  11.192   8.567  1.00  0.00     0.029 A 
ATOM     71  C   UNL     1      -7.695  10.716   8.673  1.00  0.00     0.049 A 
ATOM     72  H   UNL     1      -6.898   8.873   8.022  1.00  0.00     0.167 HD
ATOM     73  C   UNL     1      -5.301  10.832   9.312  1.00  0.00     0.074 A 
ATOM     74  C   UNL     1      -4.153  11.501   9.888  1.00  0.00     0.031 C 
ATOM     75  C   UNL     1      -6.546  11.362   9.253  1.00  0.00     0.037 A 
BRANCH  62  76
ATOM     76  C   UNL     1     -10.726   7.700   6.548  1.00  0.00     0.064 A 
ATOM     77  C   UNL     1     -11.600   6.807   7.187  1.00  0.00     0.173 A 
ATOM     78  C   UNL     1     -11.213   8.426   5.451  1.00  0.00     0.173 A 
ATOM     79  F   UNL     1     -11.175   6.076   8.228  1.00  0.00    -0.203 F 
ATOM     80  C   UNL     1     -12.899   6.624   6.724  1.00  0.00     0.198 A 
ATOM     81  C   UNL     1     -12.523   8.261   5.010  1.00  0.00     0.198 A 
ATOM     82  F   UNL     1     -10.418   9.292   4.805  1.00  0.00    -0.203 F 
ATOM     83  F   UNL     1     -13.698   5.724   7.315  1.00  0.00    -0.200 F 
ATOM     84  C   UNL     1     -13.362   7.355   5.641  1.00  0.00     0.200 A 
ATOM     85  F   UNL     1     -12.972   8.974   3.967  1.00  0.00    -0.200 F 
ATOM     86  F   UNL     1     -14.614   7.178   5.197  1.00  0.00    -0.200 F 
ENDBRANCH  62  76
BRANCH  63  87
ATOM     87  C   UNL     1      -1.169   8.588   9.270  1.00  0.00     0.064 A 
ATOM     88  C   UNL     1      -0.774   8.615  10.614  1.00  0.00     0.173 A 
ATOM     89  C   UNL     1      -0.171   8.722   8.293  1.00  0.00     0.173 A 
ATOM     90  F   UNL     1      -1.696   8.520  11.584  1.00  0.00    -0.203 F 
ATOM     91  C   UNL     1       0.562   8.789  10.970  1.00  0.00     0.198 A 
ATOM     92  C   UNL     1       1.168   8.871   8.650  1.00  0.00     0.198 A 
ATOM     93  F   UNL     1      -0.497   8.708   6.993  1.00  0.00    -0.203 F 
ATOM     94  F   UNL     1       0.905   8.859  12.263  1.00  0.00    -0.200 F 
ATOM     95  C   UNL     1       1.533   8.912   9.987  1.00  0.00     0.200 A 
ATOM     96  F   UNL     1       2.105   8.986   7.698  1.00  0.00    -0.200 F 
ATOM     97  F   UNL     1       2.817   9.082  10.330  1.00  0.00    -0.200 F 
ENDBRANCH  63  87
BRANCH  75  98
ATOM     98  C   UNL     1      -6.740  12.715   9.870  1.00  0.00     0.064 A 
ATOM     99  C   UNL     1      -6.248  13.879   9.263  1.00  0.00     0.173 A 
ATOM    100  C   UNL     1      -7.447  12.847  11.075  1.00  0.00     0.173 A 
ATOM    101  F   UNL     1      -5.552  13.801   8.119  1.00  0.00    -0.203 F 
ATOM    102  C   UNL     1      -6.434  15.126   9.854  1.00  0.00     0.198 A 
ATOM    103  C   UNL     1      -7.654  14.098  11.649  1.00  0.00     0.198 A 
ATOM    104  F   UNL     1      -7.941  11.763  11.692  1.00  0.00    -0.203 F 
ATOM    105  F   UNL     1      -5.915  16.221   9.283  1.00  0.00    -0.200 F 
ATOM    106  C   UNL     1      -7.141  15.234  11.043  1.00  0.00     0.200 A 
ATOM    107  F   UNL     1      -8.346  14.202  12.792  1.00  0.00    -0.200 F 
ATOM    108  F   UNL     1      -7.320  16.436  11.610  1.00  0.00    -0.200 F 
ENDBRANCH  75  98
ENDBRANCH  49  50
ENDBRANCH  41  44
ENDBRANCH  39  40
ENDBRANCH  38  39
ENDBRANCH  37  38
ENDBRANCH   3  37
TORSDOF 16
