REMARK SMILES C[C@@H](CC(=O)NCCCNC(=O)c1ccc(-c2c3nc(c(-c4c(F)c(F)c(F)c(F)c4F)c4ccc([nH]4)c(-c4c(F)c(F)c(F)c(F)c4F)c4nc(c(-c5c(F)c(F)c(F)c(F)c5F)c5ccc2[nH]5)C=C4)C=C3)cc1)N1C(=O)CCCC1=O
REMARK SMILES IDX 8 1 7 2 6 3 4 4 5 5 3 7 2 8 1 9 76 10 77 11 82 12 78 13
REMARK SMILES IDX 79 14 81 15 83 16 80 17 9 18 10 19 11 20 12 22 13 23 14 24
REMARK SMILES IDX 75 25 15 26 74 27 16 28 17 29 18 30 68 31 19 32 73 33 67 34
REMARK SMILES IDX 69 35 20 36 72 37 66 38 65 39 21 41 53 42 33 43 52 44 34 45
REMARK SMILES IDX 37 46 51 47 70 48 35 49 36 50 50 52 71 53 38 54 22 55 23 56
REMARK SMILES IDX 31 57 24 58 25 59 29 60 32 61 26 62 27 63 30 64 28 65 54 66
REMARK SMILES IDX 55 67 63 68 56 69 57 70 61 71 64 72 58 73 59 74 62 75 60 76
REMARK SMILES IDX 39 77 40 78 48 79 41 80 42 81 46 82 49 83 43 84 44 85 47 86
REMARK SMILES IDX 45 87
REMARK H PARENT 6 6 10 21 69 40 37 51
REMARK Flexibility Score: inf
ROOT
ATOM      1  C   UNL     1       1.461   1.966  -1.661  1.00  0.00     0.042 C 
ENDROOT
BRANCH   1   2
ATOM      2  C   UNL     1       2.179   2.247  -0.342  1.00  0.00     0.117 C 
BRANCH   2   3
ATOM      3  N   UNL     1       1.283   2.756   0.682  1.00  0.00    -0.356 N 
ATOM      4  C   UNL     1       0.680   2.133   1.729  1.00  0.00     0.222 C 
ATOM      5  O   UNL     1      -0.128   2.776   2.405  1.00  0.00    -0.275 OA
ATOM      6  H   UNL     1       1.078   3.716   0.604  1.00  0.00     0.163 HD
BRANCH   4   7
ATOM      7  C   UNL     1       1.038   0.718   2.119  1.00  0.00     0.125 C 
BRANCH   7   8
ATOM      8  C   UNL     1       0.263  -0.484   1.540  1.00  0.00     0.099 C 
ATOM      9  C   UNL     1       0.813  -1.026   0.219  1.00  0.00     0.032 C 
BRANCH   8  10
ATOM     10  N   UNL     1      -1.214  -0.418   1.531  1.00  0.00    -0.279 N 
ATOM     11  C   UNL     1      -1.893  -1.592   1.870  1.00  0.00     0.229 C 
ATOM     12  C   UNL     1      -1.855   0.619   0.858  1.00  0.00     0.229 C 
ATOM     13  O   UNL     1      -1.317  -2.624   2.226  1.00  0.00    -0.274 OA
ATOM     14  C   UNL     1      -3.410  -1.595   1.795  1.00  0.00     0.101 C 
ATOM     15  C   UNL     1      -3.320   0.774   1.171  1.00  0.00     0.101 C 
ATOM     16  O   UNL     1      -1.327   1.319  -0.003  1.00  0.00    -0.274 OA
ATOM     17  C   UNL     1      -3.982  -0.547   0.865  1.00  0.00     0.020 C 
ENDBRANCH   8  10
ENDBRANCH   7   8
ENDBRANCH   4   7
ENDBRANCH   2   3
ENDBRANCH   1   2
BRANCH   1  18
ATOM     18  C   UNL     1       0.838   3.189  -2.323  1.00  0.00     0.118 C 
BRANCH  18  19
ATOM     19  N   UNL     1       1.823   3.993  -3.029  1.00  0.00    -0.352 N 
ATOM     20  C   UNL     1       2.061   4.135  -4.374  1.00  0.00     0.251 C 
ATOM     21  H   UNL     1       2.417   4.520  -2.447  1.00  0.00     0.163 HD
ATOM     22  O   UNL     1       3.090   4.696  -4.742  1.00  0.00    -0.269 OA
BRANCH  20  23
ATOM     23  C   UNL     1       1.114   3.619  -5.393  1.00  0.00     0.039 A 
ATOM     24  C   UNL     1       1.635   3.067  -6.570  1.00  0.00     0.014 A 
ATOM     25  C   UNL     1      -0.270   3.739  -5.249  1.00  0.00     0.014 A 
ATOM     26  C   UNL     1       0.776   2.594  -7.569  1.00  0.00     0.010 A 
ATOM     27  C   UNL     1      -1.127   3.200  -6.210  1.00  0.00     0.010 A 
ATOM     28  C   UNL     1      -0.614   2.632  -7.387  1.00  0.00    -0.014 A 
BRANCH  28  29
ATOM     29  C   UNL     1      -1.550   2.115  -8.422  1.00  0.00     0.031 A 
ATOM     30  C   UNL     1      -2.504   3.051  -9.113  1.00  0.00     0.074 A 
ATOM     31  C   UNL     1      -1.589   0.797  -8.698  1.00  0.00     0.049 A 
ATOM     32  N   UNL     1      -3.473   2.780  -9.953  1.00  0.00    -0.248 NA
ATOM     33  C   UNL     1      -2.368   4.481  -8.798  1.00  0.00     0.031 C 
ATOM     34  C   UNL     1      -0.740  -0.223  -8.083  1.00  0.00     0.029 A 
ATOM     35  N   UNL     1      -2.391   0.086  -9.559  1.00  0.00    -0.354 N 
ATOM     36  C   UNL     1      -4.074   3.998 -10.243  1.00  0.00     0.074 A 
ATOM     37  C   UNL     1      -3.389   5.005  -9.461  1.00  0.00     0.031 C 
ATOM     38  C   UNL     1      -1.055  -1.424  -8.594  1.00  0.00     0.029 A 
ATOM     39  C   UNL     1      -2.155  -1.267  -9.541  1.00  0.00     0.049 A 
ATOM     40  H   UNL     1      -3.070   0.507 -10.134  1.00  0.00     0.167 HD
ATOM     41  C   UNL     1      -5.094   4.257 -11.097  1.00  0.00     0.037 A 
ATOM     42  C   UNL     1      -2.766  -2.269 -10.202  1.00  0.00     0.037 A 
ATOM     43  C   UNL     1      -5.751   3.264 -11.905  1.00  0.00     0.049 A 
ATOM     44  C   UNL     1      -3.897  -1.955 -11.144  1.00  0.00     0.074 A 
ATOM     45  C   UNL     1      -6.755   3.440 -12.842  1.00  0.00     0.029 A 
ATOM     46  N   UNL     1      -5.465   1.907 -11.875  1.00  0.00    -0.354 N 
ATOM     47  N   UNL     1      -4.427  -0.795 -11.442  1.00  0.00    -0.248 NA
ATOM     48  C   UNL     1      -4.513  -3.092 -11.843  1.00  0.00     0.031 C 
ATOM     49  C   UNL     1      -7.101   2.185 -13.354  1.00  0.00     0.029 A 
ATOM     50  C   UNL     1      -6.284   1.233 -12.766  1.00  0.00     0.049 A 
ATOM     51  H   UNL     1      -4.782   1.486 -11.305  1.00  0.00     0.167 HD
ATOM     52  C   UNL     1      -5.415  -1.056 -12.381  1.00  0.00     0.074 A 
ATOM     53  C   UNL     1      -5.407  -2.486 -12.611  1.00  0.00     0.031 C 
ATOM     54  C   UNL     1      -6.254  -0.188 -12.996  1.00  0.00     0.037 A 
BRANCH  41  55
ATOM     55  C   UNL     1      -5.564   5.678 -11.204  1.00  0.00     0.064 A 
ATOM     56  C   UNL     1      -4.790   6.663 -11.837  1.00  0.00     0.173 A 
ATOM     57  C   UNL     1      -6.821   6.052 -10.704  1.00  0.00     0.173 A 
ATOM     58  F   UNL     1      -3.578   6.358 -12.323  1.00  0.00    -0.203 F 
ATOM     59  C   UNL     1      -5.245   7.975 -11.940  1.00  0.00     0.198 A 
ATOM     60  C   UNL     1      -7.284   7.359 -10.834  1.00  0.00     0.198 A 
ATOM     61  F   UNL     1      -7.604   5.148 -10.097  1.00  0.00    -0.203 F 
ATOM     62  F   UNL     1      -4.468   8.908 -12.508  1.00  0.00    -0.200 F 
ATOM     63  C   UNL     1      -6.493   8.320 -11.444  1.00  0.00     0.200 A 
ATOM     64  F   UNL     1      -8.496   7.689 -10.366  1.00  0.00    -0.200 F 
ATOM     65  F   UNL     1      -6.931   9.582 -11.550  1.00  0.00    -0.200 F 
ENDBRANCH  41  55
BRANCH  42  66
ATOM     66  C   UNL     1      -2.309  -3.669 -10.008  1.00  0.00     0.064 A 
ATOM     67  C   UNL     1      -1.629  -4.349 -11.028  1.00  0.00     0.173 A 
ATOM     68  C   UNL     1      -2.543  -4.355  -8.807  1.00  0.00     0.173 A 
ATOM     69  F   UNL     1      -1.404  -3.742 -12.202  1.00  0.00    -0.203 F 
ATOM     70  C   UNL     1      -1.215  -5.669 -10.860  1.00  0.00     0.198 A 
ATOM     71  C   UNL     1      -2.105  -5.666  -8.632  1.00  0.00     0.198 A 
ATOM     72  F   UNL     1      -3.188  -3.747  -7.801  1.00  0.00    -0.203 F 
ATOM     73  F   UNL     1      -0.604  -6.310 -11.866  1.00  0.00    -0.200 F 
ATOM     74  C   UNL     1      -1.448  -6.324  -9.660  1.00  0.00     0.200 A 
ATOM     75  F   UNL     1      -2.323  -6.292  -7.467  1.00  0.00    -0.200 F 
ATOM     76  F   UNL     1      -1.046  -7.592  -9.498  1.00  0.00    -0.200 F 
ENDBRANCH  42  66
BRANCH  54  77
ATOM     77  C   UNL     1      -7.207  -0.750 -14.009  1.00  0.00     0.064 A 
ATOM     78  C   UNL     1      -8.338  -1.484 -13.625  1.00  0.00     0.173 A 
ATOM     79  C   UNL     1      -7.013  -0.505 -15.377  1.00  0.00     0.173 A 
ATOM     80  F   UNL     1      -8.558  -1.758 -12.331  1.00  0.00    -0.203 F 
ATOM     81  C   UNL     1      -9.232  -1.969 -14.577  1.00  0.00     0.198 A 
ATOM     82  C   UNL     1      -7.921  -0.969 -16.323  1.00  0.00     0.198 A 
ATOM     83  F   UNL     1      -5.948   0.197 -15.793  1.00  0.00    -0.203 F 
ATOM     84  F   UNL     1     -10.287  -2.700 -14.192  1.00  0.00    -0.200 F 
ATOM     85  C   UNL     1      -9.027  -1.704 -15.924  1.00  0.00     0.200 A 
ATOM     86  F   UNL     1      -7.728  -0.704 -17.623  1.00  0.00    -0.200 F 
ATOM     87  F   UNL     1      -9.894  -2.163 -16.837  1.00  0.00    -0.200 F 
ENDBRANCH  54  77
ENDBRANCH  28  29
ENDBRANCH  20  23
ENDBRANCH  18  19
ENDBRANCH   1  18
TORSDOF 12
