REMARK SMILES COc1ccc(OC)c(/C=N/[NH+]=C2/NC(=O)[C@@H](CC(=O)NCCCNC(=O)c3ccc(-c4c5nc(c(-c6c(F)c(F)c(F)c(F)c6F)c6ccc([nH]6)c(-c6c(F)c(F)c(F)c(F)c6F)c6nc(c(-c7c(F)c(F)c(F)c(F)c7F)c7ccc4[nH]7)C=C6)C=C5)cc3)S2)c1
REMARK SMILES IDX 22 1 21 2 19 3 20 4 18 6 17 7 12 8 13 9 14 11 91 12 15 13
REMARK SMILES IDX 16 15 11 16 10 17 9 18 3 19 4 20 92 21 5 22 6 23 2 24 1 25
REMARK SMILES IDX 7 26 8 27 23 28 24 29 25 30 26 31 27 33 28 34 29 35 90 36
REMARK SMILES IDX 30 37 89 38 31 39 32 40 33 41 83 42 34 43 88 44 82 45 84 46
REMARK SMILES IDX 35 47 87 48 81 49 80 50 36 52 68 53 48 54 67 55 49 56 52 57
REMARK SMILES IDX 66 58 85 59 50 60 51 61 65 63 86 64 53 65 37 66 38 67 46 68
REMARK SMILES IDX 39 69 40 70 44 71 47 72 41 73 42 74 45 75 43 76 69 77 70 78
REMARK SMILES IDX 78 79 71 80 72 81 76 82 79 83 73 84 74 85 77 86 75 87 54 88
REMARK SMILES IDX 55 89 63 90 56 91 57 92 61 93 64 94 58 95 59 96 62 97 60 98
REMARK H PARENT 21 5 12 10 14 14 25 32 84 51 52 62
REMARK Flexibility Score: inf
ROOT
ATOM      1  C   UNL     1       7.432   0.301   3.198  1.00  0.00     0.117 C 
ENDROOT
BRANCH   1   2
ATOM      2  N   UNL     1       7.247   0.342   1.754  1.00  0.00    -0.356 N 
ATOM      3  C   UNL     1       7.922   0.990   0.766  1.00  0.00     0.221 C 
ATOM      4  O   UNL     1       7.529   0.833  -0.392  1.00  0.00    -0.275 OA
ATOM      5  H   UNL     1       6.492  -0.201   1.432  1.00  0.00     0.163 HD
BRANCH   3   6
ATOM      6  C   UNL     1       9.122   1.858   1.064  1.00  0.00     0.127 C 
BRANCH   6   7
ATOM      7  C   UNL     1       8.874   3.360   1.223  1.00  0.00     0.183 C 
ATOM      8  N   UNL     1       5.941   4.636   3.362  1.00  0.00    -0.142 N 
ATOM      9  C   UNL     1       6.994   4.340   2.686  1.00  0.00     0.337 C 
ATOM     10  H   UNL     1       5.988   4.732   4.340  1.00  0.00     0.343 HD
ATOM     11  N   UNL     1       8.173   4.211   3.335  1.00  0.00    -0.202 N 
ATOM     12  S   UNL     1       7.168   3.980   1.004  1.00  0.00    -0.020 SA
ATOM     13  C   UNL     1       9.249   3.768   2.634  1.00  0.00     0.322 C 
ATOM     14  H   UNL     1       8.250   4.433   4.291  1.00  0.00     0.316 HD
ATOM     15  O   UNL     1      10.368   3.658   3.121  1.00  0.00    -0.246 OA
BRANCH   8  16
ATOM     16  N   UNL     1       4.730   4.821   2.692  1.00  0.00    -0.093 NA
ATOM     17  C   UNL     1       4.067   3.725   2.512  1.00  0.00     0.170 C 
BRANCH  17  18
ATOM     18  C   UNL     1       2.620   3.659   2.251  1.00  0.00     0.042 A 
ATOM     19  C   UNL     1       0.856   2.389   1.150  1.00  0.00     0.119 A 
ATOM     20  C   UNL     1      -0.084   3.257   1.701  1.00  0.00     0.050 A 
ATOM     21  C   UNL     1       2.209   2.591   1.424  1.00  0.00     0.060 A 
ATOM     22  C   UNL     1       0.319   4.296   2.543  1.00  0.00     0.051 A 
ATOM     23  C   UNL     1       1.671   4.505   2.842  1.00  0.00     0.128 A 
BRANCH  19  24
ATOM     24  O   UNL     1       0.338   1.421   0.338  1.00  0.00    -0.497 OA
ATOM     25  C   UNL     1       1.086   0.219   0.200  1.00  0.00     0.278 C 
ENDBRANCH  19  24
BRANCH  23  26
ATOM     26  O   UNL     1       1.863   5.572   3.672  1.00  0.00    -0.496 OA
ATOM     27  C   UNL     1       2.863   5.488   4.677  1.00  0.00     0.278 C 
ENDBRANCH  23  26
ENDBRANCH  17  18
ENDBRANCH   8  16
ENDBRANCH   6   7
ENDBRANCH   3   6
ENDBRANCH   1   2
BRANCH   1  28
ATOM     28  C   UNL     1       6.248   0.910   3.954  1.00  0.00     0.042 C 
BRANCH  28  29
ATOM     29  C   UNL     1       4.895   0.220   3.740  1.00  0.00     0.118 C 
BRANCH  29  30
ATOM     30  N   UNL     1       4.647  -0.823   4.718  1.00  0.00    -0.352 N 
ATOM     31  C   UNL     1       3.701  -0.898   5.714  1.00  0.00     0.251 C 
ATOM     32  H   UNL     1       5.251  -1.599   4.659  1.00  0.00     0.163 HD
ATOM     33  O   UNL     1       3.825  -1.759   6.582  1.00  0.00    -0.269 OA
BRANCH  31  34
ATOM     34  C   UNL     1       2.542   0.031   5.782  1.00  0.00     0.039 A 
ATOM     35  C   UNL     1       2.145   0.512   7.036  1.00  0.00     0.014 A 
ATOM     36  C   UNL     1       1.769   0.346   4.663  1.00  0.00     0.014 A 
ATOM     37  C   UNL     1       1.020   1.341   7.162  1.00  0.00     0.010 A 
ATOM     38  C   UNL     1       0.670   1.212   4.788  1.00  0.00     0.010 A 
ATOM     39  C   UNL     1       0.286   1.737   6.033  1.00  0.00    -0.014 A 
BRANCH  39  40
ATOM     40  C   UNL     1      -0.849   2.710   6.130  1.00  0.00     0.031 A 
ATOM     41  C   UNL     1      -2.244   2.338   5.693  1.00  0.00     0.074 A 
ATOM     42  C   UNL     1      -0.633   3.971   6.561  1.00  0.00     0.049 A 
ATOM     43  N   UNL     1      -3.315   3.092   5.606  1.00  0.00    -0.248 NA
ATOM     44  C   UNL     1      -2.470   0.936   5.316  1.00  0.00     0.031 C 
ATOM     45  C   UNL     1       0.640   4.490   7.053  1.00  0.00     0.029 A 
ATOM     46  N   UNL     1      -1.475   5.061   6.619  1.00  0.00    -0.354 N 
ATOM     47  C   UNL     1      -4.341   2.255   5.186  1.00  0.00     0.074 A 
ATOM     48  C   UNL     1      -3.749   0.951   4.968  1.00  0.00     0.031 C 
ATOM     49  C   UNL     1       0.511   5.798   7.321  1.00  0.00     0.029 A 
ATOM     50  C   UNL     1      -0.837   6.227   6.972  1.00  0.00     0.049 A 
ATOM     51  H   UNL     1      -2.439   5.010   6.427  1.00  0.00     0.167 HD
ATOM     52  C   UNL     1      -5.660   2.533   5.035  1.00  0.00     0.037 A 
ATOM     53  C   UNL     1      -1.258   7.506   6.979  1.00  0.00     0.037 A 
ATOM     54  C   UNL     1      -6.265   3.822   5.263  1.00  0.00     0.049 A 
ATOM     55  C   UNL     1      -2.690   7.824   6.659  1.00  0.00     0.074 A 
ATOM     56  C   UNL     1      -7.606   4.166   5.212  1.00  0.00     0.029 A 
ATOM     57  N   UNL     1      -5.571   4.983   5.566  1.00  0.00    -0.354 N 
ATOM     58  N   UNL     1      -3.662   7.008   6.342  1.00  0.00    -0.248 NA
ATOM     59  C   UNL     1      -3.091   9.237   6.731  1.00  0.00     0.031 C 
ATOM     60  C   UNL     1      -7.718   5.545   5.424  1.00  0.00     0.029 A 
ATOM     61  C   UNL     1      -6.452   6.052   5.659  1.00  0.00     0.049 A 
ATOM     62  H   UNL     1      -4.597   5.041   5.697  1.00  0.00     0.167 HD
ATOM     63  C   UNL     1      -4.797   7.797   6.224  1.00  0.00     0.074 A 
ATOM     64  C   UNL     1      -4.394   9.159   6.497  1.00  0.00     0.031 C 
ATOM     65  C   UNL     1      -6.063   7.412   5.931  1.00  0.00     0.037 A 
BRANCH  52  66
ATOM     66  C   UNL     1      -6.562   1.409   4.611  1.00  0.00     0.064 A 
ATOM     67  C   UNL     1      -6.873   0.353   5.481  1.00  0.00     0.173 A 
ATOM     68  C   UNL     1      -7.174   1.420   3.348  1.00  0.00     0.173 A 
ATOM     69  F   UNL     1      -6.316   0.295   6.700  1.00  0.00    -0.203 F 
ATOM     70  C   UNL     1      -7.738  -0.667   5.090  1.00  0.00     0.198 A 
ATOM     71  C   UNL     1      -8.060   0.414   2.972  1.00  0.00     0.198 A 
ATOM     72  F   UNL     1      -6.923   2.415   2.484  1.00  0.00    -0.203 F 
ATOM     73  F   UNL     1      -7.985  -1.688   5.922  1.00  0.00    -0.200 F 
ATOM     74  C   UNL     1      -8.335  -0.632   3.840  1.00  0.00     0.200 A 
ATOM     75  F   UNL     1      -8.651   0.458   1.770  1.00  0.00    -0.200 F 
ATOM     76  F   UNL     1      -9.174  -1.609   3.469  1.00  0.00    -0.200 F 
ENDBRANCH  52  66
BRANCH  53  77
ATOM     77  C   UNL     1      -0.299   8.597   7.297  1.00  0.00     0.064 A 
ATOM     78  C   UNL     1      -0.367   9.289   8.512  1.00  0.00     0.173 A 
ATOM     79  C   UNL     1       0.694   8.975   6.381  1.00  0.00     0.173 A 
ATOM     80  F   UNL     1      -1.316   8.979   9.406  1.00  0.00    -0.203 F 
ATOM     81  C   UNL     1       0.514  10.331   8.794  1.00  0.00     0.198 A 
ATOM     82  C   UNL     1       1.590  10.002   6.674  1.00  0.00     0.198 A 
ATOM     83  F   UNL     1       0.796   8.345   5.202  1.00  0.00    -0.203 F 
ATOM     84  F   UNL     1       0.403  11.004   9.947  1.00  0.00    -0.200 F 
ATOM     85  C   UNL     1       1.495  10.683   7.878  1.00  0.00     0.200 A 
ATOM     86  F   UNL     1       2.541  10.334   5.791  1.00  0.00    -0.200 F 
ATOM     87  F   UNL     1       2.342  11.684   8.153  1.00  0.00    -0.200 F 
ENDBRANCH  53  77
BRANCH  65  88
ATOM     88  C   UNL     1      -7.127   8.471   5.928  1.00  0.00     0.064 A 
ATOM     89  C   UNL     1      -7.206   9.433   4.911  1.00  0.00     0.173 A 
ATOM     90  C   UNL     1      -8.103   8.501   6.937  1.00  0.00     0.173 A 
ATOM     91  F   UNL     1      -6.285   9.462   3.937  1.00  0.00    -0.203 F 
ATOM     92  C   UNL     1      -8.213  10.396   4.913  1.00  0.00     0.198 A 
ATOM     93  C   UNL     1      -9.125   9.446   6.919  1.00  0.00     0.198 A 
ATOM     94  F   UNL     1      -8.073   7.604   7.934  1.00  0.00    -0.203 F 
ATOM     95  F   UNL     1      -8.244  11.331   3.953  1.00  0.00    -0.200 F 
ATOM     96  C   UNL     1      -9.176  10.396   5.910  1.00  0.00     0.200 A 
ATOM     97  F   UNL     1     -10.061   9.438   7.878  1.00  0.00    -0.200 F 
ATOM     98  F   UNL     1     -10.151  11.316   5.903  1.00  0.00    -0.200 F 
ENDBRANCH  65  88
ENDBRANCH  39  40
ENDBRANCH  31  34
ENDBRANCH  29  30
ENDBRANCH  28  29
ENDBRANCH   1  28
TORSDOF 15
