REMARK SMILES CC[C@H](C)CN(CC)C(=O)Nc1ccc(C(=O)NCCCNC(=O)c2ccc(-c3c4nc(c(-c5c(F)c(F)c(F)c(F)c5F)c5ccc([nH]5)c(-c5c(F)c(F)c(F)c(F)c5F)c5nc(c(-c6c(F)c(F)c(F)c(F)c6F)c6ccc3[nH]6)C=C5)C=C4)cc2)cc1Cl
REMARK SMILES IDX 16 1 17 2 18 3 15 5 12 6 13 7 89 8 14 9 88 10 90 11 11 12
REMARK SMILES IDX 9 13 10 14 6 16 5 17 3 18 4 19 2 20 1 21 7 22 8 23 19 24
REMARK SMILES IDX 20 25 21 26 22 27 23 28 24 30 25 31 26 32 87 33 27 34 86 35
REMARK SMILES IDX 28 36 29 37 30 38 80 39 31 40 85 41 79 42 81 43 32 44 84 45
REMARK SMILES IDX 78 46 77 47 33 49 65 50 45 51 64 52 46 53 49 54 63 55 82 56
REMARK SMILES IDX 47 57 48 58 62 60 83 61 50 62 34 63 35 64 43 65 36 66 37 67
REMARK SMILES IDX 41 68 44 69 38 70 39 71 42 72 40 73 66 74 67 75 75 76 68 77
REMARK SMILES IDX 69 78 73 79 76 80 70 81 71 82 74 83 72 84 51 85 52 86 60 87
REMARK SMILES IDX 53 88 54 89 58 90 61 91 55 92 56 93 59 94 57 95
REMARK H PARENT 18 4 11 15 22 29 81 48 49 59
REMARK Flexibility Score: inf
ROOT
ATOM      1  C   UNL     1       4.701  -5.161  -7.518  1.00  0.00     0.251 C 
ATOM      2  O   UNL     1       5.691  -4.763  -8.128  1.00  0.00    -0.269 OA
ATOM      3  N   UNL     1       4.570  -6.501  -7.253  1.00  0.00    -0.352 N 
ATOM      4  H   UNL     1       5.259  -7.068  -7.669  1.00  0.00     0.163 HD
ENDROOT
BRANCH   1   5
ATOM      5  C   UNL     1       3.720  -4.177  -7.006  1.00  0.00     0.041 A 
ATOM      6  C   UNL     1       1.991  -2.436  -5.688  1.00  0.00     0.061 A 
ATOM      7  C   UNL     1       3.350  -2.123  -5.777  1.00  0.00     0.028 A 
ATOM      8  C   UNL     1       1.474  -3.507  -6.429  1.00  0.00     0.065 A 
ATOM      9  C   UNL     1       4.218  -3.007  -6.419  1.00  0.00     0.016 A 
ATOM     10  C   UNL     1       2.341  -4.376  -7.093  1.00  0.00     0.036 A 
ATOM     11  Cl  UNL     1      -0.225  -3.760  -6.603  1.00  0.00    -0.082 Cl
BRANCH   6  12
ATOM     12  N   UNL     1       1.208  -1.653  -4.839  1.00  0.00    -0.306 N 
ATOM     13  C   UNL     1       0.514  -1.950  -3.708  1.00  0.00     0.321 C 
ATOM     14  O   UNL     1      -0.367  -1.139  -3.403  1.00  0.00    -0.248 OA
ATOM     15  H   UNL     1       1.147  -0.708  -5.110  1.00  0.00     0.171 HD
BRANCH  13  16
ATOM     16  N   UNL     1       0.855  -2.997  -2.871  1.00  0.00    -0.325 N 
BRANCH  16  17
ATOM     17  C   UNL     1       0.203  -3.039  -1.548  1.00  0.00     0.124 C 
BRANCH  17  18
ATOM     18  C   UNL     1       0.926  -2.185  -0.469  1.00  0.00     0.005 C 
ATOM     19  C   UNL     1       0.568  -0.700  -0.610  1.00  0.00     0.009 C 
BRANCH  18  20
ATOM     20  C   UNL     1       0.554  -2.700   0.940  1.00  0.00     0.002 C 
ATOM     21  C   UNL     1       1.419  -2.121   2.056  1.00  0.00     0.004 C 
ENDBRANCH  18  20
ENDBRANCH  17  18
ENDBRANCH  16  17
BRANCH  16  22
ATOM     22  C   UNL     1       1.788  -4.102  -3.117  1.00  0.00     0.118 C 
ATOM     23  C   UNL     1       1.049  -5.370  -3.533  1.00  0.00     0.027 C 
ENDBRANCH  16  22
ENDBRANCH  13  16
ENDBRANCH   6  12
ENDBRANCH   1   5
BRANCH   3  24
ATOM     24  C   UNL     1       3.587  -7.227  -6.463  1.00  0.00     0.118 C 
BRANCH  24  25
ATOM     25  C   UNL     1       2.620  -8.009  -7.347  1.00  0.00     0.042 C 
BRANCH  25  26
ATOM     26  C   UNL     1       3.271  -9.182  -8.072  1.00  0.00     0.118 C 
BRANCH  26  27
ATOM     27  N   UNL     1       3.605 -10.280  -7.174  1.00  0.00    -0.352 N 
ATOM     28  C   UNL     1       3.208 -11.594  -7.210  1.00  0.00     0.251 C 
ATOM     29  H   UNL     1       4.206 -10.045  -6.431  1.00  0.00     0.163 HD
ATOM     30  O   UNL     1       3.454 -12.332  -6.256  1.00  0.00    -0.269 OA
BRANCH  28  31
ATOM     31  C   UNL     1       2.464 -12.122  -8.374  1.00  0.00     0.039 A 
ATOM     32  C   UNL     1       1.371 -12.964  -8.153  1.00  0.00     0.014 A 
ATOM     33  C   UNL     1       2.845 -11.801  -9.679  1.00  0.00     0.014 A 
ATOM     34  C   UNL     1       0.616 -13.422  -9.236  1.00  0.00     0.010 A 
ATOM     35  C   UNL     1       2.046 -12.191 -10.750  1.00  0.00     0.010 A 
ATOM     36  C   UNL     1       0.922 -13.004 -10.541  1.00  0.00    -0.014 A 
BRANCH  36  37
ATOM     37  C   UNL     1       0.083 -13.399 -11.703  1.00  0.00     0.031 A 
ATOM     38  C   UNL     1       0.673 -14.225 -12.813  1.00  0.00     0.074 A 
ATOM     39  C   UNL     1      -1.184 -12.951 -11.796  1.00  0.00     0.049 A 
ATOM     40  N   UNL     1       0.144 -14.575 -13.958  1.00  0.00    -0.248 NA
ATOM     41  C   UNL     1       2.053 -14.698 -12.621  1.00  0.00     0.031 C 
ATOM     42  C   UNL     1      -1.862 -12.116 -10.803  1.00  0.00     0.029 A 
ATOM     43  N   UNL     1      -2.125 -13.120 -12.783  1.00  0.00    -0.354 N 
ATOM     44  C   UNL     1       1.127 -15.295 -14.624  1.00  0.00     0.074 A 
ATOM     45  C   UNL     1       2.303 -15.284 -13.782  1.00  0.00     0.031 C 
ATOM     46  C   UNL     1      -3.112 -11.862 -11.220  1.00  0.00     0.029 A 
ATOM     47  C   UNL     1      -3.310 -12.472 -12.531  1.00  0.00     0.049 A 
ATOM     48  H   UNL     1      -1.964 -13.655 -13.593  1.00  0.00     0.167 HD
ATOM     49  C   UNL     1       1.048 -15.928 -15.819  1.00  0.00     0.037 A 
ATOM     50  C   UNL     1      -4.424 -12.368 -13.281  1.00  0.00     0.037 A 
ATOM     51  C   UNL     1      -0.131 -15.950 -16.646  1.00  0.00     0.049 A 
ATOM     52  C   UNL     1      -4.471 -13.048 -14.623  1.00  0.00     0.074 A 
ATOM     53  C   UNL     1      -0.325 -16.599 -17.853  1.00  0.00     0.029 A 
ATOM     54  N   UNL     1      -1.314 -15.289 -16.353  1.00  0.00    -0.354 N 
ATOM     55  N   UNL     1      -3.556 -13.774 -15.217  1.00  0.00    -0.248 NA
ATOM     56  C   UNL     1      -5.710 -12.895 -15.400  1.00  0.00     0.031 C 
ATOM     57  C   UNL     1      -1.607 -16.287 -18.316  1.00  0.00     0.029 A 
ATOM     58  C   UNL     1      -2.235 -15.495 -17.368  1.00  0.00     0.049 A 
ATOM     59  H   UNL     1      -1.476 -14.753 -15.543  1.00  0.00     0.167 HD
ATOM     60  C   UNL     1      -4.119 -14.195 -16.415  1.00  0.00     0.074 A 
ATOM     61  C   UNL     1      -5.460 -13.652 -16.459  1.00  0.00     0.031 C 
ATOM     62  C   UNL     1      -3.574 -14.964 -17.389  1.00  0.00     0.037 A 
BRANCH  49  63
ATOM     63  C   UNL     1       2.270 -16.654 -16.305  1.00  0.00     0.064 A 
ATOM     64  C   UNL     1       2.734 -17.818 -15.674  1.00  0.00     0.173 A 
ATOM     65  C   UNL     1       2.962 -16.206 -17.441  1.00  0.00     0.173 A 
ATOM     66  F   UNL     1       2.116 -18.285 -14.579  1.00  0.00    -0.203 F 
ATOM     67  C   UNL     1       3.862 -18.488 -16.143  1.00  0.00     0.198 A 
ATOM     68  C   UNL     1       4.068 -16.898 -17.927  1.00  0.00     0.198 A 
ATOM     69  F   UNL     1       2.557 -15.103 -18.089  1.00  0.00    -0.203 F 
ATOM     70  F   UNL     1       4.316 -19.568 -15.491  1.00  0.00    -0.200 F 
ATOM     71  C   UNL     1       4.522 -18.032 -17.273  1.00  0.00     0.200 A 
ATOM     72  F   UNL     1       4.696 -16.465 -19.029  1.00  0.00    -0.200 F 
ATOM     73  F   UNL     1       5.601 -18.684 -17.729  1.00  0.00    -0.200 F 
ENDBRANCH  49  63
BRANCH  50  74
ATOM     74  C   UNL     1      -5.595 -11.599 -12.779  1.00  0.00     0.064 A 
ATOM     75  C   UNL     1      -6.796 -12.248 -12.457  1.00  0.00     0.173 A 
ATOM     76  C   UNL     1      -5.549 -10.205 -12.631  1.00  0.00     0.173 A 
ATOM     77  F   UNL     1      -6.897 -13.578 -12.601  1.00  0.00    -0.203 F 
ATOM     78  C   UNL     1      -7.913 -11.530 -12.035  1.00  0.00     0.198 A 
ATOM     79  C   UNL     1      -6.657  -9.492 -12.177  1.00  0.00     0.198 A 
ATOM     80  F   UNL     1      -4.424  -9.535 -12.920  1.00  0.00    -0.203 F 
ATOM     81  F   UNL     1      -9.064 -12.171 -11.789  1.00  0.00    -0.200 F 
ATOM     82  C   UNL     1      -7.841 -10.153 -11.890  1.00  0.00     0.200 A 
ATOM     83  F   UNL     1      -6.578  -8.163 -12.024  1.00  0.00    -0.200 F 
ATOM     84  F   UNL     1      -8.916  -9.463 -11.484  1.00  0.00    -0.200 F 
ENDBRANCH  50  74
BRANCH  62  85
ATOM     85  C   UNL     1      -4.442 -15.311 -18.565  1.00  0.00     0.064 A 
ATOM     86  C   UNL     1      -4.800 -14.357 -19.529  1.00  0.00     0.173 A 
ATOM     87  C   UNL     1      -4.876 -16.632 -18.756  1.00  0.00     0.173 A 
ATOM     88  F   UNL     1      -4.423 -13.078 -19.385  1.00  0.00    -0.203 F 
ATOM     89  C   UNL     1      -5.579 -14.709 -20.628  1.00  0.00     0.198 A 
ATOM     90  C   UNL     1      -5.626 -16.987 -19.873  1.00  0.00     0.198 A 
ATOM     91  F   UNL     1      -4.555 -17.585 -17.868  1.00  0.00    -0.203 F 
ATOM     92  F   UNL     1      -5.949 -13.771 -21.512  1.00  0.00    -0.200 F 
ATOM     93  C   UNL     1      -5.983 -16.024 -20.804  1.00  0.00     0.200 A 
ATOM     94  F   UNL     1      -6.000 -18.261 -20.050  1.00  0.00    -0.200 F 
ATOM     95  F   UNL     1      -6.721 -16.362 -21.870  1.00  0.00    -0.200 F 
ENDBRANCH  62  85
ENDBRANCH  36  37
ENDBRANCH  28  31
ENDBRANCH  26  27
ENDBRANCH  25  26
ENDBRANCH  24  25
ENDBRANCH   3  24
TORSDOF 16
