REMARK SMILES O=C(Nc1ccc2c(c1)OCO2)N[C@H]1C=C[C@@H](C(=O)NCCCNC(=O)c2ccc(-c3c4nc(c(-c5c(F)c(F)c(F)c(F)c5F)c5ccc([nH]5)c(-c5c(F)c(F)c(F)c(F)c5F)c5nc(c(-c6c(F)c(F)c(F)c(F)c6F)c6ccc3[nH]6)C=C5)C=C4)cc2)C1
REMARK SMILES IDX 22 1 21 2 20 3 18 4 19 5 17 7 14 8 15 9 90 10 16 11 13 12
REMARK SMILES IDX 1 13 2 14 3 15 4 18 5 19 9 20 6 21 8 22 7 23 10 24 12 25
REMARK SMILES IDX 11 26 23 27 24 28 25 29 26 31 27 32 28 33 89 34 29 35 88 36
REMARK SMILES IDX 30 37 31 38 32 39 82 40 33 41 87 42 81 43 83 44 34 45 86 46
REMARK SMILES IDX 80 47 79 48 35 50 67 51 47 52 66 53 48 54 51 55 65 56 84 57
REMARK SMILES IDX 49 58 50 59 64 61 85 62 52 63 36 64 37 65 45 66 38 67 39 68
REMARK SMILES IDX 43 69 46 70 40 71 41 72 44 73 42 74 68 75 69 76 77 77 70 78
REMARK SMILES IDX 71 79 75 80 78 81 72 82 73 83 76 84 74 85 53 86 54 87 62 88
REMARK SMILES IDX 55 89 56 90 60 91 63 92 57 93 58 94 61 95 59 96
REMARK H PARENT 20 6 3 16 13 17 24 30 83 49 51 60
REMARK Flexibility Score: inf
ROOT
ATOM      1  C   UNL     1       0.975   2.800   1.158  1.00  0.00     0.042 C 
ENDROOT
BRANCH   1   2
ATOM      2  C   UNL     1      -0.146   2.516   0.165  1.00  0.00     0.117 C 
BRANCH   2   3
ATOM      3  N   UNL     1      -0.393   3.627  -0.731  1.00  0.00    -0.356 N 
ATOM      4  C   UNL     1      -0.139   3.749  -2.063  1.00  0.00     0.227 C 
ATOM      5  O   UNL     1      -0.531   4.785  -2.612  1.00  0.00    -0.274 OA
ATOM      6  H   UNL     1      -0.808   4.416  -0.313  1.00  0.00     0.163 HD
BRANCH   4   7
ATOM      7  C   UNL     1       0.607   2.684  -2.881  1.00  0.00     0.103 C 
ATOM      8  C   UNL     1       2.192   0.848  -2.496  1.00  0.00     0.107 C 
ATOM      9  C   UNL     1       0.811   0.346  -2.737  1.00  0.00    -0.006 C 
ATOM     10  C   UNL     1       2.030   2.372  -2.399  1.00  0.00     0.047 C 
ATOM     11  C   UNL     1      -0.058   1.343  -2.944  1.00  0.00    -0.016 C 
BRANCH   8  12
ATOM     12  N   UNL     1       2.862   0.253  -1.352  1.00  0.00    -0.332 N 
ATOM     13  O   UNL     1       1.119  -0.381   0.005  1.00  0.00    -0.248 OA
ATOM     14  C   UNL     1       2.322  -0.230  -0.201  1.00  0.00     0.319 C 
ATOM     15  N   UNL     1       3.187  -0.682   0.751  1.00  0.00    -0.308 N 
ATOM     16  H   UNL     1       2.766  -1.252   1.435  1.00  0.00     0.171 HD
ATOM     17  H   UNL     1       3.842   0.190  -1.419  1.00  0.00     0.165 HD
BRANCH  15  18
ATOM     18  C   UNL     1       4.563  -0.488   0.938  1.00  0.00     0.046 A 
ATOM     19  C   UNL     1       5.249   0.659   0.492  1.00  0.00     0.030 A 
ATOM     20  C   UNL     1       5.255  -1.493   1.625  1.00  0.00     0.076 A 
ATOM     21  C   UNL     1       6.635   0.772   0.655  1.00  0.00     0.053 A 
ATOM     22  C   UNL     1       6.622  -1.371   1.740  1.00  0.00     0.167 A 
ATOM     23  C   UNL     1       7.296  -0.274   1.260  1.00  0.00     0.165 A 
ATOM     24  O   UNL     1       7.457  -2.292   2.294  1.00  0.00    -0.454 OA
ATOM     25  O   UNL     1       8.638  -0.367   1.452  1.00  0.00    -0.454 OA
ATOM     26  C   UNL     1       8.740  -1.696   2.006  1.00  0.00     0.468 C 
ENDBRANCH  15  18
ENDBRANCH   8  12
ENDBRANCH   4   7
ENDBRANCH   2   3
ENDBRANCH   1   2
BRANCH   1  27
ATOM     27  C   UNL     1       0.582   3.771   2.260  1.00  0.00     0.118 C 
BRANCH  27  28
ATOM     28  N   UNL     1      -0.383   3.195   3.186  1.00  0.00    -0.352 N 
ATOM     29  C   UNL     1      -0.300   2.981   4.537  1.00  0.00     0.251 C 
ATOM     30  H   UNL     1      -1.233   2.915   2.776  1.00  0.00     0.163 HD
ATOM     31  O   UNL     1      -1.161   2.303   5.098  1.00  0.00    -0.269 OA
BRANCH  29  32
ATOM     32  C   UNL     1       0.815   3.540   5.333  1.00  0.00     0.039 A 
ATOM     33  C   UNL     1       1.343   2.774   6.378  1.00  0.00     0.014 A 
ATOM     34  C   UNL     1       1.312   4.823   5.093  1.00  0.00     0.014 A 
ATOM     35  C   UNL     1       2.396   3.275   7.147  1.00  0.00     0.010 A 
ATOM     36  C   UNL     1       2.418   5.285   5.801  1.00  0.00     0.010 A 
ATOM     37  C   UNL     1       2.960   4.524   6.847  1.00  0.00    -0.014 A 
BRANCH  37  38
ATOM     38  C   UNL     1       4.093   5.069   7.636  1.00  0.00     0.031 A 
ATOM     39  C   UNL     1       3.913   6.330   8.437  1.00  0.00     0.074 A 
ATOM     40  C   UNL     1       5.295   4.464   7.589  1.00  0.00     0.049 A 
ATOM     41  N   UNL     1       4.795   7.008   9.128  1.00  0.00    -0.248 NA
ATOM     42  C   UNL     1       2.568   6.925   8.435  1.00  0.00     0.031 C 
ATOM     43  C   UNL     1       5.607   3.260   6.818  1.00  0.00     0.029 A 
ATOM     44  N   UNL     1       6.482   4.787   8.197  1.00  0.00    -0.354 N 
ATOM     45  C   UNL     1       4.117   8.114   9.623  1.00  0.00     0.074 A 
ATOM     46  C   UNL     1       2.767   8.048   9.108  1.00  0.00     0.031 C 
ATOM     47  C   UNL     1       6.892   2.928   7.023  1.00  0.00     0.029 A 
ATOM     48  C   UNL     1       7.503   3.915   7.907  1.00  0.00     0.049 A 
ATOM     49  H   UNL     1       6.592   5.568   8.786  1.00  0.00     0.167 HD
ATOM     50  C   UNL     1       4.570   9.083  10.454  1.00  0.00     0.037 A 
ATOM     51  C   UNL     1       8.788   3.916   8.310  1.00  0.00     0.037 A 
ATOM     52  C   UNL     1       5.905   9.129  10.989  1.00  0.00     0.049 A 
ATOM     53  C   UNL     1       9.267   5.002   9.234  1.00  0.00     0.074 A 
ATOM     54  C   UNL     1       6.452  10.043  11.874  1.00  0.00     0.029 A 
ATOM     55  N   UNL     1       6.905   8.215  10.690  1.00  0.00    -0.354 N 
ATOM     56  N   UNL     1       8.604   6.014   9.738  1.00  0.00    -0.248 NA
ATOM     57  C   UNL     1      10.675   4.941   9.651  1.00  0.00     0.031 C 
ATOM     58  C   UNL     1       7.793   9.701  12.082  1.00  0.00     0.029 A 
ATOM     59  C   UNL     1       8.069   8.549  11.364  1.00  0.00     0.049 A 
ATOM     60  H   UNL     1       6.803   7.443  10.088  1.00  0.00     0.167 HD
ATOM     61  C   UNL     1       9.499   6.689  10.556  1.00  0.00     0.074 A 
ATOM     62  C   UNL     1      10.752   5.965  10.489  1.00  0.00     0.031 C 
ATOM     63  C   UNL     1       9.302   7.807  11.297  1.00  0.00     0.037 A 
BRANCH  50  64
ATOM     64  C   UNL     1       3.607  10.170  10.837  1.00  0.00     0.064 A 
ATOM     65  C   UNL     1       2.509   9.917  11.675  1.00  0.00     0.173 A 
ATOM     66  C   UNL     1       3.791  11.482  10.377  1.00  0.00     0.173 A 
ATOM     67  F   UNL     1       2.281   8.676  12.132  1.00  0.00    -0.203 F 
ATOM     68  C   UNL     1       1.612  10.928  12.007  1.00  0.00     0.198 A 
ATOM     69  C   UNL     1       2.909  12.498  10.737  1.00  0.00     0.198 A 
ATOM     70  F   UNL     1       4.826  11.781   9.578  1.00  0.00    -0.203 F 
ATOM     71  F   UNL     1       0.540  10.649  12.761  1.00  0.00    -0.200 F 
ATOM     72  C   UNL     1       1.816  12.219  11.543  1.00  0.00     0.200 A 
ATOM     73  F   UNL     1       3.114  13.748  10.298  1.00  0.00    -0.200 F 
ATOM     74  F   UNL     1       0.953  13.192  11.866  1.00  0.00    -0.200 F 
ENDBRANCH  50  64
BRANCH  51  75
ATOM     75  C   UNL     1       9.701   2.827   7.877  1.00  0.00     0.064 A 
ATOM     76  C   UNL     1      10.149   1.864   8.792  1.00  0.00     0.173 A 
ATOM     77  C   UNL     1      10.142   2.723   6.550  1.00  0.00     0.173 A 
ATOM     78  F   UNL     1       9.770   1.934  10.076  1.00  0.00    -0.203 F 
ATOM     79  C   UNL     1      11.019   0.849   8.400  1.00  0.00     0.198 A 
ATOM     80  C   UNL     1      10.990   1.691   6.153  1.00  0.00     0.198 A 
ATOM     81  F   UNL     1       9.738   3.617   5.635  1.00  0.00    -0.203 F 
ATOM     82  F   UNL     1      11.466  -0.034   9.304  1.00  0.00    -0.200 F 
ATOM     83  C   UNL     1      11.434   0.759   7.080  1.00  0.00     0.200 A 
ATOM     84  F   UNL     1      11.378   1.598   4.874  1.00  0.00    -0.200 F 
ATOM     85  F   UNL     1      12.266  -0.221   6.702  1.00  0.00    -0.200 F 
ENDBRANCH  51  75
BRANCH  63  86
ATOM     86  C   UNL     1      10.452   8.288  12.132  1.00  0.00     0.064 A 
ATOM     87  C   UNL     1      11.579   8.893  11.557  1.00  0.00     0.173 A 
ATOM     88  C   UNL     1      10.408   8.171  13.530  1.00  0.00     0.173 A 
ATOM     89  F   UNL     1      11.674   9.014  10.225  1.00  0.00    -0.203 F 
ATOM     90  C   UNL     1      12.632   9.340  12.350  1.00  0.00     0.198 A 
ATOM     91  C   UNL     1      11.450   8.645  14.321  1.00  0.00     0.198 A 
ATOM     92  F   UNL     1       9.349   7.606  14.129  1.00  0.00    -0.203 F 
ATOM     93  F   UNL     1      13.721   9.871  11.777  1.00  0.00    -0.200 F 
ATOM     94  C   UNL     1      12.565   9.222  13.731  1.00  0.00     0.200 A 
ATOM     95  F   UNL     1      11.378   8.541  15.655  1.00  0.00    -0.200 F 
ATOM     96  F   UNL     1      13.578   9.656  14.492  1.00  0.00    -0.200 F 
ENDBRANCH  63  86
ENDBRANCH  37  38
ENDBRANCH  29  32
ENDBRANCH  27  28
ENDBRANCH   1  27
TORSDOF 12
