REMARK SMILES CC1=C(C)C(=O)N(C[C@H](CC(C)C)C(=O)NCCCNC(=O)c2ccc(-c3c4nc(c(-c5c(F)c(F)c(F)c(F)c5F)c5ccc([nH]5)c(-c5c(F)c(F)c(F)c(F)c5F)c5nc(c(-c6c(F)c(F)c(F)c(F)c6F)c6ccc3[nH]6)C=C5)C=C4)cc2)C1=O
REMARK SMILES IDX 18 1 17 2 16 3 14 4 15 5 9 7 8 8 7 9 1 10 2 11 3 12 86 13
REMARK SMILES IDX 4 14 5 15 87 16 6 17 10 18 11 19 12 20 13 21 19 22 20 23
REMARK SMILES IDX 21 24 22 26 23 27 24 28 85 29 25 30 84 31 26 32 27 33 28 34
REMARK SMILES IDX 78 35 29 36 83 37 77 38 79 39 30 40 82 41 76 42 75 43 31 45
REMARK SMILES IDX 63 46 43 47 62 48 44 49 47 50 61 51 80 52 45 53 46 54 60 56
REMARK SMILES IDX 81 57 48 58 32 59 33 60 41 61 34 62 35 63 39 64 42 65 36 66
REMARK SMILES IDX 37 67 40 68 38 69 64 70 65 71 73 72 66 73 67 74 71 75 74 76
REMARK SMILES IDX 68 77 69 78 72 79 70 80 49 81 50 82 58 83 51 84 52 85 56 86
REMARK SMILES IDX 59 87 53 88 54 89 57 90 55 91
REMARK H PARENT 16 6 20 25 79 44 47 55
REMARK Flexibility Score: inf
ROOT
ATOM      1  C   UNL     1       0.511  -8.321   0.613  1.00  0.00     0.042 C 
ENDROOT
BRANCH   1   2
ATOM      2  C   UNL     1       1.894  -7.713   0.535  1.00  0.00     0.117 C 
BRANCH   2   3
ATOM      3  N   UNL     1       2.451  -7.474  -0.762  1.00  0.00    -0.356 N 
ATOM      4  C   UNL     1       3.050  -6.307  -1.146  1.00  0.00     0.224 C 
ATOM      5  O   UNL     1       3.917  -6.368  -2.019  1.00  0.00    -0.275 OA
ATOM      6  H   UNL     1       2.398  -8.201  -1.424  1.00  0.00     0.163 HD
BRANCH   4   7
ATOM      7  C   UNL     1       2.630  -4.957  -0.535  1.00  0.00     0.099 C 
BRANCH   7   8
ATOM      8  C   UNL     1       3.533  -4.416   0.603  1.00  0.00     0.142 C 
BRANCH   8   9
ATOM      9  N   UNL     1       4.202  -5.357   1.497  1.00  0.00    -0.274 N 
ATOM     10  C   UNL     1       4.396  -8.279   3.680  1.00  0.00     0.051 C 
ATOM     11  C   UNL     1       4.694  -7.017   2.967  1.00  0.00     0.023 C 
ATOM     12  C   UNL     1       5.861  -6.504   2.572  1.00  0.00     0.023 C 
ATOM     13  C   UNL     1       3.651  -6.098   2.488  1.00  0.00     0.256 C 
ATOM     14  C   UNL     1       7.236  -6.965   2.852  1.00  0.00     0.051 C 
ATOM     15  C   UNL     1       5.552  -5.376   1.677  1.00  0.00     0.256 C 
ATOM     16  O   UNL     1       2.528  -6.060   2.954  1.00  0.00    -0.269 OA
ATOM     17  O   UNL     1       6.389  -4.607   1.236  1.00  0.00    -0.269 OA
ENDBRANCH   8   9
ENDBRANCH   7   8
BRANCH   7  18
ATOM     18  C   UNL     1       1.084  -4.736  -0.537  1.00  0.00     0.018 C 
BRANCH  18  19
ATOM     19  C   UNL     1       0.237  -4.589   0.748  1.00  0.00    -0.017 C 
ATOM     20  C   UNL     1       0.392  -3.240   1.449  1.00  0.00     0.007 C 
ATOM     21  C   UNL     1      -1.247  -4.770   0.376  1.00  0.00     0.007 C 
ENDBRANCH  18  19
ENDBRANCH   7  18
ENDBRANCH   4   7
ENDBRANCH   2   3
ENDBRANCH   1   2
BRANCH   1  22
ATOM     22  C   UNL     1       0.522  -9.571   1.473  1.00  0.00     0.118 C 
BRANCH  22  23
ATOM     23  N   UNL     1       1.124  -9.405   2.795  1.00  0.00    -0.352 N 
ATOM     24  C   UNL     1       1.121 -10.284   3.856  1.00  0.00     0.251 C 
ATOM     25  H   UNL     1       1.594  -8.553   2.947  1.00  0.00     0.163 HD
ATOM     26  O   UNL     1       1.796 -10.069   4.857  1.00  0.00    -0.269 OA
BRANCH  24  27
ATOM     27  C   UNL     1       0.171 -11.412   3.829  1.00  0.00     0.039 A 
ATOM     28  C   UNL     1      -0.705 -11.536   4.910  1.00  0.00     0.014 A 
ATOM     29  C   UNL     1       0.002 -12.188   2.685  1.00  0.00     0.014 A 
ATOM     30  C   UNL     1      -1.833 -12.340   4.785  1.00  0.00     0.010 A 
ATOM     31  C   UNL     1      -1.187 -12.879   2.511  1.00  0.00     0.010 A 
ATOM     32  C   UNL     1      -2.120 -12.951   3.556  1.00  0.00    -0.014 A 
BRANCH  32  33
ATOM     33  C   UNL     1      -3.394 -13.672   3.339  1.00  0.00     0.031 A 
ATOM     34  C   UNL     1      -3.361 -15.131   2.991  1.00  0.00     0.074 A 
ATOM     35  C   UNL     1      -4.559 -12.997   3.387  1.00  0.00     0.049 A 
ATOM     36  N   UNL     1      -4.349 -15.931   2.687  1.00  0.00    -0.248 NA
ATOM     37  C   UNL     1      -2.035 -15.768   2.938  1.00  0.00     0.031 C 
ATOM     38  C   UNL     1      -4.700 -11.563   3.658  1.00  0.00     0.029 A 
ATOM     39  N   UNL     1      -5.849 -13.425   3.207  1.00  0.00    -0.354 N 
ATOM     40  C   UNL     1      -3.761 -17.153   2.395  1.00  0.00     0.074 A 
ATOM     41  C   UNL     1      -2.330 -16.972   2.478  1.00  0.00     0.031 C 
ATOM     42  C   UNL     1      -6.003 -11.241   3.665  1.00  0.00     0.029 A 
ATOM     43  C   UNL     1      -6.787 -12.431   3.354  1.00  0.00     0.049 A 
ATOM     44  H   UNL     1      -6.082 -14.357   2.992  1.00  0.00     0.167 HD
ATOM     45  C   UNL     1      -4.365 -18.332   2.119  1.00  0.00     0.037 A 
ATOM     46  C   UNL     1      -8.128 -12.482   3.245  1.00  0.00     0.037 A 
ATOM     47  C   UNL     1      -5.791 -18.502   2.066  1.00  0.00     0.049 A 
ATOM     48  C   UNL     1      -8.774 -13.804   2.925  1.00  0.00     0.074 A 
ATOM     49  C   UNL     1      -6.514 -19.659   1.845  1.00  0.00     0.029 A 
ATOM     50  N   UNL     1      -6.712 -17.477   2.237  1.00  0.00    -0.354 N 
ATOM     51  N   UNL     1      -8.214 -14.972   2.722  1.00  0.00    -0.248 NA
ATOM     52  C   UNL     1     -10.239 -13.817   2.826  1.00  0.00     0.031 C 
ATOM     53  C   UNL     1      -7.872 -19.324   1.828  1.00  0.00     0.029 A 
ATOM     54  C   UNL     1      -7.998 -17.971   2.103  1.00  0.00     0.049 A 
ATOM     55  H   UNL     1      -6.484 -16.538   2.426  1.00  0.00     0.167 HD
ATOM     56  C   UNL     1      -9.255 -15.864   2.504  1.00  0.00     0.074 A 
ATOM     57  C   UNL     1     -10.482 -15.103   2.617  1.00  0.00     0.031 C 
ATOM     58  C   UNL     1      -9.203 -17.192   2.233  1.00  0.00     0.037 A 
BRANCH  45  59
ATOM     59  C   UNL     1      -3.481 -19.517   1.860  1.00  0.00     0.064 A 
ATOM     60  C   UNL     1      -2.685 -20.080   2.871  1.00  0.00     0.173 A 
ATOM     61  C   UNL     1      -3.432 -20.103   0.587  1.00  0.00     0.173 A 
ATOM     62  F   UNL     1      -2.679 -19.546   4.102  1.00  0.00    -0.203 F 
ATOM     63  C   UNL     1      -1.848 -21.161   2.608  1.00  0.00     0.198 A 
ATOM     64  C   UNL     1      -2.621 -21.208   0.337  1.00  0.00     0.198 A 
ATOM     65  F   UNL     1      -4.169 -19.606  -0.417  1.00  0.00    -0.203 F 
ATOM     66  F   UNL     1      -1.050 -21.638   3.573  1.00  0.00    -0.200 F 
ATOM     67  C   UNL     1      -1.823 -21.729   1.344  1.00  0.00     0.200 A 
ATOM     68  F   UNL     1      -2.606 -21.763  -0.883  1.00  0.00    -0.200 F 
ATOM     69  F   UNL     1      -1.020 -22.772   1.093  1.00  0.00    -0.200 F 
ENDBRANCH  45  59
BRANCH  46  70
ATOM     70  C   UNL     1      -8.948 -11.260   3.465  1.00  0.00     0.064 A 
ATOM     71  C   UNL     1      -9.810 -11.158   4.567  1.00  0.00     0.173 A 
ATOM     72  C   UNL     1      -8.903 -10.176   2.575  1.00  0.00     0.173 A 
ATOM     73  F   UNL     1      -9.904 -12.173   5.439  1.00  0.00    -0.203 F 
ATOM     74  C   UNL     1     -10.614 -10.035   4.755  1.00  0.00     0.198 A 
ATOM     75  C   UNL     1      -9.684  -9.040   2.781  1.00  0.00     0.198 A 
ATOM     76  F   UNL     1      -8.092 -10.216   1.508  1.00  0.00    -0.203 F 
ATOM     77  F   UNL     1     -11.468  -9.990   5.787  1.00  0.00    -0.200 F 
ATOM     78  C   UNL     1     -10.547  -8.975   3.865  1.00  0.00     0.200 A 
ATOM     79  F   UNL     1      -9.604  -8.010   1.927  1.00  0.00    -0.200 F 
ATOM     80  F   UNL     1     -11.320  -7.895   4.045  1.00  0.00    -0.200 F 
ENDBRANCH  46  70
BRANCH  58  81
ATOM     81  C   UNL     1     -10.511 -17.913   2.087  1.00  0.00     0.064 A 
ATOM     82  C   UNL     1     -11.346 -17.712   0.979  1.00  0.00     0.173 A 
ATOM     83  C   UNL     1     -10.908 -18.857   3.047  1.00  0.00     0.173 A 
ATOM     84  F   UNL     1     -11.018 -16.812   0.040  1.00  0.00    -0.203 F 
ATOM     85  C   UNL     1     -12.546 -18.407   0.853  1.00  0.00     0.198 A 
ATOM     86  C   UNL     1     -12.089 -19.576   2.899  1.00  0.00     0.198 A 
ATOM     87  F   UNL     1     -10.139 -19.093   4.121  1.00  0.00    -0.203 F 
ATOM     88  F   UNL     1     -13.354 -18.160  -0.187  1.00  0.00    -0.200 F 
ATOM     89  C   UNL     1     -12.911 -19.345   1.807  1.00  0.00     0.200 A 
ATOM     90  F   UNL     1     -12.431 -20.495   3.813  1.00  0.00    -0.200 F 
ATOM     91  F   UNL     1     -14.060 -20.022   1.678  1.00  0.00    -0.200 F 
ENDBRANCH  58  81
ENDBRANCH  32  33
ENDBRANCH  24  27
ENDBRANCH  22  23
ENDBRANCH   1  22
TORSDOF 14
