REMARK SMILES C[C@@H](C(=O)NCCCNC(=O)c1ccc(-c2c3nc(c(-c4c(F)c(F)c(F)c(F)c4F)c4ccc([nH]4)c(-c4c(F)c(F)c(F)c(F)c4F)c4nc(c(-c5c(F)c(F)c(F)c(F)c5F)c5ccc2[nH]5)C=C4)C=C3)cc1)c1ccc(C[C@H]2CCCC2=O)cc1F
REMARK SMILES IDX 6 1 5 2 3 3 4 4 2 6 1 7 75 8 76 9 87 10 77 11 86 12 88 13
REMARK SMILES IDX 78 14 79 15 80 16 81 17 84 18 82 19 83 20 85 21 7 22 8 23
REMARK SMILES IDX 9 24 10 25 11 27 12 28 13 29 74 30 14 31 73 32 15 33 16 34
REMARK SMILES IDX 17 35 67 36 18 37 72 38 66 39 68 40 19 41 71 42 65 43 64 44
REMARK SMILES IDX 20 46 52 47 32 48 51 49 33 50 36 51 50 52 69 53 34 54 35 55
REMARK SMILES IDX 49 57 70 58 37 59 21 60 22 61 30 62 23 63 24 64 28 65 31 66
REMARK SMILES IDX 25 67 26 68 29 69 27 70 53 71 54 72 62 73 55 74 56 75 60 76
REMARK SMILES IDX 63 77 57 78 58 79 61 80 59 81 38 82 39 83 47 84 40 85 41 86
REMARK SMILES IDX 45 87 48 88 42 89 43 90 46 91 44 92
REMARK H PARENT 5 5 9 26 68 45 36 56
REMARK Flexibility Score: inf
ROOT
ATOM      1  C   UNL     1       3.477   0.124  -1.920  1.00  0.00     0.117 C 
ENDROOT
BRANCH   1   2
ATOM      2  N   UNL     1       2.434  -0.676  -2.530  1.00  0.00    -0.356 N 
ATOM      3  C   UNL     1       1.090  -0.723  -2.294  1.00  0.00     0.227 C 
ATOM      4  O   UNL     1       0.436  -1.469  -3.026  1.00  0.00    -0.274 OA
ATOM      5  H   UNL     1       2.748  -1.290  -3.233  1.00  0.00     0.163 HD
BRANCH   3   6
ATOM      6  C   UNL     1       0.464   0.162  -1.205  1.00  0.00     0.108 C 
ATOM      7  C   UNL     1       0.900  -0.241   0.207  1.00  0.00     0.023 C 
BRANCH   6   8
ATOM      8  C   UNL     1      -1.057   0.192  -1.275  1.00  0.00    -0.000 A 
ATOM      9  C   UNL     1      -1.729   1.386  -1.573  1.00  0.00     0.008 A 
ATOM     10  C   UNL     1      -1.824  -0.949  -1.010  1.00  0.00     0.127 A 
ATOM     11  C   UNL     1      -3.126   1.436  -1.565  1.00  0.00     0.004 A 
ATOM     12  C   UNL     1      -3.215  -0.906  -1.002  1.00  0.00     0.043 A 
ATOM     13  F   UNL     1      -1.225  -2.110  -0.707  1.00  0.00    -0.207 F 
ATOM     14  C   UNL     1      -3.882   0.297  -1.254  1.00  0.00    -0.044 A 
BRANCH  14  15
ATOM     15  C   UNL     1      -5.386   0.375  -1.144  1.00  0.00     0.047 C 
BRANCH  15  16
ATOM     16  C   UNL     1      -5.929   0.919   0.183  1.00  0.00     0.060 C 
ATOM     17  C   UNL     1      -5.452   0.216   1.460  1.00  0.00     0.012 C 
ATOM     18  C   UNL     1      -5.509   2.350   0.438  1.00  0.00     0.136 C 
ATOM     19  C   UNL     1      -4.306   1.060   2.008  1.00  0.00     0.009 C 
ATOM     20  C   UNL     1      -4.682   2.499   1.688  1.00  0.00     0.076 C 
ATOM     21  O   UNL     1      -5.824   3.292  -0.281  1.00  0.00    -0.299 OA
ENDBRANCH  15  16
ENDBRANCH  14  15
ENDBRANCH   6   8
ENDBRANCH   3   6
ENDBRANCH   1   2
BRANCH   1  22
ATOM     22  C   UNL     1       4.370  -0.694  -0.989  1.00  0.00     0.042 C 
BRANCH  22  23
ATOM     23  C   UNL     1       5.095  -1.863  -1.652  1.00  0.00     0.118 C 
BRANCH  23  24
ATOM     24  N   UNL     1       6.008  -1.444  -2.704  1.00  0.00    -0.352 N 
ATOM     25  C   UNL     1       7.340  -1.702  -2.889  1.00  0.00     0.251 C 
ATOM     26  H   UNL     1       5.599  -0.879  -3.399  1.00  0.00     0.163 HD
ATOM     27  O   UNL     1       7.941  -1.109  -3.786  1.00  0.00    -0.269 OA
BRANCH  25  28
ATOM     28  C   UNL     1       8.081  -2.654  -2.029  1.00  0.00     0.039 A 
ATOM     29  C   UNL     1       9.401  -2.340  -1.687  1.00  0.00     0.014 A 
ATOM     30  C   UNL     1       7.530  -3.868  -1.608  1.00  0.00     0.014 A 
ATOM     31  C   UNL     1      10.145  -3.211  -0.888  1.00  0.00     0.010 A 
ATOM     32  C   UNL     1       8.251  -4.708  -0.756  1.00  0.00     0.010 A 
ATOM     33  C   UNL     1       9.568  -4.391  -0.393  1.00  0.00    -0.014 A 
BRANCH  33  34
ATOM     34  C   UNL     1      10.340  -5.280   0.513  1.00  0.00     0.031 A 
ATOM     35  C   UNL     1      10.760  -6.654   0.072  1.00  0.00     0.074 A 
ATOM     36  C   UNL     1      10.645  -4.852   1.754  1.00  0.00     0.049 A 
ATOM     37  N   UNL     1      11.459  -7.553   0.721  1.00  0.00    -0.248 NA
ATOM     38  C   UNL     1      10.323  -7.085  -1.264  1.00  0.00     0.031 C 
ATOM     39  C   UNL     1      10.245  -3.564   2.323  1.00  0.00     0.029 A 
ATOM     40  N   UNL     1      11.362  -5.452   2.758  1.00  0.00    -0.354 N 
ATOM     41  C   UNL     1      11.537  -8.654  -0.121  1.00  0.00     0.074 A 
ATOM     42  C   UNL     1      10.776  -8.330  -1.309  1.00  0.00     0.031 C 
ATOM     43  C   UNL     1      10.747  -3.458   3.563  1.00  0.00     0.029 A 
ATOM     44  C   UNL     1      11.485  -4.676   3.884  1.00  0.00     0.049 A 
ATOM     45  H   UNL     1      11.752  -6.353   2.679  1.00  0.00     0.167 HD
ATOM     46  C   UNL     1      12.203  -9.819   0.068  1.00  0.00     0.037 A 
ATOM     47  C   UNL     1      12.129  -4.915   5.042  1.00  0.00     0.037 A 
ATOM     48  C   UNL     1      12.980 -10.134   1.239  1.00  0.00     0.049 A 
ATOM     49  C   UNL     1      12.883  -6.203   5.215  1.00  0.00     0.074 A 
ATOM     50  C   UNL     1      13.739 -11.263   1.495  1.00  0.00     0.029 A 
ATOM     51  N   UNL     1      13.097  -9.314   2.352  1.00  0.00    -0.354 N 
ATOM     52  N   UNL     1      13.012  -7.205   4.380  1.00  0.00    -0.248 NA
ATOM     53  C   UNL     1      13.593  -6.387   6.489  1.00  0.00     0.031 C 
ATOM     54  C   UNL     1      14.287 -11.142   2.778  1.00  0.00     0.029 A 
ATOM     55  C   UNL     1      13.901  -9.920   3.304  1.00  0.00     0.049 A 
ATOM     56  H   UNL     1      12.671  -8.432   2.450  1.00  0.00     0.167 HD
ATOM     57  C   UNL     1      13.827  -8.129   5.017  1.00  0.00     0.074 A 
ATOM     58  C   UNL     1      14.183  -7.559   6.300  1.00  0.00     0.031 C 
ATOM     59  C   UNL     1      14.241  -9.344   4.579  1.00  0.00     0.037 A 
BRANCH  46  60
ATOM     60  C   UNL     1      12.127 -10.844  -1.026  1.00  0.00     0.064 A 
ATOM     61  C   UNL     1      12.803 -10.666  -2.243  1.00  0.00     0.173 A 
ATOM     62  C   UNL     1      11.407 -12.033  -0.842  1.00  0.00     0.173 A 
ATOM     63  F   UNL     1      13.497  -9.541  -2.471  1.00  0.00    -0.203 F 
ATOM     64  C   UNL     1      12.739 -11.630  -3.245  1.00  0.00     0.198 A 
ATOM     65  C   UNL     1      11.366 -13.006  -1.838  1.00  0.00     0.198 A 
ATOM     66  F   UNL     1      10.749 -12.255   0.305  1.00  0.00    -0.203 F 
ATOM     67  F   UNL     1      13.358 -11.419  -4.415  1.00  0.00    -0.200 F 
ATOM     68  C   UNL     1      12.026 -12.801  -3.040  1.00  0.00     0.200 A 
ATOM     69  F   UNL     1      10.686 -14.143  -1.634  1.00  0.00    -0.200 F 
ATOM     70  F   UNL     1      11.971 -13.731  -4.004  1.00  0.00    -0.200 F 
ENDBRANCH  46  60
BRANCH  47  71
ATOM     71  C   UNL     1      12.122  -3.888   6.114  1.00  0.00     0.064 A 
ATOM     72  C   UNL     1      13.276  -3.148   6.406  1.00  0.00     0.173 A 
ATOM     73  C   UNL     1      10.966  -3.622   6.861  1.00  0.00     0.173 A 
ATOM     74  F   UNL     1      14.410  -3.383   5.730  1.00  0.00    -0.203 F 
ATOM     75  C   UNL     1      13.278  -2.190   7.417  1.00  0.00     0.198 A 
ATOM     76  C   UNL     1      10.963  -2.646   7.855  1.00  0.00     0.198 A 
ATOM     77  F   UNL     1       9.836  -4.300   6.614  1.00  0.00    -0.203 F 
ATOM     78  F   UNL     1      14.405  -1.522   7.701  1.00  0.00    -0.200 F 
ATOM     79  C   UNL     1      12.121  -1.936   8.137  1.00  0.00     0.200 A 
ATOM     80  F   UNL     1       9.840  -2.395   8.541  1.00  0.00    -0.200 F 
ATOM     81  F   UNL     1      12.122  -1.010   9.106  1.00  0.00    -0.200 F 
ENDBRANCH  47  71
BRANCH  59  82
ATOM     82  C   UNL     1      15.133 -10.128   5.494  1.00  0.00     0.064 A 
ATOM     83  C   UNL     1      14.635 -10.737   6.656  1.00  0.00     0.173 A 
ATOM     84  C   UNL     1      16.496 -10.285   5.200  1.00  0.00     0.173 A 
ATOM     85  F   UNL     1      13.342 -10.601   6.988  1.00  0.00    -0.203 F 
ATOM     86  C   UNL     1      15.476 -11.451   7.505  1.00  0.00     0.198 A 
ATOM     87  C   UNL     1      17.328 -11.021   6.039  1.00  0.00     0.198 A 
ATOM     88  F   UNL     1      17.019  -9.725   4.099  1.00  0.00    -0.203 F 
ATOM     89  F   UNL     1      14.989 -11.982   8.636  1.00  0.00    -0.200 F 
ATOM     90  C   UNL     1      16.820 -11.596   7.194  1.00  0.00     0.200 A 
ATOM     91  F   UNL     1      18.625 -11.167   5.734  1.00  0.00    -0.200 F 
ATOM     92  F   UNL     1      17.628 -12.281   8.015  1.00  0.00    -0.200 F 
ENDBRANCH  59  82
ENDBRANCH  33  34
ENDBRANCH  25  28
ENDBRANCH  23  24
ENDBRANCH  22  23
ENDBRANCH   1  22
TORSDOF 13
