REMARK SMILES COc1cc(C(C)C)cc([C@H]([NH3+])C(=O)NCCCNC(=O)c2ccc(-c3c4nc(c(-c5c(F)c(F)c(F)c(F)c5F)c5ccc([nH]5)c(-c5c(F)c(F)c(F)c(F)c5F)c5nc(c(-c6c(F)c(F)c(F)c(F)c6F)c6ccc3[nH]6)C=C5)C=C4)cc2)c1O
REMARK SMILES IDX 17 1 16 2 15 3 13 4 14 5 11 7 10 8 3 9 4 10 85 11 5 12 9 13
REMARK SMILES IDX 2 14 1 15 86 16 6 18 7 19 8 20 12 21 18 25 19 26 20 27 21 29
REMARK SMILES IDX 22 30 23 31 84 32 24 33 83 34 25 35 26 36 27 37 77 38 28 39
REMARK SMILES IDX 82 40 76 41 78 42 29 43 81 44 75 45 74 46 30 48 62 49 42 50
REMARK SMILES IDX 61 51 43 52 46 53 60 54 79 55 44 56 45 57 59 59 80 60 47 61
REMARK SMILES IDX 31 62 32 63 40 64 33 65 34 66 38 67 41 68 35 69 36 70 39 71
REMARK SMILES IDX 37 72 63 73 64 74 72 75 65 76 66 77 70 78 73 79 67 80 68 81
REMARK SMILES IDX 71 82 69 83 48 84 49 85 57 86 50 87 51 88 55 89 58 90 52 91
REMARK SMILES IDX 53 92 56 93 54 94
REMARK H PARENT 15 6 86 17 12 22 12 23 12 24 19 28 78 47 46 58
REMARK Flexibility Score: inf
ROOT
ATOM      1  C   UNL     1      -3.234   0.388   5.827  1.00  0.00     0.042 C 
ENDROOT
BRANCH   1   2
ATOM      2  C   UNL     1      -2.694  -1.027   5.750  1.00  0.00     0.118 C 
BRANCH   2   3
ATOM      3  N   UNL     1      -3.350  -1.837   4.735  1.00  0.00    -0.351 N 
ATOM      4  C   UNL     1      -2.853  -2.844   3.947  1.00  0.00     0.283 C 
ATOM      5  O   UNL     1      -3.687  -3.535   3.352  1.00  0.00    -0.268 OA
ATOM      6  H   UNL     1      -4.302  -1.629   4.590  1.00  0.00     0.163 HD
BRANCH   4   7
ATOM      7  C   UNL     1      -1.327  -3.076   3.765  1.00  0.00     0.306 C 
BRANCH   7   8
ATOM      8  C   UNL     1      -0.596  -3.669   4.966  1.00  0.00     0.065 A 
ATOM      9  C   UNL     1       1.478  -4.425   6.002  1.00  0.00     0.161 A 
ATOM     10  C   UNL     1       0.906  -4.331   7.271  1.00  0.00     0.054 A 
ATOM     11  C   UNL     1       0.747  -4.050   4.868  1.00  0.00     0.167 A 
ATOM     12  C   UNL     1      -0.435  -3.956   7.405  1.00  0.00    -0.041 A 
ATOM     13  C   UNL     1      -1.188  -3.747   6.238  1.00  0.00     0.018 A 
BRANCH   9  14
ATOM     14  O   UNL     1       2.807  -4.753   5.917  1.00  0.00    -0.493 OA
ATOM     15  C   UNL     1       2.989  -6.034   5.306  1.00  0.00     0.278 C 
ENDBRANCH   9  14
BRANCH  11  16
ATOM     16  O   UNL     1       1.367  -4.001   3.650  1.00  0.00    -0.504 OA
ATOM     17  H   UNL     1       2.266  -4.253   3.571  1.00  0.00     0.293 HD
ENDBRANCH  11  16
BRANCH  12  18
ATOM     18  C   UNL     1      -1.090  -3.661   8.746  1.00  0.00     0.013 C 
ATOM     19  C   UNL     1      -1.534  -4.926   9.469  1.00  0.00     0.012 C 
ATOM     20  C   UNL     1      -0.214  -2.779   9.642  1.00  0.00     0.012 C 
ENDBRANCH  12  18
ENDBRANCH   7   8
BRANCH   7  21
ATOM     21  N   UNL     1      -0.699  -1.814   3.296  1.00  0.00    -0.343 N 
ATOM     22  H   UNL     1      -0.804  -1.095   4.012  1.00  0.00     0.345 HD
ATOM     23  H   UNL     1      -1.154  -1.506   2.436  1.00  0.00     0.345 HD
ATOM     24  H   UNL     1       0.293  -1.973   3.117  1.00  0.00     0.345 HD
ENDBRANCH   7  21
ENDBRANCH   4   7
ENDBRANCH   2   3
ENDBRANCH   1   2
BRANCH   1  25
ATOM     25  C   UNL     1      -4.698   0.464   6.239  1.00  0.00     0.118 C 
BRANCH  25  26
ATOM     26  N   UNL     1      -4.957  -0.062   7.576  1.00  0.00    -0.352 N 
ATOM     27  C   UNL     1      -5.482   0.558   8.687  1.00  0.00     0.251 C 
ATOM     28  H   UNL     1      -4.720  -1.009   7.703  1.00  0.00     0.163 HD
ATOM     29  O   UNL     1      -5.492  -0.017   9.767  1.00  0.00    -0.269 OA
BRANCH  27  30
ATOM     30  C   UNL     1      -5.997   1.940   8.578  1.00  0.00     0.039 A 
ATOM     31  C   UNL     1      -5.643   2.874   9.554  1.00  0.00     0.014 A 
ATOM     32  C   UNL     1      -6.790   2.320   7.495  1.00  0.00     0.014 A 
ATOM     33  C   UNL     1      -5.994   4.215   9.382  1.00  0.00     0.010 A 
ATOM     34  C   UNL     1      -7.049   3.667   7.273  1.00  0.00     0.010 A 
ATOM     35  C   UNL     1      -6.645   4.630   8.209  1.00  0.00    -0.014 A 
BRANCH  35  36
ATOM     36  C   UNL     1      -6.893   6.066   7.923  1.00  0.00     0.031 A 
ATOM     37  C   UNL     1      -8.298   6.568   7.738  1.00  0.00     0.074 A 
ATOM     38  C   UNL     1      -5.848   6.896   7.737  1.00  0.00     0.049 A 
ATOM     39  N   UNL     1      -8.712   7.757   7.381  1.00  0.00    -0.248 NA
ATOM     40  C   UNL     1      -9.381   5.593   7.946  1.00  0.00     0.031 C 
ATOM     41  C   UNL     1      -4.437   6.515   7.825  1.00  0.00     0.029 A 
ATOM     42  N   UNL     1      -5.809   8.231   7.418  1.00  0.00    -0.354 N 
ATOM     43  C   UNL     1     -10.095   7.666   7.303  1.00  0.00     0.074 A 
ATOM     44  C   UNL     1     -10.448   6.293   7.592  1.00  0.00     0.031 C 
ATOM     45  C   UNL     1      -3.673   7.595   7.595  1.00  0.00     0.029 A 
ATOM     46  C   UNL     1      -4.536   8.733   7.299  1.00  0.00     0.049 A 
ATOM     47  H   UNL     1      -6.618   8.777   7.288  1.00  0.00     0.167 HD
ATOM     48  C   UNL     1     -10.993   8.646   7.041  1.00  0.00     0.037 A 
ATOM     49  C   UNL     1      -4.112   9.970   6.978  1.00  0.00     0.037 A 
ATOM     50  C   UNL     1     -10.639  10.018   6.788  1.00  0.00     0.049 A 
ATOM     51  C   UNL     1      -5.130  11.041   6.696  1.00  0.00     0.074 A 
ATOM     52  C   UNL     1     -11.476  11.101   6.589  1.00  0.00     0.029 A 
ATOM     53  N   UNL     1      -9.339  10.493   6.699  1.00  0.00    -0.354 N 
ATOM     54  N   UNL     1      -6.438  10.961   6.701  1.00  0.00    -0.248 NA
ATOM     55  C   UNL     1      -4.611  12.376   6.365  1.00  0.00     0.031 C 
ATOM     56  C   UNL     1     -10.682  12.225   6.333  1.00  0.00     0.029 A 
ATOM     57  C   UNL     1      -9.351  11.851   6.421  1.00  0.00     0.049 A 
ATOM     58  H   UNL     1      -8.528   9.947   6.815  1.00  0.00     0.167 HD
ATOM     59  C   UNL     1      -6.899  12.235   6.397  1.00  0.00     0.074 A 
ATOM     60  C   UNL     1      -5.731  13.074   6.233  1.00  0.00     0.031 C 
ATOM     61  C   UNL     1      -8.176  12.669   6.261  1.00  0.00     0.037 A 
BRANCH  48  62
ATOM     62  C   UNL     1     -12.446   8.270   7.025  1.00  0.00     0.064 A 
ATOM     63  C   UNL     1     -13.127   7.916   8.200  1.00  0.00     0.173 A 
ATOM     64  C   UNL     1     -13.176   8.295   5.827  1.00  0.00     0.173 A 
ATOM     65  F   UNL     1     -12.473   7.864   9.370  1.00  0.00    -0.203 F 
ATOM     66  C   UNL     1     -14.476   7.571   8.171  1.00  0.00     0.198 A 
ATOM     67  C   UNL     1     -14.532   7.981   5.807  1.00  0.00     0.198 A 
ATOM     68  F   UNL     1     -12.575   8.631   4.675  1.00  0.00    -0.203 F 
ATOM     69  F   UNL     1     -15.091   7.186   9.297  1.00  0.00    -0.200 F 
ATOM     70  C   UNL     1     -15.179   7.611   6.976  1.00  0.00     0.200 A 
ATOM     71  F   UNL     1     -15.213   8.031   4.654  1.00  0.00    -0.200 F 
ATOM     72  F   UNL     1     -16.479   7.286   6.951  1.00  0.00    -0.200 F 
ENDBRANCH  48  62
BRANCH  49  73
ATOM     73  C   UNL     1      -2.657  10.269   6.929  1.00  0.00     0.064 A 
ATOM     74  C   UNL     1      -2.062  11.098   7.891  1.00  0.00     0.173 A 
ATOM     75  C   UNL     1      -1.833   9.739   5.926  1.00  0.00     0.173 A 
ATOM     76  F   UNL     1      -2.812  11.645   8.858  1.00  0.00    -0.203 F 
ATOM     77  C   UNL     1      -0.703  11.401   7.839  1.00  0.00     0.198 A 
ATOM     78  C   UNL     1      -0.469  10.019   5.892  1.00  0.00     0.198 A 
ATOM     79  F   UNL     1      -2.352   8.935   4.986  1.00  0.00    -0.203 F 
ATOM     80  F   UNL     1      -0.169  12.232   8.745  1.00  0.00    -0.200 F 
ATOM     81  C   UNL     1       0.094  10.857   6.843  1.00  0.00     0.200 A 
ATOM     82  F   UNL     1       0.300   9.479   4.937  1.00  0.00    -0.200 F 
ATOM     83  F   UNL     1       1.401  11.144   6.797  1.00  0.00    -0.200 F 
ENDBRANCH  49  73
BRANCH  61  84
ATOM     84  C   UNL     1      -8.375  14.122   5.940  1.00  0.00     0.064 A 
ATOM     85  C   UNL     1      -8.074  14.640   4.671  1.00  0.00     0.173 A 
ATOM     86  C   UNL     1      -8.907  14.996   6.899  1.00  0.00     0.173 A 
ATOM     87  F   UNL     1      -7.548  13.847   3.726  1.00  0.00    -0.203 F 
ATOM     88  C   UNL     1      -8.276  15.987   4.384  1.00  0.00     0.198 A 
ATOM     89  C   UNL     1      -9.135  16.336   6.598  1.00  0.00     0.198 A 
ATOM     90  F   UNL     1      -9.216  14.548   8.125  1.00  0.00    -0.203 F 
ATOM     91  F   UNL     1      -7.936  16.471   3.181  1.00  0.00    -0.200 F 
ATOM     92  C   UNL     1      -8.813  16.831   5.344  1.00  0.00     0.200 A 
ATOM     93  F   UNL     1      -9.667  17.147   7.522  1.00  0.00    -0.200 F 
ATOM     94  F   UNL     1      -9.013  18.126   5.062  1.00  0.00    -0.200 F 
ENDBRANCH  61  84
ENDBRANCH  35  36
ENDBRANCH  27  30
ENDBRANCH  25  26
ENDBRANCH   1  25
TORSDOF 15
