REMARK SMILES CCC[NH+]1CCN(c2cc(C(=O)NCCCNC(=O)c3ccc(-c4c5nc(c(-c6c(F)c(F)c(F)c(F)c6F)c6ccc([nH]6)c(-c6c(F)c(F)c(F)c(F)c6F)c6nc(c(-c7c(F)c(F)c(F)c(F)c7F)c7ccc4[nH]7)C=C6)C=C5)cc3)c3cc(NC(=O)c4ccc(F)cc4)ccc3n2)CC1
REMARK SMILES IDX 14 1 13 2 11 3 12 4 10 6 8 7 9 8 99 9 98 10 83 11 97 12
REMARK SMILES IDX 84 13 96 14 85 15 7 16 4 17 5 18 101 19 6 21 100 22 3 23
REMARK SMILES IDX 2 24 1 25 86 26 87 27 88 29 89 30 90 31 95 32 91 33 94 34
REMARK SMILES IDX 92 35 93 36 15 37 16 38 17 39 18 40 19 42 20 43 21 44 82 45
REMARK SMILES IDX 22 46 81 47 23 48 24 49 25 50 75 51 26 52 80 53 74 54 76 55
REMARK SMILES IDX 27 56 79 57 73 58 72 59 28 61 60 62 40 63 59 64 41 65 44 66
REMARK SMILES IDX 58 67 77 68 42 69 43 70 57 72 78 73 45 74 29 75 30 76 38 77
REMARK SMILES IDX 31 78 32 79 36 80 39 81 33 82 34 83 37 84 35 85 61 86 62 87
REMARK SMILES IDX 70 88 63 89 64 90 68 91 71 92 65 93 66 94 69 95 67 96 46 97
REMARK SMILES IDX 47 98 55 99 48 100 49 101 53 102 56 103 50 104 51 105 54 106
REMARK SMILES IDX 52 107
REMARK H PARENT 13 5 4 20 86 28 17 41 76 60 44 71
REMARK Flexibility Score: inf
ROOT
ATOM      1  C   UNL     1      -6.193   5.889   7.175  1.00  0.00     0.118 C 
ENDROOT
BRANCH   1   2
ATOM      2  N   UNL     1      -5.376   4.732   7.462  1.00  0.00    -0.352 N 
ATOM      3  C   UNL     1      -4.080   4.428   7.090  1.00  0.00     0.252 C 
ATOM      4  O   UNL     1      -3.548   3.508   7.720  1.00  0.00    -0.269 OA
ATOM      5  H   UNL     1      -5.816   4.046   8.014  1.00  0.00     0.163 HD
BRANCH   3   6
ATOM      6  C   UNL     1      -3.296   5.037   5.953  1.00  0.00     0.052 A 
ATOM      7  C   UNL     1      -1.600   4.532   4.298  1.00  0.00     0.130 A 
ATOM      8  C   UNL     1      -2.450   4.127   5.319  1.00  0.00     0.061 A 
ATOM      9  N   UNL     1      -1.592   5.799   3.849  1.00  0.00    -0.231 NA
ATOM     10  C   UNL     1      -2.375   6.705   4.443  1.00  0.00     0.074 A 
ATOM     11  C   UNL     1      -3.200   6.381   5.534  1.00  0.00     0.015 A 
ATOM     12  C   UNL     1      -2.328   8.028   3.997  1.00  0.00     0.031 A 
ATOM     13  C   UNL     1      -3.782   7.453   6.206  1.00  0.00     0.037 A 
ATOM     14  C   UNL     1      -2.970   9.073   4.678  1.00  0.00     0.028 A 
ATOM     15  C   UNL     1      -3.624   8.787   5.860  1.00  0.00     0.042 A 
BRANCH   7  16
ATOM     16  N   UNL     1      -0.754   3.615   3.723  1.00  0.00    -0.345 N 
ATOM     17  N   UNL     1       0.455   2.356   1.374  1.00  0.00    -0.332 N 
ATOM     18  C   UNL     1      -0.992   2.269   1.680  1.00  0.00     0.284 C 
ATOM     19  C   UNL     1       0.933   3.670   1.879  1.00  0.00     0.284 C 
ATOM     20  H   UNL     1       0.594   2.277   0.367  1.00  0.00     0.348 HD
ATOM     21  C   UNL     1      -1.331   2.390   3.178  1.00  0.00     0.179 C 
ATOM     22  C   UNL     1       0.618   3.977   3.362  1.00  0.00     0.179 C 
BRANCH  17  23
ATOM     23  C   UNL     1       1.230   1.248   1.961  1.00  0.00     0.262 C 
BRANCH  23  24
ATOM     24  C   UNL     1       0.854  -0.136   1.409  1.00  0.00     0.058 C 
ATOM     25  C   UNL     1       1.100  -0.261  -0.086  1.00  0.00     0.010 C 
ENDBRANCH  23  24
ENDBRANCH  17  23
ENDBRANCH   7  16
BRANCH  15  26
ATOM     26  N   UNL     1      -4.087   9.813   6.700  1.00  0.00    -0.322 N 
ATOM     27  C   UNL     1      -4.397   9.795   8.055  1.00  0.00     0.255 C 
ATOM     28  H   UNL     1      -4.211  10.685   6.259  1.00  0.00     0.170 HD
ATOM     29  O   UNL     1      -5.092  10.701   8.514  1.00  0.00    -0.269 OA
BRANCH  27  30
ATOM     30  C   UNL     1      -3.912   8.714   8.982  1.00  0.00     0.040 A 
ATOM     31  C   UNL     1      -4.772   8.291  10.001  1.00  0.00     0.017 A 
ATOM     32  C   UNL     1      -2.687   8.047   8.822  1.00  0.00     0.017 A 
ATOM     33  C   UNL     1      -4.483   7.143  10.750  1.00  0.00     0.040 A 
ATOM     34  C   UNL     1      -2.431   6.860   9.521  1.00  0.00     0.040 A 
ATOM     35  C   UNL     1      -3.343   6.407  10.465  1.00  0.00     0.123 A 
ATOM     36  F   UNL     1      -3.127   5.249  11.101  1.00  0.00    -0.207 F 
ENDBRANCH  27  30
ENDBRANCH  15  26
ENDBRANCH   3   6
ENDBRANCH   1   2
BRANCH   1  37
ATOM     37  C   UNL     1      -7.691   5.806   7.372  1.00  0.00     0.042 C 
BRANCH  37  38
ATOM     38  C   UNL     1      -8.165   5.588   8.803  1.00  0.00     0.118 C 
BRANCH  38  39
ATOM     39  N   UNL     1      -7.722   6.583   9.788  1.00  0.00    -0.352 N 
ATOM     40  C   UNL     1      -8.337   7.661  10.387  1.00  0.00     0.251 C 
ATOM     41  H   UNL     1      -6.792   6.452  10.083  1.00  0.00     0.163 HD
ATOM     42  O   UNL     1      -7.743   8.358  11.212  1.00  0.00    -0.269 OA
BRANCH  40  43
ATOM     43  C   UNL     1      -9.728   7.983  10.072  1.00  0.00     0.039 A 
ATOM     44  C   UNL     1     -10.149   9.298   9.833  1.00  0.00     0.014 A 
ATOM     45  C   UNL     1     -10.626   6.929  10.026  1.00  0.00     0.014 A 
ATOM     46  C   UNL     1     -11.470   9.526   9.445  1.00  0.00     0.010 A 
ATOM     47  C   UNL     1     -11.861   7.129   9.465  1.00  0.00     0.010 A 
ATOM     48  C   UNL     1     -12.312   8.431   9.213  1.00  0.00    -0.014 A 
BRANCH  48  49
ATOM     49  C   UNL     1     -13.711   8.541   8.756  1.00  0.00     0.031 A 
ATOM     50  C   UNL     1     -14.775   7.887   9.595  1.00  0.00     0.074 A 
ATOM     51  C   UNL     1     -13.956   8.996   7.517  1.00  0.00     0.049 A 
ATOM     52  N   UNL     1     -15.993   7.545   9.275  1.00  0.00    -0.248 NA
ATOM     53  C   UNL     1     -14.366   7.457  10.947  1.00  0.00     0.031 C 
ATOM     54  C   UNL     1     -12.954   9.548   6.602  1.00  0.00     0.029 A 
ATOM     55  N   UNL     1     -15.117   9.018   6.794  1.00  0.00    -0.354 N 
ATOM     56  C   UNL     1     -16.464   6.809  10.356  1.00  0.00     0.074 A 
ATOM     57  C   UNL     1     -15.372   6.670  11.290  1.00  0.00     0.031 C 
ATOM     58  C   UNL     1     -13.548   9.871   5.443  1.00  0.00     0.029 A 
ATOM     59  C   UNL     1     -14.956   9.504   5.521  1.00  0.00     0.049 A 
ATOM     60  H   UNL     1     -15.982   8.714   7.152  1.00  0.00     0.167 HD
ATOM     61  C   UNL     1     -17.712   6.327  10.559  1.00  0.00     0.037 A 
ATOM     62  C   UNL     1     -15.857   9.625   4.530  1.00  0.00     0.037 A 
ATOM     63  C   UNL     1     -18.780   6.545   9.622  1.00  0.00     0.049 A 
ATOM     64  C   UNL     1     -17.265   9.178   4.808  1.00  0.00     0.074 A 
ATOM     65  C   UNL     1     -20.118   6.225   9.737  1.00  0.00     0.029 A 
ATOM     66  N   UNL     1     -18.616   7.161   8.384  1.00  0.00    -0.354 N 
ATOM     67  N   UNL     1     -17.742   8.568   5.868  1.00  0.00    -0.248 NA
ATOM     68  C   UNL     1     -18.261   9.450   3.768  1.00  0.00     0.031 C 
ATOM     69  C   UNL     1     -20.755   6.604   8.549  1.00  0.00     0.029 A 
ATOM     70  C   UNL     1     -19.826   7.215   7.717  1.00  0.00     0.049 A 
ATOM     71  H   UNL     1     -17.764   7.507   8.035  1.00  0.00     0.167 HD
ATOM     72  C   UNL     1     -19.098   8.398   5.637  1.00  0.00     0.074 A 
ATOM     73  C   UNL     1     -19.367   8.991   4.338  1.00  0.00     0.031 C 
ATOM     74  C   UNL     1     -20.039   7.810   6.419  1.00  0.00     0.037 A 
BRANCH  61  75
ATOM     75  C   UNL     1     -17.964   5.549  11.823  1.00  0.00     0.064 A 
ATOM     76  C   UNL     1     -17.817   6.126  13.097  1.00  0.00     0.173 A 
ATOM     77  C   UNL     1     -18.324   4.193  11.768  1.00  0.00     0.173 A 
ATOM     78  F   UNL     1     -17.467   7.416  13.218  1.00  0.00    -0.203 F 
ATOM     79  C   UNL     1     -17.953   5.366  14.257  1.00  0.00     0.198 A 
ATOM     80  C   UNL     1     -18.505   3.447  12.932  1.00  0.00     0.198 A 
ATOM     81  F   UNL     1     -18.487   3.582  10.585  1.00  0.00    -0.203 F 
ATOM     82  F   UNL     1     -17.712   5.923  15.452  1.00  0.00    -0.200 F 
ATOM     83  C   UNL     1     -18.301   4.028  14.174  1.00  0.00     0.200 A 
ATOM     84  F   UNL     1     -18.857   2.156  12.850  1.00  0.00    -0.200 F 
ATOM     85  F   UNL     1     -18.425   3.296  15.289  1.00  0.00    -0.200 F 
ENDBRANCH  61  75
BRANCH  62  86
ATOM     86  C   UNL     1     -15.452  10.259   3.250  1.00  0.00     0.064 A 
ATOM     87  C   UNL     1     -15.864  11.563   2.940  1.00  0.00     0.173 A 
ATOM     88  C   UNL     1     -14.574   9.625   2.358  1.00  0.00     0.173 A 
ATOM     89  F   UNL     1     -16.705  12.211   3.759  1.00  0.00    -0.203 F 
ATOM     90  C   UNL     1     -15.418  12.206   1.786  1.00  0.00     0.198 A 
ATOM     91  C   UNL     1     -14.109  10.278   1.218  1.00  0.00     0.198 A 
ATOM     92  F   UNL     1     -14.131   8.386   2.619  1.00  0.00    -0.203 F 
ATOM     93  F   UNL     1     -15.841  13.446   1.508  1.00  0.00    -0.200 F 
ATOM     94  C   UNL     1     -14.533  11.567   0.931  1.00  0.00     0.200 A 
ATOM     95  F   UNL     1     -13.233   9.667   0.408  1.00  0.00    -0.200 F 
ATOM     96  F   UNL     1     -14.084  12.195  -0.164  1.00  0.00    -0.200 F 
ENDBRANCH  62  86
BRANCH  74  97
ATOM     97  C   UNL     1     -21.442   7.802   5.891  1.00  0.00     0.064 A 
ATOM     98  C   UNL     1     -21.816   6.985   4.814  1.00  0.00     0.173 A 
ATOM     99  C   UNL     1     -22.431   8.585   6.503  1.00  0.00     0.173 A 
ATOM    100  F   UNL     1     -20.900   6.229   4.190  1.00  0.00    -0.203 F 
ATOM    101  C   UNL     1     -23.127   6.975   4.351  1.00  0.00     0.198 A 
ATOM    102  C   UNL     1     -23.748   8.544   6.061  1.00  0.00     0.198 A 
ATOM    103  F   UNL     1     -22.122   9.375   7.543  1.00  0.00    -0.203 F 
ATOM    104  F   UNL     1     -23.453   6.228   3.288  1.00  0.00    -0.200 F 
ATOM    105  C   UNL     1     -24.093   7.747   4.980  1.00  0.00     0.200 A 
ATOM    106  F   UNL     1     -24.684   9.276   6.681  1.00  0.00    -0.200 F 
ATOM    107  F   UNL     1     -25.358   7.727   4.540  1.00  0.00    -0.200 F 
ENDBRANCH  74  97
ENDBRANCH  48  49
ENDBRANCH  40  43
ENDBRANCH  38  39
ENDBRANCH  37  38
ENDBRANCH   1  37
TORSDOF 15
