REMARK SMILES C/C=C/C=C/C(=O)N[C@@](C)(C(=O)NCCCNC(=O)c1ccc(-c2c3nc(c(-c4c(F)c(F)c(F)c(F)c4F)c4ccc([nH]4)c(-c4c(F)c(F)c(F)c(F)c4F)c4nc(c(-c5c(F)c(F)c(F)c(F)c5F)c5ccc2[nH]5)C=C4)C=C3)cc1)C(F)(F)F
REMARK SMILES IDX 14 1 13 2 11 3 12 4 9 6 10 7 8 8 6 9 7 10 5 12 4 13 3 14
REMARK SMILES IDX 1 15 2 16 83 17 84 18 85 19 86 20 15 21 16 22 17 23 18 24
REMARK SMILES IDX 19 26 20 27 21 28 82 29 22 30 81 31 23 32 24 33 25 34 75 35
REMARK SMILES IDX 26 36 80 37 74 38 76 39 27 40 79 41 73 42 72 43 28 45 60 46
REMARK SMILES IDX 40 47 59 48 41 49 44 50 58 51 77 52 42 53 43 54 57 56 78 57
REMARK SMILES IDX 45 58 29 59 30 60 38 61 31 62 32 63 36 64 39 65 33 66 34 67
REMARK SMILES IDX 37 68 35 69 61 70 62 71 70 72 63 73 64 74 68 75 71 76 65 77
REMARK SMILES IDX 66 78 69 79 67 80 46 81 47 82 55 83 48 84 49 85 53 86 56 87
REMARK SMILES IDX 50 88 51 89 54 90 52 91
REMARK H PARENT 13 5 8 11 17 25 76 44 44 55
REMARK Flexibility Score: inf
ROOT
ATOM      1  C   UNL     1      -1.808  -1.041   8.517  1.00  0.00     0.117 C 
ENDROOT
BRANCH   1   2
ATOM      2  N   UNL     1      -1.898  -1.834   7.308  1.00  0.00    -0.354 N 
ATOM      3  C   UNL     1      -1.509  -1.636   6.025  1.00  0.00     0.254 C 
ATOM      4  O   UNL     1      -2.074  -2.380   5.216  1.00  0.00    -0.272 OA
ATOM      5  H   UNL     1      -2.336  -2.704   7.449  1.00  0.00     0.163 HD
BRANCH   3   6
ATOM      6  C   UNL     1      -0.531  -0.526   5.588  1.00  0.00     0.212 C 
ATOM      7  C   UNL     1       0.685  -0.366   6.524  1.00  0.00     0.056 C 
BRANCH   6   8
ATOM      8  N   UNL     1      -1.308   0.768   5.649  1.00  0.00    -0.331 N 
ATOM      9  C   UNL     1      -1.845   1.719   4.854  1.00  0.00     0.245 C 
ATOM     10  O   UNL     1      -2.588   2.538   5.401  1.00  0.00    -0.270 OA
ATOM     11  H   UNL     1      -1.481   0.998   6.591  1.00  0.00     0.165 HD
BRANCH   9  12
ATOM     12  C   UNL     1      -1.652   1.819   3.400  1.00  0.00     0.071 C 
ATOM     13  C   UNL     1      -0.481   1.602   2.800  1.00  0.00     0.005 C 
BRANCH  13  14
ATOM     14  C   UNL     1      -0.277   1.545   1.372  1.00  0.00    -0.004 C 
ATOM     15  C   UNL     1       0.883   0.408  -0.571  1.00  0.00     0.035 C 
ATOM     16  C   UNL     1       0.540   0.607   0.865  1.00  0.00    -0.030 C 
ENDBRANCH  13  14
ENDBRANCH   9  12
ENDBRANCH   6   8
BRANCH   6  17
ATOM     17  C   UNL     1       0.051  -1.125   4.279  1.00  0.00     0.420 C 
ATOM     18  F   UNL     1      -0.806  -1.148   3.244  1.00  0.00    -0.168 F 
ATOM     19  F   UNL     1       1.166  -0.454   3.890  1.00  0.00    -0.168 F 
ATOM     20  F   UNL     1       0.487  -2.400   4.479  1.00  0.00    -0.168 F 
ENDBRANCH   6  17
ENDBRANCH   3   6
ENDBRANCH   1   2
BRANCH   1  21
ATOM     21  C   UNL     1      -3.187  -0.772   9.099  1.00  0.00     0.042 C 
BRANCH  21  22
ATOM     22  C   UNL     1      -4.012  -2.023   9.368  1.00  0.00     0.118 C 
BRANCH  22  23
ATOM     23  N   UNL     1      -3.368  -2.938  10.299  1.00  0.00    -0.352 N 
ATOM     24  C   UNL     1      -3.766  -3.337  11.554  1.00  0.00     0.251 C 
ATOM     25  H   UNL     1      -2.522  -3.330   9.983  1.00  0.00     0.163 HD
ATOM     26  O   UNL     1      -3.003  -3.969  12.269  1.00  0.00    -0.269 OA
BRANCH  24  27
ATOM     27  C   UNL     1      -5.111  -2.967  12.043  1.00  0.00     0.039 A 
ATOM     28  C   UNL     1      -5.248  -2.486  13.346  1.00  0.00     0.014 A 
ATOM     29  C   UNL     1      -6.227  -3.072  11.210  1.00  0.00     0.014 A 
ATOM     30  C   UNL     1      -6.494  -2.034  13.784  1.00  0.00     0.010 A 
ATOM     31  C   UNL     1      -7.439  -2.523  11.609  1.00  0.00     0.010 A 
ATOM     32  C   UNL     1      -7.588  -2.006  12.904  1.00  0.00    -0.014 A 
BRANCH  32  33
ATOM     33  C   UNL     1      -8.898  -1.443  13.319  1.00  0.00     0.031 A 
ATOM     34  C   UNL     1     -10.124  -2.315  13.327  1.00  0.00     0.074 A 
ATOM     35  C   UNL     1      -8.995  -0.135  13.624  1.00  0.00     0.049 A 
ATOM     36  N   UNL     1     -11.365  -1.997  13.597  1.00  0.00    -0.248 NA
ATOM     37  C   UNL     1      -9.937  -3.725  12.950  1.00  0.00     0.031 C 
ATOM     38  C   UNL     1      -7.890   0.825  13.596  1.00  0.00     0.029 A 
ATOM     39  N   UNL     1     -10.077   0.618  14.009  1.00  0.00    -0.354 N 
ATOM     40  C   UNL     1     -12.101  -3.159  13.410  1.00  0.00     0.074 A 
ATOM     41  C   UNL     1     -11.183  -4.172  12.940  1.00  0.00     0.031 C 
ATOM     42  C   UNL     1      -8.343   2.030  13.977  1.00  0.00     0.029 A 
ATOM     43  C   UNL     1      -9.777   1.940  14.232  1.00  0.00     0.049 A 
ATOM     44  H   UNL     1     -10.982   0.245  14.114  1.00  0.00     0.167 HD
ATOM     45  C   UNL     1     -13.419  -3.370  13.636  1.00  0.00     0.037 A 
ATOM     46  C   UNL     1     -10.572   2.965  14.594  1.00  0.00     0.037 A 
ATOM     47  C   UNL     1     -14.324  -2.363  14.125  1.00  0.00     0.049 A 
ATOM     48  C   UNL     1     -12.036   2.706  14.829  1.00  0.00     0.074 A 
ATOM     49  C   UNL     1     -15.663  -2.490  14.448  1.00  0.00     0.029 A 
ATOM     50  N   UNL     1     -13.980  -1.038  14.355  1.00  0.00    -0.354 N 
ATOM     51  N   UNL     1     -12.706   1.583  14.727  1.00  0.00    -0.248 NA
ATOM     52  C   UNL     1     -12.854   3.856  15.237  1.00  0.00     0.031 C 
ATOM     53  C   UNL     1     -16.145  -1.230  14.816  1.00  0.00     0.029 A 
ATOM     54  C   UNL     1     -15.091  -0.331  14.787  1.00  0.00     0.049 A 
ATOM     55  H   UNL     1     -13.081  -0.657  14.229  1.00  0.00     0.167 HD
ATOM     56  C   UNL     1     -14.013   1.884  15.086  1.00  0.00     0.074 A 
ATOM     57  C   UNL     1     -14.037   3.291  15.427  1.00  0.00     0.031 C 
ATOM     58  C   UNL     1     -15.096   1.069  15.129  1.00  0.00     0.037 A 
BRANCH  45  59
ATOM     59  C   UNL     1     -13.963  -4.743  13.360  1.00  0.00     0.064 A 
ATOM     60  C   UNL     1     -13.598  -5.853  14.139  1.00  0.00     0.173 A 
ATOM     61  C   UNL     1     -14.887  -4.948  12.324  1.00  0.00     0.173 A 
ATOM     62  F   UNL     1     -12.709  -5.717  15.134  1.00  0.00    -0.203 F 
ATOM     63  C   UNL     1     -14.113  -7.119  13.871  1.00  0.00     0.198 A 
ATOM     64  C   UNL     1     -15.427  -6.208  12.081  1.00  0.00     0.198 A 
ATOM     65  F   UNL     1     -15.275  -3.922  11.550  1.00  0.00    -0.203 F 
ATOM     66  F   UNL     1     -13.707  -8.172  14.594  1.00  0.00    -0.200 F 
ATOM     67  C   UNL     1     -15.033  -7.294  12.848  1.00  0.00     0.200 A 
ATOM     68  F   UNL     1     -16.327  -6.373  11.103  1.00  0.00    -0.200 F 
ATOM     69  F   UNL     1     -15.534  -8.511  12.598  1.00  0.00    -0.200 F 
ENDBRANCH  45  59
BRANCH  46  70
ATOM     70  C   UNL     1      -9.999   4.325  14.775  1.00  0.00     0.064 A 
ATOM     71  C   UNL     1      -9.936   4.919  16.044  1.00  0.00     0.173 A 
ATOM     72  C   UNL     1      -9.512   5.064  13.687  1.00  0.00     0.173 A 
ATOM     73  F   UNL     1     -10.405   4.261  17.115  1.00  0.00    -0.203 F 
ATOM     74  C   UNL     1      -9.434   6.208  16.213  1.00  0.00     0.198 A 
ATOM     75  C   UNL     1      -8.980   6.340  13.862  1.00  0.00     0.198 A 
ATOM     76  F   UNL     1      -9.542   4.541  12.452  1.00  0.00    -0.203 F 
ATOM     77  F   UNL     1      -9.436   6.770  17.430  1.00  0.00    -0.200 F 
ATOM     78  C   UNL     1      -8.951   6.915  15.123  1.00  0.00     0.200 A 
ATOM     79  F   UNL     1      -8.498   7.013  12.808  1.00  0.00    -0.200 F 
ATOM     80  F   UNL     1      -8.466   8.153  15.287  1.00  0.00    -0.200 F 
ENDBRANCH  46  70
BRANCH  58  81
ATOM     81  C   UNL     1     -16.391   1.669  15.597  1.00  0.00     0.064 A 
ATOM     82  C   UNL     1     -17.099   2.600  14.822  1.00  0.00     0.173 A 
ATOM     83  C   UNL     1     -16.950   1.278  16.824  1.00  0.00     0.173 A 
ATOM     84  F   UNL     1     -16.602   3.018  13.648  1.00  0.00    -0.203 F 
ATOM     85  C   UNL     1     -18.301   3.140  15.272  1.00  0.00     0.198 A 
ATOM     86  C   UNL     1     -18.170   1.792  17.254  1.00  0.00     0.198 A 
ATOM     87  F   UNL     1     -16.319   0.385  17.601  1.00  0.00    -0.203 F 
ATOM     88  F   UNL     1     -18.931   4.069  14.540  1.00  0.00    -0.200 F 
ATOM     89  C   UNL     1     -18.839   2.729  16.483  1.00  0.00     0.200 A 
ATOM     90  F   UNL     1     -18.697   1.381  18.415  1.00  0.00    -0.200 F 
ATOM     91  F   UNL     1     -20.001   3.244  16.910  1.00  0.00    -0.200 F 
ENDBRANCH  58  81
ENDBRANCH  32  33
ENDBRANCH  24  27
ENDBRANCH  22  23
ENDBRANCH  21  22
ENDBRANCH   1  21
TORSDOF 14
