REMARK SMILES O=C(NCCCNC(=O)[C@H]1[C@H]2CC[C@H](CC2)[C@@H]1C(=O)Nc1sc2c(c1C(=O)N1CCCCC1)CCCC2)c1ccc(-c2c3nc(c(-c4c(F)c(F)c(F)c(F)c4F)c4ccc([nH]4)c(-c4c(F)c(F)c(F)c(F)c4F)c4nc(c(-c5c(F)c(F)c(F)c(F)c5F)c5ccc2[nH]5)C=C4)C=C3)cc1
REMARK SMILES IDX 5 1 4 2 3 3 1 4 2 5 38 7 39 8 100 9 40 10 99 11 41 12 42 13
REMARK SMILES IDX 43 14 93 15 44 16 98 17 92 18 94 19 45 20 97 21 91 22 90 23
REMARK SMILES IDX 46 25 78 26 58 27 77 28 59 29 62 30 76 31 95 32 60 33 61 34
REMARK SMILES IDX 75 36 96 37 63 38 47 39 48 40 56 41 49 42 50 43 54 44 57 45
REMARK SMILES IDX 51 46 52 47 55 48 53 49 79 50 80 51 88 52 81 53 82 54 86 55
REMARK SMILES IDX 89 56 83 57 84 58 87 59 85 60 64 61 65 62 73 63 66 64 67 65
REMARK SMILES IDX 71 66 74 67 68 68 69 69 72 70 70 71 6 72 7 73 8 74 9 76
REMARK SMILES IDX 10 77 11 78 17 79 12 80 16 81 14 82 13 83 15 84 18 85 19 86
REMARK SMILES IDX 20 87 21 89 22 90 25 91 23 92 24 93 37 94 34 95 36 96 35 97
REMARK SMILES IDX 26 98 27 99 28 100 29 101 33 102 30 103 32 104 31 105
REMARK H PARENT 3 6 94 24 62 35 7 75 20 88
REMARK Flexibility Score: inf
ROOT
ATOM      1  C   UNL     1       4.167   0.302   2.407  1.00  0.00     0.042 C 
ENDROOT
BRANCH   1   2
ATOM      2  C   UNL     1       4.078  -0.769   1.329  1.00  0.00     0.118 C 
BRANCH   2   3
ATOM      3  N   UNL     1       2.708  -0.905   0.853  1.00  0.00    -0.352 N 
ATOM      4  O   UNL     1       0.882  -0.279  -0.300  1.00  0.00    -0.269 OA
ATOM      5  C   UNL     1       2.109  -0.358  -0.254  1.00  0.00     0.251 C 
ATOM      6  H   UNL     1       2.125  -1.473   1.408  1.00  0.00     0.163 HD
BRANCH   5   7
ATOM      7  C   UNL     1       2.917   0.123  -1.397  1.00  0.00     0.039 A 
ATOM      8  C   UNL     1       4.069  -0.557  -1.795  1.00  0.00     0.014 A 
ATOM      9  C   UNL     1       2.457   1.207  -2.154  1.00  0.00     0.014 A 
ATOM     10  C   UNL     1       4.820  -0.095  -2.869  1.00  0.00     0.010 A 
ATOM     11  C   UNL     1       3.155   1.609  -3.298  1.00  0.00     0.010 A 
ATOM     12  C   UNL     1       4.345   0.961  -3.661  1.00  0.00    -0.014 A 
BRANCH  12  13
ATOM     13  C   UNL     1       5.044   1.273  -4.933  1.00  0.00     0.031 A 
ATOM     14  C   UNL     1       5.706   2.598  -5.157  1.00  0.00     0.074 A 
ATOM     15  C   UNL     1       5.075   0.324  -5.889  1.00  0.00     0.049 A 
ATOM     16  N   UNL     1       6.356   3.025  -6.211  1.00  0.00    -0.248 NA
ATOM     17  C   UNL     1       5.619   3.579  -4.066  1.00  0.00     0.031 C 
ATOM     18  C   UNL     1       4.435  -0.991  -5.787  1.00  0.00     0.029 A 
ATOM     19  N   UNL     1       5.672   0.304  -7.122  1.00  0.00    -0.354 N 
ATOM     20  C   UNL     1       6.735   4.328  -5.921  1.00  0.00     0.074 A 
ATOM     21  C   UNL     1       6.225   4.631  -4.600  1.00  0.00     0.031 C 
ATOM     22  C   UNL     1       4.709  -1.703  -6.888  1.00  0.00     0.029 A 
ATOM     23  C   UNL     1       5.484  -0.874  -7.803  1.00  0.00     0.049 A 
ATOM     24  H   UNL     1       6.186   1.061  -7.486  1.00  0.00     0.167 HD
ATOM     25  C   UNL     1       7.447   5.186  -6.691  1.00  0.00     0.037 A 
ATOM     26  C   UNL     1       5.868  -1.241  -9.038  1.00  0.00     0.037 A 
ATOM     27  C   UNL     1       7.960   4.865  -7.999  1.00  0.00     0.049 A 
ATOM     28  C   UNL     1       6.655  -0.271  -9.868  1.00  0.00     0.074 A 
ATOM     29  C   UNL     1       8.737   5.645  -8.838  1.00  0.00     0.029 A 
ATOM     30  N   UNL     1       7.740   3.664  -8.662  1.00  0.00    -0.354 N 
ATOM     31  N   UNL     1       7.047   0.942  -9.565  1.00  0.00    -0.248 NA
ATOM     32  C   UNL     1       7.050  -0.716 -11.210  1.00  0.00     0.031 C 
ATOM     33  C   UNL     1       8.947   4.935 -10.026  1.00  0.00     0.029 A 
ATOM     34  C   UNL     1       8.343   3.693  -9.910  1.00  0.00     0.049 A 
ATOM     35  H   UNL     1       7.231   2.904  -8.299  1.00  0.00     0.167 HD
ATOM     36  C   UNL     1       7.737   1.407 -10.673  1.00  0.00     0.074 A 
ATOM     37  C   UNL     1       7.732   0.333 -11.647  1.00  0.00     0.031 C 
ATOM     38  C   UNL     1       8.316   2.617 -10.868  1.00  0.00     0.037 A 
BRANCH  25  39
ATOM     39  C   UNL     1       7.689   6.566  -6.151  1.00  0.00     0.064 A 
ATOM     40  C   UNL     1       8.571   6.799  -5.085  1.00  0.00     0.173 A 
ATOM     41  C   UNL     1       7.051   7.675  -6.727  1.00  0.00     0.173 A 
ATOM     42  F   UNL     1       9.199   5.773  -4.491  1.00  0.00    -0.203 F 
ATOM     43  C   UNL     1       8.782   8.087  -4.597  1.00  0.00     0.198 A 
ATOM     44  C   UNL     1       7.285   8.964  -6.255  1.00  0.00     0.198 A 
ATOM     45  F   UNL     1       6.203   7.510  -7.753  1.00  0.00    -0.203 F 
ATOM     46  F   UNL     1       9.592   8.280  -3.546  1.00  0.00    -0.200 F 
ATOM     47  C   UNL     1       8.143   9.168  -5.185  1.00  0.00     0.200 A 
ATOM     48  F   UNL     1       6.675  10.009  -6.832  1.00  0.00    -0.200 F 
ATOM     49  F   UNL     1       8.348  10.407  -4.716  1.00  0.00    -0.200 F 
ENDBRANCH  25  39
BRANCH  26  50
ATOM     50  C   UNL     1       5.492  -2.583  -9.549  1.00  0.00     0.064 A 
ATOM     51  C   UNL     1       6.451  -3.590  -9.719  1.00  0.00     0.173 A 
ATOM     52  C   UNL     1       4.154  -2.901  -9.828  1.00  0.00     0.173 A 
ATOM     53  F   UNL     1       7.744  -3.330  -9.480  1.00  0.00    -0.203 F 
ATOM     54  C   UNL     1       6.086  -4.863 -10.152  1.00  0.00     0.198 A 
ATOM     55  C   UNL     1       3.786  -4.181 -10.233  1.00  0.00     0.198 A 
ATOM     56  F   UNL     1       3.197  -1.974  -9.672  1.00  0.00    -0.203 F 
ATOM     57  F   UNL     1       7.025  -5.802 -10.332  1.00  0.00    -0.200 F 
ATOM     58  C   UNL     1       4.753  -5.161 -10.399  1.00  0.00     0.200 A 
ATOM     59  F   UNL     1       2.495  -4.469 -10.449  1.00  0.00    -0.200 F 
ATOM     60  F   UNL     1       4.401  -6.391 -10.796  1.00  0.00    -0.200 F 
ENDBRANCH  26  50
BRANCH  38  61
ATOM     61  C   UNL     1       9.001   2.834 -12.184  1.00  0.00     0.064 A 
ATOM     62  C   UNL     1       8.270   3.026 -13.366  1.00  0.00     0.173 A 
ATOM     63  C   UNL     1      10.401   2.883 -12.258  1.00  0.00     0.173 A 
ATOM     64  F   UNL     1       6.930   2.968 -13.347  1.00  0.00    -0.203 F 
ATOM     65  C   UNL     1       8.918   3.238 -14.579  1.00  0.00     0.198 A 
ATOM     66  C   UNL     1      11.044   3.122 -13.469  1.00  0.00     0.198 A 
ATOM     67  F   UNL     1      11.143   2.708 -11.155  1.00  0.00    -0.203 F 
ATOM     68  F   UNL     1       8.202   3.374 -15.704  1.00  0.00    -0.200 F 
ATOM     69  C   UNL     1      10.303   3.292 -14.629  1.00  0.00     0.200 A 
ATOM     70  F   UNL     1      12.382   3.184 -13.513  1.00  0.00    -0.200 F 
ATOM     71  F   UNL     1      10.925   3.502 -15.797  1.00  0.00    -0.200 F 
ENDBRANCH  38  61
ENDBRANCH  12  13
ENDBRANCH   5   7
ENDBRANCH   2   3
ENDBRANCH   1   2
BRANCH   1  72
ATOM     72  C   UNL     1       3.735  -0.226   3.772  1.00  0.00     0.117 C 
BRANCH  72  73
ATOM     73  N   UNL     1       4.824  -0.919   4.409  1.00  0.00    -0.356 N 
ATOM     74  C   UNL     1       5.888  -0.493   5.117  1.00  0.00     0.224 C 
ATOM     75  H   UNL     1       4.784  -1.897   4.306  1.00  0.00     0.163 HD
ATOM     76  O   UNL     1       6.718  -1.383   5.355  1.00  0.00    -0.275 OA
BRANCH  74  77
ATOM     77  C   UNL     1       6.104   0.912   5.707  1.00  0.00     0.094 C 
ATOM     78  C   UNL     1       6.047   2.224   4.864  1.00  0.00     0.002 C 
ATOM     79  C   UNL     1       5.399   1.086   7.062  1.00  0.00     0.094 C 
ATOM     80  C   UNL     1       4.649   2.826   4.673  1.00  0.00     0.005 C 
ATOM     81  C   UNL     1       6.772   3.329   5.689  1.00  0.00     0.005 C 
ATOM     82  C   UNL     1       4.870   2.552   7.162  1.00  0.00     0.002 C 
ATOM     83  C   UNL     1       3.895   2.830   6.001  1.00  0.00     0.005 C 
ATOM     84  C   UNL     1       6.057   3.526   7.040  1.00  0.00     0.005 C 
BRANCH  79  85
ATOM     85  C   UNL     1       6.043   0.689   8.431  1.00  0.00     0.229 C 
ATOM     86  O   UNL     1       5.341   0.864   9.444  1.00  0.00    -0.274 OA
ATOM     87  N   UNL     1       7.197  -0.001   8.644  1.00  0.00    -0.317 N 
ATOM     88  H   UNL     1       7.224  -0.483   9.502  1.00  0.00     0.170 HD
BRANCH  87  89
ATOM     89  C   UNL     1       8.331  -0.149   7.883  1.00  0.00     0.108 A 
ATOM     90  S   UNL     1       9.136   1.242   7.321  1.00  0.00    -0.122 S 
ATOM     91  C   UNL     1       9.119  -1.282   7.675  1.00  0.00     0.078 A 
ATOM     92  C   UNL     1       9.823   0.297   6.088  1.00  0.00     0.011 A 
ATOM     93  C   UNL     1       9.926  -1.028   6.482  1.00  0.00    -0.019 A 
ATOM     94  C   UNL     1      10.205   0.852   4.753  1.00  0.00     0.047 C 
ATOM     95  C   UNL     1      10.628  -2.019   5.601  1.00  0.00     0.037 C 
ATOM     96  C   UNL     1      10.332  -0.298   3.741  1.00  0.00     0.006 C 
ATOM     97  C   UNL     1      11.207  -1.412   4.312  1.00  0.00     0.005 C 
BRANCH  91  98
ATOM     98  C   UNL     1       8.837  -2.530   8.405  1.00  0.00     0.257 C 
ATOM     99  O   UNL     1       7.901  -2.589   9.212  1.00  0.00    -0.269 OA
ATOM    100  N   UNL     1       9.592  -3.668   8.136  1.00  0.00    -0.339 N 
ATOM    101  C   UNL     1       8.905  -4.945   8.247  1.00  0.00     0.120 C 
ATOM    102  C   UNL     1      11.030  -3.729   8.379  1.00  0.00     0.120 C 
ATOM    103  C   UNL     1       9.477  -5.922   7.231  1.00  0.00     0.022 C 
ATOM    104  C   UNL     1      11.716  -4.772   7.488  1.00  0.00     0.022 C 
ATOM    105  C   UNL     1      10.976  -6.110   7.451  1.00  0.00     0.004 C 
ENDBRANCH  91  98
ENDBRANCH  87  89
ENDBRANCH  79  85
ENDBRANCH  74  77
ENDBRANCH  72  73
ENDBRANCH   1  72
TORSDOF 13
