REMARK SMILES Cc1cc(C(=O)NCCCNC(=O)c2ccc(-c3c4nc(c(-c5c(F)c(F)c(F)c(F)c5F)c5ccc([nH]5)c(-c5c(F)c(F)c(F)c(F)c5F)c5nc(c(-c6c(F)c(F)c(F)c(F)c6F)c6ccc3[nH]6)C=C5)C=C4)cc2)cc(S(=O)(=O)NNC(=O)c2c[nH]c3ccccc23)c1C
REMARK SMILES IDX 8 1 7 2 5 3 6 4 4 6 1 7 2 8 3 9 95 10 78 11 96 12 77 13
REMARK SMILES IDX 79 14 80 15 81 16 82 17 83 19 84 20 85 22 86 23 87 24 94 25
REMARK SMILES IDX 88 26 89 27 93 28 90 30 92 31 91 32 9 33 10 34 11 35 12 36
REMARK SMILES IDX 13 38 14 39 15 40 76 41 16 42 75 43 17 44 18 45 19 46 69 47
REMARK SMILES IDX 20 48 74 49 68 50 70 51 21 52 73 53 67 54 66 55 22 57 54 58
REMARK SMILES IDX 34 59 53 60 35 61 38 62 52 63 71 64 36 65 37 66 51 68 72 69
REMARK SMILES IDX 39 70 23 71 24 72 32 73 25 74 26 75 30 76 33 77 27 78 28 79
REMARK SMILES IDX 31 80 29 81 55 82 56 83 64 84 57 85 58 86 62 87 65 88 59 89
REMARK SMILES IDX 60 90 63 91 61 92 40 93 41 94 49 95 42 96 43 97 47 98 50 99
REMARK SMILES IDX 44 100 45 101 48 102 46 103
REMARK H PARENT 7 5 82 18 83 21 88 29 11 37 70 56 38 67
REMARK Flexibility Score: inf
ROOT
ATOM      1  C   UNL     1      -2.353   3.471   0.679  1.00  0.00     0.118 C 
ENDROOT
BRANCH   1   2
ATOM      2  N   UNL     1      -3.297   2.466   0.216  1.00  0.00    -0.352 N 
ATOM      3  C   UNL     1      -3.182   1.148  -0.150  1.00  0.00     0.251 C 
ATOM      4  O   UNL     1      -4.221   0.560  -0.456  1.00  0.00    -0.269 OA
ATOM      5  H   UNL     1      -4.219   2.804   0.150  1.00  0.00     0.163 HD
BRANCH   3   6
ATOM      6  C   UNL     1      -1.903   0.377  -0.180  1.00  0.00     0.041 A 
ATOM      7  C   UNL     1       1.861   0.907  -0.217  1.00  0.00     0.044 C 
ATOM      8  C   UNL     1       0.538   0.185  -0.230  1.00  0.00    -0.046 A 
ATOM      9  C   UNL     1      -0.637   0.957  -0.257  1.00  0.00     0.017 A 
ATOM     10  C   UNL     1       0.446  -1.222  -0.226  1.00  0.00    -0.028 A 
ATOM     11  C   UNL     1      -0.842  -1.815  -0.275  1.00  0.00     0.088 A 
ATOM     12  C   UNL     1       1.692  -2.076  -0.183  1.00  0.00     0.046 C 
ATOM     13  C   UNL     1      -1.996  -1.026  -0.206  1.00  0.00     0.036 A 
BRANCH  11  14
ATOM     14  S   UNL     1      -0.964  -3.564  -0.603  1.00  0.00     0.257 S 
ATOM     15  O   UNL     1      -0.449  -3.750  -1.960  1.00  0.00    -0.205 OA
ATOM     16  O   UNL     1      -0.394  -4.260   0.513  1.00  0.00    -0.205 OA
BRANCH  14  17
ATOM     17  N   UNL     1      -2.607  -4.012  -0.610  1.00  0.00    -0.123 NA
ATOM     18  H   UNL     1      -3.046  -3.525   0.171  1.00  0.00     0.167 HD
BRANCH  17  19
ATOM     19  N   UNL     1      -3.446  -3.755  -1.790  1.00  0.00    -0.273 N 
ATOM     20  C   UNL     1      -4.386  -4.692  -2.199  1.00  0.00     0.268 C 
ATOM     21  H   UNL     1      -3.341  -2.915  -2.292  1.00  0.00     0.186 HD
ATOM     22  O   UNL     1      -5.590  -4.492  -2.061  1.00  0.00    -0.268 OA
BRANCH  20  23
ATOM     23  C   UNL     1      -3.845  -5.719  -3.090  1.00  0.00     0.066 A 
ATOM     24  C   UNL     1      -2.509  -5.895  -3.410  1.00  0.00     0.097 A 
ATOM     25  C   UNL     1      -4.558  -6.598  -3.971  1.00  0.00     0.012 A 
ATOM     26  N   UNL     1      -2.474  -6.342  -4.702  1.00  0.00    -0.360 N 
ATOM     27  C   UNL     1      -3.719  -6.779  -5.074  1.00  0.00     0.046 A 
ATOM     28  C   UNL     1      -5.859  -7.139  -4.032  1.00  0.00     0.011 A 
ATOM     29  H   UNL     1      -1.675  -6.349  -5.278  1.00  0.00     0.166 HD
ATOM     30  C   UNL     1      -4.166  -7.292  -6.293  1.00  0.00     0.027 A 
ATOM     31  C   UNL     1      -6.276  -7.788  -5.203  1.00  0.00     0.001 A 
ATOM     32  C   UNL     1      -5.462  -7.807  -6.334  1.00  0.00     0.002 A 
ENDBRANCH  20  23
ENDBRANCH  17  19
ENDBRANCH  14  17
ENDBRANCH  11  14
ENDBRANCH   3   6
ENDBRANCH   1   2
BRANCH   1  33
ATOM     33  C   UNL     1      -1.904   4.391  -0.461  1.00  0.00     0.042 C 
BRANCH  33  34
ATOM     34  C   UNL     1      -2.940   5.452  -0.837  1.00  0.00     0.118 C 
BRANCH  34  35
ATOM     35  N   UNL     1      -3.067   6.483   0.184  1.00  0.00    -0.352 N 
ATOM     36  C   UNL     1      -3.007   7.851   0.084  1.00  0.00     0.251 C 
ATOM     37  H   UNL     1      -3.220   6.144   1.095  1.00  0.00     0.163 HD
ATOM     38  O   UNL     1      -2.951   8.524   1.110  1.00  0.00    -0.269 OA
BRANCH  36  39
ATOM     39  C   UNL     1      -2.994   8.530  -1.232  1.00  0.00     0.039 A 
ATOM     40  C   UNL     1      -2.182   9.659  -1.393  1.00  0.00     0.014 A 
ATOM     41  C   UNL     1      -3.816   8.114  -2.282  1.00  0.00     0.014 A 
ATOM     42  C   UNL     1      -2.154  10.336  -2.615  1.00  0.00     0.010 A 
ATOM     43  C   UNL     1      -3.745   8.754  -3.520  1.00  0.00     0.010 A 
ATOM     44  C   UNL     1      -2.915   9.872  -3.699  1.00  0.00    -0.014 A 
BRANCH  44  45
ATOM     45  C   UNL     1      -2.853  10.540  -5.025  1.00  0.00     0.031 A 
ATOM     46  C   UNL     1      -4.065  11.230  -5.588  1.00  0.00     0.074 A 
ATOM     47  C   UNL     1      -1.722  10.467  -5.754  1.00  0.00     0.049 A 
ATOM     48  N   UNL     1      -4.232  11.787  -6.761  1.00  0.00    -0.248 NA
ATOM     49  C   UNL     1      -5.255  11.278  -4.725  1.00  0.00     0.031 C 
ATOM     50  C   UNL     1      -0.491   9.797  -5.336  1.00  0.00     0.029 A 
ATOM     51  N   UNL     1      -1.430  10.949  -7.006  1.00  0.00    -0.354 N 
ATOM     52  C   UNL     1      -5.547  12.234  -6.784  1.00  0.00     0.074 A 
ATOM     53  C   UNL     1      -6.146  11.846  -5.525  1.00  0.00     0.031 C 
ATOM     54  C   UNL     1       0.428   9.919  -6.307  1.00  0.00     0.029 A 
ATOM     55  C   UNL     1      -0.160  10.643  -7.430  1.00  0.00     0.049 A 
ATOM     56  H   UNL     1      -2.070  11.465  -7.548  1.00  0.00     0.167 HD
ATOM     57  C   UNL     1      -6.190  12.920  -7.760  1.00  0.00     0.037 A 
ATOM     58  C   UNL     1       0.458  10.906  -8.598  1.00  0.00     0.037 A 
ATOM     59  C   UNL     1      -5.584  13.328  -9.001  1.00  0.00     0.049 A 
ATOM     60  C   UNL     1      -0.279  11.668  -9.665  1.00  0.00     0.074 A 
ATOM     61  C   UNL     1      -6.135  14.076 -10.027  1.00  0.00     0.029 A 
ATOM     62  N   UNL     1      -4.287  13.019  -9.384  1.00  0.00    -0.354 N 
ATOM     63  N   UNL     1      -1.504  12.136  -9.652  1.00  0.00    -0.248 NA
ATOM     64  C   UNL     1       0.454  11.943 -10.909  1.00  0.00     0.031 C 
ATOM     65  C   UNL     1      -5.186  14.185 -11.049  1.00  0.00     0.029 A 
ATOM     66  C   UNL     1      -4.027  13.546 -10.640  1.00  0.00     0.049 A 
ATOM     67  H   UNL     1      -3.646  12.502  -8.845  1.00  0.00     0.167 HD
ATOM     68  C   UNL     1      -1.678  12.783 -10.867  1.00  0.00     0.074 A 
ATOM     69  C   UNL     1      -0.429  12.659 -11.590  1.00  0.00     0.031 C 
ATOM     70  C   UNL     1      -2.775  13.423 -11.342  1.00  0.00     0.037 A 
BRANCH  57  71
ATOM     71  C   UNL     1      -7.630  13.276  -7.526  1.00  0.00     0.064 A 
ATOM     72  C   UNL     1      -8.005  14.244  -6.582  1.00  0.00     0.173 A 
ATOM     73  C   UNL     1      -8.646  12.671  -8.282  1.00  0.00     0.173 A 
ATOM     74  F   UNL     1      -7.073  14.846  -5.826  1.00  0.00    -0.203 F 
ATOM     75  C   UNL     1      -9.344  14.572  -6.383  1.00  0.00     0.198 A 
ATOM     76  C   UNL     1      -9.982  13.023  -8.101  1.00  0.00     0.198 A 
ATOM     77  F   UNL     1      -8.343  11.745  -9.203  1.00  0.00    -0.203 F 
ATOM     78  F   UNL     1      -9.680  15.465  -5.442  1.00  0.00    -0.200 F 
ATOM     79  C   UNL     1     -10.330  13.966  -7.146  1.00  0.00     0.200 A 
ATOM     80  F   UNL     1     -10.932  12.446  -8.849  1.00  0.00    -0.200 F 
ATOM     81  F   UNL     1     -11.617  14.288  -6.958  1.00  0.00    -0.200 F 
ENDBRANCH  57  71
BRANCH  58  82
ATOM     82  C   UNL     1       1.860  10.463  -8.810  1.00  0.00     0.064 A 
ATOM     83  C   UNL     1       2.907  11.394  -8.865  1.00  0.00     0.173 A 
ATOM     84  C   UNL     1       2.183   9.107  -8.961  1.00  0.00     0.173 A 
ATOM     85  F   UNL     1       2.644  12.704  -8.746  1.00  0.00    -0.203 F 
ATOM     86  C   UNL     1       4.221  10.987  -9.081  1.00  0.00     0.198 A 
ATOM     87  C   UNL     1       3.502   8.699  -9.150  1.00  0.00     0.198 A 
ATOM     88  F   UNL     1       1.219   8.177  -8.911  1.00  0.00    -0.203 F 
ATOM     89  F   UNL     1       5.197  11.902  -9.172  1.00  0.00    -0.200 F 
ATOM     90  C   UNL     1       4.519   9.640  -9.218  1.00  0.00     0.200 A 
ATOM     91  F   UNL     1       3.788   7.395  -9.267  1.00  0.00    -0.200 F 
ATOM     92  F   UNL     1       5.784   9.248  -9.420  1.00  0.00    -0.200 F 
ENDBRANCH  58  82
BRANCH  70  93
ATOM     93  C   UNL     1      -2.663  14.071 -12.691  1.00  0.00     0.064 A 
ATOM     94  C   UNL     1      -2.624  13.314 -13.870  1.00  0.00     0.173 A 
ATOM     95  C   UNL     1      -2.633  15.469 -12.804  1.00  0.00     0.173 A 
ATOM     96  F   UNL     1      -2.634  11.974 -13.813  1.00  0.00    -0.203 F 
ATOM     97  C   UNL     1      -2.537  13.933 -15.114  1.00  0.00     0.198 A 
ATOM     98  C   UNL     1      -2.574  16.085 -14.051  1.00  0.00     0.198 A 
ATOM     99  F   UNL     1      -2.673  16.238 -11.706  1.00  0.00    -0.203 F 
ATOM    100  F   UNL     1      -2.455  13.190 -16.226  1.00  0.00    -0.200 F 
ATOM    101  C   UNL     1      -2.519  15.317 -15.204  1.00  0.00     0.200 A 
ATOM    102  F   UNL     1      -2.569  17.423 -14.136  1.00  0.00    -0.200 F 
ATOM    103  F   UNL     1      -2.441  15.911 -16.403  1.00  0.00    -0.200 F 
ENDBRANCH  70  93
ENDBRANCH  44  45
ENDBRANCH  36  39
ENDBRANCH  34  35
ENDBRANCH  33  34
ENDBRANCH   1  33
TORSDOF 14
