REMARK SMILES O=C(NCCCNC(=O)[C@H](Cc1cccc(Br)c1)CC1CCC1)c1ccc(-c2c3nc(c(-c4c(F)c(F)c(F)c(F)c4F)c4ccc([nH]4)c(-c4c(F)c(F)c(F)c(F)c4F)c4nc(c(-c5c(F)c(F)c(F)c(F)c5F)c5ccc2[nH]5)C=C4)C=C3)cc1
REMARK SMILES IDX 5 1 4 2 3 3 1 4 2 5 24 7 25 8 86 9 26 10 85 11 27 12 28 13
REMARK SMILES IDX 29 14 79 15 30 16 84 17 78 18 80 19 31 20 83 21 77 22 76 23
REMARK SMILES IDX 32 25 64 26 44 27 63 28 45 29 48 30 62 31 81 32 46 33 47 34
REMARK SMILES IDX 61 36 82 37 49 38 33 39 34 40 42 41 35 42 36 43 40 44 43 45
REMARK SMILES IDX 37 46 38 47 41 48 39 49 65 50 66 51 74 52 67 53 68 54 72 55
REMARK SMILES IDX 75 56 69 57 70 58 73 59 71 60 50 61 51 62 59 63 52 64 53 65
REMARK SMILES IDX 57 66 60 67 54 68 55 69 58 70 56 71 6 72 7 73 8 74 9 76
REMARK SMILES IDX 10 77 19 78 20 79 21 80 23 81 22 82 11 83 12 84 13 85 18 86
REMARK SMILES IDX 14 87 16 88 15 89 17 90
REMARK H PARENT 3 6 80 24 48 35 7 75
REMARK Flexibility Score: inf
ROOT
ATOM      1  C   UNL     1       4.165  -4.008   0.273  1.00  0.00     0.042 C 
ENDROOT
BRANCH   1   2
ATOM      2  C   UNL     1       4.739  -3.880   1.675  1.00  0.00     0.118 C 
BRANCH   2   3
ATOM      3  N   UNL     1       4.682  -2.516   2.186  1.00  0.00    -0.352 N 
ATOM      4  O   UNL     1       3.862  -0.716   3.257  1.00  0.00    -0.269 OA
ATOM      5  C   UNL     1       3.857  -1.937   3.121  1.00  0.00     0.251 C 
ATOM      6  H   UNL     1       5.347  -1.905   1.794  1.00  0.00     0.163 HD
BRANCH   5   7
ATOM      7  C   UNL     1       2.943  -2.760   3.945  1.00  0.00     0.039 A 
ATOM      8  C   UNL     1       3.344  -3.996   4.451  1.00  0.00     0.014 A 
ATOM      9  C   UNL     1       1.666  -2.274   4.245  1.00  0.00     0.014 A 
ATOM     10  C   UNL     1       2.417  -4.825   5.071  1.00  0.00     0.010 A 
ATOM     11  C   UNL     1       0.770  -3.062   4.976  1.00  0.00     0.010 A 
ATOM     12  C   UNL     1       1.120  -4.367   5.352  1.00  0.00    -0.014 A 
BRANCH  12  13
ATOM     13  C   UNL     1       0.176  -5.267   6.067  1.00  0.00     0.031 A 
ATOM     14  C   UNL     1      -1.105  -5.724   5.422  1.00  0.00     0.074 A 
ATOM     15  C   UNL     1       0.511  -5.720   7.292  1.00  0.00     0.049 A 
ATOM     16  N   UNL     1      -2.009  -6.556   5.880  1.00  0.00    -0.248 NA
ATOM     17  C   UNL     1      -1.422  -5.171   4.097  1.00  0.00     0.031 C 
ATOM     18  C   UNL     1       1.718  -5.337   8.028  1.00  0.00     0.029 A 
ATOM     19  N   UNL     1      -0.109  -6.620   8.120  1.00  0.00    -0.354 N 
ATOM     20  C   UNL     1      -3.008  -6.604   4.916  1.00  0.00     0.074 A 
ATOM     21  C   UNL     1      -2.615  -5.698   3.859  1.00  0.00     0.031 C 
ATOM     22  C   UNL     1       1.784  -6.045   9.164  1.00  0.00     0.029 A 
ATOM     23  C   UNL     1       0.595  -6.882   9.270  1.00  0.00     0.049 A 
ATOM     24  H   UNL     1      -0.976  -7.039   7.910  1.00  0.00     0.167 HD
ATOM     25  C   UNL     1      -4.144  -7.343   4.912  1.00  0.00     0.037 A 
ATOM     26  C   UNL     1       0.313  -7.700  10.300  1.00  0.00     0.037 A 
ATOM     27  C   UNL     1      -4.518  -8.266   5.954  1.00  0.00     0.049 A 
ATOM     28  C   UNL     1      -0.954  -8.505  10.267  1.00  0.00     0.074 A 
ATOM     29  C   UNL     1      -5.626  -9.092   6.019  1.00  0.00     0.029 A 
ATOM     30  N   UNL     1      -3.791  -8.482   7.116  1.00  0.00    -0.354 N 
ATOM     31  N   UNL     1      -1.868  -8.570   9.331  1.00  0.00    -0.248 NA
ATOM     32  C   UNL     1      -1.227  -9.350  11.436  1.00  0.00     0.031 C 
ATOM     33  C   UNL     1      -5.596  -9.773   7.241  1.00  0.00     0.029 A 
ATOM     34  C   UNL     1      -4.440  -9.413   7.914  1.00  0.00     0.049 A 
ATOM     35  H   UNL     1      -2.941  -8.040   7.341  1.00  0.00     0.167 HD
ATOM     36  C   UNL     1      -2.812  -9.480   9.784  1.00  0.00     0.074 A 
ATOM     37  C   UNL     1      -2.348  -9.956  11.072  1.00  0.00     0.031 C 
ATOM     38  C   UNL     1      -3.961  -9.884   9.189  1.00  0.00     0.037 A 
BRANCH  25  39
ATOM     39  C   UNL     1      -5.083  -7.174   3.751  1.00  0.00     0.064 A 
ATOM     40  C   UNL     1      -4.773  -7.651   2.469  1.00  0.00     0.173 A 
ATOM     41  C   UNL     1      -6.333  -6.562   3.936  1.00  0.00     0.173 A 
ATOM     42  F   UNL     1      -3.588  -8.234   2.234  1.00  0.00    -0.203 F 
ATOM     43  C   UNL     1      -5.667  -7.499   1.411  1.00  0.00     0.198 A 
ATOM     44  C   UNL     1      -7.237  -6.438   2.883  1.00  0.00     0.198 A 
ATOM     45  F   UNL     1      -6.685  -6.093   5.142  1.00  0.00    -0.203 F 
ATOM     46  F   UNL     1      -5.329  -7.922   0.184  1.00  0.00    -0.200 F 
ATOM     47  C   UNL     1      -6.900  -6.900   1.620  1.00  0.00     0.200 A 
ATOM     48  F   UNL     1      -8.433  -5.870   3.090  1.00  0.00    -0.200 F 
ATOM     49  F   UNL     1      -7.761  -6.761   0.602  1.00  0.00    -0.200 F 
ENDBRANCH  25  39
BRANCH  26  50
ATOM     50  C   UNL     1       1.258  -7.803  11.442  1.00  0.00     0.064 A 
ATOM     51  C   UNL     1       1.977  -8.983  11.679  1.00  0.00     0.173 A 
ATOM     52  C   UNL     1       1.468  -6.726  12.315  1.00  0.00     0.173 A 
ATOM     53  F   UNL     1       1.798 -10.048  10.882  1.00  0.00    -0.203 F 
ATOM     54  C   UNL     1       2.856  -9.087  12.755  1.00  0.00     0.198 A 
ATOM     55  C   UNL     1       2.370  -6.819  13.371  1.00  0.00     0.198 A 
ATOM     56  F   UNL     1       0.809  -5.572  12.128  1.00  0.00    -0.203 F 
ATOM     57  F   UNL     1       3.497 -10.241  12.985  1.00  0.00    -0.200 F 
ATOM     58  C   UNL     1       3.057  -8.002  13.596  1.00  0.00     0.200 A 
ATOM     59  F   UNL     1       2.574  -5.763  14.170  1.00  0.00    -0.200 F 
ATOM     60  F   UNL     1       3.907  -8.100  14.627  1.00  0.00    -0.200 F 
ENDBRANCH  26  50
BRANCH  38  61
ATOM     61  C   UNL     1      -4.771 -10.924   9.906  1.00  0.00     0.064 A 
ATOM     62  C   UNL     1      -5.478 -10.630  11.082  1.00  0.00     0.173 A 
ATOM     63  C   UNL     1      -4.852 -12.230   9.400  1.00  0.00     0.173 A 
ATOM     64  F   UNL     1      -5.419  -9.400  11.615  1.00  0.00    -0.203 F 
ATOM     65  C   UNL     1      -6.207 -11.614  11.743  1.00  0.00     0.198 A 
ATOM     66  C   UNL     1      -5.608 -13.203  10.046  1.00  0.00     0.198 A 
ATOM     67  F   UNL     1      -4.200 -12.562   8.275  1.00  0.00    -0.203 F 
ATOM     68  F   UNL     1      -6.826 -11.326  12.896  1.00  0.00    -0.200 F 
ATOM     69  C   UNL     1      -6.277 -12.898  11.222  1.00  0.00     0.200 A 
ATOM     70  F   UNL     1      -5.685 -14.440   9.534  1.00  0.00    -0.200 F 
ATOM     71  F   UNL     1      -6.980 -13.844  11.860  1.00  0.00    -0.200 F 
ENDBRANCH  38  61
ENDBRANCH  12  13
ENDBRANCH   5   7
ENDBRANCH   2   3
ENDBRANCH   1   2
BRANCH   1  72
ATOM     72  C   UNL     1       5.023  -3.358  -0.803  1.00  0.00     0.117 C 
BRANCH  72  73
ATOM     73  N   UNL     1       6.318  -4.002  -0.962  1.00  0.00    -0.356 N 
ATOM     74  C   UNL     1       6.845  -4.737  -1.982  1.00  0.00     0.223 C 
ATOM     75  H   UNL     1       6.923  -3.886  -0.194  1.00  0.00     0.163 HD
ATOM     76  O   UNL     1       8.000  -5.146  -1.845  1.00  0.00    -0.275 OA
BRANCH  74  77
ATOM     77  C   UNL     1       6.037  -5.085  -3.234  1.00  0.00     0.083 C 
BRANCH  77  78
ATOM     78  C   UNL     1       4.974  -6.133  -2.838  1.00  0.00     0.017 C 
BRANCH  78  79
ATOM     79  C   UNL     1       3.998  -6.478  -3.950  1.00  0.00    -0.010 C 
ATOM     80  C   UNL     1       3.184  -7.798  -3.803  1.00  0.00     0.003 C 
ATOM     81  C   UNL     1       2.608  -5.766  -3.882  1.00  0.00     0.003 C 
ATOM     82  C   UNL     1       2.022  -7.051  -4.497  1.00  0.00     0.001 C 
ENDBRANCH  78  79
ENDBRANCH  77  78
BRANCH  77  83
ATOM     83  C   UNL     1       5.561  -3.804  -3.950  1.00  0.00     0.049 C 
BRANCH  83  84
ATOM     84  C   UNL     1       5.837  -3.748  -5.439  1.00  0.00    -0.046 A 
ATOM     85  C   UNL     1       4.864  -4.143  -6.367  1.00  0.00     0.004 A 
ATOM     86  C   UNL     1       7.057  -3.254  -5.921  1.00  0.00     0.019 A 
ATOM     87  C   UNL     1       5.100  -4.070  -7.740  1.00  0.00     0.001 A 
ATOM     88  C   UNL     1       7.279  -3.155  -7.298  1.00  0.00     0.018 A 
ATOM     89  C   UNL     1       6.309  -3.568  -8.208  1.00  0.00     0.016 A 
ATOM     90  Br  UNL     1       8.902  -2.427  -7.939  1.00  0.00    -0.051 Br
ENDBRANCH  83  84
ENDBRANCH  77  83
ENDBRANCH  74  77
ENDBRANCH  72  73
ENDBRANCH   1  72
TORSDOF 14
