REMARK SMILES [NH3+][C@H](CSCc1ccco1)C(=O)NCCCNC(=O)c1ccc(-c2c3nc(c(-c4c(F)c(F)c(F)c(F)c4F)c4ccc([nH]4)c(-c4c(F)c(F)c(F)c(F)c4F)c4nc(c(-c5c(F)c(F)c(F)c(F)c5F)c5ccc2[nH]5)C=C4)C=C3)cc1
REMARK SMILES IDX 14 1 13 2 11 3 12 4 2 6 1 7 3 11 4 12 5 13 6 14 7 15 10 16
REMARK SMILES IDX 8 17 9 18 15 19 16 20 17 21 18 22 19 24 20 25 21 26 82 27
REMARK SMILES IDX 22 28 81 29 23 30 24 31 25 32 75 33 26 34 80 35 74 36 76 37
REMARK SMILES IDX 27 38 79 39 73 40 72 41 28 43 60 44 40 45 59 46 41 47 44 48
REMARK SMILES IDX 58 49 77 50 42 51 43 52 57 54 78 55 45 56 29 57 30 58 38 59
REMARK SMILES IDX 31 60 32 61 36 62 39 63 33 64 34 65 37 66 35 67 61 68 62 69
REMARK SMILES IDX 70 70 63 71 64 72 68 73 71 74 65 75 66 76 69 77 67 78 46 79
REMARK SMILES IDX 47 80 55 81 48 82 49 83 53 84 56 85 50 86 51 87 54 88 52 89
REMARK H PARENT 13 5 1 8 1 9 1 10 17 23 76 42 44 53
REMARK Flexibility Score: inf
ROOT
ATOM      1  C   UNL     1      -0.756   2.922   0.897  1.00  0.00     0.118 C 
ENDROOT
BRANCH   1   2
ATOM      2  N   UNL     1      -1.341   1.677   1.370  1.00  0.00    -0.351 N 
ATOM      3  C   UNL     1      -0.874   0.434   1.663  1.00  0.00     0.279 C 
ATOM      4  O   UNL     1      -1.732  -0.366   2.060  1.00  0.00    -0.268 OA
ATOM      5  H   UNL     1      -2.312   1.753   1.512  1.00  0.00     0.163 HD
BRANCH   3   6
ATOM      6  C   UNL     1       0.572  -0.054   1.464  1.00  0.00     0.280 C 
BRANCH   6   7
ATOM      7  N   UNL     1       1.611   0.912   1.867  1.00  0.00    -0.347 N 
ATOM      8  H   UNL     1       1.360   1.326   2.765  1.00  0.00     0.345 HD
ATOM      9  H   UNL     1       1.684   1.646   1.163  1.00  0.00     0.345 HD
ATOM     10  H   UNL     1       2.507   0.432   1.952  1.00  0.00     0.345 HD
ENDBRANCH   6   7
BRANCH   6  11
ATOM     11  C   UNL     1       0.817  -0.764   0.116  1.00  0.00     0.145 C 
BRANCH  11  12
ATOM     12  S   UNL     1       0.591   0.212  -1.411  1.00  0.00    -0.147 SA
BRANCH  12  13
ATOM     13  C   UNL     1      -1.197  -0.017  -1.671  1.00  0.00     0.145 C 
BRANCH  13  14
ATOM     14  C   UNL     1      -1.550  -1.198  -2.489  1.00  0.00     0.113 A 
ATOM     15  C   UNL     1      -2.009  -1.336  -3.783  1.00  0.00     0.046 A 
ATOM     16  O   UNL     1      -1.550  -2.408  -1.862  1.00  0.00    -0.468 OA
ATOM     17  C   UNL     1      -2.316  -2.706  -3.952  1.00  0.00     0.042 A 
ATOM     18  C   UNL     1      -2.012  -3.317  -2.759  1.00  0.00     0.195 A 
ENDBRANCH  13  14
ENDBRANCH  12  13
ENDBRANCH  11  12
ENDBRANCH   6  11
ENDBRANCH   3   6
ENDBRANCH   1   2
BRANCH   1  19
ATOM     19  C   UNL     1      -1.210   3.366  -0.498  1.00  0.00     0.042 C 
BRANCH  19  20
ATOM     20  C   UNL     1      -2.688   3.188  -0.838  1.00  0.00     0.118 C 
BRANCH  20  21
ATOM     21  N   UNL     1      -3.514   4.280  -0.361  1.00  0.00    -0.352 N 
ATOM     22  C   UNL     1      -4.217   5.224  -1.073  1.00  0.00     0.251 C 
ATOM     23  H   UNL     1      -3.581   4.358   0.618  1.00  0.00     0.163 HD
ATOM     24  O   UNL     1      -4.703   6.185  -0.483  1.00  0.00    -0.269 OA
BRANCH  22  25
ATOM     25  C   UNL     1      -4.388   5.116  -2.543  1.00  0.00     0.039 A 
ATOM     26  C   UNL     1      -4.239   6.272  -3.317  1.00  0.00     0.014 A 
ATOM     27  C   UNL     1      -4.773   3.920  -3.159  1.00  0.00     0.014 A 
ATOM     28  C   UNL     1      -4.436   6.224  -4.702  1.00  0.00     0.010 A 
ATOM     29  C   UNL     1      -4.919   3.860  -4.549  1.00  0.00     0.010 A 
ATOM     30  C   UNL     1      -4.764   5.014  -5.334  1.00  0.00    -0.014 A 
BRANCH  30  31
ATOM     31  C   UNL     1      -4.973   4.959  -6.807  1.00  0.00     0.031 A 
ATOM     32  C   UNL     1      -6.343   4.700  -7.375  1.00  0.00     0.074 A 
ATOM     33  C   UNL     1      -3.928   5.115  -7.642  1.00  0.00     0.049 A 
ATOM     34  N   UNL     1      -6.715   4.594  -8.627  1.00  0.00    -0.248 NA
ATOM     35  C   UNL     1      -7.436   4.522  -6.408  1.00  0.00     0.031 C 
ATOM     36  C   UNL     1      -2.544   5.342  -7.228  1.00  0.00     0.029 A 
ATOM     37  N   UNL     1      -3.867   5.102  -9.015  1.00  0.00    -0.354 N 
ATOM     38  C   UNL     1      -8.078   4.327  -8.597  1.00  0.00     0.074 A 
ATOM     39  C   UNL     1      -8.460   4.245  -7.203  1.00  0.00     0.031 C 
ATOM     40  C   UNL     1      -1.773   5.462  -8.322  1.00  0.00     0.029 A 
ATOM     41  C   UNL     1      -2.602   5.294  -9.513  1.00  0.00     0.049 A 
ATOM     42  H   UNL     1      -4.657   4.968  -9.588  1.00  0.00     0.167 HD
ATOM     43  C   UNL     1      -8.938   4.183  -9.635  1.00  0.00     0.037 A 
ATOM     44  C   UNL     1      -2.158   5.327 -10.784  1.00  0.00     0.037 A 
ATOM     45  C   UNL     1      -8.571   4.290 -11.023  1.00  0.00     0.049 A 
ATOM     46  C   UNL     1      -3.132   5.158 -11.919  1.00  0.00     0.074 A 
ATOM     47  C   UNL     1      -9.387   4.218 -12.139  1.00  0.00     0.029 A 
ATOM     48  N   UNL     1      -7.279   4.492 -11.486  1.00  0.00    -0.354 N 
ATOM     49  N   UNL     1      -4.427   4.968 -11.876  1.00  0.00    -0.248 NA
ATOM     50  C   UNL     1      -2.580   5.214 -13.281  1.00  0.00     0.031 C 
ATOM     51  C   UNL     1      -8.584   4.336 -13.279  1.00  0.00     0.029 A 
ATOM     52  C   UNL     1      -7.273   4.524 -12.871  1.00  0.00     0.049 A 
ATOM     53  H   UNL     1      -6.484   4.596 -10.914  1.00  0.00     0.167 HD
ATOM     54  C   UNL     1      -4.849   4.908 -13.197  1.00  0.00     0.074 A 
ATOM     55  C   UNL     1      -3.673   5.094 -14.021  1.00  0.00     0.031 C 
ATOM     56  C   UNL     1      -6.099   4.717 -13.682  1.00  0.00     0.037 A 
BRANCH  43  57
ATOM     57  C   UNL     1     -10.374   3.894  -9.310  1.00  0.00     0.064 A 
ATOM     58  C   UNL     1     -11.216   4.879  -8.771  1.00  0.00     0.173 A 
ATOM     59  C   UNL     1     -10.927   2.635  -9.585  1.00  0.00     0.173 A 
ATOM     60  F   UNL     1     -10.733   6.096  -8.482  1.00  0.00    -0.203 F 
ATOM     61  C   UNL     1     -12.553   4.604  -8.496  1.00  0.00     0.198 A 
ATOM     62  C   UNL     1     -12.271   2.372  -9.333  1.00  0.00     0.198 A 
ATOM     63  F   UNL     1     -10.166   1.661 -10.107  1.00  0.00    -0.203 F 
ATOM     64  F   UNL     1     -13.329   5.547  -7.943  1.00  0.00    -0.200 F 
ATOM     65  C   UNL     1     -13.081   3.354  -8.783  1.00  0.00     0.200 A 
ATOM     66  F   UNL     1     -12.783   1.168  -9.622  1.00  0.00    -0.200 F 
ATOM     67  F   UNL     1     -14.370   3.094  -8.525  1.00  0.00    -0.200 F 
ENDBRANCH  43  57
BRANCH  44  68
ATOM     68  C   UNL     1      -0.715   5.553 -11.056  1.00  0.00     0.064 A 
ATOM     69  C   UNL     1      -0.267   6.762 -11.606  1.00  0.00     0.173 A 
ATOM     70  C   UNL     1       0.241   4.565 -10.780  1.00  0.00     0.173 A 
ATOM     71  F   UNL     1      -1.149   7.726 -11.909  1.00  0.00    -0.203 F 
ATOM     72  C   UNL     1       1.082   6.970 -11.883  1.00  0.00     0.198 A 
ATOM     73  C   UNL     1       1.593   4.784 -11.035  1.00  0.00     0.198 A 
ATOM     74  F   UNL     1      -0.138   3.392 -10.254  1.00  0.00    -0.203 F 
ATOM     75  F   UNL     1       1.479   8.119 -12.446  1.00  0.00    -0.200 F 
ATOM     76  C   UNL     1       2.012   5.983 -11.592  1.00  0.00     0.200 A 
ATOM     77  F   UNL     1       2.490   3.832 -10.743  1.00  0.00    -0.200 F 
ATOM     78  F   UNL     1       3.310   6.184 -11.856  1.00  0.00    -0.200 F 
ENDBRANCH  44  68
BRANCH  56  79
ATOM     79  C   UNL     1      -6.270   4.727 -15.173  1.00  0.00     0.064 A 
ATOM     80  C   UNL     1      -5.839   3.655 -15.969  1.00  0.00     0.173 A 
ATOM     81  C   UNL     1      -6.907   5.804 -15.809  1.00  0.00     0.173 A 
ATOM     82  F   UNL     1      -5.211   2.610 -15.410  1.00  0.00    -0.203 F 
ATOM     83  C   UNL     1      -6.021   3.671 -17.349  1.00  0.00     0.198 A 
ATOM     84  C   UNL     1      -7.109   5.804 -17.186  1.00  0.00     0.198 A 
ATOM     85  F   UNL     1      -7.341   6.851 -15.092  1.00  0.00    -0.203 F 
ATOM     86  F   UNL     1      -5.565   2.655 -18.095  1.00  0.00    -0.200 F 
ATOM     87  C   UNL     1      -6.661   4.742 -17.956  1.00  0.00     0.200 A 
ATOM     88  F   UNL     1      -7.737   6.835 -17.769  1.00  0.00    -0.200 F 
ATOM     89  F   UNL     1      -6.840   4.752 -19.284  1.00  0.00    -0.200 F 
ENDBRANCH  56  79
ENDBRANCH  30  31
ENDBRANCH  22  25
ENDBRANCH  20  21
ENDBRANCH  19  20
ENDBRANCH   1  19
TORSDOF 15
