REMARK SMILES Cc1cc(NS(=O)(=O)CC(=O)NCCCNC(=O)c2ccc(-c3c4nc(c(-c5c(F)c(F)c(F)c(F)c5F)c5ccc([nH]5)c(-c5c(F)c(F)c(F)c(F)c5F)c5nc(c(-c6c(F)c(F)c(F)c(F)c6F)c6ccc3[nH]6)C=C5)C=C4)cc2)ccn1
REMARK SMILES IDX 13 1 12 2 10 3 11 4 9 6 6 7 7 8 8 9 5 10 4 12 1 13 2 14 3 15
REMARK SMILES IDX 84 16 83 17 82 18 14 19 15 20 16 21 17 22 18 24 19 25 20 26
REMARK SMILES IDX 81 27 21 28 80 29 22 30 23 31 24 32 74 33 25 34 79 35 73 36
REMARK SMILES IDX 75 37 26 38 78 39 72 40 71 41 27 43 59 44 39 45 58 46 40 47
REMARK SMILES IDX 43 48 57 49 76 50 41 51 42 52 56 54 77 55 44 56 28 57 29 58
REMARK SMILES IDX 37 59 30 60 31 61 35 62 38 63 32 64 33 65 36 66 34 67 60 68
REMARK SMILES IDX 61 69 69 70 62 71 63 72 67 73 70 74 64 75 65 76 68 77 66 78
REMARK SMILES IDX 45 79 46 80 54 81 47 82 48 83 52 84 55 85 49 86 50 87 53 88
REMARK SMILES IDX 51 89
REMARK H PARENT 12 5 5 11 16 23 75 42 43 53
REMARK Flexibility Score: inf
ROOT
ATOM      1  C   UNL     1      -5.452  -1.638   2.749  1.00  0.00     0.117 C 
ENDROOT
BRANCH   1   2
ATOM      2  N   UNL     1      -4.678  -0.461   2.413  1.00  0.00    -0.355 N 
ATOM      3  C   UNL     1      -4.278   0.001   1.202  1.00  0.00     0.237 C 
ATOM      4  O   UNL     1      -3.679   1.079   1.190  1.00  0.00    -0.274 OA
ATOM      5  H   UNL     1      -4.401   0.089   3.181  1.00  0.00     0.163 HD
BRANCH   3   6
ATOM      6  C   UNL     1      -4.648  -0.695  -0.065  1.00  0.00     0.259 C 
BRANCH   6   7
ATOM      7  S   UNL     1      -3.559  -2.023  -0.523  1.00  0.00     0.241 S 
ATOM      8  O   UNL     1      -3.361  -1.989  -1.954  1.00  0.00    -0.206 OA
ATOM      9  O   UNL     1      -4.085  -3.228   0.098  1.00  0.00    -0.206 OA
BRANCH   7  10
ATOM     10  N   UNL     1      -2.086  -1.797   0.222  1.00  0.00    -0.283 N 
ATOM     11  H   UNL     1      -1.875  -2.346   1.012  1.00  0.00     0.180 HD
BRANCH  10  12
ATOM     12  C   UNL     1      -1.108  -0.847  -0.225  1.00  0.00     0.052 A 
ATOM     13  C   UNL     1       2.639  -0.373   0.116  1.00  0.00     0.067 C 
ATOM     14  C   UNL     1       1.186  -0.127  -0.152  1.00  0.00     0.039 A 
ATOM     15  C   UNL     1       0.234  -1.125   0.043  1.00  0.00     0.050 A 
ATOM     16  N   UNL     1       0.855   1.126  -0.531  1.00  0.00    -0.261 NA
ATOM     17  C   UNL     1      -0.446   1.374  -0.775  1.00  0.00     0.113 A 
ATOM     18  C   UNL     1      -1.443   0.423  -0.670  1.00  0.00     0.047 A 
ENDBRANCH  10  12
ENDBRANCH   7  10
ENDBRANCH   6   7
ENDBRANCH   3   6
ENDBRANCH   1   2
BRANCH   1  19
ATOM     19  C   UNL     1      -4.618  -2.668   3.500  1.00  0.00     0.042 C 
BRANCH  19  20
ATOM     20  C   UNL     1      -4.031  -2.160   4.814  1.00  0.00     0.118 C 
BRANCH  20  21
ATOM     21  N   UNL     1      -5.049  -1.712   5.754  1.00  0.00    -0.352 N 
ATOM     22  C   UNL     1      -5.447  -2.228   6.961  1.00  0.00     0.251 C 
ATOM     23  H   UNL     1      -5.535  -0.901   5.476  1.00  0.00     0.163 HD
ATOM     24  O   UNL     1      -6.475  -1.809   7.486  1.00  0.00    -0.269 OA
BRANCH  22  25
ATOM     25  C   UNL     1      -4.666  -3.291   7.629  1.00  0.00     0.039 A 
ATOM     26  C   UNL     1      -5.356  -4.313   8.287  1.00  0.00     0.014 A 
ATOM     27  C   UNL     1      -3.269  -3.272   7.648  1.00  0.00     0.014 A 
ATOM     28  C   UNL     1      -4.648  -5.345   8.903  1.00  0.00     0.010 A 
ATOM     29  C   UNL     1      -2.565  -4.349   8.182  1.00  0.00     0.010 A 
ATOM     30  C   UNL     1      -3.246  -5.395   8.819  1.00  0.00    -0.014 A 
BRANCH  30  31
ATOM     31  C   UNL     1      -2.497  -6.554   9.369  1.00  0.00     0.031 A 
ATOM     32  C   UNL     1      -1.507  -6.377  10.485  1.00  0.00     0.074 A 
ATOM     33  C   UNL     1      -2.677  -7.769   8.817  1.00  0.00     0.049 A 
ATOM     34  N   UNL     1      -0.775  -7.279  11.092  1.00  0.00    -0.248 NA
ATOM     35  C   UNL     1      -1.284  -5.005  10.962  1.00  0.00     0.031 C 
ATOM     36  C   UNL     1      -3.547  -8.055   7.675  1.00  0.00     0.029 A 
ATOM     37  N   UNL     1      -2.135  -8.989   9.135  1.00  0.00    -0.354 N 
ATOM     38  C   UNL     1      -0.001  -6.583  12.010  1.00  0.00     0.074 A 
ATOM     39  C   UNL     1      -0.306  -5.179  11.839  1.00  0.00     0.031 C 
ATOM     40  C   UNL     1      -3.506  -9.368   7.409  1.00  0.00     0.029 A 
ATOM     41  C   UNL     1      -2.580 -10.012   8.335  1.00  0.00     0.049 A 
ATOM     42  H   UNL     1      -1.489  -9.118   9.867  1.00  0.00     0.167 HD
ATOM     43  C   UNL     1       0.870  -7.072  12.927  1.00  0.00     0.037 A 
ATOM     44  C   UNL     1      -2.276 -11.323   8.343  1.00  0.00     0.037 A 
ATOM     45  C   UNL     1       1.159  -8.474  13.099  1.00  0.00     0.049 A 
ATOM     46  C   UNL     1      -1.329 -11.848   9.385  1.00  0.00     0.074 A 
ATOM     47  C   UNL     1       1.955  -9.081  14.055  1.00  0.00     0.029 A 
ATOM     48  N   UNL     1       0.675  -9.487  12.283  1.00  0.00    -0.354 N 
ATOM     49  N   UNL     1      -0.682 -11.195  10.319  1.00  0.00    -0.248 NA
ATOM     50  C   UNL     1      -1.082 -13.296   9.381  1.00  0.00     0.031 C 
ATOM     51  C   UNL     1       2.006 -10.452  13.776  1.00  0.00     0.029 A 
ATOM     52  C   UNL     1       1.189 -10.711  12.688  1.00  0.00     0.049 A 
ATOM     53  H   UNL     1       0.058  -9.357  11.527  1.00  0.00     0.167 HD
ATOM     54  C   UNL     1       0.041 -12.149  11.022  1.00  0.00     0.074 A 
ATOM     55  C   UNL     1      -0.274 -13.431  10.423  1.00  0.00     0.031 C 
ATOM     56  C   UNL     1       0.891 -11.978  12.066  1.00  0.00     0.037 A 
BRANCH  43  57
ATOM     57  C   UNL     1       1.583  -6.079  13.803  1.00  0.00     0.064 A 
ATOM     58  C   UNL     1       0.902  -5.302  14.755  1.00  0.00     0.173 A 
ATOM     59  C   UNL     1       2.972  -5.906  13.695  1.00  0.00     0.173 A 
ATOM     60  F   UNL     1      -0.426  -5.420  14.897  1.00  0.00    -0.203 F 
ATOM     61  C   UNL     1       1.576  -4.359  15.529  1.00  0.00     0.198 A 
ATOM     62  C   UNL     1       3.647  -4.989  14.497  1.00  0.00     0.198 A 
ATOM     63  F   UNL     1       3.677  -6.625  12.809  1.00  0.00    -0.203 F 
ATOM     64  F   UNL     1       0.891  -3.582  16.380  1.00  0.00    -0.200 F 
ATOM     65  C   UNL     1       2.948  -4.207  15.403  1.00  0.00     0.200 A 
ATOM     66  F   UNL     1       4.976  -4.854  14.384  1.00  0.00    -0.200 F 
ATOM     67  F   UNL     1       3.594  -3.299  16.147  1.00  0.00    -0.200 F 
ENDBRANCH  43  57
BRANCH  44  68
ATOM     68  C   UNL     1      -2.903 -12.222   7.340  1.00  0.00     0.064 A 
ATOM     69  C   UNL     1      -3.877 -13.157   7.714  1.00  0.00     0.173 A 
ATOM     70  C   UNL     1      -2.570 -12.134   5.980  1.00  0.00     0.173 A 
ATOM     71  F   UNL     1      -4.216 -13.291   9.005  1.00  0.00    -0.203 F 
ATOM     72  C   UNL     1      -4.489 -13.976   6.767  1.00  0.00     0.198 A 
ATOM     73  C   UNL     1      -3.204 -12.932   5.031  1.00  0.00     0.198 A 
ATOM     74  F   UNL     1      -1.650 -11.248   5.571  1.00  0.00    -0.203 F 
ATOM     75  F   UNL     1      -5.395 -14.884   7.155  1.00  0.00    -0.200 F 
ATOM     76  C   UNL     1      -4.160 -13.855   5.426  1.00  0.00     0.200 A 
ATOM     77  F   UNL     1      -2.897 -12.797   3.734  1.00  0.00    -0.200 F 
ATOM     78  F   UNL     1      -4.762 -14.630   4.513  1.00  0.00    -0.200 F 
ENDBRANCH  44  68
BRANCH  56  79
ATOM     79  C   UNL     1       1.539 -13.214  12.625  1.00  0.00     0.064 A 
ATOM     80  C   UNL     1       2.496 -13.938  11.896  1.00  0.00     0.173 A 
ATOM     81  C   UNL     1       1.205 -13.678  13.907  1.00  0.00     0.173 A 
ATOM     82  F   UNL     1       2.841 -13.547  10.660  1.00  0.00    -0.203 F 
ATOM     83  C   UNL     1       3.061 -15.101  12.413  1.00  0.00     0.198 A 
ATOM     84  C   UNL     1       1.800 -14.821  14.435  1.00  0.00     0.198 A 
ATOM     85  F   UNL     1       0.302 -13.021  14.651  1.00  0.00    -0.203 F 
ATOM     86  F   UNL     1       3.921 -15.812  11.671  1.00  0.00    -0.200 F 
ATOM     87  C   UNL     1       2.717 -15.538  13.683  1.00  0.00     0.200 A 
ATOM     88  F   UNL     1       1.478 -15.232  15.669  1.00  0.00    -0.200 F 
ATOM     89  F   UNL     1       3.261 -16.659  14.178  1.00  0.00    -0.200 F 
ENDBRANCH  56  79
ENDBRANCH  30  31
ENDBRANCH  22  25
ENDBRANCH  20  21
ENDBRANCH  19  20
ENDBRANCH   1  19
TORSDOF 13
