REMARK SMILES Cc1c([C@@H]2[C@H](C(=O)NCCCNC(=O)c3ccc(-c4c5nc(c(-c6c(F)c(F)c(F)c(F)c6F)c6ccc([nH]6)c(-c6c(F)c(F)c(F)c(F)c6F)c6nc(c(-c7c(F)c(F)c(F)c(F)c7F)c7ccc4[nH]7)C=C6)C=C5)cc3)CC(=O)N2C(C)C)cnn1C
REMARK SMILES IDX 10 1 9 2 8 3 6 4 7 5 5 7 4 8 81 9 78 10 79 11 80 12 3 13
REMARK SMILES IDX 1 14 2 15 87 16 85 17 86 18 88 19 82 20 83 21 84 22 11 23
REMARK SMILES IDX 12 24 13 25 14 27 15 28 16 29 77 30 17 31 76 32 18 33 19 34
REMARK SMILES IDX 20 35 70 36 21 37 75 38 69 39 71 40 22 41 74 42 68 43 67 44
REMARK SMILES IDX 23 46 55 47 35 48 54 49 36 50 39 51 53 52 72 53 37 54 38 55
REMARK SMILES IDX 52 57 73 58 40 59 24 60 25 61 33 62 26 63 27 64 31 65 34 66
REMARK SMILES IDX 28 67 29 68 32 69 30 70 56 71 57 72 65 73 58 74 59 75 63 76
REMARK SMILES IDX 66 77 60 78 61 79 64 80 62 81 41 82 42 83 50 84 43 85 44 86
REMARK SMILES IDX 48 87 51 88 45 89 46 90 49 91 47 92
REMARK H PARENT 8 6 12 26 71 45 39 56
REMARK Flexibility Score: inf
ROOT
ATOM      1  C   UNL     1      -4.079  -4.085   2.149  1.00  0.00     0.042 C 
ENDROOT
BRANCH   1   2
ATOM      2  C   UNL     1      -3.872  -4.959   0.922  1.00  0.00     0.117 C 
BRANCH   2   3
ATOM      3  N   UNL     1      -3.687  -4.165  -0.287  1.00  0.00    -0.356 N 
ATOM      4  C   UNL     1      -2.627  -3.687  -0.983  1.00  0.00     0.226 C 
ATOM      5  O   UNL     1      -2.927  -3.010  -1.976  1.00  0.00    -0.275 OA
ATOM      6  H   UNL     1      -4.544  -3.914  -0.700  1.00  0.00     0.163 HD
BRANCH   4   7
ATOM      7  C   UNL     1      -1.146  -3.889  -0.667  1.00  0.00     0.115 C 
ATOM      8  C   UNL     1      -0.454  -2.813   0.158  1.00  0.00     0.132 C 
ATOM      9  N   UNL     1      -0.769  -3.188   1.523  1.00  0.00    -0.332 N 
ATOM     10  C   UNL     1      -0.782  -5.124   0.147  1.00  0.00     0.116 C 
ATOM     11  C   UNL     1      -0.801  -4.590   1.573  1.00  0.00     0.224 C 
ATOM     12  O   UNL     1      -0.822  -5.285   2.574  1.00  0.00    -0.275 OA
BRANCH   8  13
ATOM     13  C   UNL     1      -0.518  -1.376  -0.193  1.00  0.00     0.016 A 
ATOM     14  C   UNL     1       2.043  -0.853  -0.344  1.00  0.00     0.067 C 
ATOM     15  C   UNL     1       0.587  -0.539  -0.344  1.00  0.00     0.040 A 
ATOM     16  N   UNL     1       0.081   0.729  -0.456  1.00  0.00    -0.273 N 
ATOM     17  C   UNL     1      -1.617  -0.526  -0.444  1.00  0.00     0.141 A 
ATOM     18  N   UNL     1      -1.256   0.752  -0.584  1.00  0.00    -0.181 NA
ATOM     19  C   UNL     1       0.813   1.969  -0.333  1.00  0.00     0.174 C 
ENDBRANCH   8  13
BRANCH   9  20
ATOM     20  C   UNL     1      -0.649  -2.377   2.749  1.00  0.00     0.079 C 
ATOM     21  C   UNL     1       0.797  -2.016   3.077  1.00  0.00     0.031 C 
ATOM     22  C   UNL     1      -1.538  -1.133   2.811  1.00  0.00     0.031 C 
ENDBRANCH   9  20
ENDBRANCH   4   7
ENDBRANCH   2   3
ENDBRANCH   1   2
BRANCH   1  23
ATOM     23  C   UNL     1      -5.528  -3.666   2.348  1.00  0.00     0.118 C 
BRANCH  23  24
ATOM     24  N   UNL     1      -6.362  -4.784   2.770  1.00  0.00    -0.352 N 
ATOM     25  C   UNL     1      -7.099  -4.957   3.914  1.00  0.00     0.251 C 
ATOM     26  H   UNL     1      -6.404  -5.533   2.133  1.00  0.00     0.163 HD
ATOM     27  O   UNL     1      -7.553  -6.066   4.180  1.00  0.00    -0.269 OA
BRANCH  25  28
ATOM     28  C   UNL     1      -7.347  -3.825   4.832  1.00  0.00     0.039 A 
ATOM     29  C   UNL     1      -7.347  -4.064   6.210  1.00  0.00     0.014 A 
ATOM     30  C   UNL     1      -7.625  -2.545   4.347  1.00  0.00     0.014 A 
ATOM     31  C   UNL     1      -7.577  -3.011   7.098  1.00  0.00     0.010 A 
ATOM     32  C   UNL     1      -7.766  -1.480   5.232  1.00  0.00     0.010 A 
ATOM     33  C   UNL     1      -7.758  -1.704   6.617  1.00  0.00    -0.014 A 
BRANCH  33  34
ATOM     34  C   UNL     1      -7.958  -0.563   7.544  1.00  0.00     0.031 A 
ATOM     35  C   UNL     1      -9.247   0.212   7.520  1.00  0.00     0.074 A 
ATOM     36  C   UNL     1      -6.958  -0.190   8.365  1.00  0.00     0.049 A 
ATOM     37  N   UNL     1      -9.587   1.278   8.200  1.00  0.00    -0.248 NA
ATOM     38  C   UNL     1     -10.283  -0.255   6.584  1.00  0.00     0.031 C 
ATOM     39  C   UNL     1      -5.646  -0.835   8.446  1.00  0.00     0.029 A 
ATOM     40  N   UNL     1      -6.884   0.829   9.281  1.00  0.00    -0.354 N 
ATOM     41  C   UNL     1     -10.862   1.614   7.764  1.00  0.00     0.074 A 
ATOM     42  C   UNL     1     -11.213   0.677   6.720  1.00  0.00     0.031 C 
ATOM     43  C   UNL     1      -4.907  -0.213   9.378  1.00  0.00     0.029 A 
ATOM     44  C   UNL     1      -5.675   0.899   9.930  1.00  0.00     0.049 A 
ATOM     45  H   UNL     1      -7.626   1.451   9.457  1.00  0.00     0.167 HD
ATOM     46  C   UNL     1     -11.675   2.600   8.211  1.00  0.00     0.037 A 
ATOM     47  C   UNL     1      -5.234   1.769  10.858  1.00  0.00     0.037 A 
ATOM     48  C   UNL     1     -11.328   3.514   9.268  1.00  0.00     0.049 A 
ATOM     49  C   UNL     1      -6.154   2.861  11.332  1.00  0.00     0.074 A 
ATOM     50  C   UNL     1     -12.101   4.510   9.837  1.00  0.00     0.029 A 
ATOM     51  N   UNL     1     -10.099   3.543   9.913  1.00  0.00    -0.354 N 
ATOM     52  N   UNL     1      -7.384   3.126  10.963  1.00  0.00    -0.248 NA
ATOM     53  C   UNL     1      -5.628   3.770  12.359  1.00  0.00     0.031 C 
ATOM     54  C   UNL     1     -11.323   5.176  10.789  1.00  0.00     0.029 A 
ATOM     55  C   UNL     1     -10.085   4.557  10.857  1.00  0.00     0.049 A 
ATOM     56  H   UNL     1      -9.349   2.933   9.727  1.00  0.00     0.167 HD
ATOM     57  C   UNL     1      -7.789   4.209  11.731  1.00  0.00     0.074 A 
ATOM     58  C   UNL     1      -6.678   4.543  12.598  1.00  0.00     0.031 C 
ATOM     59  C   UNL     1      -8.974   4.868  11.720  1.00  0.00     0.037 A 
BRANCH  46  60
ATOM     60  C   UNL     1     -13.023   2.742   7.561  1.00  0.00     0.064 A 
ATOM     61  C   UNL     1     -14.029   1.778   7.731  1.00  0.00     0.173 A 
ATOM     62  C   UNL     1     -13.325   3.873   6.788  1.00  0.00     0.173 A 
ATOM     63  F   UNL     1     -13.790   0.672   8.452  1.00  0.00    -0.203 F 
ATOM     64  C   UNL     1     -15.274   1.926   7.126  1.00  0.00     0.198 A 
ATOM     65  C   UNL     1     -14.583   4.034   6.212  1.00  0.00     0.198 A 
ATOM     66  F   UNL     1     -12.404   4.829   6.597  1.00  0.00    -0.203 F 
ATOM     67  F   UNL     1     -16.200   0.966   7.260  1.00  0.00    -0.200 F 
ATOM     68  C   UNL     1     -15.553   3.056   6.374  1.00  0.00     0.200 A 
ATOM     69  F   UNL     1     -14.856   5.135   5.498  1.00  0.00    -0.200 F 
ATOM     70  F   UNL     1     -16.755   3.201   5.799  1.00  0.00    -0.200 F 
ENDBRANCH  46  60
BRANCH  47  71
ATOM     71  C   UNL     1      -3.863   1.627  11.417  1.00  0.00     0.064 A 
ATOM     72  C   UNL     1      -3.665   1.247  12.752  1.00  0.00     0.173 A 
ATOM     73  C   UNL     1      -2.725   1.871  10.634  1.00  0.00     0.173 A 
ATOM     74  F   UNL     1      -4.721   1.021  13.547  1.00  0.00    -0.203 F 
ATOM     75  C   UNL     1      -2.384   1.139  13.288  1.00  0.00     0.198 A 
ATOM     76  C   UNL     1      -1.444   1.733  11.162  1.00  0.00     0.198 A 
ATOM     77  F   UNL     1      -2.858   2.232   9.349  1.00  0.00    -0.203 F 
ATOM     78  F   UNL     1      -2.225   0.822  14.580  1.00  0.00    -0.200 F 
ATOM     79  C   UNL     1      -1.274   1.376  12.491  1.00  0.00     0.200 A 
ATOM     80  F   UNL     1      -0.374   1.947  10.385  1.00  0.00    -0.200 F 
ATOM     81  F   UNL     1      -0.042   1.268  13.006  1.00  0.00    -0.200 F 
ENDBRANCH  47  71
BRANCH  59  82
ATOM     82  C   UNL     1      -9.148   5.989  12.703  1.00  0.00     0.064 A 
ATOM     83  C   UNL     1      -8.470   7.209  12.560  1.00  0.00     0.173 A 
ATOM     84  C   UNL     1     -10.041   5.855  13.778  1.00  0.00     0.173 A 
ATOM     85  F   UNL     1      -7.595   7.382  11.559  1.00  0.00    -0.203 F 
ATOM     86  C   UNL     1      -8.661   8.243  13.473  1.00  0.00     0.198 A 
ATOM     87  C   UNL     1     -10.253   6.903  14.668  1.00  0.00     0.198 A 
ATOM     88  F   UNL     1     -10.720   4.711  13.955  1.00  0.00    -0.203 F 
ATOM     89  F   UNL     1      -7.965   9.382  13.346  1.00  0.00    -0.200 F 
ATOM     90  C   UNL     1      -9.558   8.093  14.520  1.00  0.00     0.200 A 
ATOM     91  F   UNL     1     -11.133   6.761  15.670  1.00  0.00    -0.200 F 
ATOM     92  F   UNL     1      -9.746   9.093  15.391  1.00  0.00    -0.200 F 
ENDBRANCH  59  82
ENDBRANCH  33  34
ENDBRANCH  25  28
ENDBRANCH  23  24
ENDBRANCH   1  23
TORSDOF 12
