REMARK SMILES O=C(Nc1cccc(F)c1)N[C@@H]1C=C[C@@H](C(=O)NCCCNC(=O)c2ccc(-c3c4nc(c(-c5c(F)c(F)c(F)c(F)c5F)c5ccc([nH]5)c(-c5c(F)c(F)c(F)c(F)c5F)c5nc(c(-c6c(F)c(F)c(F)c(F)c6F)c6ccc3[nH]6)C=C5)C=C4)cc2)C1
REMARK SMILES IDX 20 1 19 2 18 3 16 4 17 5 15 7 12 8 13 9 88 10 14 11 11 12
REMARK SMILES IDX 1 13 2 14 3 15 4 18 5 19 10 20 6 21 8 22 7 23 9 24 21 25
REMARK SMILES IDX 22 26 23 27 24 29 25 30 26 31 87 32 27 33 86 34 28 35 29 36
REMARK SMILES IDX 30 37 80 38 31 39 85 40 79 41 81 42 32 43 84 44 78 45 77 46
REMARK SMILES IDX 33 48 65 49 45 50 64 51 46 52 49 53 63 54 82 55 47 56 48 57
REMARK SMILES IDX 62 59 83 60 50 61 34 62 35 63 43 64 36 65 37 66 41 67 44 68
REMARK SMILES IDX 38 69 39 70 42 71 40 72 66 73 67 74 75 75 68 76 69 77 73 78
REMARK SMILES IDX 76 79 70 80 71 81 74 82 72 83 51 84 52 85 60 86 53 87 54 88
REMARK SMILES IDX 58 89 61 90 55 91 56 92 59 93 57 94
REMARK H PARENT 18 6 3 16 11 17 22 28 81 47 49 58
REMARK Flexibility Score: inf
ROOT
ATOM      1  C   UNL     1       1.810   2.991   1.564  1.00  0.00     0.042 C 
ENDROOT
BRANCH   1   2
ATOM      2  C   UNL     1       0.571   2.900   0.684  1.00  0.00     0.117 C 
BRANCH   2   3
ATOM      3  N   UNL     1       0.321   4.127  -0.051  1.00  0.00    -0.356 N 
ATOM      4  C   UNL     1       0.400   4.417  -1.379  1.00  0.00     0.227 C 
ATOM      5  O   UNL     1       0.083   5.561  -1.719  1.00  0.00    -0.274 OA
ATOM      6  H   UNL     1       0.045   4.885   0.512  1.00  0.00     0.163 HD
BRANCH   4   7
ATOM      7  C   UNL     1       0.854   3.403  -2.431  1.00  0.00     0.103 C 
ATOM      8  C   UNL     1       2.199   1.347  -2.273  1.00  0.00     0.107 C 
ATOM      9  C   UNL     1       0.734   1.061  -2.379  1.00  0.00    -0.006 C 
ATOM     10  C   UNL     1       2.284   2.880  -2.243  1.00  0.00     0.047 C 
ATOM     11  C   UNL     1       0.001   2.174  -2.475  1.00  0.00    -0.016 C 
BRANCH   8  12
ATOM     12  N   UNL     1       2.807   0.792  -3.451  1.00  0.00    -0.332 N 
ATOM     13  O   UNL     1       4.770   0.170  -2.477  1.00  0.00    -0.248 OA
ATOM     14  C   UNL     1       4.062   0.264  -3.472  1.00  0.00     0.319 C 
ATOM     15  N   UNL     1       4.453  -0.284  -4.665  1.00  0.00    -0.308 N 
ATOM     16  H   UNL     1       5.190  -0.934  -4.606  1.00  0.00     0.171 HD
ATOM     17  H   UNL     1       2.288   0.794  -4.288  1.00  0.00     0.165 HD
BRANCH  15  18
ATOM     18  C   UNL     1       3.955  -0.056  -5.960  1.00  0.00     0.045 A 
ATOM     19  C   UNL     1       3.393   1.169  -6.345  1.00  0.00     0.026 A 
ATOM     20  C   UNL     1       4.057  -1.085  -6.895  1.00  0.00     0.065 A 
ATOM     21  C   UNL     1       2.878   1.343  -7.631  1.00  0.00     0.005 A 
ATOM     22  C   UNL     1       3.524  -0.908  -8.168  1.00  0.00     0.125 A 
ATOM     23  C   UNL     1       2.930   0.292  -8.542  1.00  0.00     0.039 A 
ATOM     24  F   UNL     1       3.572  -1.918  -9.046  1.00  0.00    -0.207 F 
ENDBRANCH  15  18
ENDBRANCH   8  12
ENDBRANCH   4   7
ENDBRANCH   2   3
ENDBRANCH   1   2
BRANCH   1  25
ATOM     25  C   UNL     1       1.680   3.988   2.708  1.00  0.00     0.118 C 
BRANCH  25  26
ATOM     26  N   UNL     1       0.675   3.591   3.684  1.00  0.00    -0.352 N 
ATOM     27  C   UNL     1       0.800   3.305   5.021  1.00  0.00     0.251 C 
ATOM     28  H   UNL     1      -0.240   3.516   3.329  1.00  0.00     0.163 HD
ATOM     29  O   UNL     1      -0.144   2.805   5.626  1.00  0.00    -0.269 OA
BRANCH  27  30
ATOM     30  C   UNL     1       2.066   3.577   5.735  1.00  0.00     0.039 A 
ATOM     31  C   UNL     1       2.525   2.643   6.669  1.00  0.00     0.014 A 
ATOM     32  C   UNL     1       2.783   4.757   5.518  1.00  0.00     0.014 A 
ATOM     33  C   UNL     1       3.734   2.862   7.334  1.00  0.00     0.010 A 
ATOM     34  C   UNL     1       4.025   4.936   6.121  1.00  0.00     0.010 A 
ATOM     35  C   UNL     1       4.510   3.994   7.038  1.00  0.00    -0.014 A 
BRANCH  35  36
ATOM     36  C   UNL     1       5.827   4.215   7.684  1.00  0.00     0.031 A 
ATOM     37  C   UNL     1       6.034   5.393   8.594  1.00  0.00     0.074 A 
ATOM     38  C   UNL     1       6.852   3.386   7.411  1.00  0.00     0.049 A 
ATOM     39  N   UNL     1       7.127   5.796   9.191  1.00  0.00    -0.248 NA
ATOM     40  C   UNL     1       4.862   6.244   8.849  1.00  0.00     0.031 C 
ATOM     41  C   UNL     1       6.784   2.226   6.523  1.00  0.00     0.029 A 
ATOM     42  N   UNL     1       8.151   3.393   7.852  1.00  0.00    -0.354 N 
ATOM     43  C   UNL     1       6.777   6.948   9.881  1.00  0.00     0.074 A 
ATOM     44  C   UNL     1       5.385   7.213   9.585  1.00  0.00     0.031 C 
ATOM     45  C   UNL     1       7.976   1.609   6.516  1.00  0.00     0.029 A 
ATOM     46  C   UNL     1       8.902   2.353   7.365  1.00  0.00     0.049 A 
ATOM     47  H   UNL     1       8.510   4.079   8.461  1.00  0.00     0.167 HD
ATOM     48  C   UNL     1       7.538   7.701  10.710  1.00  0.00     0.037 A 
ATOM     49  C   UNL     1      10.193   2.034   7.580  1.00  0.00     0.037 A 
ATOM     50  C   UNL     1       8.916   7.426  11.018  1.00  0.00     0.049 A 
ATOM     51  C   UNL     1      11.027   2.901   8.479  1.00  0.00     0.074 A 
ATOM     52  C   UNL     1       9.765   8.114  11.867  1.00  0.00     0.029 A 
ATOM     53  N   UNL     1       9.647   6.371  10.490  1.00  0.00    -0.354 N 
ATOM     54  N   UNL     1      10.680   3.975   9.144  1.00  0.00    -0.248 NA
ATOM     55  C   UNL     1      12.434   2.513   8.655  1.00  0.00     0.031 C 
ATOM     56  C   UNL     1      11.019   7.497  11.826  1.00  0.00     0.029 A 
ATOM     57  C   UNL     1      10.941   6.398  10.985  1.00  0.00     0.049 A 
ATOM     58  H   UNL     1       9.298   5.702   9.857  1.00  0.00     0.167 HD
ATOM     59  C   UNL     1      11.814   4.381   9.833  1.00  0.00     0.074 A 
ATOM     60  C   UNL     1      12.860   3.431   9.512  1.00  0.00     0.031 C 
ATOM     61  C   UNL     1      11.971   5.444  10.658  1.00  0.00     0.037 A 
BRANCH  48  62
ATOM     62  C   UNL     1       6.888   8.892  11.352  1.00  0.00     0.064 A 
ATOM     63  C   UNL     1       7.260  10.194  10.990  1.00  0.00     0.173 A 
ATOM     64  C   UNL     1       5.912   8.741  12.349  1.00  0.00     0.173 A 
ATOM     65  F   UNL     1       8.192  10.394  10.045  1.00  0.00    -0.203 F 
ATOM     66  C   UNL     1       6.680  11.302  11.603  1.00  0.00     0.198 A 
ATOM     67  C   UNL     1       5.313   9.850  12.939  1.00  0.00     0.198 A 
ATOM     68  F   UNL     1       5.511   7.516  12.722  1.00  0.00    -0.203 F 
ATOM     69  F   UNL     1       7.065  12.537  11.255  1.00  0.00    -0.200 F 
ATOM     70  C   UNL     1       5.702  11.129  12.571  1.00  0.00     0.200 A 
ATOM     71  F   UNL     1       4.348   9.681  13.854  1.00  0.00    -0.200 F 
ATOM     72  F   UNL     1       5.128  12.196  13.144  1.00  0.00    -0.200 F 
ENDBRANCH  48  62
BRANCH  49  73
ATOM     73  C   UNL     1      10.747   0.801   6.968  1.00  0.00     0.064 A 
ATOM     74  C   UNL     1      10.996   0.710   5.591  1.00  0.00     0.173 A 
ATOM     75  C   UNL     1      10.986  -0.335   7.754  1.00  0.00     0.173 A 
ATOM     76  F   UNL     1      10.777   1.769   4.798  1.00  0.00    -0.203 F 
ATOM     77  C   UNL     1      11.441  -0.480   5.020  1.00  0.00     0.198 A 
ATOM     78  C   UNL     1      11.451  -1.518   7.185  1.00  0.00     0.198 A 
ATOM     79  F   UNL     1      10.780  -0.287   9.078  1.00  0.00    -0.203 F 
ATOM     80  F   UNL     1      11.639  -0.554   3.697  1.00  0.00    -0.200 F 
ATOM     81  C   UNL     1      11.669  -1.593   5.817  1.00  0.00     0.200 A 
ATOM     82  F   UNL     1      11.688  -2.584   7.961  1.00  0.00    -0.200 F 
ATOM     83  F   UNL     1      12.099  -2.737   5.268  1.00  0.00    -0.200 F 
ENDBRANCH  49  73
BRANCH  61  84
ATOM     84  C   UNL     1      13.315   5.637  11.294  1.00  0.00     0.064 A 
ATOM     85  C   UNL     1      13.490   5.402  12.667  1.00  0.00     0.173 A 
ATOM     86  C   UNL     1      14.406   6.127  10.564  1.00  0.00     0.173 A 
ATOM     87  F   UNL     1      12.473   4.939  13.409  1.00  0.00    -0.203 F 
ATOM     88  C   UNL     1      14.707   5.667  13.288  1.00  0.00     0.198 A 
ATOM     89  C   UNL     1      15.630   6.367  11.184  1.00  0.00     0.198 A 
ATOM     90  F   UNL     1      14.291   6.353   9.247  1.00  0.00    -0.203 F 
ATOM     91  F   UNL     1      14.843   5.466  14.606  1.00  0.00    -0.200 F 
ATOM     92  C   UNL     1      15.776   6.146  12.546  1.00  0.00     0.200 A 
ATOM     93  F   UNL     1      16.669   6.810  10.463  1.00  0.00    -0.200 F 
ATOM     94  F   UNL     1      16.950   6.395  13.144  1.00  0.00    -0.200 F 
ENDBRANCH  61  84
ENDBRANCH  35  36
ENDBRANCH  27  30
ENDBRANCH  25  26
ENDBRANCH   1  25
TORSDOF 12
