REMARK SMILES COC(=O)c1c(-c2ccccc2Cl)csc1NC(=O)[C@@H]1[C@@H]2CC[C@@H](C2)[C@@H]1C(=O)NCCCNC(=O)c1ccc(-c2c3nc(c(-c4c(F)c(F)c(F)c(F)c4F)c4ccc([nH]4)c(-c4c(F)c(F)c(F)c(F)c4F)c4nc(c(-c5c(F)c(F)c(F)c(F)c5F)c5ccc2[nH]5)C=C4)C=C3)cc1
REMARK SMILES IDX 30 1 29 2 27 3 28 4 26 6 20 7 21 8 22 9 25 10 24 11 23 12
REMARK SMILES IDX 18 13 17 14 19 16 16 17 5 18 6 19 14 20 15 21 3 22 4 23 2 24
REMARK SMILES IDX 1 25 7 26 8 27 12 28 9 29 11 30 13 31 10 32 31 33 32 34
REMARK SMILES IDX 33 35 34 36 35 38 36 39 37 40 98 41 38 42 97 43 39 44 40 45
REMARK SMILES IDX 41 46 91 47 42 48 96 49 90 50 92 51 43 52 95 53 89 54 88 55
REMARK SMILES IDX 44 57 76 58 56 59 75 60 57 61 60 62 74 63 93 64 58 65 59 66
REMARK SMILES IDX 73 68 94 69 61 70 45 71 46 72 54 73 47 74 48 75 52 76 55 77
REMARK SMILES IDX 49 78 50 79 53 80 51 81 77 82 78 83 86 84 79 85 80 86 84 87
REMARK SMILES IDX 87 88 81 89 82 90 85 91 83 92 62 93 63 94 71 95 64 96 65 97
REMARK SMILES IDX 69 98 72 99 66 100 67 101 70 102 68 103
REMARK H PARENT 29 5 17 15 33 37 92 56 60 67
REMARK Flexibility Score: inf
ROOT
ATOM      1  C   UNL     1      -0.763   4.656   1.280  1.00  0.00     0.117 C 
ENDROOT
BRANCH   1   2
ATOM      2  N   UNL     1      -0.806   5.689   2.291  1.00  0.00    -0.356 N 
ATOM      3  C   UNL     1       0.246   6.068   3.065  1.00  0.00     0.224 C 
ATOM      4  O   UNL     1       0.089   5.979   4.285  1.00  0.00    -0.275 OA
ATOM      5  H   UNL     1      -1.663   6.154   2.430  1.00  0.00     0.163 HD
BRANCH   3   6
ATOM      6  C   UNL     1       1.580   6.445   2.446  1.00  0.00     0.094 C 
ATOM      7  C   UNL     1       2.613   6.977   3.442  1.00  0.00     0.094 C 
ATOM      8  C   UNL     1       3.625   7.728   2.524  1.00  0.00     0.002 C 
ATOM      9  C   UNL     1       3.135   9.139   2.231  1.00  0.00     0.005 C 
ATOM     10  C   UNL     1       3.403   7.072   1.141  1.00  0.00     0.009 C 
ATOM     11  C   UNL     1       1.876   7.309   1.177  1.00  0.00     0.002 C 
ATOM     12  C   UNL     1       1.959   8.861   1.287  1.00  0.00     0.005 C 
BRANCH   7  13
ATOM     13  C   UNL     1       2.280   7.658   4.789  1.00  0.00     0.229 C 
ATOM     14  N   UNL     1       1.418   8.653   5.124  1.00  0.00    -0.317 N 
ATOM     15  H   UNL     1       1.588   8.948   6.047  1.00  0.00     0.170 HD
ATOM     16  O   UNL     1       3.041   7.343   5.730  1.00  0.00    -0.274 OA
BRANCH  14  17
ATOM     17  C   UNL     1       0.375   9.384   4.577  1.00  0.00     0.110 A 
ATOM     18  C   UNL     1      -0.195  10.554   5.086  1.00  0.00     0.102 A 
ATOM     19  C   UNL     1      -1.040  11.198   4.089  1.00  0.00     0.011 A 
ATOM     20  C   UNL     1      -1.245  10.361   3.015  1.00  0.00     0.076 A 
ATOM     21  S   UNL     1      -0.597   8.836   3.316  1.00  0.00    -0.125 S 
BRANCH  18  22
ATOM     22  C   UNL     1       0.085  11.032   6.436  1.00  0.00     0.341 C 
ATOM     23  O   UNL     1       1.072  10.705   7.075  1.00  0.00    -0.246 OA
BRANCH  22  24
ATOM     24  O   UNL     1      -0.948  11.776   6.928  1.00  0.00    -0.465 OA
ATOM     25  C   UNL     1      -0.893  12.017   8.332  1.00  0.00     0.282 C 
ENDBRANCH  22  24
ENDBRANCH  18  22
BRANCH  19  26
ATOM     26  C   UNL     1      -1.556  12.569   4.046  1.00  0.00     0.002 A 
ATOM     27  C   UNL     1      -0.646  13.617   4.278  1.00  0.00     0.010 A 
ATOM     28  C   UNL     1      -2.882  12.896   3.702  1.00  0.00     0.048 A 
ATOM     29  C   UNL     1      -1.044  14.950   4.163  1.00  0.00     0.001 A 
ATOM     30  C   UNL     1      -3.266  14.235   3.564  1.00  0.00     0.021 A 
ATOM     31  Cl  UNL     1      -4.119  11.709   3.448  1.00  0.00    -0.084 Cl
ATOM     32  C   UNL     1      -2.349  15.259   3.795  1.00  0.00     0.002 A 
ENDBRANCH  19  26
ENDBRANCH  14  17
ENDBRANCH   7  13
ENDBRANCH   3   6
ENDBRANCH   1   2
BRANCH   1  33
ATOM     33  C   UNL     1      -0.698   3.255   1.904  1.00  0.00     0.042 C 
BRANCH  33  34
ATOM     34  C   UNL     1      -1.792   2.924   2.928  1.00  0.00     0.118 C 
BRANCH  34  35
ATOM     35  N   UNL     1      -3.133   2.928   2.362  1.00  0.00    -0.352 N 
ATOM     36  C   UNL     1      -4.084   1.939   2.289  1.00  0.00     0.251 C 
ATOM     37  H   UNL     1      -3.405   3.785   1.962  1.00  0.00     0.163 HD
ATOM     38  O   UNL     1      -5.106   2.142   1.637  1.00  0.00    -0.269 OA
BRANCH  36  39
ATOM     39  C   UNL     1      -3.900   0.624   2.949  1.00  0.00     0.039 A 
ATOM     40  C   UNL     1      -4.281  -0.525   2.246  1.00  0.00     0.014 A 
ATOM     41  C   UNL     1      -3.429   0.504   4.259  1.00  0.00     0.014 A 
ATOM     42  C   UNL     1      -4.125  -1.790   2.824  1.00  0.00     0.010 A 
ATOM     43  C   UNL     1      -3.225  -0.763   4.817  1.00  0.00     0.010 A 
ATOM     44  C   UNL     1      -3.562  -1.924   4.103  1.00  0.00    -0.014 A 
BRANCH  44  45
ATOM     45  C   UNL     1      -3.287  -3.270   4.678  1.00  0.00     0.031 A 
ATOM     46  C   UNL     1      -4.023  -3.757   5.896  1.00  0.00     0.074 A 
ATOM     47  C   UNL     1      -2.321  -4.036   4.133  1.00  0.00     0.049 A 
ATOM     48  N   UNL     1      -3.870  -4.875   6.563  1.00  0.00    -0.248 NA
ATOM     49  C   UNL     1      -5.053  -2.866   6.451  1.00  0.00     0.031 C 
ATOM     50  C   UNL     1      -1.498  -3.665   2.981  1.00  0.00     0.029 A 
ATOM     51  N   UNL     1      -1.853  -5.279   4.486  1.00  0.00    -0.354 N 
ATOM     52  C   UNL     1      -4.763  -4.812   7.625  1.00  0.00     0.074 A 
ATOM     53  C   UNL     1      -5.438  -3.535   7.530  1.00  0.00     0.031 C 
ATOM     54  C   UNL     1      -0.634  -4.657   2.718  1.00  0.00     0.029 A 
ATOM     55  C   UNL     1      -0.815  -5.721   3.701  1.00  0.00     0.049 A 
ATOM     56  H   UNL     1      -2.225  -5.803   5.231  1.00  0.00     0.167 HD
ATOM     57  C   UNL     1      -5.005  -5.739   8.583  1.00  0.00     0.037 A 
ATOM     58  C   UNL     1      -0.082  -6.849   3.771  1.00  0.00     0.037 A 
ATOM     59  C   UNL     1      -4.366  -7.028   8.655  1.00  0.00     0.049 A 
ATOM     60  C   UNL     1      -0.387  -7.866   4.837  1.00  0.00     0.074 A 
ATOM     61  C   UNL     1      -4.623  -8.069   9.531  1.00  0.00     0.029 A 
ATOM     62  N   UNL     1      -3.341  -7.451   7.824  1.00  0.00    -0.354 N 
ATOM     63  N   UNL     1      -1.299  -7.832   5.777  1.00  0.00    -0.248 NA
ATOM     64  C   UNL     1       0.437  -9.084   4.847  1.00  0.00     0.031 C 
ATOM     65  C   UNL     1      -3.722  -9.104   9.261  1.00  0.00     0.029 A 
ATOM     66  C   UNL     1      -2.934  -8.726   8.186  1.00  0.00     0.049 A 
ATOM     67  H   UNL     1      -2.957  -6.925   7.085  1.00  0.00     0.167 HD
ATOM     68  C   UNL     1      -1.177  -9.029   6.470  1.00  0.00     0.074 A 
ATOM     69  C   UNL     1      -0.115  -9.777   5.833  1.00  0.00     0.031 C 
ATOM     70  C   UNL     1      -1.883  -9.467   7.540  1.00  0.00     0.037 A 
BRANCH  57  71
ATOM     71  C   UNL     1      -6.011  -5.407   9.645  1.00  0.00     0.064 A 
ATOM     72  C   UNL     1      -7.387  -5.396   9.378  1.00  0.00     0.173 A 
ATOM     73  C   UNL     1      -5.596  -5.184  10.967  1.00  0.00     0.173 A 
ATOM     74  F   UNL     1      -7.834  -5.600   8.130  1.00  0.00    -0.203 F 
ATOM     75  C   UNL     1      -8.311  -5.158  10.392  1.00  0.00     0.198 A 
ATOM     76  C   UNL     1      -6.523  -4.970  11.983  1.00  0.00     0.198 A 
ATOM     77  F   UNL     1      -4.291  -5.195  11.278  1.00  0.00    -0.203 F 
ATOM     78  F   UNL     1      -9.621  -5.126  10.109  1.00  0.00    -0.200 F 
ATOM     79  C   UNL     1      -7.880  -4.955  11.695  1.00  0.00     0.200 A 
ATOM     80  F   UNL     1      -6.105  -4.789  13.244  1.00  0.00    -0.200 F 
ATOM     81  F   UNL     1      -8.771  -4.744  12.673  1.00  0.00    -0.200 F 
ENDBRANCH  57  71
BRANCH  58  82
ATOM     82  C   UNL     1       1.017  -7.086   2.799  1.00  0.00     0.064 A 
ATOM     83  C   UNL     1       0.914  -8.091   1.827  1.00  0.00     0.173 A 
ATOM     84  C   UNL     1       2.200  -6.335   2.840  1.00  0.00     0.173 A 
ATOM     85  F   UNL     1      -0.189  -8.851   1.764  1.00  0.00    -0.203 F 
ATOM     86  C   UNL     1       1.966  -8.355   0.952  1.00  0.00     0.198 A 
ATOM     87  C   UNL     1       3.239  -6.581   1.945  1.00  0.00     0.198 A 
ATOM     88  F   UNL     1       2.346  -5.360   3.749  1.00  0.00    -0.203 F 
ATOM     89  F   UNL     1       1.863  -9.358   0.069  1.00  0.00    -0.200 F 
ATOM     90  C   UNL     1       3.126  -7.597   1.009  1.00  0.00     0.200 A 
ATOM     91  F   UNL     1       4.354  -5.838   1.996  1.00  0.00    -0.200 F 
ATOM     92  F   UNL     1       4.138  -7.854   0.169  1.00  0.00    -0.200 F 
ENDBRANCH  58  82
BRANCH  70  93
ATOM     93  C   UNL     1      -1.554 -10.832   8.069  1.00  0.00     0.064 A 
ATOM     94  C   UNL     1      -0.369 -11.079   8.778  1.00  0.00     0.173 A 
ATOM     95  C   UNL     1      -2.450 -11.898   7.893  1.00  0.00     0.173 A 
ATOM     96  F   UNL     1       0.526 -10.097   8.959  1.00  0.00    -0.203 F 
ATOM     97  C   UNL     1      -0.082 -12.350   9.269  1.00  0.00     0.198 A 
ATOM     98  C   UNL     1      -2.172 -13.160   8.409  1.00  0.00     0.198 A 
ATOM     99  F   UNL     1      -3.599 -11.712   7.226  1.00  0.00    -0.203 F 
ATOM    100  F   UNL     1       1.078 -12.575   9.902  1.00  0.00    -0.200 F 
ATOM    101  C   UNL     1      -0.985 -13.387   9.090  1.00  0.00     0.200 A 
ATOM    102  F   UNL     1      -3.051 -14.159   8.245  1.00  0.00    -0.200 F 
ATOM    103  F   UNL     1      -0.709 -14.609   9.567  1.00  0.00    -0.200 F 
ENDBRANCH  70  93
ENDBRANCH  44  45
ENDBRANCH  36  39
ENDBRANCH  34  35
ENDBRANCH  33  34
ENDBRANCH   1  33
TORSDOF 15
