REMARK SMILES C[C@@H]([C@H](C)O)[C@H](C(=O)NCCCNC(=O)c1ccc(-c2c3nc(c(-c4c(F)c(F)c(F)c(F)c4F)c4ccc([nH]4)c(-c4c(F)c(F)c(F)c(F)c4F)c4nc(c(-c5c(F)c(F)c(F)c(F)c5F)c5ccc2[nH]5)C=C4)C=C3)cc1)c1ccccc1Br
REMARK SMILES IDX 10 1 9 2 7 3 8 4 6 6 2 7 1 8 3 9 4 10 5 11 79 13 80 14 84 15
REMARK SMILES IDX 81 16 83 17 85 18 82 19 11 20 12 21 13 22 14 23 15 25 16 26
REMARK SMILES IDX 17 27 78 28 18 29 77 30 19 31 20 32 21 33 71 34 22 35 76 36
REMARK SMILES IDX 70 37 72 38 23 39 75 40 69 41 68 42 24 44 56 45 36 46 55 47
REMARK SMILES IDX 37 48 40 49 54 50 73 51 38 52 39 53 53 55 74 56 41 57 25 58
REMARK SMILES IDX 26 59 34 60 27 61 28 62 32 63 35 64 29 65 30 66 33 67 31 68
REMARK SMILES IDX 57 69 58 70 66 71 59 72 60 73 64 74 67 75 61 76 62 77 65 78
REMARK SMILES IDX 63 79 42 80 43 81 51 82 44 83 45 84 49 85 52 86 46 87 47 88
REMARK SMILES IDX 50 89 48 90
REMARK H PARENT 9 5 5 12 13 24 72 43 40 54
REMARK Flexibility Score: inf
ROOT
ATOM      1  C   UNL     1      -3.445   1.201  -4.126  1.00  0.00     0.117 C 
ENDROOT
BRANCH   1   2
ATOM      2  N   UNL     1      -4.076   1.556  -2.868  1.00  0.00    -0.355 N 
ATOM      3  C   UNL     1      -4.559   0.730  -1.888  1.00  0.00     0.227 C 
ATOM      4  O   UNL     1      -5.543   1.148  -1.272  1.00  0.00    -0.274 OA
ATOM      5  H   UNL     1      -4.169   2.521  -2.695  1.00  0.00     0.163 HD
BRANCH   3   6
ATOM      6  C   UNL     1      -3.816  -0.587  -1.486  1.00  0.00     0.115 C 
BRANCH   6   7
ATOM      7  C   UNL     1      -3.347  -0.277  -0.014  1.00  0.00     0.031 C 
ATOM      8  C   UNL     1      -4.413  -0.279   1.096  1.00  0.00     0.011 C 
BRANCH   7   9
ATOM      9  C   UNL     1      -2.038  -0.945   0.468  1.00  0.00     0.115 C 
ATOM     10  C   UNL     1      -1.264   0.011   1.391  1.00  0.00     0.038 C 
BRANCH   9  11
ATOM     11  O   UNL     1      -1.191  -1.291  -0.625  1.00  0.00    -0.393 OA
ATOM     12  H   UNL     1      -0.939  -0.487  -1.106  1.00  0.00     0.210 HD
ENDBRANCH   9  11
ENDBRANCH   7   9
ENDBRANCH   6   7
BRANCH   6  13
ATOM     13  C   UNL     1      -4.607  -1.796  -2.015  1.00  0.00    -0.021 A 
ATOM     14  C   UNL     1      -4.558  -1.968  -3.420  1.00  0.00     0.006 A 
ATOM     15  C   UNL     1      -5.518  -2.628  -1.358  1.00  0.00     0.021 A 
ATOM     16  C   UNL     1      -5.536  -2.657  -4.142  1.00  0.00     0.000 A 
ATOM     17  C   UNL     1      -6.530  -3.298  -2.076  1.00  0.00     0.016 A 
ATOM     18  Br  UNL     1      -5.314  -3.256   0.418  1.00  0.00    -0.051 Br
ATOM     19  C   UNL     1      -6.575  -3.262  -3.465  1.00  0.00     0.001 A 
ENDBRANCH   6  13
ENDBRANCH   3   6
ENDBRANCH   1   2
BRANCH   1  20
ATOM     20  C   UNL     1      -4.518   0.829  -5.154  1.00  0.00     0.042 C 
BRANCH  20  21
ATOM     21  C   UNL     1      -5.238   2.031  -5.754  1.00  0.00     0.118 C 
BRANCH  21  22
ATOM     22  N   UNL     1      -4.516   2.576  -6.889  1.00  0.00    -0.352 N 
ATOM     23  C   UNL     1      -4.904   2.699  -8.201  1.00  0.00     0.251 C 
ATOM     24  H   UNL     1      -3.611   2.907  -6.688  1.00  0.00     0.163 HD
ATOM     25  O   UNL     1      -4.058   2.965  -9.050  1.00  0.00    -0.269 OA
BRANCH  23  26
ATOM     26  C   UNL     1      -6.317   2.509  -8.614  1.00  0.00     0.039 A 
ATOM     27  C   UNL     1      -6.573   1.913  -9.854  1.00  0.00     0.014 A 
ATOM     28  C   UNL     1      -7.386   2.972  -7.842  1.00  0.00     0.014 A 
ATOM     29  C   UNL     1      -7.889   1.752 -10.301  1.00  0.00     0.010 A 
ATOM     30  C   UNL     1      -8.701   2.747  -8.254  1.00  0.00     0.010 A 
ATOM     31  C   UNL     1      -8.967   2.151  -9.496  1.00  0.00    -0.014 A 
BRANCH  31  32
ATOM     32  C   UNL     1     -10.371   1.971  -9.949  1.00  0.00     0.031 A 
ATOM     33  C   UNL     1     -11.246   3.166 -10.213  1.00  0.00     0.074 A 
ATOM     34  C   UNL     1     -10.883   0.731 -10.068  1.00  0.00     0.049 A 
ATOM     35  N   UNL     1     -12.508   3.211 -10.561  1.00  0.00    -0.248 NA
ATOM     36  C   UNL     1     -10.627   4.488 -10.037  1.00  0.00     0.031 C 
ATOM     37  C   UNL     1     -10.159  -0.509  -9.791  1.00  0.00     0.029 A 
ATOM     38  N   UNL     1     -12.136   0.311 -10.439  1.00  0.00    -0.354 N 
ATOM     39  C   UNL     1     -12.838   4.559 -10.620  1.00  0.00     0.074 A 
ATOM     40  C   UNL     1     -11.657   5.299 -10.231  1.00  0.00     0.031 C 
ATOM     41  C   UNL     1     -10.975  -1.552 -10.013  1.00  0.00     0.029 A 
ATOM     42  C   UNL     1     -12.287  -1.054 -10.419  1.00  0.00     0.049 A 
ATOM     43  H   UNL     1     -12.858   0.929 -10.695  1.00  0.00     0.167 HD
ATOM     44  C   UNL     1     -14.013   5.129 -10.982  1.00  0.00     0.037 A 
ATOM     45  C   UNL     1     -13.361  -1.818 -10.689  1.00  0.00     0.037 A 
ATOM     46  C   UNL     1     -15.178   4.394 -11.403  1.00  0.00     0.049 A 
ATOM     47  C   UNL     1     -14.647  -1.165 -11.116  1.00  0.00     0.074 A 
ATOM     48  C   UNL     1     -16.384   4.883 -11.875  1.00  0.00     0.029 A 
ATOM     49  N   UNL     1     -15.282   3.011 -11.399  1.00  0.00    -0.354 N 
ATOM     50  N   UNL     1     -14.922   0.109 -11.246  1.00  0.00    -0.248 NA
ATOM     51  C   UNL     1     -15.767  -2.059 -11.443  1.00  0.00     0.031 C 
ATOM     52  C   UNL     1     -17.233   3.797 -12.114  1.00  0.00     0.029 A 
ATOM     53  C   UNL     1     -16.541   2.629 -11.835  1.00  0.00     0.049 A 
ATOM     54  H   UNL     1     -14.567   2.391 -11.126  1.00  0.00     0.167 HD
ATOM     55  C   UNL     1     -16.238   0.173 -11.685  1.00  0.00     0.074 A 
ATOM     56  C   UNL     1     -16.700  -1.194 -11.816  1.00  0.00     0.031 C 
ATOM     57  C   UNL     1     -16.992   1.266 -11.955  1.00  0.00     0.037 A 
BRANCH  44  58
ATOM     58  C   UNL     1     -14.098   6.628 -10.933  1.00  0.00     0.064 A 
ATOM     59  C   UNL     1     -13.402   7.437 -11.843  1.00  0.00     0.173 A 
ATOM     60  C   UNL     1     -14.903   7.262  -9.974  1.00  0.00     0.173 A 
ATOM     61  F   UNL     1     -12.611   6.881 -12.773  1.00  0.00    -0.203 F 
ATOM     62  C   UNL     1     -13.477   8.826 -11.771  1.00  0.00     0.198 A 
ATOM     63  C   UNL     1     -15.000   8.651  -9.925  1.00  0.00     0.198 A 
ATOM     64  F   UNL     1     -15.597   6.536  -9.085  1.00  0.00    -0.203 F 
ATOM     65  F   UNL     1     -12.758   9.579 -12.615  1.00  0.00    -0.200 F 
ATOM     66  C   UNL     1     -14.280   9.431 -10.816  1.00  0.00     0.200 A 
ATOM     67  F   UNL     1     -15.786   9.234  -9.009  1.00  0.00    -0.200 F 
ATOM     68  F   UNL     1     -14.352  10.768 -10.748  1.00  0.00    -0.200 F 
ENDBRANCH  44  58
BRANCH  45  69
ATOM     69  C   UNL     1     -13.249  -3.295 -10.589  1.00  0.00     0.064 A 
ATOM     70  C   UNL     1     -13.214  -4.094 -11.740  1.00  0.00     0.173 A 
ATOM     71  C   UNL     1     -13.142  -3.934  -9.345  1.00  0.00     0.173 A 
ATOM     72  F   UNL     1     -13.334  -3.529 -12.950  1.00  0.00    -0.203 F 
ATOM     73  C   UNL     1     -13.084  -5.478 -11.650  1.00  0.00     0.198 A 
ATOM     74  C   UNL     1     -12.987  -5.316  -9.258  1.00  0.00     0.198 A 
ATOM     75  F   UNL     1     -13.165  -3.212  -8.215  1.00  0.00    -0.203 F 
ATOM     76  F   UNL     1     -13.081  -6.222 -12.765  1.00  0.00    -0.200 F 
ATOM     77  C   UNL     1     -12.962  -6.087 -10.410  1.00  0.00     0.200 A 
ATOM     78  F   UNL     1     -12.855  -5.899  -8.058  1.00  0.00    -0.200 F 
ATOM     79  F   UNL     1     -12.822  -7.417 -10.325  1.00  0.00    -0.200 F 
ENDBRANCH  45  69
BRANCH  57  80
ATOM     80  C   UNL     1     -18.395   1.031 -12.435  1.00  0.00     0.064 A 
ATOM     81  C   UNL     1     -19.401   0.584 -11.567  1.00  0.00     0.173 A 
ATOM     82  C   UNL     1     -18.743   1.290 -13.769  1.00  0.00     0.173 A 
ATOM     83  F   UNL     1     -19.114   0.307 -10.286  1.00  0.00    -0.203 F 
ATOM     84  C   UNL     1     -20.702   0.385 -12.022  1.00  0.00     0.198 A 
ATOM     85  C   UNL     1     -20.050   1.115 -14.214  1.00  0.00     0.198 A 
ATOM     86  F   UNL     1     -17.818   1.724 -14.638  1.00  0.00    -0.203 F 
ATOM     87  F   UNL     1     -21.639  -0.083 -11.186  1.00  0.00    -0.200 F 
ATOM     88  C   UNL     1     -21.027   0.657 -13.343  1.00  0.00     0.200 A 
ATOM     89  F   UNL     1     -20.365   1.389 -15.488  1.00  0.00    -0.200 F 
ATOM     90  F   UNL     1     -22.281   0.470 -13.778  1.00  0.00    -0.200 F 
ENDBRANCH  57  80
ENDBRANCH  31  32
ENDBRANCH  23  26
ENDBRANCH  21  22
ENDBRANCH  20  21
ENDBRANCH   1  20
TORSDOF 14
