REMARK SMILES Cc1ccc2nc(C(=O)NCCCNC(=O)c3ccc(-c4c5nc(c(-c6c(F)c(F)c(F)c(F)c6F)c6ccc([nH]6)c(-c6c(F)c(F)c(F)c(F)c6F)c6nc(c(-c7c(F)c(F)c(F)c(F)c7F)c7ccc4[nH]7)C=C6)C=C5)cc3)cc(N3CCOCC3)c2c1
REMARK SMILES IDX 12 1 11 2 10 3 8 4 9 5 7 7 1 8 2 9 3 10 89 11 4 12 88 13
REMARK SMILES IDX 5 14 81 15 6 16 80 17 82 18 83 19 87 20 84 21 86 22 85 23
REMARK SMILES IDX 13 24 14 25 15 26 16 28 17 29 18 30 79 31 19 32 78 33 20 34
REMARK SMILES IDX 21 35 22 36 72 37 23 38 77 39 71 40 73 41 24 42 76 43 70 44
REMARK SMILES IDX 69 45 25 47 57 48 37 49 56 50 38 51 41 52 55 53 74 54 39 55
REMARK SMILES IDX 40 56 54 58 75 59 42 60 26 61 27 62 35 63 28 64 29 65 33 66
REMARK SMILES IDX 36 67 30 68 31 69 34 70 32 71 58 72 59 73 67 74 60 75 61 76
REMARK SMILES IDX 65 77 68 78 62 79 63 80 66 81 64 82 43 83 44 84 52 85 45 86
REMARK SMILES IDX 46 87 50 88 53 89 47 90 48 91 51 92 49 93
REMARK H PARENT 10 6 14 27 73 46 41 57
REMARK Flexibility Score: inf
ROOT
ATOM      1  C   UNL     1      -5.762  -2.095   0.491  1.00  0.00     0.042 C 
ENDROOT
BRANCH   1   2
ATOM      2  C   UNL     1      -5.320  -1.213  -0.678  1.00  0.00     0.118 C 
BRANCH   2   3
ATOM      3  N   UNL     1      -5.077   0.148  -0.241  1.00  0.00    -0.351 N 
ATOM      4  C   UNL     1      -3.936   0.830   0.119  1.00  0.00     0.269 C 
ATOM      5  O   UNL     1      -4.095   2.014   0.426  1.00  0.00    -0.268 OA
ATOM      6  H   UNL     1      -5.894   0.695  -0.192  1.00  0.00     0.163 HD
BRANCH   4   7
ATOM      7  C   UNL     1      -2.554   0.230   0.122  1.00  0.00     0.130 A 
ATOM      8  C   UNL     1       3.877  -0.440  -0.165  1.00  0.00     0.044 C 
ATOM      9  C   UNL     1       2.439  -0.023  -0.113  1.00  0.00    -0.050 A 
ATOM     10  C   UNL     1       2.068   1.317  -0.155  1.00  0.00     0.005 A 
ATOM     11  C   UNL     1       1.434  -0.991  -0.023  1.00  0.00     0.016 A 
ATOM     12  C   UNL     1       0.716   1.669  -0.116  1.00  0.00     0.029 A 
ATOM     13  C   UNL     1       0.064  -0.643   0.066  1.00  0.00     0.024 A 
ATOM     14  C   UNL     1      -0.289   0.718  -0.014  1.00  0.00     0.073 A 
ATOM     15  C   UNL     1      -0.980  -1.592   0.214  1.00  0.00     0.049 A 
ATOM     16  N   UNL     1      -1.559   1.140  -0.003  1.00  0.00    -0.242 NA
ATOM     17  C   UNL     1      -2.295  -1.121   0.276  1.00  0.00     0.060 A 
BRANCH  15  18
ATOM     18  N   UNL     1      -0.714  -2.958   0.295  1.00  0.00    -0.366 N 
ATOM     19  C   UNL     1      -0.129  -3.474   1.546  1.00  0.00     0.145 C 
ATOM     20  C   UNL     1      -1.575  -3.927  -0.401  1.00  0.00     0.145 C 
ATOM     21  C   UNL     1       0.589  -4.803   1.252  1.00  0.00     0.181 C 
ATOM     22  C   UNL     1      -0.800  -5.239  -0.607  1.00  0.00     0.181 C 
ATOM     23  O   UNL     1      -0.298  -5.755   0.638  1.00  0.00    -0.378 OA
ENDBRANCH  15  18
ENDBRANCH   4   7
ENDBRANCH   2   3
ENDBRANCH   1   2
BRANCH   1  24
ATOM     24  C   UNL     1      -7.207  -1.852   0.923  1.00  0.00     0.118 C 
BRANCH  24  25
ATOM     25  N   UNL     1      -8.155  -2.356  -0.058  1.00  0.00    -0.352 N 
ATOM     26  C   UNL     1      -9.189  -3.245   0.082  1.00  0.00     0.251 C 
ATOM     27  H   UNL     1      -8.034  -2.002  -0.969  1.00  0.00     0.163 HD
ATOM     28  O   UNL     1      -9.720  -3.706  -0.924  1.00  0.00    -0.269 OA
BRANCH  26  29
ATOM     29  C   UNL     1      -9.677  -3.659   1.418  1.00  0.00     0.039 A 
ATOM     30  C   UNL     1     -10.114  -4.978   1.586  1.00  0.00     0.014 A 
ATOM     31  C   UNL     1      -9.795  -2.751   2.475  1.00  0.00     0.014 A 
ATOM     32  C   UNL     1     -10.641  -5.391   2.811  1.00  0.00     0.010 A 
ATOM     33  C   UNL     1     -10.263  -3.180   3.717  1.00  0.00     0.010 A 
ATOM     34  C   UNL     1     -10.708  -4.499   3.892  1.00  0.00    -0.014 A 
BRANCH  34  35
ATOM     35  C   UNL     1     -11.274  -4.925   5.197  1.00  0.00     0.031 A 
ATOM     36  C   UNL     1     -12.564  -4.332   5.692  1.00  0.00     0.074 A 
ATOM     37  C   UNL     1     -10.606  -5.816   5.953  1.00  0.00     0.049 A 
ATOM     38  N   UNL     1     -13.193  -4.541   6.822  1.00  0.00    -0.248 NA
ATOM     39  C   UNL     1     -13.223  -3.355   4.811  1.00  0.00     0.031 C 
ATOM     40  C   UNL     1      -9.327  -6.432   5.601  1.00  0.00     0.029 A 
ATOM     41  N   UNL     1     -10.909  -6.354   7.179  1.00  0.00    -0.354 N 
ATOM     42  C   UNL     1     -14.307  -3.711   6.794  1.00  0.00     0.074 A 
ATOM     43  C   UNL     1     -14.245  -2.963   5.557  1.00  0.00     0.031 C 
ATOM     44  C   UNL     1      -8.963  -7.278   6.578  1.00  0.00     0.029 A 
ATOM     45  C   UNL     1      -9.968  -7.243   7.637  1.00  0.00     0.049 A 
ATOM     46  H   UNL     1     -11.723  -6.124   7.682  1.00  0.00     0.167 HD
ATOM     47  C   UNL     1     -15.301  -3.599   7.708  1.00  0.00     0.037 A 
ATOM     48  C   UNL     1      -9.922  -7.949   8.782  1.00  0.00     0.037 A 
ATOM     49  C   UNL     1     -15.376  -4.367   8.923  1.00  0.00     0.049 A 
ATOM     50  C   UNL     1     -11.051  -7.824   9.768  1.00  0.00     0.074 A 
ATOM     51  C   UNL     1     -16.367  -4.363   9.889  1.00  0.00     0.029 A 
ATOM     52  N   UNL     1     -14.420  -5.283   9.336  1.00  0.00    -0.354 N 
ATOM     53  N   UNL     1     -12.126  -7.078   9.705  1.00  0.00    -0.248 NA
ATOM     54  C   UNL     1     -10.963  -8.651  10.980  1.00  0.00     0.031 C 
ATOM     55  C   UNL     1     -15.995  -5.253  10.903  1.00  0.00     0.029 A 
ATOM     56  C   UNL     1     -14.793  -5.843  10.547  1.00  0.00     0.049 A 
ATOM     57  H   UNL     1     -13.598  -5.503   8.841  1.00  0.00     0.167 HD
ATOM     58  C   UNL     1     -12.856  -7.364  10.850  1.00  0.00     0.074 A 
ATOM     59  C   UNL     1     -12.107  -8.363  11.585  1.00  0.00     0.031 C 
ATOM     60  C   UNL     1     -14.040  -6.844  11.258  1.00  0.00     0.037 A 
BRANCH  47  61
ATOM     61  C   UNL     1     -16.392  -2.608   7.425  1.00  0.00     0.064 A 
ATOM     62  C   UNL     1     -17.340  -2.828   6.414  1.00  0.00     0.173 A 
ATOM     63  C   UNL     1     -16.513  -1.440   8.194  1.00  0.00     0.173 A 
ATOM     64  F   UNL     1     -17.262  -3.923   5.643  1.00  0.00    -0.203 F 
ATOM     65  C   UNL     1     -18.349  -1.901   6.163  1.00  0.00     0.198 A 
ATOM     66  C   UNL     1     -17.540  -0.529   7.958  1.00  0.00     0.198 A 
ATOM     67  F   UNL     1     -15.637  -1.184   9.177  1.00  0.00    -0.203 F 
ATOM     68  F   UNL     1     -19.213  -2.110   5.160  1.00  0.00    -0.200 F 
ATOM     69  C   UNL     1     -18.452  -0.757   6.939  1.00  0.00     0.200 A 
ATOM     70  F   UNL     1     -17.646   0.571   8.717  1.00  0.00    -0.200 F 
ATOM     71  F   UNL     1     -19.427   0.131   6.699  1.00  0.00    -0.200 F 
ENDBRANCH  47  61
BRANCH  48  72
ATOM     72  C   UNL     1      -8.784  -8.869   9.038  1.00  0.00     0.064 A 
ATOM     73  C   UNL     1      -8.961 -10.258   8.995  1.00  0.00     0.173 A 
ATOM     74  C   UNL     1      -7.502  -8.381   9.326  1.00  0.00     0.173 A 
ATOM     75  F   UNL     1     -10.175 -10.771   8.742  1.00  0.00    -0.203 F 
ATOM     76  C   UNL     1      -7.902 -11.127   9.248  1.00  0.00     0.198 A 
ATOM     77  C   UNL     1      -6.438  -9.251   9.554  1.00  0.00     0.198 A 
ATOM     78  F   UNL     1      -7.280  -7.059   9.373  1.00  0.00    -0.203 F 
ATOM     79  F   UNL     1      -8.108 -12.451   9.240  1.00  0.00    -0.200 F 
ATOM     80  C   UNL     1      -6.640 -10.622   9.522  1.00  0.00     0.200 A 
ATOM     81  F   UNL     1      -5.216  -8.760   9.805  1.00  0.00    -0.200 F 
ATOM     82  F   UNL     1      -5.620 -11.458   9.761  1.00  0.00    -0.200 F 
ENDBRANCH  48  72
BRANCH  60  83
ATOM     83  C   UNL     1     -14.616  -7.376  12.537  1.00  0.00     0.064 A 
ATOM     84  C   UNL     1     -14.071  -7.040  13.784  1.00  0.00     0.173 A 
ATOM     85  C   UNL     1     -15.744  -8.210  12.513  1.00  0.00     0.173 A 
ATOM     86  F   UNL     1     -12.983  -6.259  13.857  1.00  0.00    -0.203 F 
ATOM     87  C   UNL     1     -14.619  -7.543  14.961  1.00  0.00     0.198 A 
ATOM     88  C   UNL     1     -16.305  -8.689  13.693  1.00  0.00     0.198 A 
ATOM     89  F   UNL     1     -16.305  -8.556  11.344  1.00  0.00    -0.203 F 
ATOM     90  F   UNL     1     -14.054  -7.248  16.140  1.00  0.00    -0.200 F 
ATOM     91  C   UNL     1     -15.738  -8.361  14.915  1.00  0.00     0.200 A 
ATOM     92  F   UNL     1     -17.392  -9.472  13.647  1.00  0.00    -0.200 F 
ATOM     93  F   UNL     1     -16.265  -8.842  16.050  1.00  0.00    -0.200 F 
ENDBRANCH  60  83
ENDBRANCH  34  35
ENDBRANCH  26  29
ENDBRANCH  24  25
ENDBRANCH   1  24
TORSDOF 11
