REMARK SMILES O=C(NCCCNC(=O)[C@H](c1c[nH]c2ccc(Br)cc12)[N@H+]1CCC[C@H](c2nc3ccccc3s2)C1)c1ccc(-c2c3nc(c(-c4c(F)c(F)c(F)c(F)c4F)c4ccc([nH]4)c(-c4c(F)c(F)c(F)c(F)c4F)c4nc(c(-c5c(F)c(F)c(F)c(F)c5F)c5ccc2[nH]5)C=C4)C=C3)cc1
REMARK SMILES IDX 5 1 4 2 3 3 1 4 2 5 36 7 37 8 98 9 38 10 97 11 39 12 40 13
REMARK SMILES IDX 41 14 91 15 42 16 96 17 90 18 92 19 43 20 95 21 89 22 88 23
REMARK SMILES IDX 44 25 76 26 56 27 75 28 57 29 60 30 74 31 93 32 58 33 59 34
REMARK SMILES IDX 73 36 94 37 61 38 45 39 46 40 54 41 47 42 48 43 52 44 55 45
REMARK SMILES IDX 49 46 50 47 53 48 51 49 77 50 78 51 86 52 79 53 80 54 84 55
REMARK SMILES IDX 87 56 81 57 82 58 85 59 83 60 62 61 63 62 71 63 64 64 65 65
REMARK SMILES IDX 69 66 72 67 66 68 67 69 70 70 68 71 6 72 7 73 8 74 9 76
REMARK SMILES IDX 10 77 21 78 22 79 35 80 23 82 25 83 24 84 26 85 27 86 34 87
REMARK SMILES IDX 28 88 33 89 29 90 32 91 30 92 31 93 11 94 12 95 20 96 13 97
REMARK SMILES IDX 14 98 19 99 15 101 17 102 16 103 18 104
REMARK H PARENT 3 6 92 24 60 35 7 75 21 81 13 100
REMARK Flexibility Score: inf
ROOT
ATOM      1  C   UNL     1       9.179   4.975  -5.331  1.00  0.00     0.042 C 
ENDROOT
BRANCH   1   2
ATOM      2  C   UNL     1      10.564   4.486  -4.948  1.00  0.00     0.118 C 
BRANCH   2   3
ATOM      3  N   UNL     1      11.555   4.937  -5.913  1.00  0.00    -0.352 N 
ATOM      4  O   UNL     1      12.816   6.469  -6.970  1.00  0.00    -0.269 OA
ATOM      5  C   UNL     1      12.311   6.085  -5.920  1.00  0.00     0.251 C 
ATOM      6  H   UNL     1      11.707   4.330  -6.674  1.00  0.00     0.163 HD
BRANCH   5   7
ATOM      7  C   UNL     1      12.525   6.851  -4.672  1.00  0.00     0.039 A 
ATOM      8  C   UNL     1      12.645   6.191  -3.451  1.00  0.00     0.014 A 
ATOM      9  C   UNL     1      12.700   8.239  -4.724  1.00  0.00     0.014 A 
ATOM     10  C   UNL     1      12.775   6.912  -2.276  1.00  0.00     0.010 A 
ATOM     11  C   UNL     1      12.986   8.953  -3.554  1.00  0.00     0.010 A 
ATOM     12  C   UNL     1      13.021   8.293  -2.318  1.00  0.00    -0.014 A 
BRANCH  12  13
ATOM     13  C   UNL     1      13.447   8.952  -1.056  1.00  0.00     0.031 A 
ATOM     14  C   UNL     1      12.644  10.048  -0.426  1.00  0.00     0.074 A 
ATOM     15  C   UNL     1      14.551   8.473  -0.445  1.00  0.00     0.049 A 
ATOM     16  N   UNL     1      12.846  10.657   0.716  1.00  0.00    -0.248 NA
ATOM     17  C   UNL     1      11.474  10.538  -1.168  1.00  0.00     0.031 C 
ATOM     18  C   UNL     1      15.426   7.428  -0.990  1.00  0.00     0.029 A 
ATOM     19  N   UNL     1      15.103   8.753   0.779  1.00  0.00    -0.354 N 
ATOM     20  C   UNL     1      11.840  11.606   0.825  1.00  0.00     0.074 A 
ATOM     21  C   UNL     1      11.043  11.515  -0.381  1.00  0.00     0.031 C 
ATOM     22  C   UNL     1      16.341   7.092  -0.072  1.00  0.00     0.029 A 
ATOM     23  C   UNL     1      16.180   7.957   1.088  1.00  0.00     0.049 A 
ATOM     24  H   UNL     1      14.761   9.455   1.378  1.00  0.00     0.167 HD
ATOM     25  C   UNL     1      11.603  12.465   1.846  1.00  0.00     0.037 A 
ATOM     26  C   UNL     1      16.966   7.933   2.179  1.00  0.00     0.037 A 
ATOM     27  C   UNL     1      12.402  12.539   3.045  1.00  0.00     0.049 A 
ATOM     28  C   UNL     1      16.673   8.896   3.291  1.00  0.00     0.074 A 
ATOM     29  C   UNL     1      12.247  13.376   4.137  1.00  0.00     0.029 A 
ATOM     30  N   UNL     1      13.508  11.742   3.310  1.00  0.00    -0.354 N 
ATOM     31  N   UNL     1      15.710   9.780   3.384  1.00  0.00    -0.248 NA
ATOM     32  C   UNL     1      17.578   8.865   4.445  1.00  0.00     0.031 C 
ATOM     33  C   UNL     1      13.279  13.113   5.044  1.00  0.00     0.029 A 
ATOM     34  C   UNL     1      14.050  12.077   4.542  1.00  0.00     0.049 A 
ATOM     35  H   UNL     1      13.856  11.042   2.712  1.00  0.00     0.167 HD
ATOM     36  C   UNL     1      15.892  10.413   4.603  1.00  0.00     0.074 A 
ATOM     37  C   UNL     1      17.032   9.778   5.234  1.00  0.00     0.031 C 
ATOM     38  C   UNL     1      15.192  11.439   5.145  1.00  0.00     0.037 A 
BRANCH  25  39
ATOM     39  C   UNL     1      10.440  13.404   1.713  1.00  0.00     0.064 A 
ATOM     40  C   UNL     1       9.115  12.952   1.809  1.00  0.00     0.173 A 
ATOM     41  C   UNL     1      10.652  14.782   1.546  1.00  0.00     0.173 A 
ATOM     42  F   UNL     1       8.857  11.644   1.957  1.00  0.00    -0.203 F 
ATOM     43  C   UNL     1       8.046  13.842   1.730  1.00  0.00     0.198 A 
ATOM     44  C   UNL     1       9.581  15.672   1.494  1.00  0.00     0.198 A 
ATOM     45  F   UNL     1      11.898  15.268   1.453  1.00  0.00    -0.203 F 
ATOM     46  F   UNL     1       6.789  13.383   1.792  1.00  0.00    -0.200 F 
ATOM     47  C   UNL     1       8.280  15.201   1.581  1.00  0.00     0.200 A 
ATOM     48  F   UNL     1       9.810  16.986   1.364  1.00  0.00    -0.200 F 
ATOM     49  F   UNL     1       7.251  16.057   1.520  1.00  0.00    -0.200 F 
ENDBRANCH  25  39
BRANCH  26  50
ATOM     50  C   UNL     1      18.112   6.988   2.252  1.00  0.00     0.064 A 
ATOM     51  C   UNL     1      18.145   5.952   3.194  1.00  0.00     0.173 A 
ATOM     52  C   UNL     1      19.201   7.105   1.374  1.00  0.00     0.173 A 
ATOM     53  F   UNL     1      17.138   5.807   4.067  1.00  0.00    -0.203 F 
ATOM     54  C   UNL     1      19.234   5.084   3.271  1.00  0.00     0.198 A 
ATOM     55  C   UNL     1      20.270   6.214   1.426  1.00  0.00     0.198 A 
ATOM     56  F   UNL     1      19.217   8.075   0.448  1.00  0.00    -0.203 F 
ATOM     57  F   UNL     1      19.265   4.135   4.216  1.00  0.00    -0.200 F 
ATOM     58  C   UNL     1      20.291   5.211   2.382  1.00  0.00     0.200 A 
ATOM     59  F   UNL     1      21.277   6.329   0.551  1.00  0.00    -0.200 F 
ATOM     60  F   UNL     1      21.333   4.372   2.452  1.00  0.00    -0.200 F 
ENDBRANCH  26  50
BRANCH  38  61
ATOM     61  C   UNL     1      15.646  11.921   6.491  1.00  0.00     0.064 A 
ATOM     62  C   UNL     1      16.852  12.621   6.650  1.00  0.00     0.173 A 
ATOM     63  C   UNL     1      14.873  11.673   7.635  1.00  0.00     0.173 A 
ATOM     64  F   UNL     1      17.635  12.865   5.588  1.00  0.00    -0.203 F 
ATOM     65  C   UNL     1      17.285  13.021   7.910  1.00  0.00     0.198 A 
ATOM     66  C   UNL     1      15.294  12.103   8.889  1.00  0.00     0.198 A 
ATOM     67  F   UNL     1      13.710  11.011   7.535  1.00  0.00    -0.203 F 
ATOM     68  F   UNL     1      18.471  13.630   8.046  1.00  0.00    -0.200 F 
ATOM     69  C   UNL     1      16.505  12.765   9.028  1.00  0.00     0.200 A 
ATOM     70  F   UNL     1      14.534  11.864   9.967  1.00  0.00    -0.200 F 
ATOM     71  F   UNL     1      16.926  13.146  10.242  1.00  0.00    -0.200 F 
ENDBRANCH  38  61
ENDBRANCH  12  13
ENDBRANCH   5   7
ENDBRANCH   2   3
ENDBRANCH   1   2
BRANCH   1  72
ATOM     72  C   UNL     1       8.582   4.121  -6.442  1.00  0.00     0.118 C 
BRANCH  72  73
ATOM     73  N   UNL     1       8.164   2.843  -5.903  1.00  0.00    -0.351 N 
ATOM     74  C   UNL     1       7.068   2.600  -5.107  1.00  0.00     0.283 C 
ATOM     75  H   UNL     1       8.722   2.065  -6.131  1.00  0.00     0.163 HD
ATOM     76  O   UNL     1       7.045   1.520  -4.513  1.00  0.00    -0.268 OA
BRANCH  74  77
ATOM     77  C   UNL     1       5.931   3.667  -5.063  1.00  0.00     0.307 C 
BRANCH  77  78
ATOM     78  N   UNL     1       4.743   3.319  -5.888  1.00  0.00    -0.320 N 
ATOM     79  C   UNL     1       4.469   4.359  -6.885  1.00  0.00     0.263 C 
ATOM     80  C   UNL     1       4.781   1.973  -6.497  1.00  0.00     0.274 C 
ATOM     81  H   UNL     1       3.964   3.280  -5.231  1.00  0.00     0.349 HD
ATOM     82  C   UNL     1       3.196   4.084  -7.684  1.00  0.00     0.062 C 
ATOM     83  C   UNL     1       3.490   1.605  -7.266  1.00  0.00     0.104 C 
ATOM     84  C   UNL     1       3.218   2.695  -8.315  1.00  0.00     0.022 C 
BRANCH  83  85
ATOM     85  C   UNL     1       2.342   1.384  -6.302  1.00  0.00     0.103 A 
ATOM     86  N   UNL     1       2.481   1.389  -4.995  1.00  0.00    -0.241 NA
ATOM     87  S   UNL     1       0.745   1.055  -6.852  1.00  0.00    -0.118 S 
ATOM     88  C   UNL     1       1.258   1.314  -4.376  1.00  0.00     0.082 A 
ATOM     89  C   UNL     1       0.171   1.131  -5.229  1.00  0.00     0.055 A 
ATOM     90  C   UNL     1       1.038   1.418  -2.990  1.00  0.00     0.030 A 
ATOM     91  C   UNL     1      -1.140   1.043  -4.739  1.00  0.00     0.021 A 
ATOM     92  C   UNL     1      -0.264   1.351  -2.492  1.00  0.00     0.002 A 
ATOM     93  C   UNL     1      -1.338   1.164  -3.358  1.00  0.00     0.002 A 
ENDBRANCH  83  85
ENDBRANCH  77  78
BRANCH  77  94
ATOM     94  C   UNL     1       5.553   4.011  -3.642  1.00  0.00     0.044 A 
ATOM     95  C   UNL     1       4.907   3.223  -2.707  1.00  0.00     0.094 A 
ATOM     96  C   UNL     1       5.912   5.229  -2.959  1.00  0.00     0.010 A 
ATOM     97  N   UNL     1       4.921   3.872  -1.502  1.00  0.00    -0.361 N 
ATOM     98  C   UNL     1       5.576   5.077  -1.615  1.00  0.00     0.046 A 
ATOM     99  C   UNL     1       6.552   6.424  -3.357  1.00  0.00     0.026 A 
ATOM    100  H   UNL     1       4.521   3.525  -0.672  1.00  0.00     0.166 HD
ATOM    101  C   UNL     1       5.902   6.031  -0.640  1.00  0.00     0.028 A 
ATOM    102  C   UNL     1       6.906   7.370  -2.392  1.00  0.00     0.018 A 
ATOM    103  C   UNL     1       6.595   7.176  -1.051  1.00  0.00     0.018 A 
ATOM    104  Br  UNL     1       7.865   8.914  -2.924  1.00  0.00    -0.051 Br
ENDBRANCH  77  94
ENDBRANCH  74  77
ENDBRANCH  72  73
ENDBRANCH   1  72
TORSDOF 13
