REMARK SMILES O=C(NCCCNC(=O)[C@H]1CC2(CCN(S(=O)(=O)N3CCOCC3)CC2)C[NH2+]1)c1ccc(-c2c3nc(c(-c4c(F)c(F)c(F)c(F)c4F)c4ccc([nH]4)c(-c4c(F)c(F)c(F)c(F)c4F)c4nc(c(-c5c(F)c(F)c(F)c(F)c5F)c5ccc2[nH]5)C=C4)C=C3)cc1
REMARK SMILES IDX 5 1 4 2 3 3 1 4 2 5 29 7 30 8 91 9 31 10 90 11 32 12 33 13
REMARK SMILES IDX 34 14 84 15 35 16 89 17 83 18 85 19 36 20 88 21 82 22 81 23
REMARK SMILES IDX 37 25 69 26 49 27 68 28 50 29 53 30 67 31 86 32 51 33 52 34
REMARK SMILES IDX 66 36 87 37 54 38 38 39 39 40 47 41 40 42 41 43 45 44 48 45
REMARK SMILES IDX 42 46 43 47 46 48 44 49 70 50 71 51 79 52 72 53 73 54 77 55
REMARK SMILES IDX 80 56 74 57 75 58 78 59 76 60 55 61 56 62 64 63 57 64 58 65
REMARK SMILES IDX 62 66 65 67 59 68 60 69 63 70 61 71 6 72 7 73 8 74 9 76
REMARK SMILES IDX 10 77 11 78 28 79 12 80 27 81 13 84 26 85 14 86 25 87 15 88
REMARK SMILES IDX 16 89 17 90 18 91 19 92 20 93 24 94 21 95 23 96 22 97
REMARK H PARENT 3 6 85 24 53 35 7 75 28 82 28 83
REMARK Flexibility Score: inf
ROOT
ATOM      1  C   UNL     1       8.547  -5.869   2.454  1.00  0.00     0.042 C 
ENDROOT
BRANCH   1   2
ATOM      2  C   UNL     1      10.060  -5.854   2.436  1.00  0.00     0.118 C 
BRANCH   2   3
ATOM      3  N   UNL     1      10.637  -6.864   3.313  1.00  0.00    -0.352 N 
ATOM      4  O   UNL     1      11.465  -8.878   3.893  1.00  0.00    -0.269 OA
ATOM      5  C   UNL     1      11.224  -8.067   3.005  1.00  0.00     0.251 C 
ATOM      6  H   UNL     1      10.600  -6.652   4.273  1.00  0.00     0.163 HD
BRANCH   5   7
ATOM      7  C   UNL     1      11.532  -8.394   1.598  1.00  0.00     0.039 A 
ATOM      8  C   UNL     1      12.056  -7.425   0.740  1.00  0.00     0.014 A 
ATOM      9  C   UNL     1      11.294  -9.688   1.132  1.00  0.00     0.014 A 
ATOM     10  C   UNL     1      12.159  -7.685  -0.618  1.00  0.00     0.010 A 
ATOM     11  C   UNL     1      11.522  -9.986  -0.212  1.00  0.00     0.010 A 
ATOM     12  C   UNL     1      11.922  -8.977  -1.103  1.00  0.00    -0.014 A 
BRANCH  12  13
ATOM     13  C   UNL     1      12.166  -9.283  -2.531  1.00  0.00     0.031 A 
ATOM     14  C   UNL     1      11.054  -9.768  -3.412  1.00  0.00     0.074 A 
ATOM     15  C   UNL     1      13.414  -9.149  -3.017  1.00  0.00     0.049 A 
ATOM     16  N   UNL     1      11.105 -10.196  -4.647  1.00  0.00    -0.248 NA
ATOM     17  C   UNL     1       9.707  -9.788  -2.823  1.00  0.00     0.031 C 
ATOM     18  C   UNL     1      14.569  -8.675  -2.252  1.00  0.00     0.029 A 
ATOM     19  N   UNL     1      13.924  -9.412  -4.261  1.00  0.00    -0.354 N 
ATOM     20  C   UNL     1       9.808 -10.566  -4.974  1.00  0.00     0.074 A 
ATOM     21  C   UNL     1       8.996 -10.336  -3.798  1.00  0.00     0.031 C 
ATOM     22  C   UNL     1      15.649  -8.671  -3.043  1.00  0.00     0.029 A 
ATOM     23  C   UNL     1      15.280  -9.219  -4.343  1.00  0.00     0.049 A 
ATOM     24  H   UNL     1      13.373  -9.711  -5.021  1.00  0.00     0.167 HD
ATOM     25  C   UNL     1       9.345 -11.052  -6.151  1.00  0.00     0.037 A 
ATOM     26  C   UNL     1      16.144  -9.498  -5.335  1.00  0.00     0.037 A 
ATOM     27  C   UNL     1      10.172 -11.275  -7.309  1.00  0.00     0.049 A 
ATOM     28  C   UNL     1      15.620 -10.090  -6.609  1.00  0.00     0.074 A 
ATOM     29  C   UNL     1       9.800 -11.732  -8.561  1.00  0.00     0.029 A 
ATOM     30  N   UNL     1      11.546 -11.074  -7.351  1.00  0.00    -0.354 N 
ATOM     31  N   UNL     1      14.388 -10.414  -6.922  1.00  0.00    -0.248 NA
ATOM     32  C   UNL     1      16.600 -10.357  -7.669  1.00  0.00     0.031 C 
ATOM     33  C   UNL     1      10.955 -11.875  -9.336  1.00  0.00     0.029 A 
ATOM     34  C   UNL     1      12.040 -11.430  -8.596  1.00  0.00     0.049 A 
ATOM     35  H   UNL     1      12.089 -10.729  -6.606  1.00  0.00     0.167 HD
ATOM     36  C   UNL     1      14.437 -10.890  -8.223  1.00  0.00     0.074 A 
ATOM     37  C   UNL     1      15.823 -10.815  -8.641  1.00  0.00     0.031 C 
ATOM     38  C   UNL     1      13.422 -11.337  -9.002  1.00  0.00     0.037 A 
BRANCH  25  39
ATOM     39  C   UNL     1       7.889 -11.422  -6.224  1.00  0.00     0.064 A 
ATOM     40  C   UNL     1       6.869 -10.460  -6.148  1.00  0.00     0.173 A 
ATOM     41  C   UNL     1       7.507 -12.765  -6.375  1.00  0.00     0.173 A 
ATOM     42  F   UNL     1       7.174  -9.162  -5.995  1.00  0.00    -0.203 F 
ATOM     43  C   UNL     1       5.527 -10.833  -6.169  1.00  0.00     0.198 A 
ATOM     44  C   UNL     1       6.165 -13.130  -6.435  1.00  0.00     0.198 A 
ATOM     45  F   UNL     1       8.437 -13.727  -6.464  1.00  0.00    -0.203 F 
ATOM     46  F   UNL     1       4.573  -9.903  -6.020  1.00  0.00    -0.200 F 
ATOM     47  C   UNL     1       5.176 -12.166  -6.317  1.00  0.00     0.200 A 
ATOM     48  F   UNL     1       5.829 -14.417  -6.596  1.00  0.00    -0.200 F 
ATOM     49  F   UNL     1       3.884 -12.523  -6.333  1.00  0.00    -0.200 F 
ENDBRANCH  25  39
BRANCH  26  50
ATOM     50  C   UNL     1      17.590  -9.227  -5.132  1.00  0.00     0.064 A 
ATOM     51  C   UNL     1      18.231  -8.186  -5.814  1.00  0.00     0.173 A 
ATOM     52  C   UNL     1      18.342  -9.963  -4.203  1.00  0.00     0.173 A 
ATOM     53  F   UNL     1      17.555  -7.461  -6.718  1.00  0.00    -0.203 F 
ATOM     54  C   UNL     1      19.573  -7.895  -5.580  1.00  0.00     0.198 A 
ATOM     55  C   UNL     1      19.675  -9.651  -3.948  1.00  0.00     0.198 A 
ATOM     56  F   UNL     1      17.769 -10.961  -3.514  1.00  0.00    -0.203 F 
ATOM     57  F   UNL     1      20.171  -6.911  -6.265  1.00  0.00    -0.200 F 
ATOM     58  C   UNL     1      20.291  -8.621  -4.640  1.00  0.00     0.200 A 
ATOM     59  F   UNL     1      20.356 -10.339  -3.022  1.00  0.00    -0.200 F 
ATOM     60  F   UNL     1      21.576  -8.325  -4.402  1.00  0.00    -0.200 F 
ENDBRANCH  26  50
BRANCH  38  61
ATOM     61  C   UNL     1      13.751 -11.727 -10.415  1.00  0.00     0.064 A 
ATOM     62  C   UNL     1      14.454 -12.900 -10.719  1.00  0.00     0.173 A 
ATOM     63  C   UNL     1      13.280 -10.946 -11.483  1.00  0.00     0.173 A 
ATOM     64  F   UNL     1      14.941 -13.671  -9.735  1.00  0.00    -0.203 F 
ATOM     65  C   UNL     1      14.682 -13.274 -12.041  1.00  0.00     0.198 A 
ATOM     66  C   UNL     1      13.481 -11.339 -12.802  1.00  0.00     0.198 A 
ATOM     67  F   UNL     1      12.599  -9.815 -11.244  1.00  0.00    -0.203 F 
ATOM     68  F   UNL     1      15.386 -14.382 -12.311  1.00  0.00    -0.200 F 
ATOM     69  C   UNL     1      14.184 -12.500 -13.080  1.00  0.00     0.200 A 
ATOM     70  F   UNL     1      12.984 -10.599 -13.803  1.00  0.00    -0.200 F 
ATOM     71  F   UNL     1      14.384 -12.874 -14.351  1.00  0.00    -0.200 F 
ENDBRANCH  38  61
ENDBRANCH  12  13
ENDBRANCH   5   7
ENDBRANCH   2   3
ENDBRANCH   1   2
BRANCH   1  72
ATOM     72  C   UNL     1       7.976  -5.437   3.784  1.00  0.00     0.118 C 
BRANCH  72  73
ATOM     73  N   UNL     1       8.316  -4.066   4.127  1.00  0.00    -0.351 N 
ATOM     74  C   UNL     1       7.472  -3.053   4.507  1.00  0.00     0.278 C 
ATOM     75  H   UNL     1       9.272  -3.835   4.080  1.00  0.00     0.163 HD
ATOM     76  O   UNL     1       7.939  -1.927   4.666  1.00  0.00    -0.268 OA
BRANCH  74  77
ATOM     77  C   UNL     1       5.997  -3.413   4.673  1.00  0.00     0.273 C 
ATOM     78  C   UNL     1       5.819  -4.460   5.750  1.00  0.00     0.088 C 
ATOM     79  N   UNL     1       5.183  -2.337   5.254  1.00  0.00    -0.336 N 
ATOM     80  C   UNL     1       4.320  -4.424   6.047  1.00  0.00     0.028 C 
ATOM     81  C   UNL     1       3.941  -2.968   5.710  1.00  0.00     0.268 C 
ATOM     82  H   UNL     1       4.981  -1.626   4.551  1.00  0.00     0.346 HD
ATOM     83  H   UNL     1       5.670  -1.876   6.022  1.00  0.00     0.346 HD
ATOM     84  C   UNL     1       4.149  -4.782   7.527  1.00  0.00     0.030 C 
ATOM     85  C   UNL     1       3.542  -5.413   5.125  1.00  0.00     0.030 C 
ATOM     86  C   UNL     1       4.426  -6.265   7.712  1.00  0.00     0.104 C 
ATOM     87  C   UNL     1       3.680  -6.894   5.505  1.00  0.00     0.104 C 
ATOM     88  N   UNL     1       3.468  -7.094   6.963  1.00  0.00    -0.189 NA
BRANCH  88  89
ATOM     89  S   UNL     1       1.839  -7.145   7.436  1.00  0.00     0.282 S 
ATOM     90  O   UNL     1       1.282  -5.820   7.336  1.00  0.00    -0.195 OA
ATOM     91  O   UNL     1       1.242  -8.246   6.711  1.00  0.00    -0.195 OA
BRANCH  89  92
ATOM     92  N   UNL     1       1.926  -7.569   9.035  1.00  0.00    -0.184 NA
ATOM     93  C   UNL     1       2.271  -8.938   9.436  1.00  0.00     0.132 C 
ATOM     94  C   UNL     1       2.005  -6.592  10.138  1.00  0.00     0.132 C 
ATOM     95  C   UNL     1       3.665  -8.931  10.050  1.00  0.00     0.177 C 
ATOM     96  C   UNL     1       3.289  -6.743  10.976  1.00  0.00     0.177 C 
ATOM     97  O   UNL     1       3.700  -8.096  11.218  1.00  0.00    -0.379 OA
ENDBRANCH  89  92
ENDBRANCH  88  89
ENDBRANCH  74  77
ENDBRANCH  72  73
ENDBRANCH   1  72
TORSDOF 12
