REMARK SMILES COc1ccc(-c2ccc(/C=C3\SC(=S)N([C@H](Cc4ccccc4)C(=O)NCCCNC(=O)c4ccc(-c5c6nc(c(-c7c(F)c(F)c(F)c(F)c7F)c7ccc([nH]7)c(-c7c(F)c(F)c(F)c(F)c7F)c7nc(c(-c8c(F)c(F)c(F)c(F)c8F)c8ccc5[nH]8)C=C7)C=C6)cc4)C3=O)o2)cc1
REMARK SMILES IDX 28 1 27 2 25 3 26 4 17 6 16 7 11 8 12 9 13 10 97 11 14 12
REMARK SMILES IDX 98 13 15 14 10 15 7 16 8 17 99 18 9 19 6 20 3 21 4 22 101 23
REMARK SMILES IDX 5 24 100 25 2 26 1 27 18 28 19 29 20 30 24 31 21 32 23 33
REMARK SMILES IDX 22 34 29 35 30 36 31 37 32 38 33 40 34 41 35 42 96 43 36 44
REMARK SMILES IDX 95 45 37 46 38 47 39 48 89 49 40 50 94 51 88 52 90 53 41 54
REMARK SMILES IDX 93 55 87 56 86 57 42 59 74 60 54 61 73 62 55 63 58 64 72 65
REMARK SMILES IDX 91 66 56 67 57 68 71 70 92 71 59 72 43 73 44 74 52 75 45 76
REMARK SMILES IDX 46 77 50 78 53 79 47 80 48 81 51 82 49 83 75 84 76 85 84 86
REMARK SMILES IDX 77 87 78 88 82 89 85 90 79 91 80 92 83 93 81 94 60 95 61 96
REMARK SMILES IDX 69 97 62 98 63 99 67 100 70 101 64 102 65 103 68 104 66 105
REMARK H PARENT 27 5 31 39 90 58 58 69
REMARK Flexibility Score: inf
ROOT
ATOM      1  C   UNL     1       0.920  -1.517 -13.180  1.00  0.00     0.117 C 
ENDROOT
BRANCH   1   2
ATOM      2  N   UNL     1       1.238  -2.506 -14.184  1.00  0.00    -0.354 N 
ATOM      3  C   UNL     1       0.881  -3.807 -14.318  1.00  0.00     0.243 C 
ATOM      4  O   UNL     1       1.553  -4.459 -15.127  1.00  0.00    -0.273 OA
ATOM      5  H   UNL     1       1.821  -2.173 -14.904  1.00  0.00     0.163 HD
BRANCH   3   6
ATOM      6  C   UNL     1      -0.159  -4.521 -13.423  1.00  0.00     0.185 C 
BRANCH   6   7
ATOM      7  N   UNL     1      -1.479  -3.832 -13.367  1.00  0.00    -0.280 N 
ATOM      8  C   UNL     1      -4.498  -3.469 -15.336  1.00  0.00     0.068 C 
ATOM      9  C   UNL     1      -3.553  -3.304 -14.402  1.00  0.00     0.084 C 
ATOM     10  S   UNL     1      -3.670  -2.543 -12.878  1.00  0.00    -0.054 SA
ATOM     11  C   UNL     1      -2.209  -3.908 -14.556  1.00  0.00     0.267 C 
ATOM     12  C   UNL     1      -2.126  -3.193 -12.325  1.00  0.00     0.149 C 
ATOM     13  O   UNL     1      -1.828  -4.410 -15.602  1.00  0.00    -0.268 OA
ATOM     14  S   UNL     1      -1.703  -2.970 -10.726  1.00  0.00    -0.052 S 
BRANCH   8  15
ATOM     15  C   UNL     1      -5.826  -2.983 -15.207  1.00  0.00     0.128 A 
ATOM     16  C   UNL     1      -8.046  -3.052 -15.197  1.00  0.00     0.134 A 
ATOM     17  C   UNL     1      -7.707  -1.750 -14.917  1.00  0.00     0.051 A 
ATOM     18  O   UNL     1      -6.923  -3.797 -15.383  1.00  0.00    -0.457 OA
ATOM     19  C   UNL     1      -6.294  -1.704 -14.927  1.00  0.00     0.051 A 
BRANCH  16  20
ATOM     20  C   UNL     1      -9.311  -3.743 -15.359  1.00  0.00     0.017 A 
ATOM     21  C   UNL     1     -11.792  -5.024 -15.652  1.00  0.00     0.118 A 
ATOM     22  C   UNL     1     -10.851  -5.514 -14.747  1.00  0.00     0.047 A 
ATOM     23  C   UNL     1     -11.507  -3.878 -16.394  1.00  0.00     0.047 A 
ATOM     24  C   UNL     1      -9.608  -4.888 -14.612  1.00  0.00     0.016 A 
ATOM     25  C   UNL     1     -10.272  -3.240 -16.244  1.00  0.00     0.016 A 
BRANCH  21  26
ATOM     26  O   UNL     1     -12.983  -5.694 -15.703  1.00  0.00    -0.497 OA
ATOM     27  C   UNL     1     -13.521  -5.828 -17.016  1.00  0.00     0.278 C 
ENDBRANCH  21  26
ENDBRANCH  16  20
ENDBRANCH   8  15
ENDBRANCH   6   7
BRANCH   6  28
ATOM     28  C   UNL     1       0.539  -4.998 -12.135  1.00  0.00     0.071 C 
BRANCH  28  29
ATOM     29  C   UNL     1       0.035  -6.301 -11.545  1.00  0.00    -0.045 A 
ATOM     30  C   UNL     1       0.928  -7.075 -10.785  1.00  0.00     0.004 A 
ATOM     31  C   UNL     1      -1.270  -6.782 -11.725  1.00  0.00     0.004 A 
ATOM     32  C   UNL     1       0.546  -8.314 -10.270  1.00  0.00     0.000 A 
ATOM     33  C   UNL     1      -1.652  -8.023 -11.209  1.00  0.00     0.000 A 
ATOM     34  C   UNL     1      -0.742  -8.793 -10.491  1.00  0.00     0.000 A 
ENDBRANCH  28  29
ENDBRANCH   6  28
ENDBRANCH   3   6
ENDBRANCH   1   2
BRANCH   1  35
ATOM     35  C   UNL     1       2.022  -1.383 -12.135  1.00  0.00     0.042 C 
BRANCH  35  36
ATOM     36  C   UNL     1       3.345  -0.860 -12.691  1.00  0.00     0.118 C 
BRANCH  36  37
ATOM     37  N   UNL     1       3.215   0.457 -13.300  1.00  0.00    -0.352 N 
ATOM     38  C   UNL     1       3.769   1.663 -12.956  1.00  0.00     0.251 C 
ATOM     39  H   UNL     1       2.631   0.485 -14.092  1.00  0.00     0.163 HD
ATOM     40  O   UNL     1       3.351   2.690 -13.483  1.00  0.00    -0.269 OA
BRANCH  38  41
ATOM     41  C   UNL     1       4.853   1.745 -11.953  1.00  0.00     0.039 A 
ATOM     42  C   UNL     1       4.852   2.813 -11.051  1.00  0.00     0.014 A 
ATOM     43  C   UNL     1       5.893   0.812 -11.927  1.00  0.00     0.014 A 
ATOM     44  C   UNL     1       5.854   2.908 -10.084  1.00  0.00     0.010 A 
ATOM     45  C   UNL     1       6.848   0.863 -10.914  1.00  0.00     0.010 A 
ATOM     46  C   UNL     1       6.840   1.913  -9.983  1.00  0.00    -0.014 A 
BRANCH  46  47
ATOM     47  C   UNL     1       7.858   1.949  -8.903  1.00  0.00     0.031 A 
ATOM     48  C   UNL     1       9.317   2.099  -9.233  1.00  0.00     0.074 A 
ATOM     49  C   UNL     1       7.469   1.781  -7.625  1.00  0.00     0.049 A 
ATOM     50  N   UNL     1      10.351   2.099  -8.429  1.00  0.00    -0.248 NA
ATOM     51  C   UNL     1       9.663   2.240 -10.655  1.00  0.00     0.031 C 
ATOM     52  C   UNL     1       6.089   1.569  -7.184  1.00  0.00     0.029 A 
ATOM     53  N   UNL     1       8.197   1.751  -6.462  1.00  0.00    -0.354 N 
ATOM     54  C   UNL     1      11.466   2.224  -9.248  1.00  0.00     0.074 A 
ATOM     55  C   UNL     1      10.988   2.244 -10.613  1.00  0.00     0.031 C 
ATOM     56  C   UNL     1       6.067   1.455  -5.846  1.00  0.00     0.029 A 
ATOM     57  C   UNL     1       7.433   1.550  -5.339  1.00  0.00     0.049 A 
ATOM     58  H   UNL     1       9.175   1.864  -6.436  1.00  0.00     0.167 HD
ATOM     59  C   UNL     1      12.769   2.335  -8.891  1.00  0.00     0.037 A 
ATOM     60  C   UNL     1       7.792   1.448  -4.046  1.00  0.00     0.037 A 
ATOM     61  C   UNL     1      13.238   2.338  -7.529  1.00  0.00     0.049 A 
ATOM     62  C   UNL     1       9.244   1.582  -3.676  1.00  0.00     0.074 A 
ATOM     63  C   UNL     1      14.528   2.514  -7.061  1.00  0.00     0.029 A 
ATOM     64  N   UNL     1      12.431   2.153  -6.416  1.00  0.00    -0.354 N 
ATOM     65  N   UNL     1      10.281   1.777  -4.453  1.00  0.00    -0.248 NA
ATOM     66  C   UNL     1       9.572   1.490  -2.247  1.00  0.00     0.031 C 
ATOM     67  C   UNL     1      14.509   2.388  -5.667  1.00  0.00     0.029 A 
ATOM     68  C   UNL     1      13.200   2.186  -5.263  1.00  0.00     0.049 A 
ATOM     69  H   UNL     1      11.456   2.018  -6.441  1.00  0.00     0.167 HD
ATOM     70  C   UNL     1      11.380   1.856  -3.609  1.00  0.00     0.074 A 
ATOM     71  C   UNL     1      10.880   1.705  -2.258  1.00  0.00     0.031 C 
ATOM     72  C   UNL     1      12.687   2.035  -3.925  1.00  0.00     0.037 A 
BRANCH  59  73
ATOM     73  C   UNL     1      13.782   2.463  -9.992  1.00  0.00     0.064 A 
ATOM     74  C   UNL     1      13.869   3.620 -10.782  1.00  0.00     0.173 A 
ATOM     75  C   UNL     1      14.701   1.432 -10.239  1.00  0.00     0.173 A 
ATOM     76  F   UNL     1      13.008   4.632 -10.594  1.00  0.00    -0.203 F 
ATOM     77  C   UNL     1      14.816   3.726 -11.797  1.00  0.00     0.198 A 
ATOM     78  C   UNL     1      15.667   1.554 -11.235  1.00  0.00     0.198 A 
ATOM     79  F   UNL     1      14.667   0.306  -9.510  1.00  0.00    -0.203 F 
ATOM     80  F   UNL     1      14.846   4.820 -12.572  1.00  0.00    -0.200 F 
ATOM     81  C   UNL     1      15.718   2.697 -12.018  1.00  0.00     0.200 A 
ATOM     82  F   UNL     1      16.547   0.564 -11.438  1.00  0.00    -0.200 F 
ATOM     83  F   UNL     1      16.633   2.803 -12.992  1.00  0.00    -0.200 F 
ENDBRANCH  59  73
BRANCH  60  84
ATOM     84  C   UNL     1       6.754   1.235  -3.005  1.00  0.00     0.064 A 
ATOM     85  C   UNL     1       6.428   2.252  -2.096  1.00  0.00     0.173 A 
ATOM     86  C   UNL     1       6.063   0.019  -2.900  1.00  0.00     0.173 A 
ATOM     87  F   UNL     1       7.076   3.425  -2.145  1.00  0.00    -0.203 F 
ATOM     88  C   UNL     1       5.464   2.054  -1.111  1.00  0.00     0.198 A 
ATOM     89  C   UNL     1       5.078  -0.167  -1.932  1.00  0.00     0.198 A 
ATOM     90  F   UNL     1       6.333  -0.983  -3.750  1.00  0.00    -0.203 F 
ATOM     91  F   UNL     1       5.202   3.028  -0.229  1.00  0.00    -0.200 F 
ATOM     92  C   UNL     1       4.785   0.848  -1.034  1.00  0.00     0.200 A 
ATOM     93  F   UNL     1       4.414  -1.329  -1.871  1.00  0.00    -0.200 F 
ATOM     94  F   UNL     1       3.852   0.661  -0.090  1.00  0.00    -0.200 F 
ENDBRANCH  60  84
BRANCH  72  95
ATOM     95  C   UNL     1      13.663   2.106  -2.787  1.00  0.00     0.064 A 
ATOM     96  C   UNL     1      14.001   0.971  -2.035  1.00  0.00     0.173 A 
ATOM     97  C   UNL     1      14.289   3.319  -2.463  1.00  0.00     0.173 A 
ATOM     98  F   UNL     1      13.417  -0.209  -2.294  1.00  0.00    -0.203 F 
ATOM     99  C   UNL     1      14.909   1.054  -0.982  1.00  0.00     0.198 A 
ATOM    100  C   UNL     1      15.220   3.392  -1.430  1.00  0.00     0.198 A 
ATOM    101  F   UNL     1      14.006   4.433  -3.155  1.00  0.00    -0.203 F 
ATOM    102  F   UNL     1      15.177  -0.032  -0.244  1.00  0.00    -0.200 F 
ATOM    103  C   UNL     1      15.522   2.263  -0.685  1.00  0.00     0.200 A 
ATOM    104  F   UNL     1      15.822   4.557  -1.154  1.00  0.00    -0.200 F 
ATOM    105  F   UNL     1      16.399   2.340   0.325  1.00  0.00    -0.200 F 
ENDBRANCH  72  95
ENDBRANCH  46  47
ENDBRANCH  38  41
ENDBRANCH  36  37
ENDBRANCH  35  36
ENDBRANCH   1  35
TORSDOF 16
