REMARK SMILES O=C(CCc1cccnc1)Nc1cccc(F)c1C(=O)NCCCNC(=O)c1ccc(-c2c3nc(c(-c4c(F)c(F)c(F)c(F)c4F)c4ccc([nH]4)c(-c4c(F)c(F)c(F)c(F)c4F)c4nc(c(-c5c(F)c(F)c(F)c(F)c5F)c5ccc2[nH]5)C=C4)C=C3)cc1
REMARK SMILES IDX 22 1 21 2 19 3 20 4 18 6 12 7 13 8 14 9 16 10 15 11 17 12
REMARK SMILES IDX 11 13 1 14 2 15 3 17 4 18 5 19 6 20 10 21 7 22 9 23 8 24
REMARK SMILES IDX 23 25 24 26 25 27 26 28 27 30 28 31 29 32 90 33 30 34 89 35
REMARK SMILES IDX 31 36 32 37 33 38 83 39 34 40 88 41 82 42 84 43 35 44 87 45
REMARK SMILES IDX 81 46 80 47 36 49 68 50 48 51 67 52 49 53 52 54 66 55 85 56
REMARK SMILES IDX 50 57 51 58 65 60 86 61 53 62 37 63 38 64 46 65 39 66 40 67
REMARK SMILES IDX 44 68 47 69 41 70 42 71 45 72 43 73 69 74 70 75 78 76 71 77
REMARK SMILES IDX 72 78 76 79 79 80 73 81 74 82 77 83 75 84 54 85 55 86 63 87
REMARK SMILES IDX 56 88 57 89 61 90 64 91 58 92 59 93 62 94 60 95
REMARK H PARENT 21 5 11 16 25 29 84 48 52 59
REMARK Flexibility Score: inf
ROOT
ATOM      1  C   UNL     1       3.139   2.067   6.234  1.00  0.00     0.118 C 
ENDROOT
BRANCH   1   2
ATOM      2  N   UNL     1       3.667   1.839   4.903  1.00  0.00    -0.352 N 
ATOM      3  C   UNL     1       3.325   1.036   3.851  1.00  0.00     0.256 C 
ATOM      4  O   UNL     1       4.008   1.214   2.840  1.00  0.00    -0.269 OA
ATOM      5  H   UNL     1       4.457   2.394   4.712  1.00  0.00     0.163 HD
BRANCH   3   6
ATOM      6  C   UNL     1       2.210   0.049   3.778  1.00  0.00     0.099 A 
ATOM      7  C   UNL     1       1.700  -0.333   2.498  1.00  0.00     0.056 A 
ATOM      8  C   UNL     1       0.619  -1.230   2.429  1.00  0.00     0.027 A 
ATOM      9  C   UNL     1       0.051  -1.768   3.582  1.00  0.00     0.005 A 
ATOM     10  C   UNL     1       1.663  -0.567   4.908  1.00  0.00     0.138 A 
ATOM     11  C   UNL     1       0.583  -1.445   4.820  1.00  0.00     0.040 A 
ATOM     12  F   UNL     1       2.192  -0.412   6.127  1.00  0.00    -0.206 F 
BRANCH   7  13
ATOM     13  N   UNL     1       2.342   0.109   1.301  1.00  0.00    -0.325 N 
ATOM     14  O   UNL     1       0.755  -0.336  -0.320  1.00  0.00    -0.275 OA
ATOM     15  C   UNL     1       1.901  -0.024   0.003  1.00  0.00     0.224 C 
ATOM     16  H   UNL     1       3.207   0.565   1.419  1.00  0.00     0.169 HD
BRANCH  15  17
ATOM     17  C   UNL     1       2.957   0.130  -1.089  1.00  0.00     0.105 C 
BRANCH  17  18
ATOM     18  C   UNL     1       3.926   1.307  -0.992  1.00  0.00     0.047 C 
BRANCH  18  19
ATOM     19  C   UNL     1       5.118   1.165  -0.079  1.00  0.00    -0.029 A 
ATOM     20  C   UNL     1       5.677   2.310   0.504  1.00  0.00     0.007 A 
ATOM     21  C   UNL     1       5.729  -0.051   0.221  1.00  0.00     0.114 A 
ATOM     22  C   UNL     1       6.738   2.191   1.397  1.00  0.00     0.020 A 
ATOM     23  N   UNL     1       6.766  -0.197   1.078  1.00  0.00    -0.264 NA
ATOM     24  C   UNL     1       7.231   0.926   1.662  1.00  0.00     0.111 A 
ENDBRANCH  18  19
ENDBRANCH  17  18
ENDBRANCH  15  17
ENDBRANCH   7  13
ENDBRANCH   3   6
ENDBRANCH   1   2
BRANCH   1  25
ATOM     25  C   UNL     1       4.023   1.418   7.303  1.00  0.00     0.042 C 
BRANCH  25  26
ATOM     26  C   UNL     1       5.387   2.091   7.484  1.00  0.00     0.118 C 
BRANCH  26  27
ATOM     27  N   UNL     1       5.273   3.446   8.002  1.00  0.00    -0.352 N 
ATOM     28  C   UNL     1       5.670   3.992   9.195  1.00  0.00     0.251 C 
ATOM     29  H   UNL     1       4.834   4.080   7.390  1.00  0.00     0.163 HD
ATOM     30  O   UNL     1       5.250   5.103   9.511  1.00  0.00    -0.269 OA
BRANCH  28  31
ATOM     31  C   UNL     1       6.594   3.283  10.110  1.00  0.00     0.039 A 
ATOM     32  C   UNL     1       6.392   3.414  11.489  1.00  0.00     0.014 A 
ATOM     33  C   UNL     1       7.704   2.575   9.640  1.00  0.00     0.014 A 
ATOM     34  C   UNL     1       7.270   2.803  12.388  1.00  0.00     0.010 A 
ATOM     35  C   UNL     1       8.545   1.913  10.537  1.00  0.00     0.010 A 
ATOM     36  C   UNL     1       8.341   2.025  11.920  1.00  0.00    -0.014 A 
BRANCH  36  37
ATOM     37  C   UNL     1       9.236   1.316  12.872  1.00  0.00     0.031 A 
ATOM     38  C   UNL     1      10.687   1.692  12.993  1.00  0.00     0.074 A 
ATOM     39  C   UNL     1       8.743   0.299  13.606  1.00  0.00     0.049 A 
ATOM     40  N   UNL     1      11.616   1.167  13.752  1.00  0.00    -0.248 NA
ATOM     41  C   UNL     1      11.163   2.789  12.136  1.00  0.00     0.031 C 
ATOM     42  C   UNL     1       7.366  -0.193  13.543  1.00  0.00     0.029 A 
ATOM     43  N   UNL     1       9.340  -0.504  14.546  1.00  0.00    -0.354 N 
ATOM     44  C   UNL     1      12.784   1.857  13.456  1.00  0.00     0.074 A 
ATOM     45  C   UNL     1      12.459   2.810  12.417  1.00  0.00     0.031 C 
ATOM     46  C   UNL     1       7.215  -1.191  14.427  1.00  0.00     0.029 A 
ATOM     47  C   UNL     1       8.491  -1.433  15.095  1.00  0.00     0.049 A 
ATOM     48  H   UNL     1      10.287  -0.421  14.802  1.00  0.00     0.167 HD
ATOM     49  C   UNL     1      14.010   1.721  14.016  1.00  0.00     0.037 A 
ATOM     50  C   UNL     1       8.712  -2.375  16.032  1.00  0.00     0.037 A 
ATOM     51  C   UNL     1      14.323   0.794  15.073  1.00  0.00     0.049 A 
ATOM     52  C   UNL     1      10.077  -2.492  16.650  1.00  0.00     0.074 A 
ATOM     53  C   UNL     1      15.520   0.631  15.749  1.00  0.00     0.029 A 
ATOM     54  N   UNL     1      13.433  -0.125  15.608  1.00  0.00    -0.354 N 
ATOM     55  N   UNL     1      11.158  -1.794  16.402  1.00  0.00    -0.248 NA
ATOM     56  C   UNL     1      10.253  -3.524  17.681  1.00  0.00     0.031 C 
ATOM     57  C   UNL     1      15.367  -0.415  16.664  1.00  0.00     0.029 A 
ATOM     58  C   UNL     1      14.062  -0.872  16.593  1.00  0.00     0.049 A 
ATOM     59  H   UNL     1      12.495  -0.231  15.331  1.00  0.00     0.167 HD
ATOM     60  C   UNL     1      12.136  -2.289  17.252  1.00  0.00     0.074 A 
ATOM     61  C   UNL     1      11.515  -3.333  18.040  1.00  0.00     0.031 C 
ATOM     62  C   UNL     1      13.433  -1.913  17.365  1.00  0.00     0.037 A 
BRANCH  49  63
ATOM     63  C   UNL     1      15.115   2.605  13.514  1.00  0.00     0.064 A 
ATOM     64  C   UNL     1      16.191   2.063  12.794  1.00  0.00     0.173 A 
ATOM     65  C   UNL     1      15.149   3.975  13.812  1.00  0.00     0.173 A 
ATOM     66  F   UNL     1      16.211   0.757  12.489  1.00  0.00    -0.203 F 
ATOM     67  C   UNL     1      17.265   2.858  12.404  1.00  0.00     0.198 A 
ATOM     68  C   UNL     1      16.212   4.773  13.397  1.00  0.00     0.198 A 
ATOM     69  F   UNL     1      14.141   4.544  14.490  1.00  0.00    -0.203 F 
ATOM     70  F   UNL     1      18.297   2.313  11.745  1.00  0.00    -0.200 F 
ATOM     71  C   UNL     1      17.274   4.213  12.702  1.00  0.00     0.200 A 
ATOM     72  F   UNL     1      16.209   6.086  13.667  1.00  0.00    -0.200 F 
ATOM     73  F   UNL     1      18.305   4.978  12.319  1.00  0.00    -0.200 F 
ENDBRANCH  49  63
BRANCH  50  74
ATOM     74  C   UNL     1       7.595  -3.252  16.465  1.00  0.00     0.064 A 
ATOM     75  C   UNL     1       7.067  -4.236  15.616  1.00  0.00     0.173 A 
ATOM     76  C   UNL     1       7.010  -3.098  17.729  1.00  0.00     0.173 A 
ATOM     77  F   UNL     1       7.588  -4.418  14.394  1.00  0.00    -0.203 F 
ATOM     78  C   UNL     1       5.983  -5.018  16.009  1.00  0.00     0.198 A 
ATOM     79  C   UNL     1       5.943  -3.898  18.131  1.00  0.00     0.198 A 
ATOM     80  F   UNL     1       7.494  -2.184  18.583  1.00  0.00    -0.203 F 
ATOM     81  F   UNL     1       5.475  -5.927  15.165  1.00  0.00    -0.200 F 
ATOM     82  C   UNL     1       5.424  -4.852  17.267  1.00  0.00     0.200 A 
ATOM     83  F   UNL     1       5.420  -3.750  19.356  1.00  0.00    -0.200 F 
ATOM     84  F   UNL     1       4.388  -5.611  17.648  1.00  0.00    -0.200 F 
ENDBRANCH  50  74
BRANCH  62  85
ATOM     85  C   UNL     1      14.274  -2.630  18.380  1.00  0.00     0.064 A 
ATOM     86  C   UNL     1      14.707  -1.972  19.541  1.00  0.00     0.173 A 
ATOM     87  C   UNL     1      14.701  -3.950  18.173  1.00  0.00     0.173 A 
ATOM     88  F   UNL     1      14.333  -0.706  19.780  1.00  0.00    -0.203 F 
ATOM     89  C   UNL     1      15.547  -2.606  20.452  1.00  0.00     0.198 A 
ATOM     90  C   UNL     1      15.518  -4.590  19.101  1.00  0.00     0.198 A 
ATOM     91  F   UNL     1      14.303  -4.626  17.085  1.00  0.00    -0.203 F 
ATOM     92  F   UNL     1      15.972  -1.948  21.540  1.00  0.00    -0.200 F 
ATOM     93  C   UNL     1      15.947  -3.916  20.235  1.00  0.00     0.200 A 
ATOM     94  F   UNL     1      15.884  -5.864  18.902  1.00  0.00    -0.200 F 
ATOM     95  F   UNL     1      16.744  -4.530  21.120  1.00  0.00    -0.200 F 
ENDBRANCH  62  85
ENDBRANCH  36  37
ENDBRANCH  28  31
ENDBRANCH  26  27
ENDBRANCH  25  26
ENDBRANCH   1  25
TORSDOF 14
