REMARK SMILES COC(=O)N/N=C/c1ccc(-c2cccc(C(=O)NCCCNC(=O)c3ccc(-c4c5nc(c(-c6c(F)c(F)c(F)c(F)c6F)c6ccc([nH]6)c(-c6c(F)c(F)c(F)c(F)c6F)c6nc(c(-c7c(F)c(F)c(F)c(F)c7F)c7ccc4[nH]7)C=C6)C=C5)cc3)c2)o1
REMARK SMILES IDX 20 1 19 2 17 3 18 4 16 6 12 7 13 8 89 9 14 10 15 11 11 12
REMARK SMILES IDX 8 13 9 14 90 15 10 16 7 17 6 18 5 19 3 20 4 21 2 23 1 24
REMARK SMILES IDX 21 25 22 26 23 27 24 28 25 30 26 31 27 32 88 33 28 34 87 35
REMARK SMILES IDX 29 36 30 37 31 38 81 39 32 40 86 41 80 42 82 43 33 44 85 45
REMARK SMILES IDX 79 46 78 47 34 49 66 50 46 51 65 52 47 53 50 54 64 55 83 56
REMARK SMILES IDX 48 57 49 58 63 60 84 61 51 62 35 63 36 64 44 65 37 66 38 67
REMARK SMILES IDX 42 68 45 69 39 70 40 71 43 72 41 73 67 74 68 75 76 76 69 77
REMARK SMILES IDX 70 78 74 79 77 80 71 81 72 82 75 83 73 84 52 85 53 86 61 87
REMARK SMILES IDX 54 88 55 89 59 90 62 91 56 92 57 93 60 94 58 95
REMARK H PARENT 19 5 5 22 23 29 82 48 50 59
REMARK Flexibility Score: inf
ROOT
ATOM      1  C   UNL     1      -2.785  -7.623  -5.014  1.00  0.00     0.118 C 
ENDROOT
BRANCH   1   2
ATOM      2  N   UNL     1      -4.048  -8.072  -4.445  1.00  0.00    -0.352 N 
ATOM      3  C   UNL     1      -5.177  -7.464  -3.949  1.00  0.00     0.251 C 
ATOM      4  O   UNL     1      -6.071  -8.213  -3.549  1.00  0.00    -0.269 OA
ATOM      5  H   UNL     1      -4.109  -9.054  -4.406  1.00  0.00     0.163 HD
BRANCH   3   6
ATOM      6  C   UNL     1      -5.364  -5.991  -3.801  1.00  0.00     0.040 A 
ATOM      7  C   UNL     1      -4.618  -3.687  -4.087  1.00  0.00     0.018 A 
ATOM      8  C   UNL     1      -5.589  -3.253  -3.186  1.00  0.00     0.012 A 
ATOM      9  C   UNL     1      -4.604  -5.035  -4.465  1.00  0.00     0.025 A 
ATOM     10  C   UNL     1      -6.489  -4.169  -2.639  1.00  0.00     0.002 A 
ATOM     11  C   UNL     1      -6.350  -5.534  -2.914  1.00  0.00     0.014 A 
BRANCH   7  12
ATOM     12  C   UNL     1      -3.541  -2.833  -4.568  1.00  0.00     0.134 A 
ATOM     13  C   UNL     1      -1.926  -1.374  -4.226  1.00  0.00     0.147 A 
ATOM     14  C   UNL     1      -1.734  -1.884  -5.494  1.00  0.00     0.053 A 
ATOM     15  O   UNL     1      -3.032  -1.946  -3.661  1.00  0.00    -0.455 OA
ATOM     16  C   UNL     1      -2.772  -2.819  -5.715  1.00  0.00     0.051 A 
BRANCH  13  17
ATOM     17  C   UNL     1      -1.199  -0.394  -3.468  1.00  0.00     0.180 C 
ATOM     18  N   UNL     1      -0.276   0.305  -4.050  1.00  0.00    -0.175 NA
BRANCH  18  19
ATOM     19  N   UNL     1       0.399   1.251  -3.329  1.00  0.00    -0.212 N 
ATOM     20  C   UNL     1       0.838   1.227  -2.022  1.00  0.00     0.427 C 
ATOM     21  O   UNL     1       1.442   2.177  -1.540  1.00  0.00    -0.223 OA
ATOM     22  H   UNL     1       0.603   2.080  -3.821  1.00  0.00     0.197 HD
BRANCH  20  23
ATOM     23  O   UNL     1       0.577   0.067  -1.359  1.00  0.00    -0.452 OA
ATOM     24  C   UNL     1       1.078   0.049  -0.021  1.00  0.00     0.284 C 
ENDBRANCH  20  23
ENDBRANCH  18  19
ENDBRANCH  13  17
ENDBRANCH   7  12
ENDBRANCH   3   6
ENDBRANCH   1   2
BRANCH   1  25
ATOM     25  C   UNL     1      -1.584  -7.876  -4.117  1.00  0.00     0.042 C 
BRANCH  25  26
ATOM     26  C   UNL     1      -1.129  -9.326  -4.119  1.00  0.00     0.118 C 
BRANCH  26  27
ATOM     27  N   UNL     1      -0.733  -9.782  -5.451  1.00  0.00    -0.352 N 
ATOM     28  C   UNL     1       0.503 -10.058  -5.979  1.00  0.00     0.251 C 
ATOM     29  H   UNL     1      -1.482  -9.913  -6.076  1.00  0.00     0.163 HD
ATOM     30  O   UNL     1       0.632 -10.176  -7.194  1.00  0.00    -0.269 OA
BRANCH  28  31
ATOM     31  C   UNL     1       1.678 -10.210  -5.098  1.00  0.00     0.039 A 
ATOM     32  C   UNL     1       2.924  -9.747  -5.530  1.00  0.00     0.014 A 
ATOM     33  C   UNL     1       1.560 -10.841  -3.859  1.00  0.00     0.014 A 
ATOM     34  C   UNL     1       4.032  -9.854  -4.687  1.00  0.00     0.010 A 
ATOM     35  C   UNL     1       2.631 -10.842  -2.978  1.00  0.00     0.010 A 
ATOM     36  C   UNL     1       3.883 -10.364  -3.387  1.00  0.00    -0.014 A 
BRANCH  36  37
ATOM     37  C   UNL     1       5.021 -10.424  -2.438  1.00  0.00     0.031 A 
ATOM     38  C   UNL     1       5.468 -11.749  -1.886  1.00  0.00     0.074 A 
ATOM     39  C   UNL     1       5.585  -9.282  -2.004  1.00  0.00     0.049 A 
ATOM     40  N   UNL     1       6.371 -12.005  -0.974  1.00  0.00    -0.248 NA
ATOM     41  C   UNL     1       4.779 -12.944  -2.399  1.00  0.00     0.031 C 
ATOM     42  C   UNL     1       5.195  -7.935  -2.421  1.00  0.00     0.029 A 
ATOM     43  N   UNL     1       6.596  -9.071  -1.101  1.00  0.00    -0.354 N 
ATOM     44  C   UNL     1       6.340 -13.382  -0.790  1.00  0.00     0.074 A 
ATOM     45  C   UNL     1       5.284 -13.897  -1.633  1.00  0.00     0.031 C 
ATOM     46  C   UNL     1       5.972  -7.039  -1.795  1.00  0.00     0.029 A 
ATOM     47  C   UNL     1       6.881  -7.744  -0.897  1.00  0.00     0.049 A 
ATOM     48  H   UNL     1       7.072  -9.802  -0.644  1.00  0.00     0.167 HD
ATOM     49  C   UNL     1       7.137 -14.148  -0.009  1.00  0.00     0.037 A 
ATOM     50  C   UNL     1       7.767  -7.160  -0.068  1.00  0.00     0.037 A 
ATOM     51  C   UNL     1       8.197 -13.624   0.812  1.00  0.00     0.049 A 
ATOM     52  C   UNL     1       8.642  -8.028   0.793  1.00  0.00     0.074 A 
ATOM     53  C   UNL     1       9.113 -14.315   1.585  1.00  0.00     0.029 A 
ATOM     54  N   UNL     1       8.475 -12.273   0.975  1.00  0.00    -0.354 N 
ATOM     55  N   UNL     1       8.663  -9.335   0.899  1.00  0.00    -0.248 NA
ATOM     56  C   UNL     1       9.622  -7.341   1.644  1.00  0.00     0.031 C 
ATOM     57  C   UNL     1       9.900 -13.381   2.267  1.00  0.00     0.029 A 
ATOM     58  C   UNL     1       9.525 -12.109   1.864  1.00  0.00     0.049 A 
ATOM     59  H   UNL     1       7.996 -11.540   0.524  1.00  0.00     0.167 HD
ATOM     60  C   UNL     1       9.672  -9.630   1.806  1.00  0.00     0.074 A 
ATOM     61  C   UNL     1      10.249  -8.363   2.210  1.00  0.00     0.031 C 
ATOM     62  C   UNL     1      10.085 -10.839   2.260  1.00  0.00     0.037 A 
BRANCH  49  63
ATOM     63  C   UNL     1       6.877 -15.629   0.002  1.00  0.00     0.064 A 
ATOM     64  C   UNL     1       7.075 -16.427  -1.137  1.00  0.00     0.173 A 
ATOM     65  C   UNL     1       6.421 -16.262   1.169  1.00  0.00     0.173 A 
ATOM     66  F   UNL     1       7.501 -15.875  -2.283  1.00  0.00    -0.203 F 
ATOM     67  C   UNL     1       6.775 -17.787  -1.123  1.00  0.00     0.198 A 
ATOM     68  C   UNL     1       6.161 -17.630   1.190  1.00  0.00     0.198 A 
ATOM     69  F   UNL     1       6.221 -15.553   2.290  1.00  0.00    -0.203 F 
ATOM     70  F   UNL     1       6.899 -18.510  -2.245  1.00  0.00    -0.200 F 
ATOM     71  C   UNL     1       6.324 -18.389   0.041  1.00  0.00     0.200 A 
ATOM     72  F   UNL     1       5.741 -18.213   2.322  1.00  0.00    -0.200 F 
ATOM     73  F   UNL     1       6.034 -19.697   0.053  1.00  0.00    -0.200 F 
ENDBRANCH  49  63
BRANCH  50  74
ATOM     74  C   UNL     1       7.877  -5.679  -0.043  1.00  0.00     0.064 A 
ATOM     75  C   UNL     1       9.002  -5.030  -0.570  1.00  0.00     0.173 A 
ATOM     76  C   UNL     1       6.844  -4.880   0.470  1.00  0.00     0.173 A 
ATOM     77  F   UNL     1      10.023  -5.751  -1.057  1.00  0.00    -0.203 F 
ATOM     78  C   UNL     1       9.095  -3.640  -0.574  1.00  0.00     0.198 A 
ATOM     79  C   UNL     1       6.925  -3.489   0.438  1.00  0.00     0.198 A 
ATOM     80  F   UNL     1       5.742  -5.451   0.977  1.00  0.00    -0.203 F 
ATOM     81  F   UNL     1      10.197  -3.046  -1.054  1.00  0.00    -0.200 F 
ATOM     82  C   UNL     1       8.053  -2.870  -0.080  1.00  0.00     0.200 A 
ATOM     83  F   UNL     1       5.906  -2.750   0.898  1.00  0.00    -0.200 F 
ATOM     84  F   UNL     1       8.136  -1.533  -0.100  1.00  0.00    -0.200 F 
ENDBRANCH  50  74
BRANCH  62  85
ATOM     85  C   UNL     1      11.238 -10.858   3.223  1.00  0.00     0.064 A 
ATOM     86  C   UNL     1      11.109 -10.397   4.541  1.00  0.00     0.173 A 
ATOM     87  C   UNL     1      12.476 -11.394   2.833  1.00  0.00     0.173 A 
ATOM     88  F   UNL     1       9.952  -9.863   4.960  1.00  0.00    -0.203 F 
ATOM     89  C   UNL     1      12.184 -10.447   5.425  1.00  0.00     0.198 A 
ATOM     90  C   UNL     1      13.537 -11.476   3.730  1.00  0.00     0.198 A 
ATOM     91  F   UNL     1      12.651 -11.857   1.586  1.00  0.00    -0.203 F 
ATOM     92  F   UNL     1      12.053  -9.954   6.664  1.00  0.00    -0.200 F 
ATOM     93  C   UNL     1      13.393 -10.995   5.022  1.00  0.00     0.200 A 
ATOM     94  F   UNL     1      14.698 -12.022   3.344  1.00  0.00    -0.200 F 
ATOM     95  F   UNL     1      14.422 -11.054   5.878  1.00  0.00    -0.200 F 
ENDBRANCH  62  85
ENDBRANCH  36  37
ENDBRANCH  28  31
ENDBRANCH  26  27
ENDBRANCH  25  26
ENDBRANCH   1  25
TORSDOF 14
