REMARK SMILES COc1ccc(/C=C/C(=O)NCCCNC(=O)c2ccc(-c3c4nc(c(-c5c(F)c(F)c(F)c(F)c5F)c5ccc([nH]5)c(-c5c(F)c(F)c(F)c(F)c5F)c5nc(c(-c6c(F)c(F)c(F)c(F)c6F)c6ccc3[nH]6)C=C5)C=C4)cc2)cc1OC[C@@H](C)C(N)=O
REMARK SMILES IDX 9 1 10 2 11 3 8 5 7 6 6 7 3 8 4 9 82 10 5 11 81 12 2 13 1 14
REMARK SMILES IDX 83 15 84 16 85 17 86 18 87 19 88 20 89 21 12 24 13 25 14 26
REMARK SMILES IDX 15 27 16 28 17 30 18 31 19 32 80 33 20 34 79 35 21 36 22 37
REMARK SMILES IDX 23 38 73 39 24 40 78 41 72 42 74 43 25 44 77 45 71 46 70 47
REMARK SMILES IDX 26 49 58 50 38 51 57 52 39 53 42 54 56 55 75 56 40 57 41 58
REMARK SMILES IDX 55 60 76 61 43 62 27 63 28 64 36 65 29 66 30 67 34 68 37 69
REMARK SMILES IDX 31 70 32 71 35 72 33 73 59 74 60 75 68 76 61 77 62 78 66 79
REMARK SMILES IDX 69 80 63 81 64 82 67 83 65 84 44 85 45 86 53 87 46 88 47 89
REMARK SMILES IDX 51 90 54 91 48 92 49 93 52 94 50 95
REMARK H PARENT 11 4 88 22 88 23 15 29 74 48 42 59
REMARK Flexibility Score: inf
ROOT
ATOM      1  C   UNL     1       1.629   7.748  -3.500  1.00  0.00     0.244 C 
ATOM      2  O   UNL     1       0.830   8.436  -4.133  1.00  0.00    -0.270 OA
ATOM      3  N   UNL     1       2.864   8.251  -3.235  1.00  0.00    -0.352 N 
ATOM      4  H   UNL     1       3.053   9.110  -3.675  1.00  0.00     0.163 HD
ENDROOT
BRANCH   1   5
ATOM      5  C   UNL     1       1.192   6.425  -2.994  1.00  0.00     0.072 C 
ATOM      6  C   UNL     1       1.955   5.324  -3.013  1.00  0.00     0.014 C 
BRANCH   6   7
ATOM      7  C   UNL     1       1.531   3.984  -2.591  1.00  0.00    -0.022 A 
ATOM      8  C   UNL     1       1.068   1.249  -2.127  1.00  0.00     0.160 A 
ATOM      9  C   UNL     1       0.139   2.015  -2.843  1.00  0.00     0.051 A 
ATOM     10  C   UNL     1       2.173   1.874  -1.536  1.00  0.00     0.161 A 
ATOM     11  C   UNL     1       0.361   3.382  -3.059  1.00  0.00     0.012 A 
ATOM     12  C   UNL     1       2.410   3.229  -1.807  1.00  0.00     0.058 A 
BRANCH   8  13
ATOM     13  O   UNL     1       1.022  -0.116  -2.170  1.00  0.00    -0.493 OA
ATOM     14  C   UNL     1      -0.215  -0.714  -1.806  1.00  0.00     0.278 C 
ENDBRANCH   8  13
BRANCH  10  15
ATOM     15  O   UNL     1       3.110   1.329  -0.697  1.00  0.00    -0.489 OA
BRANCH  15  16
ATOM     16  C   UNL     1       2.802   0.144   0.041  1.00  0.00     0.243 C 
BRANCH  16  17
ATOM     17  C   UNL     1       2.054   0.381   1.366  1.00  0.00     0.113 C 
ATOM     18  C   UNL     1       0.913   1.396   1.329  1.00  0.00     0.022 C 
BRANCH  17  19
ATOM     19  C   UNL     1       1.513  -0.944   1.883  1.00  0.00     0.223 C 
ATOM     20  N   UNL     1       1.266  -0.990   3.223  1.00  0.00    -0.369 N 
ATOM     21  O   UNL     1       1.264  -1.919   1.181  1.00  0.00    -0.275 OA
ATOM     22  H   UNL     1       1.466  -0.208   3.787  1.00  0.00     0.159 HD
ATOM     23  H   UNL     1       0.889  -1.804   3.627  1.00  0.00     0.159 HD
ENDBRANCH  17  19
ENDBRANCH  16  17
ENDBRANCH  15  16
ENDBRANCH  10  15
ENDBRANCH   6   7
ENDBRANCH   1   5
BRANCH   3  24
ATOM     24  C   UNL     1       3.955   7.747  -2.417  1.00  0.00     0.118 C 
BRANCH  24  25
ATOM     25  C   UNL     1       5.155   7.333  -3.269  1.00  0.00     0.042 C 
BRANCH  25  26
ATOM     26  C   UNL     1       5.943   8.512  -3.842  1.00  0.00     0.118 C 
BRANCH  26  27
ATOM     27  N   UNL     1       6.643   9.263  -2.808  1.00  0.00    -0.352 N 
ATOM     28  C   UNL     1       7.980   9.527  -2.650  1.00  0.00     0.251 C 
ATOM     29  H   UNL     1       6.062   9.642  -2.109  1.00  0.00     0.163 HD
ATOM     30  O   UNL     1       8.381  10.001  -1.590  1.00  0.00    -0.269 OA
BRANCH  28  31
ATOM     31  C   UNL     1       8.948   9.243  -3.733  1.00  0.00     0.039 A 
ATOM     32  C   UNL     1      10.197   8.711  -3.395  1.00  0.00     0.014 A 
ATOM     33  C   UNL     1       8.659   9.549  -5.065  1.00  0.00     0.014 A 
ATOM     34  C   UNL     1      11.131   8.432  -4.396  1.00  0.00     0.010 A 
ATOM     35  C   UNL     1       9.565   9.210  -6.069  1.00  0.00     0.010 A 
ATOM     36  C   UNL     1      10.810   8.649  -5.746  1.00  0.00    -0.014 A 
BRANCH  36  37
ATOM     37  C   UNL     1      11.757   8.287  -6.832  1.00  0.00     0.031 A 
ATOM     38  C   UNL     1      12.342   9.353  -7.717  1.00  0.00     0.074 A 
ATOM     39  C   UNL     1      12.029   6.989  -7.070  1.00  0.00     0.049 A 
ATOM     40  N   UNL     1      13.108   9.227  -8.772  1.00  0.00    -0.248 NA
ATOM     41  C   UNL     1      12.000  10.745  -7.388  1.00  0.00     0.031 C 
ATOM     42  C   UNL     1      11.492   5.860  -6.308  1.00  0.00     0.029 A 
ATOM     43  N   UNL     1      12.812   6.398  -8.030  1.00  0.00    -0.354 N 
ATOM     44  C   UNL     1      13.318  10.516  -9.243  1.00  0.00     0.074 A 
ATOM     45  C   UNL     1      12.569  11.408  -8.385  1.00  0.00     0.031 C 
ATOM     46  C   UNL     1      11.972   4.716  -6.819  1.00  0.00     0.029 A 
ATOM     47  C   UNL     1      12.816   5.025  -7.969  1.00  0.00     0.049 A 
ATOM     48  H   UNL     1      13.322   6.909  -8.700  1.00  0.00     0.167 HD
ATOM     49  C   UNL     1      14.081  10.919 -10.288  1.00  0.00     0.037 A 
ATOM     50  C   UNL     1      13.421   4.118  -8.760  1.00  0.00     0.037 A 
ATOM     51  C   UNL     1      14.853  10.030 -11.118  1.00  0.00     0.049 A 
ATOM     52  C   UNL     1      14.257   4.595  -9.917  1.00  0.00     0.074 A 
ATOM     53  C   UNL     1      15.721  10.348 -12.148  1.00  0.00     0.029 A 
ATOM     54  N   UNL     1      14.845   8.647 -11.014  1.00  0.00    -0.354 N 
ATOM     55  N   UNL     1      14.511   5.821 -10.306  1.00  0.00    -0.248 NA
ATOM     56  C   UNL     1      14.893   3.560 -10.745  1.00  0.00     0.031 C 
ATOM     57  C   UNL     1      16.200   9.156 -12.700  1.00  0.00     0.029 A 
ATOM     58  C   UNL     1      15.671   8.097 -11.981  1.00  0.00     0.049 A 
ATOM     59  H   UNL     1      14.329   8.133 -10.352  1.00  0.00     0.167 HD
ATOM     60  C   UNL     1      15.358   5.706 -11.400  1.00  0.00     0.074 A 
ATOM     61  C   UNL     1      15.585   4.292 -11.606  1.00  0.00     0.031 C 
ATOM     62  C   UNL     1      15.897   6.686 -12.166  1.00  0.00     0.037 A 
BRANCH  49  63
ATOM     63  C   UNL     1      14.121  12.387 -10.601  1.00  0.00     0.064 A 
ATOM     64  C   UNL     1      14.776  13.303  -9.764  1.00  0.00     0.173 A 
ATOM     65  C   UNL     1      13.542  12.877 -11.782  1.00  0.00     0.173 A 
ATOM     66  F   UNL     1      15.339  12.887  -8.619  1.00  0.00    -0.203 F 
ATOM     67  C   UNL     1      14.827  14.657 -10.084  1.00  0.00     0.198 A 
ATOM     68  C   UNL     1      13.621  14.227 -12.113  1.00  0.00     0.198 A 
ATOM     69  F   UNL     1      12.910  12.044 -12.622  1.00  0.00    -0.203 F 
ATOM     70  F   UNL     1      15.421  15.519  -9.247  1.00  0.00    -0.200 F 
ATOM     71  C   UNL     1      14.257  15.117 -11.261  1.00  0.00     0.200 A 
ATOM     72  F   UNL     1      13.082  14.668 -13.259  1.00  0.00    -0.200 F 
ATOM     73  F   UNL     1      14.317  16.419 -11.572  1.00  0.00    -0.200 F 
ENDBRANCH  49  63
BRANCH  50  74
ATOM     74  C   UNL     1      13.274   2.666  -8.478  1.00  0.00     0.064 A 
ATOM     75  C   UNL     1      14.365   1.908  -8.030  1.00  0.00     0.173 A 
ATOM     76  C   UNL     1      12.052   2.004  -8.664  1.00  0.00     0.173 A 
ATOM     77  F   UNL     1      15.560   2.492  -7.858  1.00  0.00    -0.203 F 
ATOM     78  C   UNL     1      14.246   0.539  -7.801  1.00  0.00     0.198 A 
ATOM     79  C   UNL     1      11.926   0.640  -8.407  1.00  0.00     0.198 A 
ATOM     80  F   UNL     1      10.977   2.684  -9.087  1.00  0.00    -0.203 F 
ATOM     81  F   UNL     1      15.318  -0.170  -7.423  1.00  0.00    -0.200 F 
ATOM     82  C   UNL     1      13.025  -0.093  -7.985  1.00  0.00     0.200 A 
ATOM     83  F   UNL     1      10.742   0.035  -8.572  1.00  0.00    -0.200 F 
ATOM     84  F   UNL     1      12.911  -1.410  -7.765  1.00  0.00    -0.200 F 
ENDBRANCH  50  74
BRANCH  62  85
ATOM     85  C   UNL     1      16.818   6.265 -13.274  1.00  0.00     0.064 A 
ATOM     86  C   UNL     1      16.336   5.647 -14.437  1.00  0.00     0.173 A 
ATOM     87  C   UNL     1      18.195   6.524 -13.188  1.00  0.00     0.173 A 
ATOM     88  F   UNL     1      15.030   5.363 -14.559  1.00  0.00    -0.203 F 
ATOM     89  C   UNL     1      17.202   5.282 -15.464  1.00  0.00     0.198 A 
ATOM     90  C   UNL     1      19.053   6.185 -14.230  1.00  0.00     0.198 A 
ATOM     91  F   UNL     1      18.705   7.119 -12.100  1.00  0.00    -0.203 F 
ATOM     92  F   UNL     1      16.727   4.651 -16.546  1.00  0.00    -0.200 F 
ATOM     93  C   UNL     1      18.558   5.559 -15.363  1.00  0.00     0.200 A 
ATOM     94  F   UNL     1      20.360   6.466 -14.137  1.00  0.00    -0.200 F 
ATOM     95  F   UNL     1      19.388   5.215 -16.357  1.00  0.00    -0.200 F 
ENDBRANCH  62  85
ENDBRANCH  36  37
ENDBRANCH  28  31
ENDBRANCH  26  27
ENDBRANCH  25  26
ENDBRANCH  24  25
ENDBRANCH   3  24
TORSDOF 16
