REMARK SMILES CC(C)CSc1cc2c(cc1Cl)C=C(C(=O)NCCCNC(=O)c1ccc(-c3c4nc(c(-c5c(F)c(F)c(F)c(F)c5F)c5ccc([nH]5)c(-c5c(F)c(F)c(F)c(F)c5F)c5nc(c(-c6c(F)c(F)c(F)c(F)c6F)c6ccc3[nH]6)C=C5)C=C4)cc1)[C@H](C(F)(F)F)O2
REMARK SMILES IDX 18 1 17 2 15 3 16 4 14 6 6 7 7 8 11 9 8 10 10 11 12 12 9 13
REMARK SMILES IDX 92 14 13 15 87 16 5 17 4 18 2 19 1 20 3 21 88 22 89 23 90 24
REMARK SMILES IDX 91 25 19 26 20 27 21 28 22 29 23 31 24 32 25 33 86 34 26 35
REMARK SMILES IDX 85 36 27 37 28 38 29 39 79 40 30 41 84 42 78 43 80 44 31 45
REMARK SMILES IDX 83 46 77 47 76 48 32 50 64 51 44 52 63 53 45 54 48 55 62 56
REMARK SMILES IDX 81 57 46 58 47 59 61 61 82 62 49 63 33 64 34 65 42 66 35 67
REMARK SMILES IDX 36 68 40 69 43 70 37 71 38 72 41 73 39 74 65 75 66 76 74 77
REMARK SMILES IDX 67 78 68 79 72 80 75 81 69 82 70 83 73 84 71 85 50 86 51 87
REMARK SMILES IDX 59 88 52 89 53 90 57 91 60 92 54 93 55 94 58 95 56 96
REMARK H PARENT 17 5 21 30 80 49 48 60
REMARK Flexibility Score: inf
ROOT
ATOM      1  C   UNL     1      -2.070   8.266  -1.918  1.00  0.00     0.118 C 
ENDROOT
BRANCH   1   2
ATOM      2  N   UNL     1      -0.819   7.889  -2.553  1.00  0.00    -0.352 N 
ATOM      3  C   UNL     1      -0.139   6.745  -2.790  1.00  0.00     0.251 C 
ATOM      4  O   UNL     1       0.919   6.885  -3.412  1.00  0.00    -0.270 OA
ATOM      5  H   UNL     1      -0.339   8.674  -2.902  1.00  0.00     0.163 HD
BRANCH   3   6
ATOM      6  C   UNL     1      -0.576   5.381  -2.374  1.00  0.00     0.067 C 
ATOM      7  C   UNL     1      -0.947   0.360  -1.985  1.00  0.00     0.030 A 
ATOM      8  C   UNL     1      -1.637   1.440  -1.421  1.00  0.00     0.063 A 
ATOM      9  C   UNL     1       0.037   0.619  -2.955  1.00  0.00     0.055 A 
ATOM     10  C   UNL     1      -1.308   2.749  -1.769  1.00  0.00     0.129 A 
ATOM     11  C   UNL     1       0.363   1.936  -3.299  1.00  0.00     0.033 A 
ATOM     12  Cl  UNL     1       0.928  -0.643  -3.736  1.00  0.00    -0.083 Cl
ATOM     13  C   UNL     1      -0.304   3.005  -2.697  1.00  0.00     0.019 A 
ATOM     14  O   UNL     1      -2.043   3.732  -1.176  1.00  0.00    -0.475 OA
ATOM     15  C   UNL     1       0.014   4.378  -3.049  1.00  0.00     0.025 C 
ATOM     16  C   UNL     1      -1.532   5.092  -1.247  1.00  0.00     0.314 C 
BRANCH   7  17
ATOM     17  S   UNL     1      -1.347  -1.290  -1.428  1.00  0.00    -0.124 SA
BRANCH  17  18
ATOM     18  C   UNL     1      -0.816  -1.208   0.326  1.00  0.00     0.078 C 
BRANCH  18  19
ATOM     19  C   UNL     1       0.708  -1.308   0.539  1.00  0.00    -0.007 C 
ATOM     20  C   UNL     1       1.430   0.030   0.366  1.00  0.00     0.008 C 
ATOM     21  C   UNL     1       0.992  -1.829   1.953  1.00  0.00     0.008 C 
ENDBRANCH  18  19
ENDBRANCH  17  18
ENDBRANCH   7  17
BRANCH  16  22
ATOM     22  C   UNL     1      -1.007   5.503   0.140  1.00  0.00     0.429 C 
ATOM     23  F   UNL     1      -1.975   6.164   0.827  1.00  0.00    -0.167 F 
ATOM     24  F   UNL     1      -0.638   4.443   0.894  1.00  0.00    -0.167 F 
ATOM     25  F   UNL     1       0.060   6.331   0.078  1.00  0.00    -0.167 F 
ENDBRANCH  16  22
ENDBRANCH   3   6
ENDBRANCH   1   2
BRANCH   1  26
ATOM     26  C   UNL     1      -1.827   8.894  -0.552  1.00  0.00     0.042 C 
BRANCH  26  27
ATOM     27  C   UNL     1      -1.400  10.352  -0.643  1.00  0.00     0.118 C 
BRANCH  27  28
ATOM     28  N   UNL     1      -2.506  11.225  -1.021  1.00  0.00    -0.352 N 
ATOM     29  C   UNL     1      -3.150  12.208  -0.307  1.00  0.00     0.251 C 
ATOM     30  H   UNL     1      -2.847  11.088  -1.934  1.00  0.00     0.163 HD
ATOM     31  O   UNL     1      -4.209  12.664  -0.725  1.00  0.00    -0.269 OA
BRANCH  29  32
ATOM     32  C   UNL     1      -2.587  12.702   0.970  1.00  0.00     0.039 A 
ATOM     33  C   UNL     1      -1.211  12.852   1.133  1.00  0.00     0.014 A 
ATOM     34  C   UNL     1      -3.449  13.034   2.019  1.00  0.00     0.014 A 
ATOM     35  C   UNL     1      -0.690  13.129   2.390  1.00  0.00     0.010 A 
ATOM     36  C   UNL     1      -2.924  13.438   3.253  1.00  0.00     0.010 A 
ATOM     37  C   UNL     1      -1.538  13.438   3.465  1.00  0.00    -0.014 A 
BRANCH  37  38
ATOM     38  C   UNL     1      -0.939  13.756   4.790  1.00  0.00     0.031 A 
ATOM     39  C   UNL     1      -1.230  12.899   5.994  1.00  0.00     0.074 A 
ATOM     40  C   UNL     1      -0.062  14.776   4.885  1.00  0.00     0.049 A 
ATOM     41  N   UNL     1      -0.773  13.012   7.217  1.00  0.00    -0.248 NA
ATOM     42  C   UNL     1      -2.154  11.768   5.808  1.00  0.00     0.031 C 
ATOM     43  C   UNL     1       0.319  15.664   3.783  1.00  0.00     0.029 A 
ATOM     44  N   UNL     1       0.701  15.216   5.938  1.00  0.00    -0.354 N 
ATOM     45  C   UNL     1      -1.355  11.978   7.940  1.00  0.00     0.074 A 
ATOM     46  C   UNL     1      -2.236  11.274   7.036  1.00  0.00     0.031 C 
ATOM     47  C   UNL     1       1.296  16.484   4.194  1.00  0.00     0.029 A 
ATOM     48  C   UNL     1       1.553  16.243   5.608  1.00  0.00     0.049 A 
ATOM     49  H   UNL     1       0.642  14.833   6.843  1.00  0.00     0.167 HD
ATOM     50  C   UNL     1      -1.150  11.633   9.233  1.00  0.00     0.037 A 
ATOM     51  C   UNL     1       2.436  16.924   6.363  1.00  0.00     0.037 A 
ATOM     52  C   UNL     1      -0.255  12.323  10.125  1.00  0.00     0.049 A 
ATOM     53  C   UNL     1       2.572  16.571   7.817  1.00  0.00     0.074 A 
ATOM     54  C   UNL     1       0.010  12.055  11.457  1.00  0.00     0.029 A 
ATOM     55  N   UNL     1       0.528  13.413   9.773  1.00  0.00    -0.354 N 
ATOM     56  N   UNL     1       2.011  15.595   8.487  1.00  0.00    -0.248 NA
ATOM     57  C   UNL     1       3.453  17.426   8.625  1.00  0.00     0.031 C 
ATOM     58  C   UNL     1       0.921  13.006  11.922  1.00  0.00     0.029 A 
ATOM     59  C   UNL     1       1.263  13.837  10.868  1.00  0.00     0.049 A 
ATOM     60  H   UNL     1       0.557  13.823   8.879  1.00  0.00     0.167 HD
ATOM     61  C   UNL     1       2.487  15.702   9.786  1.00  0.00     0.074 A 
ATOM     62  C   UNL     1       3.401  16.825   9.806  1.00  0.00     0.031 C 
ATOM     63  C   UNL     1       2.185  14.944  10.867  1.00  0.00     0.037 A 
BRANCH  50  64
ATOM     64  C   UNL     1      -1.892  10.444   9.774  1.00  0.00     0.064 A 
ATOM     65  C   UNL     1      -1.549   9.137   9.395  1.00  0.00     0.173 A 
ATOM     66  C   UNL     1      -2.886  10.604  10.751  1.00  0.00     0.173 A 
ATOM     67  F   UNL     1      -0.613   8.930   8.457  1.00  0.00    -0.203 F 
ATOM     68  C   UNL     1      -2.180   8.036   9.968  1.00  0.00     0.198 A 
ATOM     69  C   UNL     1      -3.494   9.499  11.343  1.00  0.00     0.198 A 
ATOM     70  F   UNL     1      -3.246  11.831  11.156  1.00  0.00    -0.203 F 
ATOM     71  F   UNL     1      -1.854   6.798   9.572  1.00  0.00    -0.200 F 
ATOM     72  C   UNL     1      -3.142   8.217  10.950  1.00  0.00     0.200 A 
ATOM     73  F   UNL     1      -4.412   9.676  12.304  1.00  0.00    -0.200 F 
ATOM     74  F   UNL     1      -3.730   7.155  11.519  1.00  0.00    -0.200 F 
ENDBRANCH  50  64
BRANCH  51  75
ATOM     75  C   UNL     1       3.259  18.006   5.759  1.00  0.00     0.064 A 
ATOM     76  C   UNL     1       4.653  17.883   5.670  1.00  0.00     0.173 A 
ATOM     77  C   UNL     1       2.678  19.185   5.267  1.00  0.00     0.173 A 
ATOM     78  F   UNL     1       5.259  16.785   6.145  1.00  0.00    -0.203 F 
ATOM     79  C   UNL     1       5.433  18.902   5.128  1.00  0.00     0.198 A 
ATOM     80  C   UNL     1       3.456  20.188   4.693  1.00  0.00     0.198 A 
ATOM     81  F   UNL     1       1.349  19.355   5.326  1.00  0.00    -0.203 F 
ATOM     82  F   UNL     1       6.767  18.778   5.100  1.00  0.00    -0.200 F 
ATOM     83  C   UNL     1       4.834  20.050   4.633  1.00  0.00     0.200 A 
ATOM     84  F   UNL     1       2.870  21.287   4.199  1.00  0.00    -0.200 F 
ATOM     85  F   UNL     1       5.584  21.027   4.106  1.00  0.00    -0.200 F 
ENDBRANCH  51  75
BRANCH  63  86
ATOM     86  C   UNL     1       2.865  15.278  12.162  1.00  0.00     0.064 A 
ATOM     87  C   UNL     1       2.522  16.424  12.894  1.00  0.00     0.173 A 
ATOM     88  C   UNL     1       3.809  14.400  12.716  1.00  0.00     0.173 A 
ATOM     89  F   UNL     1       1.635  17.300  12.400  1.00  0.00    -0.203 F 
ATOM     90  C   UNL     1       3.111  16.685  14.128  1.00  0.00     0.198 A 
ATOM     91  C   UNL     1       4.371  14.648  13.964  1.00  0.00     0.198 A 
ATOM     92  F   UNL     1       4.165  13.286  12.059  1.00  0.00    -0.203 F 
ATOM     93  F   UNL     1       2.795  17.804  14.794  1.00  0.00    -0.200 F 
ATOM     94  C   UNL     1       4.025  15.792  14.668  1.00  0.00     0.200 A 
ATOM     95  F   UNL     1       5.240  13.775  14.492  1.00  0.00    -0.200 F 
ATOM     96  F   UNL     1       4.573  16.035  15.866  1.00  0.00    -0.200 F 
ENDBRANCH  63  86
ENDBRANCH  37  38
ENDBRANCH  29  32
ENDBRANCH  27  28
ENDBRANCH  26  27
ENDBRANCH   1  26
TORSDOF 14
