REMARK SMILES C[C@@H]1CC[N@@H+]1CC1(CC(=O)NCCCNC(=O)c2ccc(-c3c4nc(c(-c5c(F)c(F)c(F)c(F)c5F)c5ccc([nH]5)c(-c5c(F)c(F)c(F)c(F)c5F)c5nc(c(-c6c(F)c(F)c(F)c(F)c6F)c6ccc3[nH]6)C=C5)C=C4)cc2)CCCCC1
REMARK SMILES IDX 12 1 11 2 9 3 10 4 8 6 7 7 81 8 85 9 82 10 84 11 83 12 6 13
REMARK SMILES IDX 5 14 1 15 2 16 3 17 4 18 13 20 14 21 15 22 16 23 17 25 18 26
REMARK SMILES IDX 19 27 80 28 20 29 79 30 21 31 22 32 23 33 73 34 24 35 78 36
REMARK SMILES IDX 72 37 74 38 25 39 77 40 71 41 70 42 26 44 58 45 38 46 57 47
REMARK SMILES IDX 39 48 42 49 56 50 75 51 40 52 41 53 55 55 76 56 43 57 27 58
REMARK SMILES IDX 28 59 36 60 29 61 30 62 34 63 37 64 31 65 32 66 35 67 33 68
REMARK SMILES IDX 59 69 60 70 68 71 61 72 62 73 66 74 69 75 63 76 64 77 67 78
REMARK SMILES IDX 65 79 44 80 45 81 53 82 46 83 47 84 51 85 54 86 48 87 49 88
REMARK SMILES IDX 52 89 50 90
REMARK H PARENT 11 5 5 19 15 24 74 43 42 54
REMARK Flexibility Score: inf
ROOT
ATOM      1  C   UNL     1      -0.817  -4.262   4.506  1.00  0.00     0.117 C 
ENDROOT
BRANCH   1   2
ATOM      2  N   UNL     1       0.608  -4.327   4.241  1.00  0.00    -0.356 N 
ATOM      3  C   UNL     1       1.477  -3.403   3.748  1.00  0.00     0.220 C 
ATOM      4  O   UNL     1       2.635  -3.779   3.545  1.00  0.00    -0.275 OA
ATOM      5  H   UNL     1       1.020  -5.195   4.456  1.00  0.00     0.163 HD
BRANCH   3   6
ATOM      6  C   UNL     1       1.085  -1.943   3.500  1.00  0.00     0.112 C 
BRANCH   6   7
ATOM      7  C   UNL     1       0.518  -1.519   2.085  1.00  0.00     0.028 C 
ATOM      8  C   UNL     1       0.608   0.025   1.982  1.00  0.00     0.013 C 
ATOM      9  C   UNL     1      -0.971  -1.895   1.986  1.00  0.00     0.013 C 
ATOM     10  C   UNL     1      -0.342   0.804   2.893  1.00  0.00     0.001 C 
ATOM     11  C   UNL     1      -1.914  -1.129   2.913  1.00  0.00     0.001 C 
ATOM     12  C   UNL     1      -1.784   0.365   2.670  1.00  0.00     0.000 C 
BRANCH   7  13
ATOM     13  C   UNL     1       1.427  -2.182   0.959  1.00  0.00     0.269 C 
BRANCH  13  14
ATOM     14  N   UNL     1       1.236  -2.325  -0.488  1.00  0.00    -0.332 N 
ATOM     15  C   UNL     1       1.673   0.135  -1.223  1.00  0.00     0.075 C 
ATOM     16  C   UNL     1       1.077  -1.232  -1.462  1.00  0.00     0.186 C 
ATOM     17  C   UNL     1      -0.447  -1.483  -1.435  1.00  0.00     0.126 C 
ATOM     18  C   UNL     1      -0.053  -2.891  -0.915  1.00  0.00     0.268 C 
ATOM     19  H   UNL     1       2.135  -2.804  -0.525  1.00  0.00     0.348 HD
ENDBRANCH  13  14
ENDBRANCH   7  13
ENDBRANCH   6   7
ENDBRANCH   3   6
ENDBRANCH   1   2
BRANCH   1  20
ATOM     20  C   UNL     1      -1.608  -4.914   3.375  1.00  0.00     0.042 C 
BRANCH  20  21
ATOM     21  C   UNL     1      -1.903  -6.384   3.586  1.00  0.00     0.118 C 
BRANCH  21  22
ATOM     22  N   UNL     1      -3.064  -6.597   4.437  1.00  0.00    -0.352 N 
ATOM     23  C   UNL     1      -4.299  -7.114   4.123  1.00  0.00     0.251 C 
ATOM     24  H   UNL     1      -2.947  -6.332   5.378  1.00  0.00     0.163 HD
ATOM     25  O   UNL     1      -5.224  -7.011   4.928  1.00  0.00    -0.269 OA
BRANCH  23  26
ATOM     26  C   UNL     1      -4.535  -7.771   2.816  1.00  0.00     0.039 A 
ATOM     27  C   UNL     1      -5.759  -7.585   2.164  1.00  0.00     0.014 A 
ATOM     28  C   UNL     1      -3.559  -8.579   2.231  1.00  0.00     0.014 A 
ATOM     29  C   UNL     1      -5.971  -8.151   0.903  1.00  0.00     0.010 A 
ATOM     30  C   UNL     1      -3.723  -9.038   0.930  1.00  0.00     0.010 A 
ATOM     31  C   UNL     1      -4.939  -8.850   0.258  1.00  0.00    -0.014 A 
BRANCH  31  32
ATOM     32  C   UNL     1      -5.103  -9.438  -1.096  1.00  0.00     0.031 A 
ATOM     33  C   UNL     1      -4.941 -10.923  -1.284  1.00  0.00     0.074 A 
ATOM     34  C   UNL     1      -5.303  -8.640  -2.162  1.00  0.00     0.049 A 
ATOM     35  N   UNL     1      -4.907 -11.625  -2.389  1.00  0.00    -0.248 NA
ATOM     36  C   UNL     1      -4.752 -11.723  -0.063  1.00  0.00     0.031 C 
ATOM     37  C   UNL     1      -5.445  -7.184  -2.116  1.00  0.00     0.029 A 
ATOM     38  N   UNL     1      -5.405  -8.941  -3.498  1.00  0.00    -0.354 N 
ATOM     39  C   UNL     1      -4.658 -12.934  -1.996  1.00  0.00     0.074 A 
ATOM     40  C   UNL     1      -4.489 -12.921  -0.560  1.00  0.00     0.031 C 
ATOM     41  C   UNL     1      -5.648  -6.723  -3.361  1.00  0.00     0.029 A 
ATOM     42  C   UNL     1      -5.596  -7.841  -4.298  1.00  0.00     0.049 A 
ATOM     43  H   UNL     1      -5.347  -9.859  -3.849  1.00  0.00     0.167 HD
ATOM     44  C   UNL     1      -4.598 -14.050  -2.760  1.00  0.00     0.037 A 
ATOM     45  C   UNL     1      -5.706  -7.747  -5.637  1.00  0.00     0.037 A 
ATOM     46  C   UNL     1      -4.801 -14.058  -4.185  1.00  0.00     0.049 A 
ATOM     47  C   UNL     1      -5.609  -8.998  -6.469  1.00  0.00     0.074 A 
ATOM     48  C   UNL     1      -4.835 -15.140  -5.046  1.00  0.00     0.029 A 
ATOM     49  N   UNL     1      -4.997 -12.923  -4.959  1.00  0.00    -0.354 N 
ATOM     50  N   UNL     1      -5.442 -10.240  -6.083  1.00  0.00    -0.248 NA
ATOM     51  C   UNL     1      -5.717  -8.833  -7.925  1.00  0.00     0.031 C 
ATOM     52  C   UNL     1      -4.987 -14.654  -6.349  1.00  0.00     0.029 A 
ATOM     53  C   UNL     1      -5.120 -13.276  -6.293  1.00  0.00     0.049 A 
ATOM     54  H   UNL     1      -5.043 -12.003  -4.611  1.00  0.00     0.167 HD
ATOM     55  C   UNL     1      -5.467 -11.007  -7.240  1.00  0.00     0.074 A 
ATOM     56  C   UNL     1      -5.669 -10.090  -8.343  1.00  0.00     0.031 C 
ATOM     57  C   UNL     1      -5.340 -12.350  -7.376  1.00  0.00     0.037 A 
BRANCH  44  58
ATOM     58  C   UNL     1      -4.287 -15.350  -2.070  1.00  0.00     0.064 A 
ATOM     59  C   UNL     1      -5.173 -15.937  -1.153  1.00  0.00     0.173 A 
ATOM     60  C   UNL     1      -3.083 -16.022  -2.335  1.00  0.00     0.173 A 
ATOM     61  F   UNL     1      -6.333 -15.333  -0.853  1.00  0.00    -0.203 F 
ATOM     62  C   UNL     1      -4.846 -17.119  -0.493  1.00  0.00     0.198 A 
ATOM     63  C   UNL     1      -2.777 -17.225  -1.703  1.00  0.00     0.198 A 
ATOM     64  F   UNL     1      -2.201 -15.514  -3.209  1.00  0.00    -0.203 F 
ATOM     65  F   UNL     1      -5.676 -17.619   0.432  1.00  0.00    -0.200 F 
ATOM     66  C   UNL     1      -3.652 -17.765  -0.773  1.00  0.00     0.200 A 
ATOM     67  F   UNL     1      -1.630 -17.857  -1.988  1.00  0.00    -0.200 F 
ATOM     68  F   UNL     1      -3.339 -18.903  -0.138  1.00  0.00    -0.200 F 
ENDBRANCH  44  58
BRANCH  45  69
ATOM     69  C   UNL     1      -5.958  -6.426  -6.273  1.00  0.00     0.064 A 
ATOM     70  C   UNL     1      -7.189  -6.155  -6.888  1.00  0.00     0.173 A 
ATOM     71  C   UNL     1      -4.989  -5.413  -6.281  1.00  0.00     0.173 A 
ATOM     72  F   UNL     1      -8.141  -7.099  -6.923  1.00  0.00    -0.203 F 
ATOM     73  C   UNL     1      -7.434  -4.930  -7.503  1.00  0.00     0.198 A 
ATOM     74  C   UNL     1      -5.246  -4.176  -6.870  1.00  0.00     0.198 A 
ATOM     75  F   UNL     1      -3.797  -5.617  -5.701  1.00  0.00    -0.203 F 
ATOM     76  F   UNL     1      -8.603  -4.715  -8.121  1.00  0.00    -0.200 F 
ATOM     77  C   UNL     1      -6.465  -3.938  -7.487  1.00  0.00     0.200 A 
ATOM     78  F   UNL     1      -4.314  -3.214  -6.838  1.00  0.00    -0.200 F 
ATOM     79  F   UNL     1      -6.703  -2.757  -8.073  1.00  0.00    -0.200 F 
ENDBRANCH  45  69
BRANCH  57  80
ATOM     80  C   UNL     1      -5.475 -12.923  -8.758  1.00  0.00     0.064 A 
ATOM     81  C   UNL     1      -4.490 -12.737  -9.739  1.00  0.00     0.173 A 
ATOM     82  C   UNL     1      -6.585 -13.718  -9.085  1.00  0.00     0.173 A 
ATOM     83  F   UNL     1      -3.417 -11.974  -9.483  1.00  0.00    -0.203 F 
ATOM     84  C   UNL     1      -4.623 -13.307 -11.003  1.00  0.00     0.198 A 
ATOM     85  C   UNL     1      -6.697 -14.315 -10.337  1.00  0.00     0.198 A 
ATOM     86  F   UNL     1      -7.552 -13.933  -8.181  1.00  0.00    -0.203 F 
ATOM     87  F   UNL     1      -3.693 -13.078 -11.940  1.00  0.00    -0.200 F 
ATOM     88  C   UNL     1      -5.720 -14.104 -11.297  1.00  0.00     0.200 A 
ATOM     89  F   UNL     1      -7.749 -15.099 -10.612  1.00  0.00    -0.200 F 
ATOM     90  F   UNL     1      -5.838 -14.664 -12.508  1.00  0.00    -0.200 F 
ENDBRANCH  57  80
ENDBRANCH  31  32
ENDBRANCH  23  26
ENDBRANCH  21  22
ENDBRANCH  20  21
ENDBRANCH   1  20
TORSDOF 13
