REMARK SMILES C=CC[N@H+](CC(=O)NCCCNC(=O)c1ccc(-c2c3nc(c(-c4c(F)c(F)c(F)c(F)c4F)c4ccc([nH]4)c(-c4c(F)c(F)c(F)c(F)c4F)c4nc(c(-c5c(F)c(F)c(F)c(F)c5F)c5ccc2[nH]5)C=C4)C=C3)cc1)CC(=O)NC(=O)NC
REMARK SMILES IDX 9 1 8 2 6 3 7 4 5 6 4 7 3 9 2 10 1 11 78 12 79 13 80 14
REMARK SMILES IDX 81 15 82 16 83 18 84 19 85 20 10 22 11 23 12 24 13 25 14 27
REMARK SMILES IDX 15 28 16 29 77 30 17 31 76 32 18 33 19 34 20 35 70 36 21 37
REMARK SMILES IDX 75 38 69 39 71 40 22 41 74 42 68 43 67 44 23 46 55 47 35 48
REMARK SMILES IDX 54 49 36 50 39 51 53 52 72 53 37 54 38 55 52 57 73 58 40 59
REMARK SMILES IDX 24 60 25 61 33 62 26 63 27 64 31 65 34 66 28 67 29 68 32 69
REMARK SMILES IDX 30 70 56 71 57 72 65 73 58 74 59 75 63 76 66 77 60 78 61 79
REMARK SMILES IDX 64 80 62 81 41 82 42 83 50 84 43 85 44 86 48 87 51 88 45 89
REMARK SMILES IDX 46 90 49 91 47 92
REMARK H PARENT 8 5 4 8 81 17 84 21 12 26 71 45 39 56
REMARK Flexibility Score: inf
ROOT
ATOM      1  C   UNL     1      -2.826  -0.207   1.838  1.00  0.00     0.118 C 
ENDROOT
BRANCH   1   2
ATOM      2  N   UNL     1      -3.788  -0.001   0.773  1.00  0.00    -0.351 N 
ATOM      3  C   UNL     1      -3.837  -0.611  -0.448  1.00  0.00     0.275 C 
ATOM      4  O   UNL     1      -4.784  -0.374  -1.198  1.00  0.00    -0.269 OA
ATOM      5  H   UNL     1      -4.494   0.661   0.952  1.00  0.00     0.163 HD
BRANCH   3   6
ATOM      6  C   UNL     1      -2.751  -1.613  -0.830  1.00  0.00     0.364 C 
BRANCH   6   7
ATOM      7  N   UNL     1      -1.429  -0.960  -0.944  1.00  0.00    -0.316 N 
ATOM      8  H   UNL     1      -1.417  -0.130  -0.352  1.00  0.00     0.349 HD
BRANCH   7   9
ATOM      9  C   UNL     1      -0.382  -1.840  -0.415  1.00  0.00     0.291 C 
BRANCH   9  10
ATOM     10  C   UNL     1       1.031  -1.571  -0.845  1.00  0.00     0.025 C 
ATOM     11  C   UNL     1       1.821  -0.606  -0.355  1.00  0.00     0.010 C 
ENDBRANCH   9  10
ENDBRANCH   7   9
BRANCH   7  12
ATOM     12  C   UNL     1      -1.177  -0.403  -2.283  1.00  0.00     0.364 C 
BRANCH  12  13
ATOM     13  C   UNL     1      -2.112   0.751  -2.652  1.00  0.00     0.283 C 
ATOM     14  O   UNL     1      -2.193   1.768  -1.956  1.00  0.00    -0.268 OA
ATOM     15  N   UNL     1      -2.743   0.719  -3.877  1.00  0.00    -0.273 N 
ATOM     16  C   UNL     1      -3.891   0.039  -4.122  1.00  0.00     0.321 C 
ATOM     17  H   UNL     1      -2.336   1.220  -4.620  1.00  0.00     0.175 HD
ATOM     18  O   UNL     1      -4.951   0.653  -4.235  1.00  0.00    -0.248 OA
ATOM     19  N   UNL     1      -3.883  -1.290  -4.349  1.00  0.00    -0.341 N 
ATOM     20  C   UNL     1      -2.813  -2.164  -4.753  1.00  0.00     0.144 C 
ATOM     21  H   UNL     1      -4.751  -1.735  -4.217  1.00  0.00     0.165 HD
ENDBRANCH  12  13
ENDBRANCH   7  12
ENDBRANCH   6   7
ENDBRANCH   3   6
ENDBRANCH   1   2
BRANCH   1  22
ATOM     22  C   UNL     1      -1.673   0.791   1.811  1.00  0.00     0.042 C 
BRANCH  22  23
ATOM     23  C   UNL     1      -2.115   2.225   2.052  1.00  0.00     0.118 C 
BRANCH  23  24
ATOM     24  N   UNL     1      -2.599   2.419   3.412  1.00  0.00    -0.352 N 
ATOM     25  C   UNL     1      -1.944   2.813   4.551  1.00  0.00     0.251 C 
ATOM     26  H   UNL     1      -3.559   2.237   3.534  1.00  0.00     0.163 HD
ATOM     27  O   UNL     1      -2.475   2.626   5.643  1.00  0.00    -0.269 OA
BRANCH  25  28
ATOM     28  C   UNL     1      -0.609   3.452   4.493  1.00  0.00     0.039 A 
ATOM     29  C   UNL     1       0.305   3.196   5.521  1.00  0.00     0.014 A 
ATOM     30  C   UNL     1      -0.280   4.371   3.495  1.00  0.00     0.014 A 
ATOM     31  C   UNL     1       1.552   3.829   5.525  1.00  0.00     0.010 A 
ATOM     32  C   UNL     1       0.996   4.927   3.446  1.00  0.00     0.010 A 
ATOM     33  C   UNL     1       1.916   4.685   4.475  1.00  0.00    -0.014 A 
BRANCH  33  34
ATOM     34  C   UNL     1       3.229   5.380   4.459  1.00  0.00     0.031 A 
ATOM     35  C   UNL     1       3.284   6.885   4.508  1.00  0.00     0.074 A 
ATOM     36  C   UNL     1       4.366   4.668   4.339  1.00  0.00     0.049 A 
ATOM     37  N   UNL     1       4.319   7.682   4.414  1.00  0.00    -0.248 NA
ATOM     38  C   UNL     1       1.999   7.589   4.646  1.00  0.00     0.031 C 
ATOM     39  C   UNL     1       4.444   3.211   4.233  1.00  0.00     0.029 A 
ATOM     40  N   UNL     1       5.675   5.077   4.275  1.00  0.00    -0.354 N 
ATOM     41  C   UNL     1       3.806   8.973   4.450  1.00  0.00     0.074 A 
ATOM     42  C   UNL     1       2.367   8.855   4.524  1.00  0.00     0.031 C 
ATOM     43  C   UNL     1       5.733   2.846   4.140  1.00  0.00     0.029 A 
ATOM     44  C   UNL     1       6.569   4.043   4.143  1.00  0.00     0.049 A 
ATOM     45  H   UNL     1       5.947   6.022   4.318  1.00  0.00     0.167 HD
ATOM     46  C   UNL     1       4.476  10.150   4.449  1.00  0.00     0.037 A 
ATOM     47  C   UNL     1       7.911   4.060   4.034  1.00  0.00     0.037 A 
ATOM     48  C   UNL     1       5.910  10.264   4.426  1.00  0.00     0.049 A 
ATOM     49  C   UNL     1       8.634   5.379   4.065  1.00  0.00     0.074 A 
ATOM     50  C   UNL     1       6.688  11.406   4.497  1.00  0.00     0.029 A 
ATOM     51  N   UNL     1       6.783   9.190   4.331  1.00  0.00    -0.354 N 
ATOM     52  N   UNL     1       8.142   6.590   4.164  1.00  0.00    -0.248 NA
ATOM     53  C   UNL     1      10.100   5.333   3.977  1.00  0.00     0.031 C 
ATOM     54  C   UNL     1       8.031  11.026   4.409  1.00  0.00     0.029 A 
ATOM     55  C   UNL     1       8.091   9.644   4.327  1.00  0.00     0.049 A 
ATOM     56  H   UNL     1       6.512   8.245   4.275  1.00  0.00     0.167 HD
ATOM     57  C   UNL     1       9.234   7.446   4.176  1.00  0.00     0.074 A 
ATOM     58  C   UNL     1      10.417   6.615   4.089  1.00  0.00     0.031 C 
ATOM     59  C   UNL     1       9.255   8.800   4.249  1.00  0.00     0.037 A 
BRANCH  46  60
ATOM     60  C   UNL     1       3.663  11.413   4.482  1.00  0.00     0.064 A 
ATOM     61  C   UNL     1       2.949  11.799   5.627  1.00  0.00     0.173 A 
ATOM     62  C   UNL     1       3.622  12.263   3.367  1.00  0.00     0.173 A 
ATOM     63  F   UNL     1       2.946  11.016   6.716  1.00  0.00    -0.203 F 
ATOM     64  C   UNL     1       2.198  12.972   5.643  1.00  0.00     0.198 A 
ATOM     65  C   UNL     1       2.895  13.451   3.397  1.00  0.00     0.198 A 
ATOM     66  F   UNL     1       4.293  11.947   2.249  1.00  0.00    -0.203 F 
ATOM     67  F   UNL     1       1.484  13.293   6.730  1.00  0.00    -0.200 F 
ATOM     68  C   UNL     1       2.178  13.800   4.531  1.00  0.00     0.200 A 
ATOM     69  F   UNL     1       2.887  14.257   2.326  1.00  0.00    -0.200 F 
ATOM     70  F   UNL     1       1.460  14.931   4.550  1.00  0.00    -0.200 F 
ENDBRANCH  46  60
BRANCH  47  71
ATOM     71  C   UNL     1       8.660   2.782   3.918  1.00  0.00     0.064 A 
ATOM     72  C   UNL     1       9.450   2.315   4.977  1.00  0.00     0.173 A 
ATOM     73  C   UNL     1       8.598   2.001   2.755  1.00  0.00     0.173 A 
ATOM     74  F   UNL     1       9.556   3.038   6.102  1.00  0.00    -0.203 F 
ATOM     75  C   UNL     1      10.166   1.125   4.872  1.00  0.00     0.198 A 
ATOM     76  C   UNL     1       9.293   0.797   2.660  1.00  0.00     0.198 A 
ATOM     77  F   UNL     1       7.851   2.400   1.716  1.00  0.00    -0.203 F 
ATOM     78  F   UNL     1      10.946   0.722   5.884  1.00  0.00    -0.200 F 
ATOM     79  C   UNL     1      10.082   0.363   3.716  1.00  0.00     0.200 A 
ATOM     80  F   UNL     1       9.198   0.057   1.548  1.00  0.00    -0.200 F 
ATOM     81  F   UNL     1      10.765  -0.785   3.616  1.00  0.00    -0.200 F 
ENDBRANCH  47  71
BRANCH  59  82
ATOM     82  C   UNL     1      10.600   9.464   4.270  1.00  0.00     0.064 A 
ATOM     83  C   UNL     1      11.396   9.546   3.119  1.00  0.00     0.173 A 
ATOM     84  C   UNL     1      11.076  10.064   5.445  1.00  0.00     0.173 A 
ATOM     85  F   UNL     1      10.990   8.974   1.975  1.00  0.00    -0.203 F 
ATOM     86  C   UNL     1      12.632  10.186   3.149  1.00  0.00     0.198 A 
ATOM     87  C   UNL     1      12.300  10.727   5.465  1.00  0.00     0.198 A 
ATOM     88  F   UNL     1      10.348  10.018   6.571  1.00  0.00    -0.203 F 
ATOM     89  F   UNL     1      13.396  10.216   2.049  1.00  0.00    -0.200 F 
ATOM     90  C   UNL     1      13.079  10.782   4.319  1.00  0.00     0.200 A 
ATOM     91  F   UNL     1      12.725  11.312   6.593  1.00  0.00    -0.200 F 
ATOM     92  F   UNL     1      14.266  11.404   4.345  1.00  0.00    -0.200 F 
ENDBRANCH  59  82
ENDBRANCH  33  34
ENDBRANCH  25  28
ENDBRANCH  23  24
ENDBRANCH  22  23
ENDBRANCH   1  22
TORSDOF 15
