REMARK SMILES Cn1cc([C@@H]2CC(NCCCNC(=O)c3ccc(-c4c5nc(c(-c6c(F)c(F)c(F)c(F)c6F)c6ccc([nH]6)c(-c6c(F)c(F)c(F)c(F)c6F)c6nc(c(-c7c(F)c(F)c(F)c(F)c7F)c7ccc4[nH]7)C=C6)C=C5)cc3)=[NH+]c3c2sc(C(=O)[O-])c3-c2ccc(Cl)cc2)cn1
REMARK SMILES IDX 11 1 10 2 9 3 8 4 5 5 6 6 80 7 7 8 79 9 81 10 78 11 86 12
REMARK SMILES IDX 82 13 4 16 1 17 2 18 3 19 95 20 94 21 87 22 88 23 93 24
REMARK SMILES IDX 89 25 92 26 90 27 91 28 83 29 84 30 85 31 12 32 13 33 14 35
REMARK SMILES IDX 15 36 16 37 77 38 17 39 76 40 18 41 19 42 20 43 70 44 21 45
REMARK SMILES IDX 75 46 69 47 71 48 22 49 74 50 68 51 67 52 23 54 55 55 35 56
REMARK SMILES IDX 54 57 36 58 39 59 53 60 72 61 37 62 38 63 52 65 73 66 40 67
REMARK SMILES IDX 24 68 25 69 33 70 26 71 27 72 31 73 34 74 28 75 29 76 32 77
REMARK SMILES IDX 30 78 56 79 57 80 65 81 58 82 59 83 63 84 66 85 60 86 61 87
REMARK SMILES IDX 64 88 62 89 41 90 42 91 50 92 43 93 44 94 48 95 51 96 45 97
REMARK SMILES IDX 46 98 49 99 47 100
REMARK H PARENT 8 14 78 15 12 34 71 53 39 64
REMARK Flexibility Score: inf
ROOT
ATOM      1  C   UNL     1       2.711  -7.135  -3.416  1.00  0.00     0.120 C 
ENDROOT
BRANCH   1   2
ATOM      2  C   UNL     1       2.779  -7.057  -1.903  1.00  0.00     0.067 C 
BRANCH   2   3
ATOM      3  C   UNL     1       3.851  -6.079  -1.421  1.00  0.00     0.235 C 
BRANCH   3   4
ATOM      4  N   UNL     1       3.469  -4.686  -1.644  1.00  0.00    -0.278 N 
ATOM      5  C   UNL     1       2.649  -1.376   0.175  1.00  0.00     0.079 C 
ATOM      6  C   UNL     1       2.959  -2.346  -0.981  1.00  0.00     0.142 C 
ATOM      7  C   UNL     1       2.640  -2.096   1.481  1.00  0.00     0.061 A 
ATOM      8  C   UNL     1       3.139  -3.825  -0.614  1.00  0.00     0.248 C 
ATOM      9  C   UNL     1       2.800  -3.439   1.633  1.00  0.00     0.147 A 
ATOM     10  S   UNL     1       2.444  -1.331   2.987  1.00  0.00    -0.133 S 
ATOM     11  N   UNL     1       3.029  -4.319   0.584  1.00  0.00    -0.243 N 
ATOM     12  C   UNL     1       2.756  -3.892   2.985  1.00  0.00     0.049 A 
ATOM     13  C   UNL     1       2.546  -2.826   3.857  1.00  0.00     0.062 A 
ATOM     14  H   UNL     1       3.447  -4.346  -2.568  1.00  0.00     0.304 HD
ATOM     15  H   UNL     1       3.106  -5.287   0.742  1.00  0.00     0.312 HD
BRANCH   5  16
ATOM     16  C   UNL     1       1.368  -0.615  -0.037  1.00  0.00    -0.001 A 
ATOM     17  C   UNL     1      -2.183   0.002  -0.134  1.00  0.00     0.173 C 
ATOM     18  N   UNL     1      -0.741  -0.009  -0.171  1.00  0.00    -0.276 N 
ATOM     19  C   UNL     1       0.073  -1.098  -0.085  1.00  0.00     0.112 A 
ATOM     20  N   UNL     1      -0.070   1.153  -0.257  1.00  0.00    -0.182 NA
ATOM     21  C   UNL     1       1.208   0.787  -0.149  1.00  0.00     0.139 A 
ENDBRANCH   5  16
BRANCH  12  22
ATOM     22  C   UNL     1       2.966  -5.276   3.402  1.00  0.00    -0.012 A 
ATOM     23  C   UNL     1       1.954  -6.009   4.034  1.00  0.00     0.010 A 
ATOM     24  C   UNL     1       4.195  -5.895   3.127  1.00  0.00     0.010 A 
ATOM     25  C   UNL     1       2.194  -7.324   4.444  1.00  0.00     0.021 A 
ATOM     26  C   UNL     1       4.429  -7.213   3.522  1.00  0.00     0.021 A 
ATOM     27  C   UNL     1       3.432  -7.915   4.194  1.00  0.00     0.041 A 
ATOM     28  Cl  UNL     1       3.733  -9.525   4.723  1.00  0.00    -0.084 Cl
ENDBRANCH  12  22
BRANCH  13  29
ATOM     29  C   UNL     1       2.430  -2.741   5.297  1.00  0.00     0.082 C 
ATOM     30  O   UNL     1       2.114  -1.767   5.978  1.00  0.00    -0.544 OA
ATOM     31  O   UNL     1       2.719  -3.896   5.927  1.00  0.00    -0.544 OA
ENDBRANCH  13  29
ENDBRANCH   3   4
ENDBRANCH   2   3
ENDBRANCH   1   2
BRANCH   1  32
ATOM     32  N   UNL     1       3.907  -7.728  -4.035  1.00  0.00    -0.352 N 
ATOM     33  C   UNL     1       4.146  -7.971  -5.380  1.00  0.00     0.251 C 
ATOM     34  H   UNL     1       4.629  -7.985  -3.417  1.00  0.00     0.163 HD
ATOM     35  O   UNL     1       5.019  -8.747  -5.745  1.00  0.00    -0.269 OA
BRANCH  33  36
ATOM     36  C   UNL     1       3.326  -7.250  -6.368  1.00  0.00     0.039 A 
ATOM     37  C   UNL     1       2.830  -7.843  -7.532  1.00  0.00     0.014 A 
ATOM     38  C   UNL     1       3.000  -5.941  -6.043  1.00  0.00     0.014 A 
ATOM     39  C   UNL     1       1.948  -7.106  -8.322  1.00  0.00     0.010 A 
ATOM     40  C   UNL     1       1.930  -5.354  -6.642  1.00  0.00     0.010 A 
ATOM     41  C   UNL     1       1.496  -5.862  -7.853  1.00  0.00    -0.014 A 
BRANCH  41  42
ATOM     42  C   UNL     1       0.490  -5.071  -8.543  1.00  0.00     0.031 A 
ATOM     43  C   UNL     1      -0.796  -5.787  -8.703  1.00  0.00     0.074 A 
ATOM     44  C   UNL     1       0.647  -3.743  -8.762  1.00  0.00     0.049 A 
ATOM     45  N   UNL     1      -1.292  -6.265  -9.792  1.00  0.00    -0.248 NA
ATOM     46  C   UNL     1      -1.535  -6.186  -7.492  1.00  0.00     0.031 C 
ATOM     47  C   UNL     1       1.747  -2.875  -8.306  1.00  0.00     0.029 A 
ATOM     48  N   UNL     1      -0.195  -2.853  -9.361  1.00  0.00    -0.354 N 
ATOM     49  C   UNL     1      -2.533  -6.790  -9.440  1.00  0.00     0.074 A 
ATOM     50  C   UNL     1      -2.517  -6.928  -8.011  1.00  0.00     0.031 C 
ATOM     51  C   UNL     1       1.398  -1.576  -8.437  1.00  0.00     0.029 A 
ATOM     52  C   UNL     1       0.144  -1.514  -9.161  1.00  0.00     0.049 A 
ATOM     53  H   UNL     1      -0.977  -3.132  -9.890  1.00  0.00     0.167 HD
ATOM     54  C   UNL     1      -3.565  -6.739 -10.328  1.00  0.00     0.037 A 
ATOM     55  C   UNL     1      -0.557  -0.431  -9.578  1.00  0.00     0.037 A 
ATOM     56  C   UNL     1      -3.071  -6.371 -11.633  1.00  0.00     0.049 A 
ATOM     57  C   UNL     1      -1.440  -0.886 -10.674  1.00  0.00     0.074 A 
ATOM     58  C   UNL     1      -2.397  -6.992 -12.660  1.00  0.00     0.029 A 
ATOM     59  N   UNL     1      -2.900  -5.019 -11.785  1.00  0.00    -0.354 N 
ATOM     60  N   UNL     1      -0.990  -1.307 -11.823  1.00  0.00    -0.248 NA
ATOM     61  C   UNL     1      -2.817  -1.254 -10.366  1.00  0.00     0.031 C 
ATOM     62  C   UNL     1      -1.683  -5.962 -13.345  1.00  0.00     0.029 A 
ATOM     63  C   UNL     1      -1.988  -4.734 -12.764  1.00  0.00     0.049 A 
ATOM     64  H   UNL     1      -3.374  -4.338 -11.256  1.00  0.00     0.167 HD
ATOM     65  C   UNL     1      -1.852  -2.327 -12.174  1.00  0.00     0.074 A 
ATOM     66  C   UNL     1      -3.037  -2.136 -11.346  1.00  0.00     0.031 C 
ATOM     67  C   UNL     1      -1.393  -3.419 -12.850  1.00  0.00     0.037 A 
BRANCH  54  68
ATOM     68  C   UNL     1      -5.020  -6.505  -9.974  1.00  0.00     0.064 A 
ATOM     69  C   UNL     1      -5.983  -6.545 -11.007  1.00  0.00     0.173 A 
ATOM     70  C   UNL     1      -5.468  -5.943  -8.759  1.00  0.00     0.173 A 
ATOM     71  F   UNL     1      -5.670  -7.043 -12.213  1.00  0.00    -0.203 F 
ATOM     72  C   UNL     1      -7.262  -6.000 -10.853  1.00  0.00     0.198 A 
ATOM     73  C   UNL     1      -6.760  -5.444  -8.594  1.00  0.00     0.198 A 
ATOM     74  F   UNL     1      -4.654  -5.746  -7.717  1.00  0.00    -0.203 F 
ATOM     75  F   UNL     1      -8.098  -5.956 -11.899  1.00  0.00    -0.200 F 
ATOM     76  C   UNL     1      -7.647  -5.444  -9.648  1.00  0.00     0.200 A 
ATOM     77  F   UNL     1      -7.105  -4.888  -7.424  1.00  0.00    -0.200 F 
ATOM     78  F   UNL     1      -8.849  -4.869  -9.514  1.00  0.00    -0.200 F 
ENDBRANCH  54  68
BRANCH  55  79
ATOM     79  C   UNL     1      -0.713   0.897  -8.943  1.00  0.00     0.064 A 
ATOM     80  C   UNL     1      -1.094   2.028  -9.684  1.00  0.00     0.173 A 
ATOM     81  C   UNL     1      -0.793   1.007  -7.543  1.00  0.00     0.173 A 
ATOM     82  F   UNL     1      -1.086   1.989 -11.024  1.00  0.00    -0.203 F 
ATOM     83  C   UNL     1      -1.560   3.191  -9.059  1.00  0.00     0.198 A 
ATOM     84  C   UNL     1      -1.264   2.166  -6.920  1.00  0.00     0.198 A 
ATOM     85  F   UNL     1      -0.516  -0.048  -6.762  1.00  0.00    -0.203 F 
ATOM     86  F   UNL     1      -1.976   4.229  -9.799  1.00  0.00    -0.200 F 
ATOM     87  C   UNL     1      -1.660   3.253  -7.679  1.00  0.00     0.200 A 
ATOM     88  F   UNL     1      -1.400   2.195  -5.587  1.00  0.00    -0.200 F 
ATOM     89  F   UNL     1      -2.177   4.337  -7.083  1.00  0.00    -0.200 F 
ENDBRANCH  55  79
BRANCH  67  90
ATOM     90  C   UNL     1      -0.116  -3.269 -13.617  1.00  0.00     0.064 A 
ATOM     91  C   UNL     1       1.151  -3.082 -13.041  1.00  0.00     0.173 A 
ATOM     92  C   UNL     1      -0.181  -3.398 -15.010  1.00  0.00     0.173 A 
ATOM     93  F   UNL     1       1.303  -3.021 -11.713  1.00  0.00    -0.203 F 
ATOM     94  C   UNL     1       2.296  -2.994 -13.833  1.00  0.00     0.198 A 
ATOM     95  C   UNL     1       0.965  -3.346 -15.795  1.00  0.00     0.198 A 
ATOM     96  F   UNL     1      -1.362  -3.617 -15.608  1.00  0.00    -0.203 F 
ATOM     97  F   UNL     1       3.495  -2.799 -13.264  1.00  0.00    -0.200 F 
ATOM     98  C   UNL     1       2.201  -3.133 -15.209  1.00  0.00     0.200 A 
ATOM     99  F   UNL     1       0.870  -3.522 -17.120  1.00  0.00    -0.200 F 
ATOM    100  F   UNL     1       3.304  -3.081 -15.969  1.00  0.00    -0.200 F 
ENDBRANCH  67  90
ENDBRANCH  41  42
ENDBRANCH  33  36
ENDBRANCH   1  32
TORSDOF 12
