REMARK SMILES CC(C)(C)C(=O)NCC(=O)Nc1cc(Cl)ccc1C(=O)NCCCNC(=O)c1ccc(-c2c3nc(c(-c4c(F)c(F)c(F)c(F)c4F)c4ccc([nH]4)c(-c4c(F)c(F)c(F)c(F)c4F)c4nc(c(-c5c(F)c(F)c(F)c(F)c5F)c5ccc2[nH]5)C=C4)C=C3)cc1
REMARK SMILES IDX 22 1 21 2 19 3 20 4 18 6 12 7 13 8 14 9 17 10 15 11 16 12
REMARK SMILES IDX 11 13 9 14 10 15 8 17 7 18 5 19 6 20 2 22 1 23 3 24 4 25
REMARK SMILES IDX 23 26 24 27 25 28 26 29 27 31 28 32 29 33 90 34 30 35 89 36
REMARK SMILES IDX 31 37 32 38 33 39 83 40 34 41 88 42 82 43 84 44 35 45 87 46
REMARK SMILES IDX 81 47 80 48 36 50 68 51 48 52 67 53 49 54 52 55 66 56 85 57
REMARK SMILES IDX 50 58 51 59 65 61 86 62 53 63 37 64 38 65 46 66 39 67 40 68
REMARK SMILES IDX 44 69 47 70 41 71 42 72 45 73 43 74 69 75 70 76 78 77 71 78
REMARK SMILES IDX 72 79 76 80 79 81 73 82 74 83 77 84 75 85 54 86 55 87 63 88
REMARK SMILES IDX 56 89 57 90 61 91 64 92 58 93 59 94 62 95 60 96
REMARK H PARENT 21 5 11 16 7 21 25 30 84 49 52 60
REMARK Flexibility Score: inf
ROOT
ATOM      1  C   UNL     1      -3.614  -2.418   3.556  1.00  0.00     0.118 C 
ENDROOT
BRANCH   1   2
ATOM      2  N   UNL     1      -4.548  -2.292   2.472  1.00  0.00    -0.352 N 
ATOM      3  C   UNL     1      -4.359  -2.437   1.120  1.00  0.00     0.253 C 
ATOM      4  O   UNL     1      -5.370  -2.347   0.420  1.00  0.00    -0.269 OA
ATOM      5  H   UNL     1      -5.468  -2.066   2.741  1.00  0.00     0.163 HD
BRANCH   3   6
ATOM      6  C   UNL     1      -3.032  -2.615   0.435  1.00  0.00     0.063 A 
ATOM      7  C   UNL     1      -1.875  -3.295   0.880  1.00  0.00     0.055 A 
ATOM      8  C   UNL     1      -0.764  -3.400   0.025  1.00  0.00     0.047 A 
ATOM      9  C   UNL     1      -0.751  -2.787  -1.226  1.00  0.00     0.043 A 
ATOM     10  C   UNL     1      -2.984  -1.996  -0.838  1.00  0.00     0.017 A 
ATOM     11  Cl  UNL     1       0.624  -2.939  -2.244  1.00  0.00    -0.084 Cl
ATOM     12  C   UNL     1      -1.855  -2.070  -1.657  1.00  0.00     0.021 A 
BRANCH   7  13
ATOM     13  N   UNL     1      -1.819  -4.051   2.060  1.00  0.00    -0.324 N 
ATOM     14  C   UNL     1      -0.942  -3.969   3.119  1.00  0.00     0.243 C 
ATOM     15  O   UNL     1      -1.114  -4.768   4.048  1.00  0.00    -0.273 OA
ATOM     16  H   UNL     1      -2.511  -4.746   2.144  1.00  0.00     0.170 HD
BRANCH  14  17
ATOM     17  C   UNL     1       0.014  -2.764   3.322  1.00  0.00     0.216 C 
BRANCH  17  18
ATOM     18  N   UNL     1       1.025  -2.586   2.310  1.00  0.00    -0.347 N 
ATOM     19  C   UNL     1       1.405  -1.569   1.504  1.00  0.00     0.225 C 
ATOM     20  O   UNL     1       2.336  -1.863   0.744  1.00  0.00    -0.275 OA
ATOM     21  H   UNL     1       1.567  -3.396   2.174  1.00  0.00     0.164 HD
BRANCH  19  22
ATOM     22  C   UNL     1       0.841  -0.129   1.540  1.00  0.00     0.041 C 
ATOM     23  C   UNL     1       1.383   0.597   0.282  1.00  0.00     0.021 C 
ATOM     24  C   UNL     1       1.380   0.583   2.786  1.00  0.00     0.021 C 
ATOM     25  C   UNL     1      -0.681   0.026   1.483  1.00  0.00     0.021 C 
ENDBRANCH  19  22
ENDBRANCH  17  18
ENDBRANCH  14  17
ENDBRANCH   7  13
ENDBRANCH   3   6
ENDBRANCH   1   2
BRANCH   1  26
ATOM     26  C   UNL     1      -3.892  -1.615   4.806  1.00  0.00     0.042 C 
BRANCH  26  27
ATOM     27  C   UNL     1      -5.202  -1.940   5.497  1.00  0.00     0.118 C 
BRANCH  27  28
ATOM     28  N   UNL     1      -5.311  -3.317   5.962  1.00  0.00    -0.352 N 
ATOM     29  C   UNL     1      -5.303  -3.873   7.219  1.00  0.00     0.251 C 
ATOM     30  H   UNL     1      -5.409  -3.975   5.237  1.00  0.00     0.163 HD
ATOM     31  O   UNL     1      -5.337  -5.100   7.327  1.00  0.00    -0.269 OA
BRANCH  29  32
ATOM     32  C   UNL     1      -5.216  -3.043   8.442  1.00  0.00     0.039 A 
ATOM     33  C   UNL     1      -4.514  -3.534   9.548  1.00  0.00     0.014 A 
ATOM     34  C   UNL     1      -5.831  -1.797   8.529  1.00  0.00     0.014 A 
ATOM     35  C   UNL     1      -4.370  -2.745  10.693  1.00  0.00     0.010 A 
ATOM     36  C   UNL     1      -5.557  -0.954   9.599  1.00  0.00     0.010 A 
ATOM     37  C   UNL     1      -4.849  -1.425  10.711  1.00  0.00    -0.014 A 
BRANCH  37  38
ATOM     38  C   UNL     1      -4.671  -0.540  11.892  1.00  0.00     0.031 A 
ATOM     39  C   UNL     1      -5.875   0.055  12.579  1.00  0.00     0.074 A 
ATOM     40  C   UNL     1      -3.430  -0.219  12.309  1.00  0.00     0.049 A 
ATOM     41  N   UNL     1      -5.928   0.900  13.577  1.00  0.00    -0.248 NA
ATOM     42  C   UNL     1      -7.197  -0.315  12.045  1.00  0.00     0.031 C 
ATOM     43  C   UNL     1      -2.183  -0.672  11.689  1.00  0.00     0.029 A 
ATOM     44  N   UNL     1      -3.013   0.568  13.353  1.00  0.00    -0.354 N 
ATOM     45  C   UNL     1      -7.276   1.176  13.769  1.00  0.00     0.074 A 
ATOM     46  C   UNL     1      -8.003   0.474  12.736  1.00  0.00     0.031 C 
ATOM     47  C   UNL     1      -1.143  -0.192  12.389  1.00  0.00     0.029 A 
ATOM     48  C   UNL     1      -1.646   0.636  13.480  1.00  0.00     0.049 A 
ATOM     49  H   UNL     1      -3.634   1.038  13.955  1.00  0.00     0.167 HD
ATOM     50  C   UNL     1      -7.863   1.914  14.741  1.00  0.00     0.037 A 
ATOM     51  C   UNL     1      -0.886   1.292  14.377  1.00  0.00     0.037 A 
ATOM     52  C   UNL     1      -7.139   2.575  15.794  1.00  0.00     0.049 A 
ATOM     53  C   UNL     1      -1.562   2.093  15.458  1.00  0.00     0.074 A 
ATOM     54  C   UNL     1      -7.638   3.288  16.869  1.00  0.00     0.029 A 
ATOM     55  N   UNL     1      -5.756   2.599  15.903  1.00  0.00    -0.354 N 
ATOM     56  N   UNL     1      -2.841   2.280  15.675  1.00  0.00    -0.248 NA
ATOM     57  C   UNL     1      -0.685   2.766  16.426  1.00  0.00     0.031 C 
ATOM     58  C   UNL     1      -6.556   3.788  17.600  1.00  0.00     0.029 A 
ATOM     59  C   UNL     1      -5.383   3.337  17.015  1.00  0.00     0.049 A 
ATOM     60  H   UNL     1      -5.132   2.158  15.283  1.00  0.00     0.167 HD
ATOM     61  C   UNL     1      -2.924   3.068  16.815  1.00  0.00     0.074 A 
ATOM     62  C   UNL     1      -1.565   3.301  17.258  1.00  0.00     0.031 C 
ATOM     63  C   UNL     1      -4.024   3.558  17.439  1.00  0.00     0.037 A 
BRANCH  50  64
ATOM     64  C   UNL     1      -9.361   2.034  14.716  1.00  0.00     0.064 A 
ATOM     65  C   UNL     1     -10.195   0.932  14.966  1.00  0.00     0.173 A 
ATOM     66  C   UNL     1      -9.973   3.271  14.463  1.00  0.00     0.173 A 
ATOM     67  F   UNL     1      -9.664  -0.278  15.200  1.00  0.00    -0.203 F 
ATOM     68  C   UNL     1     -11.582   1.056  14.927  1.00  0.00     0.198 A 
ATOM     69  C   UNL     1     -11.361   3.399  14.461  1.00  0.00     0.198 A 
ATOM     70  F   UNL     1      -9.227   4.359  14.221  1.00  0.00    -0.203 F 
ATOM     71  F   UNL     1     -12.354  -0.025  15.107  1.00  0.00    -0.200 F 
ATOM     72  C   UNL     1     -12.163   2.290  14.682  1.00  0.00     0.200 A 
ATOM     73  F   UNL     1     -11.921   4.596  14.238  1.00  0.00    -0.200 F 
ATOM     74  F   UNL     1     -13.498   2.409  14.652  1.00  0.00    -0.200 F 
ENDBRANCH  50  64
BRANCH  51  75
ATOM     75  C   UNL     1       0.596   1.192  14.314  1.00  0.00     0.064 A 
ATOM     76  C   UNL     1       1.316   0.519  15.312  1.00  0.00     0.173 A 
ATOM     77  C   UNL     1       1.326   1.772  13.266  1.00  0.00     0.173 A 
ATOM     78  F   UNL     1       0.666  -0.036  16.346  1.00  0.00    -0.203 F 
ATOM     79  C   UNL     1       2.707   0.452  15.278  1.00  0.00     0.198 A 
ATOM     80  C   UNL     1       2.715   1.677  13.216  1.00  0.00     0.198 A 
ATOM     81  F   UNL     1       0.687   2.421  12.281  1.00  0.00    -0.203 F 
ATOM     82  F   UNL     1       3.371  -0.152  16.273  1.00  0.00    -0.200 F 
ATOM     83  C   UNL     1       3.405   1.026  14.227  1.00  0.00     0.200 A 
ATOM     84  F   UNL     1       3.385   2.218  12.189  1.00  0.00    -0.200 F 
ATOM     85  F   UNL     1       4.743   0.959  14.193  1.00  0.00    -0.200 F 
ENDBRANCH  51  75
BRANCH  63  86
ATOM     86  C   UNL     1      -3.801   4.371  18.682  1.00  0.00     0.064 A 
ATOM     87  C   UNL     1      -3.223   5.649  18.633  1.00  0.00     0.173 A 
ATOM     88  C   UNL     1      -4.191   3.875  19.935  1.00  0.00     0.173 A 
ATOM     89  F   UNL     1      -2.821   6.163  17.461  1.00  0.00    -0.203 F 
ATOM     90  C   UNL     1      -3.009   6.382  19.796  1.00  0.00     0.198 A 
ATOM     91  C   UNL     1      -4.010   4.627  21.092  1.00  0.00     0.198 A 
ATOM     92  F   UNL     1      -4.758   2.663  20.037  1.00  0.00    -0.203 F 
ATOM     93  F   UNL     1      -2.398   7.573  19.731  1.00  0.00    -0.200 F 
ATOM     94  C   UNL     1      -3.408   5.874  21.023  1.00  0.00     0.200 A 
ATOM     95  F   UNL     1      -4.412   4.141  22.275  1.00  0.00    -0.200 F 
ATOM     96  F   UNL     1      -3.204   6.583  22.142  1.00  0.00    -0.200 F 
ENDBRANCH  63  86
ENDBRANCH  37  38
ENDBRANCH  29  32
ENDBRANCH  27  28
ENDBRANCH  26  27
ENDBRANCH   1  26
TORSDOF 14
