REMARK SMILES Cc1ccc(OCCC(=O)N2C[C@H](O)C[C@@H]2C(=O)NCCCNC(=O)c2ccc(-c3c4nc(c(-c5c(F)c(F)c(F)c(F)c5F)c5ccc([nH]5)c(-c5c(F)c(F)c(F)c(F)c5F)c5nc(c(-c6c(F)c(F)c(F)c(F)c6F)c6ccc3[nH]6)C=C5)C=C4)cc2)cc1
REMARK SMILES IDX 17 1 18 2 19 3 16 5 11 6 12 7 13 8 15 9 9 10 10 11 8 12 7 13
REMARK SMILES IDX 6 14 5 15 1 16 2 17 3 18 90 19 4 20 89 21 14 22 20 24 21 25
REMARK SMILES IDX 22 26 23 27 24 28 25 30 26 31 27 32 88 33 28 34 87 35 29 36
REMARK SMILES IDX 30 37 31 38 81 39 32 40 86 41 80 42 82 43 33 44 85 45 79 46
REMARK SMILES IDX 78 47 34 49 66 50 46 51 65 52 47 53 50 54 64 55 83 56 48 57
REMARK SMILES IDX 49 58 63 60 84 61 51 62 35 63 36 64 44 65 37 66 38 67 42 68
REMARK SMILES IDX 45 69 39 70 40 71 43 72 41 73 67 74 68 75 76 76 69 77 70 78
REMARK SMILES IDX 74 79 77 80 71 81 72 82 75 83 73 84 52 85 53 86 61 87 54 88
REMARK SMILES IDX 55 89 59 90 62 91 56 92 57 93 60 94 58 95
REMARK H PARENT 19 4 14 23 23 29 82 48 50 59
REMARK Flexibility Score: inf
ROOT
ATOM      1  C   UNL     1      -0.436   1.239   4.203  1.00  0.00     0.242 C 
ATOM      2  O   UNL     1       0.499   1.300   5.013  1.00  0.00    -0.273 OA
ATOM      3  N   UNL     1      -1.680   1.155   4.752  1.00  0.00    -0.354 N 
ATOM      4  H   UNL     1      -1.690   0.881   5.697  1.00  0.00     0.163 HD
ENDROOT
BRANCH   1   5
ATOM      5  C   UNL     1      -0.129   1.161   2.680  1.00  0.00     0.177 C 
ATOM      6  N   UNL     1      -1.228   0.941   1.738  1.00  0.00    -0.328 N 
ATOM      7  C   UNL     1      -1.262  -0.455   1.310  1.00  0.00     0.152 C 
ATOM      8  C   UNL     1      -0.164  -1.176   2.085  1.00  0.00     0.136 C 
ATOM      9  C   UNL     1       0.799  -0.052   2.450  1.00  0.00     0.069 C 
BRANCH   6  10
ATOM     10  C   UNL     1      -1.826   1.980   1.040  1.00  0.00     0.226 C 
ATOM     11  O   UNL     1      -1.393   3.132   1.090  1.00  0.00    -0.275 OA
BRANCH  10  12
ATOM     12  C   UNL     1      -3.153   1.687   0.342  1.00  0.00     0.141 C 
BRANCH  12  13
ATOM     13  C   UNL     1      -3.233   1.858  -1.170  1.00  0.00     0.239 C 
BRANCH  13  14
ATOM     14  O   UNL     1      -2.744   0.722  -1.899  1.00  0.00    -0.493 OA
BRANCH  14  15
ATOM     15  C   UNL     1      -1.387   0.608  -2.020  1.00  0.00     0.119 A 
ATOM     16  C   UNL     1       2.792  -0.175  -1.450  1.00  0.00     0.044 C 
ATOM     17  C   UNL     1       1.352   0.099  -1.760  1.00  0.00    -0.051 A 
ATOM     18  C   UNL     1       0.469  -0.948  -2.050  1.00  0.00     0.007 A 
ATOM     19  C   UNL     1       0.870   1.410  -1.739  1.00  0.00     0.007 A 
ATOM     20  C   UNL     1      -0.898  -0.691  -2.194  1.00  0.00     0.046 A 
ATOM     21  C   UNL     1      -0.491   1.663  -1.880  1.00  0.00     0.046 A 
ENDBRANCH  14  15
ENDBRANCH  13  14
ENDBRANCH  12  13
ENDBRANCH  10  12
ENDBRANCH   6  10
BRANCH   8  22
ATOM     22  O   UNL     1      -0.688  -1.848   3.226  1.00  0.00    -0.391 OA
ATOM     23  H   UNL     1      -1.145  -1.209   3.795  1.00  0.00     0.211 HD
ENDBRANCH   8  22
ENDBRANCH   1   5
BRANCH   3  24
ATOM     24  C   UNL     1      -2.995   1.402   4.182  1.00  0.00     0.117 C 
BRANCH  24  25
ATOM     25  C   UNL     1      -3.615   0.158   3.566  1.00  0.00     0.042 C 
BRANCH  25  26
ATOM     26  C   UNL     1      -4.833  -0.397   4.272  1.00  0.00     0.118 C 
BRANCH  26  27
ATOM     27  N   UNL     1      -6.107   0.106   3.760  1.00  0.00    -0.352 N 
ATOM     28  C   UNL     1      -7.394  -0.325   4.079  1.00  0.00     0.251 C 
ATOM     29  H   UNL     1      -6.049   0.842   3.108  1.00  0.00     0.163 HD
ATOM     30  O   UNL     1      -8.376   0.180   3.589  1.00  0.00    -0.269 OA
BRANCH  28  31
ATOM     31  C   UNL     1      -7.512  -1.334   5.162  1.00  0.00     0.039 A 
ATOM     32  C   UNL     1      -7.984  -0.850   6.385  1.00  0.00     0.014 A 
ATOM     33  C   UNL     1      -6.728  -2.480   5.088  1.00  0.00     0.014 A 
ATOM     34  C   UNL     1      -7.390  -1.310   7.550  1.00  0.00     0.010 A 
ATOM     35  C   UNL     1      -6.057  -2.856   6.235  1.00  0.00     0.010 A 
ATOM     36  C   UNL     1      -6.318  -2.190   7.443  1.00  0.00    -0.014 A 
BRANCH  36  37
ATOM     37  C   UNL     1      -5.320  -2.348   8.495  1.00  0.00     0.031 A 
ATOM     38  C   UNL     1      -5.201  -3.645   9.188  1.00  0.00     0.074 A 
ATOM     39  C   UNL     1      -4.449  -1.344   8.765  1.00  0.00     0.049 A 
ATOM     40  N   UNL     1      -4.508  -3.825  10.260  1.00  0.00    -0.248 NA
ATOM     41  C   UNL     1      -5.933  -4.841   8.777  1.00  0.00     0.031 C 
ATOM     42  C   UNL     1      -3.195  -1.433   9.515  1.00  0.00     0.029 A 
ATOM     43  N   UNL     1      -4.643   0.041   8.591  1.00  0.00    -0.354 N 
ATOM     44  C   UNL     1      -4.455  -5.175  10.498  1.00  0.00     0.074 A 
ATOM     45  C   UNL     1      -5.457  -5.744   9.639  1.00  0.00     0.031 C 
ATOM     46  C   UNL     1      -2.887  -0.221  10.001  1.00  0.00     0.029 A 
ATOM     47  C   UNL     1      -4.008   0.649   9.703  1.00  0.00     0.049 A 
ATOM     48  H   UNL     1      -5.117   0.490   7.854  1.00  0.00     0.167 HD
ATOM     49  C   UNL     1      -3.461  -5.644  11.299  1.00  0.00     0.037 A 
ATOM     50  C   UNL     1      -4.705   1.360  10.636  1.00  0.00     0.037 A 
ATOM     51  C   UNL     1      -2.897  -4.556  12.101  1.00  0.00     0.049 A 
ATOM     52  C   UNL     1      -4.570   0.830  12.045  1.00  0.00     0.074 A 
ATOM     53  C   UNL     1      -1.701  -3.861  12.086  1.00  0.00     0.029 A 
ATOM     54  N   UNL     1      -3.753  -3.848  12.944  1.00  0.00    -0.354 N 
ATOM     55  N   UNL     1      -4.159  -0.374  12.333  1.00  0.00    -0.248 NA
ATOM     56  C   UNL     1      -4.915   1.601  13.236  1.00  0.00     0.031 C 
ATOM     57  C   UNL     1      -1.877  -2.678  12.860  1.00  0.00     0.029 A 
ATOM     58  C   UNL     1      -3.161  -2.681  13.379  1.00  0.00     0.049 A 
ATOM     59  H   UNL     1      -4.658  -4.142  13.196  1.00  0.00     0.167 HD
ATOM     60  C   UNL     1      -4.205  -0.564  13.691  1.00  0.00     0.074 A 
ATOM     61  C   UNL     1      -4.660   0.712  14.212  1.00  0.00     0.031 C 
ATOM     62  C   UNL     1      -3.883  -1.766  14.258  1.00  0.00     0.037 A 
BRANCH  49  63
ATOM     63  C   UNL     1      -2.868  -7.038  11.226  1.00  0.00     0.064 A 
ATOM     64  C   UNL     1      -1.791  -7.394  12.069  1.00  0.00     0.173 A 
ATOM     65  C   UNL     1      -3.201  -8.020  10.265  1.00  0.00     0.173 A 
ATOM     66  F   UNL     1      -1.351  -6.562  13.022  1.00  0.00    -0.203 F 
ATOM     67  C   UNL     1      -1.104  -8.609  11.943  1.00  0.00     0.198 A 
ATOM     68  C   UNL     1      -2.547  -9.251  10.173  1.00  0.00     0.198 A 
ATOM     69  F   UNL     1      -4.130  -7.822   9.326  1.00  0.00    -0.203 F 
ATOM     70  F   UNL     1      -0.050  -8.863  12.732  1.00  0.00    -0.200 F 
ATOM     71  C   UNL     1      -1.488  -9.541  11.001  1.00  0.00     0.200 A 
ATOM     72  F   UNL     1      -2.936 -10.138   9.245  1.00  0.00    -0.200 F 
ATOM     73  F   UNL     1      -0.831 -10.702  10.877  1.00  0.00    -0.200 F 
ENDBRANCH  49  63
BRANCH  50  74
ATOM     74  C   UNL     1      -5.905   2.033  10.076  1.00  0.00     0.064 A 
ATOM     75  C   UNL     1      -5.710   3.022   9.091  1.00  0.00     0.173 A 
ATOM     76  C   UNL     1      -7.178   1.462  10.176  1.00  0.00     0.173 A 
ATOM     77  F   UNL     1      -4.505   3.599   8.953  1.00  0.00    -0.203 F 
ATOM     78  C   UNL     1      -6.701   3.325   8.162  1.00  0.00     0.198 A 
ATOM     79  C   UNL     1      -8.176   1.782   9.252  1.00  0.00     0.198 A 
ATOM     80  F   UNL     1      -7.420   0.499  11.077  1.00  0.00    -0.203 F 
ATOM     81  F   UNL     1      -6.438   4.173   7.157  1.00  0.00    -0.200 F 
ATOM     82  C   UNL     1      -7.924   2.681   8.225  1.00  0.00     0.200 A 
ATOM     83  F   UNL     1      -9.348   1.132   9.287  1.00  0.00    -0.200 F 
ATOM     84  F   UNL     1      -8.840   2.884   7.267  1.00  0.00    -0.200 F 
ENDBRANCH  50  74
BRANCH  62  85
ATOM     85  C   UNL     1      -4.146  -2.191  15.692  1.00  0.00     0.064 A 
ATOM     86  C   UNL     1      -5.131  -1.629  16.523  1.00  0.00     0.173 A 
ATOM     87  C   UNL     1      -3.481  -3.321  16.235  1.00  0.00     0.173 A 
ATOM     88  F   UNL     1      -5.931  -0.644  16.096  1.00  0.00    -0.203 F 
ATOM     89  C   UNL     1      -5.381  -2.111  17.813  1.00  0.00     0.198 A 
ATOM     90  C   UNL     1      -3.778  -3.838  17.496  1.00  0.00     0.198 A 
ATOM     91  F   UNL     1      -2.541  -3.982  15.544  1.00  0.00    -0.203 F 
ATOM     92  F   UNL     1      -6.302  -1.507  18.578  1.00  0.00    -0.200 F 
ATOM     93  C   UNL     1      -4.715  -3.221  18.294  1.00  0.00     0.200 A 
ATOM     94  F   UNL     1      -3.164  -4.952  17.920  1.00  0.00    -0.200 F 
ATOM     95  F   UNL     1      -4.996  -3.709  19.510  1.00  0.00    -0.200 F 
ENDBRANCH  62  85
ENDBRANCH  36  37
ENDBRANCH  28  31
ENDBRANCH  26  27
ENDBRANCH  25  26
ENDBRANCH  24  25
ENDBRANCH   3  24
TORSDOF 16
