REMARK SMILES Cc1cccc(C(=O)Nc2ccc(-c3nnc(S[C@H](C(=O)NCCCNC(=O)c4ccc(-c5c6nc(c(-c7c(F)c(F)c(F)c(F)c7F)c7ccc([nH]7)c(-c7c(F)c(F)c(F)c(F)c7F)c7nc(c(-c8c(F)c(F)c(F)c(F)c8F)c8ccc5[nH]8)C=C7)C=C6)cc4)C(C)C)n3C)cc2)c1
REMARK SMILES IDX 20 1 21 2 22 3 19 5 18 6 17 7 14 8 15 9 95 10 16 11 96 12
REMARK SMILES IDX 13 13 10 14 11 15 98 16 12 17 97 18 9 19 7 20 8 21 6 23 1 24
REMARK SMILES IDX 2 25 3 26 99 27 4 28 5 29 92 30 93 31 94 32 23 33 24 34
REMARK SMILES IDX 25 35 26 36 27 37 28 39 29 40 30 41 91 42 31 43 90 44 32 45
REMARK SMILES IDX 33 46 34 47 84 48 35 49 89 50 83 51 85 52 36 53 88 54 82 55
REMARK SMILES IDX 81 56 37 58 69 59 49 60 68 61 50 62 53 63 67 64 86 65 51 66
REMARK SMILES IDX 52 67 66 69 87 70 54 71 38 72 39 73 47 74 40 75 41 76 45 77
REMARK SMILES IDX 48 78 42 79 43 80 46 81 44 82 70 83 71 84 79 85 72 86 73 87
REMARK SMILES IDX 77 88 80 89 74 90 75 91 78 92 76 93 55 94 56 95 64 96 57 97
REMARK SMILES IDX 58 98 62 99 65 100 59 101 60 102 63 103 61 104
REMARK H PARENT 22 4 9 22 26 38 85 57 53 68
REMARK Flexibility Score: inf
ROOT
ATOM      1  C   UNL     1       8.346   4.265  -2.429  1.00  0.00     0.233 C 
ATOM      2  O   UNL     1       9.099   3.309  -2.189  1.00  0.00    -0.274 OA
ATOM      3  N   UNL     1       8.100   5.086  -1.370  1.00  0.00    -0.355 N 
ATOM      4  H   UNL     1       8.124   4.618  -0.504  1.00  0.00     0.163 HD
ENDROOT
BRANCH   1   5
ATOM      5  C   UNL     1       7.773   4.421  -3.850  1.00  0.00     0.146 C 
BRANCH   5   6
ATOM      6  S   UNL     1       6.616   3.075  -4.326  1.00  0.00    -0.072 SA
BRANCH   6   7
ATOM      7  C   UNL     1       6.151   2.105  -2.983  1.00  0.00     0.192 A 
ATOM      8  C   UNL     1       5.320   0.364  -1.914  1.00  0.00     0.164 A 
ATOM      9  N   UNL     1       5.900   1.170  -1.039  1.00  0.00    -0.129 NA
ATOM     10  N   UNL     1       5.365   0.988  -3.144  1.00  0.00    -0.305 N 
ATOM     11  N   UNL     1       6.415   2.259  -1.710  1.00  0.00    -0.123 NA
ATOM     12  C   UNL     1       4.624   0.594  -4.316  1.00  0.00     0.154 C 
BRANCH   8  13
ATOM     13  C   UNL     1       4.722  -0.942  -1.606  1.00  0.00     0.019 A 
ATOM     14  C   UNL     1       3.834  -3.496  -0.798  1.00  0.00     0.041 A 
ATOM     15  C   UNL     1       3.577  -2.379  -0.003  1.00  0.00     0.027 A 
ATOM     16  C   UNL     1       4.408  -3.320  -2.057  1.00  0.00     0.027 A 
ATOM     17  C   UNL     1       4.044  -1.118  -0.393  1.00  0.00     0.014 A 
ATOM     18  C   UNL     1       4.870  -2.055  -2.448  1.00  0.00     0.014 A 
BRANCH  14  19
ATOM     19  N   UNL     1       3.567  -4.757  -0.245  1.00  0.00    -0.322 N 
ATOM     20  C   UNL     1       4.238  -5.962  -0.351  1.00  0.00     0.255 C 
ATOM     21  O   UNL     1       3.674  -6.979   0.059  1.00  0.00    -0.269 OA
ATOM     22  H   UNL     1       2.759  -4.791   0.317  1.00  0.00     0.170 HD
BRANCH  20  23
ATOM     23  C   UNL     1       5.646  -6.075  -0.845  1.00  0.00     0.040 A 
ATOM     24  C   UNL     1       8.697  -3.919  -1.575  1.00  0.00     0.044 C 
ATOM     25  C   UNL     1       7.820  -5.127  -1.421  1.00  0.00    -0.050 A 
ATOM     26  C   UNL     1       8.239  -6.376  -1.883  1.00  0.00     0.003 A 
ATOM     27  C   UNL     1       6.559  -5.012  -0.823  1.00  0.00     0.017 A 
ATOM     28  C   UNL     1       7.388  -7.478  -1.794  1.00  0.00     0.001 A 
ATOM     29  C   UNL     1       6.091  -7.324  -1.299  1.00  0.00     0.014 A 
ENDBRANCH  20  23
ENDBRANCH  14  19
ENDBRANCH   8  13
ENDBRANCH   6   7
ENDBRANCH   5   6
BRANCH   5  30
ATOM     30  C   UNL     1       7.295   5.814  -4.340  1.00  0.00     0.006 C 
ATOM     31  C   UNL     1       8.498   6.746  -4.573  1.00  0.00     0.009 C 
ATOM     32  C   UNL     1       6.473   5.827  -5.643  1.00  0.00     0.009 C 
ENDBRANCH   5  30
ENDBRANCH   1   5
BRANCH   3  33
ATOM     33  C   UNL     1       7.809   6.509  -1.245  1.00  0.00     0.117 C 
BRANCH  33  34
ATOM     34  C   UNL     1       6.331   6.835  -1.077  1.00  0.00     0.042 C 
BRANCH  34  35
ATOM     35  C   UNL     1       6.012   7.375   0.309  1.00  0.00     0.118 C 
BRANCH  35  36
ATOM     36  N   UNL     1       6.276   8.803   0.500  1.00  0.00    -0.352 N 
ATOM     37  C   UNL     1       6.250   9.554   1.678  1.00  0.00     0.251 C 
ATOM     38  H   UNL     1       6.504   9.305  -0.316  1.00  0.00     0.163 HD
ATOM     39  O   UNL     1       6.476  10.738   1.669  1.00  0.00    -0.269 OA
BRANCH  37  40
ATOM     40  C   UNL     1       6.059   8.828   2.962  1.00  0.00     0.039 A 
ATOM     41  C   UNL     1       7.012   9.006   3.972  1.00  0.00     0.014 A 
ATOM     42  C   UNL     1       5.144   7.788   3.029  1.00  0.00     0.014 A 
ATOM     43  C   UNL     1       7.226   7.974   4.884  1.00  0.00     0.010 A 
ATOM     44  C   UNL     1       5.459   6.707   3.821  1.00  0.00     0.010 A 
ATOM     45  C   UNL     1       6.539   6.775   4.709  1.00  0.00    -0.014 A 
BRANCH  45  46
ATOM     46  C   UNL     1       6.944   5.510   5.313  1.00  0.00     0.031 A 
ATOM     47  C   UNL     1       6.056   4.829   6.282  1.00  0.00     0.074 A 
ATOM     48  C   UNL     1       8.060   4.882   4.874  1.00  0.00     0.049 A 
ATOM     49  N   UNL     1       6.451   3.927   7.115  1.00  0.00    -0.248 NA
ATOM     50  C   UNL     1       4.637   5.135   6.410  1.00  0.00     0.031 C 
ATOM     51  C   UNL     1       8.426   3.483   5.093  1.00  0.00     0.029 A 
ATOM     52  N   UNL     1       9.199   5.444   4.268  1.00  0.00    -0.354 N 
ATOM     53  C   UNL     1       5.335   3.341   7.665  1.00  0.00     0.074 A 
ATOM     54  C   UNL     1       4.231   4.165   7.233  1.00  0.00     0.031 C 
ATOM     55  C   UNL     1       9.751   3.348   4.933  1.00  0.00     0.029 A 
ATOM     56  C   UNL     1      10.293   4.679   4.745  1.00  0.00     0.049 A 
ATOM     57  H   UNL     1       9.230   6.206   3.646  1.00  0.00     0.167 HD
ATOM     58  C   UNL     1       5.463   2.150   8.320  1.00  0.00     0.037 A 
ATOM     59  C   UNL     1      11.286   5.230   5.502  1.00  0.00     0.037 A 
ATOM     60  C   UNL     1       6.862   1.733   8.383  1.00  0.00     0.049 A 
ATOM     61  C   UNL     1      11.461   4.584   6.855  1.00  0.00     0.074 A 
ATOM     62  C   UNL     1       7.611   0.834   7.640  1.00  0.00     0.029 A 
ATOM     63  N   UNL     1       7.770   2.494   9.110  1.00  0.00    -0.354 N 
ATOM     64  N   UNL     1      10.551   3.852   7.433  1.00  0.00    -0.248 NA
ATOM     65  C   UNL     1      12.657   4.736   7.677  1.00  0.00     0.031 C 
ATOM     66  C   UNL     1       8.980   1.062   7.920  1.00  0.00     0.029 A 
ATOM     67  C   UNL     1       9.063   2.096   8.837  1.00  0.00     0.049 A 
ATOM     68  H   UNL     1       7.525   3.216   9.733  1.00  0.00     0.167 HD
ATOM     69  C   UNL     1      10.991   3.459   8.673  1.00  0.00     0.074 A 
ATOM     70  C   UNL     1      12.325   4.020   8.767  1.00  0.00     0.031 C 
ATOM     71  C   UNL     1      10.197   2.719   9.505  1.00  0.00     0.037 A 
BRANCH  58  72
ATOM     72  C   UNL     1       4.306   1.232   8.650  1.00  0.00     0.064 A 
ATOM     73  C   UNL     1       4.483  -0.169   8.708  1.00  0.00     0.173 A 
ATOM     74  C   UNL     1       2.984   1.661   8.869  1.00  0.00     0.173 A 
ATOM     75  F   UNL     1       5.698  -0.727   8.645  1.00  0.00    -0.203 F 
ATOM     76  C   UNL     1       3.413  -1.060   8.834  1.00  0.00     0.198 A 
ATOM     77  C   UNL     1       1.906   0.771   8.936  1.00  0.00     0.198 A 
ATOM     78  F   UNL     1       2.698   2.949   9.090  1.00  0.00    -0.203 F 
ATOM     79  F   UNL     1       3.648  -2.379   8.872  1.00  0.00    -0.200 F 
ATOM     80  C   UNL     1       2.120  -0.591   8.904  1.00  0.00     0.200 A 
ATOM     81  F   UNL     1       0.656   1.248   9.036  1.00  0.00    -0.200 F 
ATOM     82  F   UNL     1       1.089  -1.444   8.974  1.00  0.00    -0.200 F 
ENDBRANCH  58  72
BRANCH  59  83
ATOM     83  C   UNL     1      11.520   6.664   5.196  1.00  0.00     0.064 A 
ATOM     84  C   UNL     1      11.994   6.996   3.912  1.00  0.00     0.173 A 
ATOM     85  C   UNL     1      10.915   7.677   5.947  1.00  0.00     0.173 A 
ATOM     86  F   UNL     1      12.583   6.059   3.152  1.00  0.00    -0.203 F 
ATOM     87  C   UNL     1      11.753   8.249   3.354  1.00  0.00     0.198 A 
ATOM     88  C   UNL     1      10.688   8.937   5.389  1.00  0.00     0.198 A 
ATOM     89  F   UNL     1      10.427   7.416   7.168  1.00  0.00    -0.203 F 
ATOM     90  F   UNL     1      12.105   8.495   2.084  1.00  0.00    -0.200 F 
ATOM     91  C   UNL     1      11.071   9.208   4.082  1.00  0.00     0.200 A 
ATOM     92  F   UNL     1      10.002   9.858   6.081  1.00  0.00    -0.200 F 
ATOM     93  F   UNL     1      10.742  10.376   3.513  1.00  0.00    -0.200 F 
ENDBRANCH  59  83
BRANCH  71  94
ATOM     94  C   UNL     1      10.416   2.420  10.976  1.00  0.00     0.064 A 
ATOM     95  C   UNL     1      11.251   3.161  11.828  1.00  0.00     0.173 A 
ATOM     96  C   UNL     1       9.645   1.416  11.624  1.00  0.00     0.173 A 
ATOM     97  F   UNL     1      11.947   4.214  11.387  1.00  0.00    -0.203 F 
ATOM     98  C   UNL     1      11.351   2.886  13.198  1.00  0.00     0.198 A 
ATOM     99  C   UNL     1       9.700   1.188  12.999  1.00  0.00     0.198 A 
ATOM    100  F   UNL     1       8.784   0.640  10.950  1.00  0.00    -0.203 F 
ATOM    101  F   UNL     1      12.196   3.600  13.955  1.00  0.00    -0.200 F 
ATOM    102  C   UNL     1      10.567   1.912  13.785  1.00  0.00     0.200 A 
ATOM    103  F   UNL     1       8.889   0.277  13.556  1.00  0.00    -0.200 F 
ATOM    104  F   UNL     1      10.629   1.691  15.104  1.00  0.00    -0.200 F 
ENDBRANCH  71  94
ENDBRANCH  45  46
ENDBRANCH  37  40
ENDBRANCH  35  36
ENDBRANCH  34  35
ENDBRANCH  33  34
ENDBRANCH   3  33
TORSDOF 16
