REMARK SMILES O=C(NCCc1ccsc1)N[C@H]1CCCCC[C@@H]1C(=O)NCCCNC(=O)c1ccc(-c2c3nc(c(-c4c(F)c(F)c(F)c(F)c4F)c4ccc([nH]4)c(-c4c(F)c(F)c(F)c(F)c4F)c4nc(c(-c5c(F)c(F)c(F)c(F)c5F)c5ccc2[nH]5)C=C4)C=C3)cc1
REMARK SMILES IDX 19 1 20 2 21 3 18 5 12 6 11 7 1 8 2 9 3 10 4 13 5 14 6 15
REMARK SMILES IDX 7 16 10 17 8 18 9 19 13 20 14 21 17 23 16 24 15 25 22 27
REMARK SMILES IDX 23 28 24 29 25 30 26 31 27 33 28 34 29 35 90 36 30 37 89 38
REMARK SMILES IDX 31 39 32 40 33 41 83 42 34 43 88 44 82 45 84 46 35 47 87 48
REMARK SMILES IDX 81 49 80 50 36 52 68 53 48 54 67 55 49 56 52 57 66 58 85 59
REMARK SMILES IDX 50 60 51 61 65 63 86 64 53 65 37 66 38 67 46 68 39 69 40 70
REMARK SMILES IDX 44 71 47 72 41 73 42 74 45 75 43 76 69 77 70 78 78 79 71 80
REMARK SMILES IDX 72 81 76 82 79 83 73 84 74 85 77 86 75 87 54 88 55 89 63 90
REMARK SMILES IDX 56 91 57 92 61 93 64 94 58 95 59 96 62 97 60 98
REMARK H PARENT 21 4 3 11 11 12 25 32 84 51 52 62
REMARK Flexibility Score: 90.00
ROOT
ATOM      1  C   UNL     1       4.483  -3.032  -2.019  1.00  0.00     0.225 C 
ATOM      2  O   UNL     1       4.963  -2.658  -3.095  1.00  0.00    -0.275 OA
ATOM      3  N   UNL     1       5.256  -2.810  -0.927  1.00  0.00    -0.356 N 
ATOM      4  H   UNL     1       6.096  -2.337  -1.127  1.00  0.00     0.163 HD
ENDROOT
BRANCH   1   5
ATOM      5  C   UNL     1       3.055  -3.593  -1.965  1.00  0.00     0.101 C 
BRANCH   5   6
ATOM      6  C   UNL     1       2.079  -2.411  -1.744  1.00  0.00     0.096 C 
BRANCH   6   7
ATOM      7  N   UNL     1       1.626  -1.799  -3.007  1.00  0.00    -0.335 N 
ATOM      8  O   UNL     1       0.872  -3.680  -4.067  1.00  0.00    -0.249 OA
ATOM      9  C   UNL     1       1.089  -2.472  -4.054  1.00  0.00     0.315 C 
ATOM     10  N   UNL     1       0.782  -1.768  -5.163  1.00  0.00    -0.338 N 
ATOM     11  H   UNL     1       0.437  -2.325  -5.898  1.00  0.00     0.165 HD
ATOM     12  H   UNL     1       1.722  -0.823  -3.096  1.00  0.00     0.165 HD
BRANCH  10  13
ATOM     13  C   UNL     1       0.858  -0.354  -5.493  1.00  0.00     0.122 C 
BRANCH  13  14
ATOM     14  C   UNL     1       1.866  -0.059  -6.609  1.00  0.00     0.057 C 
BRANCH  14  15
ATOM     15  C   UNL     1       1.546  -0.608  -7.982  1.00  0.00    -0.036 A 
ATOM     16  C   UNL     1       2.444  -0.464  -9.097  1.00  0.00     0.015 A 
ATOM     17  C   UNL     1       0.406  -1.283  -8.379  1.00  0.00     0.068 A 
ATOM     18  C   UNL     1       1.970  -1.045 -10.252  1.00  0.00     0.065 A 
ATOM     19  S   UNL     1       0.441  -1.765 -10.021  1.00  0.00    -0.152 S 
ENDBRANCH  14  15
ENDBRANCH  13  14
ENDBRANCH  10  13
ENDBRANCH   6   7
BRANCH   6  20
ATOM     20  C   UNL     1       0.920  -2.596  -0.749  1.00  0.00     0.026 C 
BRANCH  20  21
ATOM     21  C   UNL     1      -0.092  -3.704  -1.022  1.00  0.00     0.002 CG0
ATOM     22  G   UNL     1       0.372  -5.096  -0.618  1.00  0.00     0.000 G0
ENDBRANCH  20  21
ENDBRANCH   6  20
ENDBRANCH   5   6
BRANCH   5  23
ATOM     23  C   UNL     1       2.870  -4.835  -1.090  1.00  0.00     0.015 C 
BRANCH  23  24
ATOM     24  C   UNL     1       1.589  -5.619  -1.368  1.00  0.00     0.001 C 
BRANCH  24  25
ATOM     25  C   UNL     1       0.372  -5.096  -0.618  1.00  0.00     0.000 CG0
ATOM     26  G   UNL     1      -0.092  -3.704  -1.022  1.00  0.00     0.000 G0
ENDBRANCH  24  25
ENDBRANCH  23  24
ENDBRANCH   5  23
ENDBRANCH   1   5
BRANCH   3  27
ATOM     27  C   UNL     1       5.090  -3.131   0.476  1.00  0.00     0.117 C 
BRANCH  27  28
ATOM     28  C   UNL     1       5.686  -4.496   0.821  1.00  0.00     0.042 C 
BRANCH  28  29
ATOM     29  C   UNL     1       7.206  -4.557   0.685  1.00  0.00     0.118 C 
BRANCH  29  30
ATOM     30  N   UNL     1       7.878  -3.822   1.745  1.00  0.00    -0.352 N 
ATOM     31  C   UNL     1       8.690  -4.276   2.754  1.00  0.00     0.251 C 
ATOM     32  H   UNL     1       7.728  -2.849   1.737  1.00  0.00     0.163 HD
ATOM     33  O   UNL     1       8.960  -3.531   3.692  1.00  0.00    -0.269 OA
BRANCH  31  34
ATOM     34  C   UNL     1       9.240  -5.651   2.730  1.00  0.00     0.039 A 
ATOM     35  C   UNL     1       9.314  -6.364   3.931  1.00  0.00     0.014 A 
ATOM     36  C   UNL     1       9.740  -6.217   1.554  1.00  0.00     0.014 A 
ATOM     37  C   UNL     1       9.845  -7.657   3.944  1.00  0.00     0.010 A 
ATOM     38  C   UNL     1      10.205  -7.531   1.555  1.00  0.00     0.010 A 
ATOM     39  C   UNL     1      10.272  -8.262   2.751  1.00  0.00    -0.014 A 
BRANCH  39  40
ATOM     40  C   UNL     1      10.803  -9.650   2.739  1.00  0.00     0.031 A 
ATOM     41  C   UNL     1      12.236  -9.909   2.358  1.00  0.00     0.074 A 
ATOM     42  C   UNL     1       9.980 -10.681   3.012  1.00  0.00     0.049 A 
ATOM     43  N   UNL     1      12.863 -11.050   2.215  1.00  0.00    -0.248 NA
ATOM     44  C   UNL     1      13.072  -8.730   2.076  1.00  0.00     0.031 C 
ATOM     45  C   UNL     1       8.561 -10.564   3.349  1.00  0.00     0.029 A 
ATOM     46  N   UNL     1      10.215 -12.034   3.034  1.00  0.00    -0.354 N 
ATOM     47  C   UNL     1      14.151 -10.728   1.806  1.00  0.00     0.074 A 
ATOM     48  C   UNL     1      14.209  -9.288   1.686  1.00  0.00     0.031 C 
ATOM     49  C   UNL     1       8.055 -11.790   3.558  1.00  0.00     0.029 A 
ATOM     50  C   UNL     1       9.102 -12.782   3.335  1.00  0.00     0.049 A 
ATOM     51  H   UNL     1      11.098 -12.431   2.853  1.00  0.00     0.167 HD
ATOM     52  C   UNL     1      15.195 -11.558   1.572  1.00  0.00     0.037 A 
ATOM     53  C   UNL     1       8.943 -14.117   3.410  1.00  0.00     0.037 A 
ATOM     54  C   UNL     1      15.146 -12.987   1.736  1.00  0.00     0.049 A 
ATOM     55  C   UNL     1      10.126 -15.013   3.157  1.00  0.00     0.074 A 
ATOM     56  C   UNL     1      16.172 -13.906   1.599  1.00  0.00     0.029 A 
ATOM     57  N   UNL     1      14.009 -13.705   2.074  1.00  0.00    -0.354 N 
ATOM     58  N   UNL     1      11.358 -14.690   2.848  1.00  0.00    -0.248 NA
ATOM     59  C   UNL     1       9.898 -16.460   3.273  1.00  0.00     0.031 C 
ATOM     60  C   UNL     1      15.647 -15.184   1.812  1.00  0.00     0.029 A 
ATOM     61  C   UNL     1      14.304 -15.057   2.129  1.00  0.00     0.049 A 
ATOM     62  H   UNL     1      13.123 -13.312   2.248  1.00  0.00     0.167 HD
ATOM     63  C   UNL     1      12.056 -15.886   2.762  1.00  0.00     0.074 A 
ATOM     64  C   UNL     1      11.115 -16.943   3.069  1.00  0.00     0.031 C 
ATOM     65  C   UNL     1      13.359 -16.093   2.454  1.00  0.00     0.037 A 
BRANCH  52  66
ATOM     66  C   UNL     1      16.491 -10.950   1.123  1.00  0.00     0.064 A 
ATOM     67  C   UNL     1      17.301 -10.214   2.000  1.00  0.00     0.173 A 
ATOM     68  C   UNL     1      16.965 -11.170  -0.180  1.00  0.00     0.173 A 
ATOM     69  F   UNL     1      16.889  -9.967   3.253  1.00  0.00    -0.203 F 
ATOM     70  C   UNL     1      18.530  -9.707   1.585  1.00  0.00     0.198 A 
ATOM     71  C   UNL     1      18.206 -10.685  -0.583  1.00  0.00     0.198 A 
ATOM     72  F   UNL     1      16.232 -11.874  -1.056  1.00  0.00    -0.203 F 
ATOM     73  F   UNL     1      19.273  -8.980   2.431  1.00  0.00    -0.200 F 
ATOM     74  C   UNL     1      18.986  -9.952   0.298  1.00  0.00     0.200 A 
ATOM     75  F   UNL     1      18.652 -10.935  -1.822  1.00  0.00    -0.200 F 
ATOM     76  F   UNL     1      20.177  -9.478  -0.093  1.00  0.00    -0.200 F 
ENDBRANCH  52  66
BRANCH  53  77
ATOM     77  C   UNL     1       7.616 -14.696   3.750  1.00  0.00     0.064 A 
ATOM     78  C   UNL     1       7.410 -15.360   4.968  1.00  0.00     0.173 A 
ATOM     79  C   UNL     1       6.537 -14.625   2.856  1.00  0.00     0.173 A 
ATOM     80  F   UNL     1       8.417 -15.473   5.846  1.00  0.00    -0.203 F 
ATOM     81  C   UNL     1       6.187 -15.958   5.265  1.00  0.00     0.198 A 
ATOM     82  C   UNL     1       5.305 -15.196   3.168  1.00  0.00     0.198 A 
ATOM     83  F   UNL     1       6.679 -13.996   1.680  1.00  0.00    -0.203 F 
ATOM     84  F   UNL     1       6.037 -16.636   6.410  1.00  0.00    -0.200 F 
ATOM     85  C   UNL     1       5.135 -15.873   4.366  1.00  0.00     0.200 A 
ATOM     86  F   UNL     1       4.287 -15.100   2.303  1.00  0.00    -0.200 F 
ATOM     87  F   UNL     1       3.960 -16.451   4.651  1.00  0.00    -0.200 F 
ENDBRANCH  53  77
BRANCH  65  88
ATOM     88  C   UNL     1      13.855 -17.509   2.475  1.00  0.00     0.064 A 
ATOM     89  C   UNL     1      13.495 -18.430   1.482  1.00  0.00     0.173 A 
ATOM     90  C   UNL     1      14.735 -17.936   3.482  1.00  0.00     0.173 A 
ATOM     91  F   UNL     1      12.644 -18.073   0.507  1.00  0.00    -0.203 F 
ATOM     92  C   UNL     1      13.976 -19.736   1.509  1.00  0.00     0.198 A 
ATOM     93  C   UNL     1      15.238 -19.234   3.489  1.00  0.00     0.198 A 
ATOM     94  F   UNL     1      15.116 -17.091   4.451  1.00  0.00    -0.203 F 
ATOM     95  F   UNL     1      13.581 -20.613   0.576  1.00  0.00    -0.200 F 
ATOM     96  C   UNL     1      14.853 -20.134   2.508  1.00  0.00     0.200 A 
ATOM     97  F   UNL     1      16.095 -19.613   4.447  1.00  0.00    -0.200 F 
ATOM     98  F   UNL     1      15.321 -21.390   2.528  1.00  0.00    -0.200 F 
ENDBRANCH  65  88
ENDBRANCH  39  40
ENDBRANCH  31  34
ENDBRANCH  29  30
ENDBRANCH  28  29
ENDBRANCH  27  28
ENDBRANCH   3  27
TORSDOF 14
