REMARK SMILES C=CCN(CC(=O)NCCCNC(=O)c1ccc(-c2c3nc(c(-c4c(F)c(F)c(F)c(F)c4F)c4ccc([nH]4)c(-c4c(F)c(F)c(F)c(F)c4F)c4nc(c(-c5c(F)c(F)c(F)c(F)c5F)c5ccc2[nH]5)C=C4)C=C3)cc1)C(=O)c1sc(N)nc1C
REMARK SMILES IDX 9 1 8 2 6 3 7 4 5 6 4 7 3 8 2 9 1 10 78 11 79 12 80 13 81 14
REMARK SMILES IDX 85 15 82 16 84 17 86 18 83 19 10 22 11 23 12 24 13 25 14 27
REMARK SMILES IDX 15 28 16 29 77 30 17 31 76 32 18 33 19 34 20 35 70 36 21 37
REMARK SMILES IDX 75 38 69 39 71 40 22 41 74 42 68 43 67 44 23 46 55 47 35 48
REMARK SMILES IDX 54 49 36 50 39 51 53 52 72 53 37 54 38 55 52 57 73 58 40 59
REMARK SMILES IDX 24 60 25 61 33 62 26 63 27 64 31 65 34 66 28 67 29 68 32 69
REMARK SMILES IDX 30 70 56 71 57 72 65 73 58 74 59 75 63 76 66 77 60 78 61 79
REMARK SMILES IDX 64 80 62 81 41 82 42 83 50 84 43 85 44 86 48 87 51 88 45 89
REMARK SMILES IDX 46 90 49 91 47 92
REMARK H PARENT 8 5 83 20 83 21 12 26 71 45 39 56
REMARK Flexibility Score: inf
ROOT
ATOM      1  C   UNL     1      -4.484  -0.829  -0.939  1.00  0.00     0.117 C 
ENDROOT
BRANCH   1   2
ATOM      2  N   UNL     1      -4.723  -0.137  -2.191  1.00  0.00    -0.354 N 
ATOM      3  C   UNL     1      -3.870   0.185  -3.205  1.00  0.00     0.239 C 
ATOM      4  O   UNL     1      -4.382   0.448  -4.298  1.00  0.00    -0.273 OA
ATOM      5  H   UNL     1      -5.655   0.148  -2.331  1.00  0.00     0.163 HD
BRANCH   3   6
ATOM      6  C   UNL     1      -2.343   0.094  -3.065  1.00  0.00     0.220 C 
BRANCH   6   7
ATOM      7  N   UNL     1      -1.795   0.748  -1.873  1.00  0.00    -0.325 N 
BRANCH   7   8
ATOM      8  C   UNL     1      -1.038  -0.065  -0.931  1.00  0.00     0.147 C 
BRANCH   8   9
ATOM      9  C   UNL     1       0.393  -0.129  -1.378  1.00  0.00    -0.014 C 
ATOM     10  C   UNL     1       1.423   0.323  -0.649  1.00  0.00     0.006 C 
ENDBRANCH   8   9
ENDBRANCH   7   8
BRANCH   7  11
ATOM     11  C   UNL     1      -1.791   2.138  -1.682  1.00  0.00     0.266 C 
ATOM     12  O   UNL     1      -1.487   2.622  -0.591  1.00  0.00    -0.268 OA
BRANCH  11  13
ATOM     13  C   UNL     1      -2.155   2.986  -2.792  1.00  0.00     0.117 A 
ATOM     14  S   UNL     1      -0.940   3.500  -3.889  1.00  0.00    -0.092 S 
ATOM     15  C   UNL     1      -3.353   3.609  -3.092  1.00  0.00     0.063 A 
ATOM     16  C   UNL     1      -2.089   4.492  -4.686  1.00  0.00     0.180 A 
ATOM     17  N   UNL     1      -3.302   4.450  -4.195  1.00  0.00    -0.225 NA
ATOM     18  C   UNL     1      -4.647   3.488  -2.376  1.00  0.00     0.068 C 
BRANCH  16  19
ATOM     19  N   UNL     1      -1.752   5.260  -5.727  1.00  0.00    -0.375 N 
ATOM     20  H   UNL     1      -0.826   5.258  -6.061  1.00  0.00     0.159 HD
ATOM     21  H   UNL     1      -2.430   5.829  -6.159  1.00  0.00     0.159 HD
ENDBRANCH  16  19
ENDBRANCH  11  13
ENDBRANCH   7  11
ENDBRANCH   6   7
ENDBRANCH   3   6
ENDBRANCH   1   2
BRANCH   1  22
ATOM     22  C   UNL     1      -4.359   0.085   0.278  1.00  0.00     0.042 C 
BRANCH  22  23
ATOM     23  C   UNL     1      -5.576   0.952   0.587  1.00  0.00     0.118 C 
BRANCH  23  24
ATOM     24  N   UNL     1      -6.736   0.188   1.006  1.00  0.00    -0.352 N 
ATOM     25  C   UNL     1      -7.497   0.237   2.146  1.00  0.00     0.251 C 
ATOM     26  H   UNL     1      -7.031  -0.488   0.353  1.00  0.00     0.163 HD
ATOM     27  O   UNL     1      -8.373  -0.614   2.295  1.00  0.00    -0.269 OA
BRANCH  25  28
ATOM     28  C   UNL     1      -7.296   1.254   3.211  1.00  0.00     0.039 A 
ATOM     29  C   UNL     1      -7.520   0.853   4.536  1.00  0.00     0.014 A 
ATOM     30  C   UNL     1      -6.999   2.595   2.950  1.00  0.00     0.014 A 
ATOM     31  C   UNL     1      -7.413   1.770   5.586  1.00  0.00     0.010 A 
ATOM     32  C   UNL     1      -6.840   3.503   4.006  1.00  0.00     0.010 A 
ATOM     33  C   UNL     1      -7.057   3.102   5.332  1.00  0.00    -0.014 A 
BRANCH  33  34
ATOM     34  C   UNL     1      -6.946   4.075   6.450  1.00  0.00     0.031 A 
ATOM     35  C   UNL     1      -7.971   5.161   6.625  1.00  0.00     0.074 A 
ATOM     36  C   UNL     1      -5.919   3.987   7.318  1.00  0.00     0.049 A 
ATOM     37  N   UNL     1      -8.032   6.103   7.533  1.00  0.00    -0.248 NA
ATOM     38  C   UNL     1      -9.066   5.201   5.644  1.00  0.00     0.031 C 
ATOM     39  C   UNL     1      -4.843   2.999   7.258  1.00  0.00     0.029 A 
ATOM     40  N   UNL     1      -5.619   4.743   8.425  1.00  0.00    -0.354 N 
ATOM     41  C   UNL     1      -9.152   6.860   7.221  1.00  0.00     0.074 A 
ATOM     42  C   UNL     1      -9.738   6.277   6.032  1.00  0.00     0.031 C 
ATOM     43  C   UNL     1      -4.013   3.193   8.297  1.00  0.00     0.029 A 
ATOM     44  C   UNL     1      -4.489   4.328   9.083  1.00  0.00     0.049 A 
ATOM     45  H   UNL     1      -6.163   5.509   8.718  1.00  0.00     0.167 HD
ATOM     46  C   UNL     1      -9.654   7.938   7.869  1.00  0.00     0.037 A 
ATOM     47  C   UNL     1      -3.904   4.805  10.198  1.00  0.00     0.037 A 
ATOM     48  C   UNL     1      -9.114   8.502   9.076  1.00  0.00     0.049 A 
ATOM     49  C   UNL     1      -4.502   5.978  10.919  1.00  0.00     0.074 A 
ATOM     50  C   UNL     1      -9.595   9.562   9.826  1.00  0.00     0.029 A 
ATOM     51  N   UNL     1      -7.974   8.044   9.717  1.00  0.00    -0.354 N 
ATOM     52  N   UNL     1      -5.575   6.667  10.624  1.00  0.00    -0.248 NA
ATOM     53  C   UNL     1      -3.803   6.439  12.128  1.00  0.00     0.031 C 
ATOM     54  C   UNL     1      -8.738   9.753  10.917  1.00  0.00     0.029 A 
ATOM     55  C   UNL     1      -7.732   8.803  10.850  1.00  0.00     0.049 A 
ATOM     56  H   UNL     1      -7.418   7.290   9.412  1.00  0.00     0.167 HD
ATOM     57  C   UNL     1      -5.688   7.635  11.612  1.00  0.00     0.074 A 
ATOM     58  C   UNL     1      -4.578   7.441  12.521  1.00  0.00     0.031 C 
ATOM     59  C   UNL     1      -6.629   8.598  11.748  1.00  0.00     0.037 A 
BRANCH  46  60
ATOM     60  C   UNL     1     -10.866   8.587   7.278  1.00  0.00     0.064 A 
ATOM     61  C   UNL     1     -12.149   8.070   7.502  1.00  0.00     0.173 A 
ATOM     62  C   UNL     1     -10.744   9.757   6.517  1.00  0.00     0.173 A 
ATOM     63  F   UNL     1     -12.309   6.946   8.216  1.00  0.00    -0.203 F 
ATOM     64  C   UNL     1     -13.271   8.699   6.972  1.00  0.00     0.198 A 
ATOM     65  C   UNL     1     -11.869  10.390   5.998  1.00  0.00     0.198 A 
ATOM     66  F   UNL     1      -9.534  10.286   6.279  1.00  0.00    -0.203 F 
ATOM     67  F   UNL     1     -14.489   8.179   7.178  1.00  0.00    -0.200 F 
ATOM     68  C   UNL     1     -13.131   9.860   6.225  1.00  0.00     0.200 A 
ATOM     69  F   UNL     1     -11.734  11.512   5.278  1.00  0.00    -0.200 F 
ATOM     70  F   UNL     1     -14.214  10.465   5.717  1.00  0.00    -0.200 F 
ENDBRANCH  46  60
BRANCH  47  71
ATOM     71  C   UNL     1      -2.685   4.146  10.721  1.00  0.00     0.064 A 
ATOM     72  C   UNL     1      -2.763   3.251  11.795  1.00  0.00     0.173 A 
ATOM     73  C   UNL     1      -1.427   4.396  10.157  1.00  0.00     0.173 A 
ATOM     74  F   UNL     1      -3.946   3.002  12.375  1.00  0.00    -0.203 F 
ATOM     75  C   UNL     1      -1.620   2.628  12.291  1.00  0.00     0.198 A 
ATOM     76  C   UNL     1      -0.287   3.765  10.647  1.00  0.00     0.198 A 
ATOM     77  F   UNL     1      -1.309   5.252   9.132  1.00  0.00    -0.203 F 
ATOM     78  F   UNL     1      -1.715   1.790  13.332  1.00  0.00    -0.200 F 
ATOM     79  C   UNL     1      -0.384   2.883  11.714  1.00  0.00     0.200 A 
ATOM     80  F   UNL     1       0.906   4.012  10.089  1.00  0.00    -0.200 F 
ATOM     81  F   UNL     1       0.715   2.284  12.192  1.00  0.00    -0.200 F 
ENDBRANCH  47  71
BRANCH  59  82
ATOM     82  C   UNL     1      -6.507   9.509  12.928  1.00  0.00     0.064 A 
ATOM     83  C   UNL     1      -5.646  10.614  12.903  1.00  0.00     0.173 A 
ATOM     84  C   UNL     1      -7.281   9.295  14.077  1.00  0.00     0.173 A 
ATOM     85  F   UNL     1      -4.878  10.847  11.829  1.00  0.00    -0.203 F 
ATOM     86  C   UNL     1      -5.558  11.473  13.995  1.00  0.00     0.198 A 
ATOM     87  C   UNL     1      -7.197  10.162  15.164  1.00  0.00     0.198 A 
ATOM     88  F   UNL     1      -8.115   8.247  14.145  1.00  0.00    -0.203 F 
ATOM     89  F   UNL     1      -4.713  12.513  13.961  1.00  0.00    -0.200 F 
ATOM     90  C   UNL     1      -6.335  11.248  15.122  1.00  0.00     0.200 A 
ATOM     91  F   UNL     1      -7.947   9.944  16.253  1.00  0.00    -0.200 F 
ATOM     92  F   UNL     1      -6.248  12.075  16.173  1.00  0.00    -0.200 F 
ENDBRANCH  59  82
ENDBRANCH  33  34
ENDBRANCH  25  28
ENDBRANCH  23  24
ENDBRANCH  22  23
ENDBRANCH   1  22
TORSDOF 16
