REMARK SMILES C[N@H+]1CC[C@@H](Cc2nccnc2C(=O)NCCCNC(=O)c2ccc(-c3c4nc(c(-c5c(F)c(F)c(F)c(F)c5F)c5ccc([nH]5)c(-c5c(F)c(F)c(F)c(F)c5F)c5nc(c(-c6c(F)c(F)c(F)c(F)c6F)c6ccc3[nH]6)C=C5)C=C4)cc2)C1
REMARK SMILES IDX 17 1 16 2 15 3 13 4 14 5 12 7 7 8 8 9 9 10 11 11 10 12 6 13
REMARK SMILES IDX 5 14 1 15 2 16 3 17 85 18 4 20 18 21 19 22 20 23 21 25 22 26
REMARK SMILES IDX 23 27 84 28 24 29 83 30 25 31 26 32 27 33 77 34 28 35 82 36
REMARK SMILES IDX 76 37 78 38 29 39 81 40 75 41 74 42 30 44 62 45 42 46 61 47
REMARK SMILES IDX 43 48 46 49 60 50 79 51 44 52 45 53 59 55 80 56 47 57 31 58
REMARK SMILES IDX 32 59 40 60 33 61 34 62 38 63 41 64 35 65 36 66 39 67 37 68
REMARK SMILES IDX 63 69 64 70 72 71 65 72 66 73 70 74 73 75 67 76 68 77 71 78
REMARK SMILES IDX 69 79 48 80 49 81 57 82 50 83 51 84 55 85 58 86 52 87 53 88
REMARK SMILES IDX 56 89 54 90
REMARK H PARENT 15 6 2 19 19 24 78 43 46 54
REMARK Flexibility Score: inf
ROOT
ATOM      1  C   UNL     1       1.826   0.551   2.790  1.00  0.00     0.042 C 
ENDROOT
BRANCH   1   2
ATOM      2  C   UNL     1       2.753  -0.601   3.217  1.00  0.00     0.118 C 
BRANCH   2   3
ATOM      3  N   UNL     1       1.955  -1.740   3.642  1.00  0.00    -0.351 N 
ATOM      4  C   UNL     1       1.572  -2.942   3.093  1.00  0.00     0.271 C 
ATOM      5  O   UNL     1       0.759  -3.570   3.783  1.00  0.00    -0.267 OA
ATOM      6  H   UNL     1       1.600  -1.621   4.552  1.00  0.00     0.163 HD
BRANCH   4   7
ATOM      7  C   UNL     1       2.057  -3.591   1.818  1.00  0.00     0.149 A 
ATOM      8  C   UNL     1       2.169  -3.035   0.535  1.00  0.00     0.072 A 
ATOM      9  N   UNL     1       2.455  -3.810  -0.558  1.00  0.00    -0.257 NA
ATOM     10  C   UNL     1       2.576  -5.137  -0.356  1.00  0.00     0.131 A 
ATOM     11  N   UNL     1       2.217  -4.942   1.990  1.00  0.00    -0.248 NA
ATOM     12  C   UNL     1       2.461  -5.692   0.896  1.00  0.00     0.132 A 
BRANCH   8  13
ATOM     13  C   UNL     1       2.056  -1.583   0.209  1.00  0.00     0.068 C 
BRANCH  13  14
ATOM     14  C   UNL     1       1.123  -1.183  -0.940  1.00  0.00     0.056 C 
ATOM     15  C   UNL     1      -2.285   0.020  -0.250  1.00  0.00     0.332 C 
ATOM     16  N   UNL     1      -1.023  -0.165  -0.952  1.00  0.00    -0.337 N 
ATOM     17  C   UNL     1      -0.074   0.909  -0.678  1.00  0.00     0.262 C 
ATOM     18  C   UNL     1      -0.351  -1.411  -0.573  1.00  0.00     0.266 C 
ATOM     19  H   UNL     1      -1.280  -0.178  -1.939  1.00  0.00     0.347 HD
ATOM     20  C   UNL     1       1.224   0.329  -1.210  1.00  0.00     0.071 C 
ENDBRANCH  13  14
ENDBRANCH   8  13
ENDBRANCH   4   7
ENDBRANCH   2   3
ENDBRANCH   1   2
BRANCH   1  21
ATOM     21  C   UNL     1       1.383   1.473   3.920  1.00  0.00     0.118 C 
BRANCH  21  22
ATOM     22  N   UNL     1       2.261   2.623   4.045  1.00  0.00    -0.352 N 
ATOM     23  C   UNL     1       2.186   3.889   3.525  1.00  0.00     0.251 C 
ATOM     24  H   UNL     1       3.054   2.464   4.605  1.00  0.00     0.163 HD
ATOM     25  O   UNL     1       3.210   4.583   3.558  1.00  0.00    -0.269 OA
BRANCH  23  26
ATOM     26  C   UNL     1       0.954   4.471   2.927  1.00  0.00     0.039 A 
ATOM     27  C   UNL     1       1.104   5.462   1.944  1.00  0.00     0.014 A 
ATOM     28  C   UNL     1      -0.333   4.180   3.386  1.00  0.00     0.014 A 
ATOM     29  C   UNL     1      -0.009   6.137   1.426  1.00  0.00     0.010 A 
ATOM     30  C   UNL     1      -1.452   4.795   2.809  1.00  0.00     0.010 A 
ATOM     31  C   UNL     1      -1.304   5.802   1.844  1.00  0.00    -0.014 A 
BRANCH  31  32
ATOM     32  C   UNL     1      -2.500   6.532   1.332  1.00  0.00     0.031 A 
ATOM     33  C   UNL     1      -3.361   7.339   2.271  1.00  0.00     0.074 A 
ATOM     34  C   UNL     1      -2.845   6.445   0.033  1.00  0.00     0.049 A 
ATOM     35  N   UNL     1      -4.487   7.968   2.036  1.00  0.00    -0.248 NA
ATOM     36  C   UNL     1      -2.909   7.430   3.668  1.00  0.00     0.031 C 
ATOM     37  C   UNL     1      -2.122   5.685  -0.985  1.00  0.00     0.029 A 
ATOM     38  N   UNL     1      -3.901   6.998  -0.651  1.00  0.00    -0.354 N 
ATOM     39  C   UNL     1      -4.893   8.493   3.257  1.00  0.00     0.074 A 
ATOM     40  C   UNL     1      -3.911   8.083   4.237  1.00  0.00     0.031 C 
ATOM     41  C   UNL     1      -2.739   5.839  -2.168  1.00  0.00     0.029 A 
ATOM     42  C   UNL     1      -3.923   6.675  -1.985  1.00  0.00     0.049 A 
ATOM     43  H   UNL     1      -4.578   7.572  -0.224  1.00  0.00     0.167 HD
ATOM     44  C   UNL     1      -5.975   9.261   3.536  1.00  0.00     0.037 A 
ATOM     45  C   UNL     1      -4.799   7.007  -2.953  1.00  0.00     0.037 A 
ATOM     46  C   UNL     1      -6.926   9.721   2.557  1.00  0.00     0.049 A 
ATOM     47  C   UNL     1      -5.986   7.868  -2.623  1.00  0.00     0.074 A 
ATOM     48  C   UNL     1      -8.005  10.570   2.734  1.00  0.00     0.029 A 
ATOM     49  N   UNL     1      -6.907   9.373   1.215  1.00  0.00    -0.354 N 
ATOM     50  N   UNL     1      -6.334   8.392  -1.473  1.00  0.00    -0.248 NA
ATOM     51  C   UNL     1      -6.905   8.182  -3.727  1.00  0.00     0.031 C 
ATOM     52  C   UNL     1      -8.661  10.708   1.505  1.00  0.00     0.029 A 
ATOM     53  C   UNL     1      -7.969   9.974   0.556  1.00  0.00     0.049 A 
ATOM     54  H   UNL     1      -6.239   8.786   0.793  1.00  0.00     0.167 HD
ATOM     55  C   UNL     1      -7.497   9.110  -1.717  1.00  0.00     0.074 A 
ATOM     56  C   UNL     1      -7.790   8.966  -3.128  1.00  0.00     0.031 C 
ATOM     57  C   UNL     1      -8.252   9.824  -0.847  1.00  0.00     0.037 A 
BRANCH  44  58
ATOM     58  C   UNL     1      -6.194   9.652   4.969  1.00  0.00     0.064 A 
ATOM     59  C   UNL     1      -5.374  10.591   5.611  1.00  0.00     0.173 A 
ATOM     60  C   UNL     1      -7.255   9.098   5.701  1.00  0.00     0.173 A 
ATOM     61  F   UNL     1      -4.340  11.143   4.958  1.00  0.00    -0.203 F 
ATOM     62  C   UNL     1      -5.585  10.935   6.944  1.00  0.00     0.198 A 
ATOM     63  C   UNL     1      -7.481   9.464   7.026  1.00  0.00     0.198 A 
ATOM     64  F   UNL     1      -8.075   8.202   5.132  1.00  0.00    -0.203 F 
ATOM     65  F   UNL     1      -4.757  11.794   7.553  1.00  0.00    -0.200 F 
ATOM     66  C   UNL     1      -6.641  10.375   7.649  1.00  0.00     0.200 A 
ATOM     67  F   UNL     1      -8.508   8.931   7.702  1.00  0.00    -0.200 F 
ATOM     68  F   UNL     1      -6.843  10.706   8.931  1.00  0.00    -0.200 F 
ENDBRANCH  44  58
BRANCH  45  69
ATOM     69  C   UNL     1      -4.567   6.539  -4.343  1.00  0.00     0.064 A 
ATOM     70  C   UNL     1      -4.136   7.432  -5.333  1.00  0.00     0.173 A 
ATOM     71  C   UNL     1      -4.752   5.197  -4.704  1.00  0.00     0.173 A 
ATOM     72  F   UNL     1      -3.971   8.730  -5.037  1.00  0.00    -0.203 F 
ATOM     73  C   UNL     1      -3.902   7.000  -6.636  1.00  0.00     0.198 A 
ATOM     74  C   UNL     1      -4.497   4.763  -6.003  1.00  0.00     0.198 A 
ATOM     75  F   UNL     1      -5.165   4.307  -3.790  1.00  0.00    -0.203 F 
ATOM     76  F   UNL     1      -3.518   7.879  -7.572  1.00  0.00    -0.200 F 
ATOM     77  C   UNL     1      -4.076   5.665  -6.968  1.00  0.00     0.200 A 
ATOM     78  F   UNL     1      -4.658   3.471  -6.319  1.00  0.00    -0.200 F 
ATOM     79  F   UNL     1      -3.842   5.249  -8.220  1.00  0.00    -0.200 F 
ENDBRANCH  45  69
BRANCH  57  80
ATOM     80  C   UNL     1      -9.460  10.523  -1.398  1.00  0.00     0.064 A 
ATOM     81  C   UNL     1     -10.622   9.816  -1.738  1.00  0.00     0.173 A 
ATOM     82  C   UNL     1      -9.467  11.917  -1.552  1.00  0.00     0.173 A 
ATOM     83  F   UNL     1     -10.658   8.480  -1.623  1.00  0.00    -0.203 F 
ATOM     84  C   UNL     1     -11.743  10.479  -2.230  1.00  0.00     0.198 A 
ATOM     85  C   UNL     1     -10.598  12.579  -2.023  1.00  0.00     0.198 A 
ATOM     86  F   UNL     1      -8.381  12.638  -1.237  1.00  0.00    -0.203 F 
ATOM     87  F   UNL     1     -12.831   9.781  -2.584  1.00  0.00    -0.200 F 
ATOM     88  C   UNL     1     -11.733  11.859  -2.366  1.00  0.00     0.200 A 
ATOM     89  F   UNL     1     -10.589  13.913  -2.146  1.00  0.00    -0.200 F 
ATOM     90  F   UNL     1     -12.814  12.496  -2.836  1.00  0.00    -0.200 F 
ENDBRANCH  57  80
ENDBRANCH  31  32
ENDBRANCH  23  26
ENDBRANCH  21  22
ENDBRANCH   1  21
TORSDOF 12
