REMARK SMILES COc1cc(Br)c(N)c(C(=O)NCCCNC(=O)c2ccc(-c3c4nc(c(-c5c(F)c(F)c(F)c(F)c5F)c5ccc([nH]5)c(-c5c(F)c(F)c(F)c(F)c5F)c5nc(c(-c6c(F)c(F)c(F)c(F)c6F)c6ccc3[nH]6)C=C5)C=C4)cc2)c1
REMARK SMILES IDX 14 1 13 2 12 3 10 4 11 5 9 7 3 8 4 9 82 10 5 11 6 12 7 13
REMARK SMILES IDX 2 14 1 15 8 16 15 19 16 20 17 21 18 23 19 24 20 25 81 26
REMARK SMILES IDX 21 27 80 28 22 29 23 30 24 31 74 32 25 33 79 34 73 35 75 36
REMARK SMILES IDX 26 37 78 38 72 39 71 40 27 42 59 43 39 44 58 45 40 46 43 47
REMARK SMILES IDX 57 48 76 49 41 50 42 51 56 53 77 54 44 55 28 56 29 57 37 58
REMARK SMILES IDX 30 59 31 60 35 61 38 62 32 63 33 64 36 65 34 66 60 67 61 68
REMARK SMILES IDX 69 69 62 70 63 71 67 72 70 73 64 74 65 75 68 76 66 77 45 78
REMARK SMILES IDX 46 79 54 80 47 81 48 82 52 83 55 84 49 85 50 86 53 87 51 88
REMARK H PARENT 12 6 8 17 8 18 16 22 75 41 43 52
REMARK Flexibility Score: inf
ROOT
ATOM      1  C   UNL     1       3.203   3.811   6.696  1.00  0.00     0.042 C 
ENDROOT
BRANCH   1   2
ATOM      2  C   UNL     1       2.817   4.273   5.302  1.00  0.00     0.118 C 
BRANCH   2   3
ATOM      3  N   UNL     1       3.711   3.847   4.238  1.00  0.00    -0.352 N 
ATOM      4  C   UNL     1       3.446   3.503   2.931  1.00  0.00     0.253 C 
ATOM      5  O   UNL     1       4.406   3.220   2.213  1.00  0.00    -0.269 OA
ATOM      6  H   UNL     1       4.661   3.796   4.494  1.00  0.00     0.163 HD
BRANCH   4   7
ATOM      7  C   UNL     1       2.064   3.370   2.380  1.00  0.00     0.067 A 
ATOM      8  C   UNL     1       0.618   2.008   0.962  1.00  0.00     0.120 A 
ATOM      9  C   UNL     1      -0.474   2.762   1.371  1.00  0.00     0.064 A 
ATOM     10  C   UNL     1       1.877   2.288   1.488  1.00  0.00     0.062 A 
ATOM     11  C   UNL     1      -0.292   3.850   2.223  1.00  0.00     0.045 A 
ATOM     12  Br  UNL     1      -1.842   4.813   2.765  1.00  0.00    -0.048 Br
ATOM     13  C   UNL     1       0.993   4.247   2.644  1.00  0.00     0.059 A 
BRANCH   8  14
ATOM     14  O   UNL     1       0.343   1.076   0.003  1.00  0.00    -0.497 OA
ATOM     15  C   UNL     1       1.098  -0.127   0.060  1.00  0.00     0.278 C 
ENDBRANCH   8  14
BRANCH  13  16
ATOM     16  N   UNL     1       1.147   5.457   3.324  1.00  0.00    -0.397 N 
ATOM     17  H   UNL     1       0.366   6.035   3.483  1.00  0.00     0.156 HD
ATOM     18  H   UNL     1       2.037   5.732   3.643  1.00  0.00     0.156 HD
ENDBRANCH  13  16
ENDBRANCH   4   7
ENDBRANCH   2   3
ENDBRANCH   1   2
BRANCH   1  19
ATOM     19  C   UNL     1       4.579   4.245   7.172  1.00  0.00     0.118 C 
BRANCH  19  20
ATOM     20  N   UNL     1       4.743   5.688   7.303  1.00  0.00    -0.352 N 
ATOM     21  C   UNL     1       4.831   6.508   8.402  1.00  0.00     0.251 C 
ATOM     22  H   UNL     1       4.802   6.163   6.442  1.00  0.00     0.163 HD
ATOM     23  O   UNL     1       4.863   7.728   8.237  1.00  0.00    -0.269 OA
BRANCH  21  24
ATOM     24  C   UNL     1       4.844   5.965   9.780  1.00  0.00     0.039 A 
ATOM     25  C   UNL     1       4.185   6.671  10.793  1.00  0.00     0.014 A 
ATOM     26  C   UNL     1       5.508   4.783  10.099  1.00  0.00     0.014 A 
ATOM     27  C   UNL     1       4.118   6.143  12.086  1.00  0.00     0.010 A 
ATOM     28  C   UNL     1       5.326   4.192  11.345  1.00  0.00     0.010 A 
ATOM     29  C   UNL     1       4.642   4.870  12.362  1.00  0.00    -0.014 A 
BRANCH  29  30
ATOM     30  C   UNL     1       4.509   4.245  13.705  1.00  0.00     0.031 A 
ATOM     31  C   UNL     1       5.737   3.843  14.481  1.00  0.00     0.074 A 
ATOM     32  C   UNL     1       3.284   3.977  14.201  1.00  0.00     0.049 A 
ATOM     33  N   UNL     1       5.827   3.230  15.635  1.00  0.00    -0.248 NA
ATOM     34  C   UNL     1       7.040   4.136  13.861  1.00  0.00     0.031 C 
ATOM     35  C   UNL     1       2.016   4.254  13.524  1.00  0.00     0.029 A 
ATOM     36  N   UNL     1       2.904   3.405  15.391  1.00  0.00    -0.354 N 
ATOM     37  C   UNL     1       7.185   3.049  15.863  1.00  0.00     0.074 A 
ATOM     38  C   UNL     1       7.880   3.549  14.698  1.00  0.00     0.031 C 
ATOM     39  C   UNL     1       1.000   3.890  14.322  1.00  0.00     0.029 A 
ATOM     40  C   UNL     1       1.542   3.312  15.548  1.00  0.00     0.049 A 
ATOM     41  H   UNL     1       3.546   3.091  16.067  1.00  0.00     0.167 HD
ATOM     42  C   UNL     1       7.803   2.545  16.958  1.00  0.00     0.037 A 
ATOM     43  C   UNL     1       0.812   2.814  16.564  1.00  0.00     0.037 A 
ATOM     44  C   UNL     1       7.110   2.079  18.130  1.00  0.00     0.049 A 
ATOM     45  C   UNL     1       1.522   2.261  17.771  1.00  0.00     0.074 A 
ATOM     46  C   UNL     1       7.642   1.613  19.319  1.00  0.00     0.029 A 
ATOM     47  N   UNL     1       5.730   2.019  18.259  1.00  0.00    -0.354 N 
ATOM     48  N   UNL     1       2.808   2.171  18.008  1.00  0.00    -0.248 NA
ATOM     49  C   UNL     1       0.675   1.748  18.857  1.00  0.00     0.031 C 
ATOM     50  C   UNL     1       6.585   1.218  20.146  1.00  0.00     0.029 A 
ATOM     51  C   UNL     1       5.393   1.497  19.498  1.00  0.00     0.049 A 
ATOM     52  H   UNL     1       5.085   2.304  17.572  1.00  0.00     0.167 HD
ATOM     53  C   UNL     1       2.925   1.619  19.277  1.00  0.00     0.074 A 
ATOM     54  C   UNL     1       1.578   1.417  19.769  1.00  0.00     0.031 C 
ATOM     55  C   UNL     1       4.046   1.305  19.973  1.00  0.00     0.037 A 
BRANCH  42  56
ATOM     56  C   UNL     1       9.305   2.480  16.943  1.00  0.00     0.064 A 
ATOM     57  C   UNL     1      10.095   3.640  16.959  1.00  0.00     0.173 A 
ATOM     58  C   UNL     1       9.964   1.241  16.941  1.00  0.00     0.173 A 
ATOM     59  F   UNL     1       9.517   4.851  16.949  1.00  0.00    -0.203 F 
ATOM     60  C   UNL     1      11.485   3.564  16.937  1.00  0.00     0.198 A 
ATOM     61  C   UNL     1      11.355   1.168  16.957  1.00  0.00     0.198 A 
ATOM     62  F   UNL     1       9.261   0.099  16.932  1.00  0.00    -0.203 F 
ATOM     63  F   UNL     1      12.215   4.687  16.892  1.00  0.00    -0.200 F 
ATOM     64  C   UNL     1      12.114   2.329  16.945  1.00  0.00     0.200 A 
ATOM     65  F   UNL     1      11.962  -0.027  16.979  1.00  0.00    -0.200 F 
ATOM     66  F   UNL     1      13.452   2.256  16.932  1.00  0.00    -0.200 F 
ENDBRANCH  42  56
BRANCH  43  67
ATOM     67  C   UNL     1      -0.674   2.840  16.500  1.00  0.00     0.064 A 
ATOM     68  C   UNL     1      -1.419   3.658  17.361  1.00  0.00     0.173 A 
ATOM     69  C   UNL     1      -1.382   2.042  15.588  1.00  0.00     0.173 A 
ATOM     70  F   UNL     1      -0.791   4.425  18.265  1.00  0.00    -0.203 F 
ATOM     71  C   UNL     1      -2.812   3.658  17.332  1.00  0.00     0.198 A 
ATOM     72  C   UNL     1      -2.774   2.067  15.537  1.00  0.00     0.198 A 
ATOM     73  F   UNL     1      -0.719   1.245  14.737  1.00  0.00    -0.203 F 
ATOM     74  F   UNL     1      -3.498   4.409  18.204  1.00  0.00    -0.200 F 
ATOM     75  C   UNL     1      -3.489   2.867  16.416  1.00  0.00     0.200 A 
ATOM     76  F   UNL     1      -3.423   1.314  14.639  1.00  0.00    -0.200 F 
ATOM     77  F   UNL     1      -4.828   2.869  16.386  1.00  0.00    -0.200 F 
ENDBRANCH  43  67
BRANCH  55  78
ATOM     78  C   UNL     1       3.862   0.740  21.353  1.00  0.00     0.064 A 
ATOM     79  C   UNL     1       3.338  -0.545  21.561  1.00  0.00     0.173 A 
ATOM     80  C   UNL     1       4.242   1.484  22.480  1.00  0.00     0.173 A 
ATOM     81  F   UNL     1       2.947  -1.292  20.518  1.00  0.00    -0.203 F 
ATOM     82  C   UNL     1       3.167  -1.048  22.849  1.00  0.00     0.198 A 
ATOM     83  C   UNL     1       4.104   0.964  23.764  1.00  0.00     0.198 A 
ATOM     84  F   UNL     1       4.758   2.715  22.337  1.00  0.00    -0.203 F 
ATOM     85  F   UNL     1       2.608  -2.252  23.025  1.00  0.00    -0.200 F 
ATOM     86  C   UNL     1       3.557  -0.297  23.947  1.00  0.00     0.200 A 
ATOM     87  F   UNL     1       4.498   1.684  24.823  1.00  0.00    -0.200 F 
ATOM     88  F   UNL     1       3.396  -0.785  25.185  1.00  0.00    -0.200 F 
ENDBRANCH  55  78
ENDBRANCH  29  30
ENDBRANCH  21  24
ENDBRANCH  19  20
ENDBRANCH   1  19
TORSDOF 12
