REMARK SMILES CN1N=C(CC(=O)NCCCNC(=O)c2ccc(-c3c4nc(c(-c5c(F)c(F)c(F)c(F)c5F)c5ccc([nH]5)c(-c5c(F)c(F)c(F)c(F)c5F)c5nc(c(-c6c(F)c(F)c(F)c(F)c6F)c6ccc3[nH]6)C=C5)C=C4)cc2)CC1=O
REMARK SMILES IDX 10 1 9 2 8 3 6 4 7 5 5 7 4 8 1 9 2 10 3 11 79 12 78 13 80 14
REMARK SMILES IDX 11 15 12 16 13 17 14 19 15 20 16 21 77 22 17 23 76 24 18 25
REMARK SMILES IDX 19 26 20 27 70 28 21 29 75 30 69 31 71 32 22 33 74 34 68 35
REMARK SMILES IDX 67 36 23 38 55 39 35 40 54 41 36 42 39 43 53 44 72 45 37 46
REMARK SMILES IDX 38 47 52 49 73 50 40 51 24 52 25 53 33 54 26 55 27 56 31 57
REMARK SMILES IDX 34 58 28 59 29 60 32 61 30 62 56 63 57 64 65 65 58 66 59 67
REMARK SMILES IDX 63 68 66 69 60 70 61 71 64 72 62 73 41 74 42 75 50 76 43 77
REMARK SMILES IDX 44 78 48 79 51 80 45 81 46 82 49 83 47 84
REMARK H PARENT 8 6 12 18 71 37 39 48
REMARK Flexibility Score: inf
ROOT
ATOM      1  C   UNL     1      -1.870   4.189   0.506  1.00  0.00     0.042 C 
ENDROOT
BRANCH   1   2
ATOM      2  C   UNL     1      -1.510   5.236  -0.543  1.00  0.00     0.117 C 
BRANCH   2   3
ATOM      3  N   UNL     1      -0.129   5.663  -0.436  1.00  0.00    -0.356 N 
ATOM      4  C   UNL     1       0.953   5.283  -1.175  1.00  0.00     0.225 C 
ATOM      5  O   UNL     1       2.049   5.773  -0.905  1.00  0.00    -0.275 OA
ATOM      6  H   UNL     1       0.054   6.322   0.272  1.00  0.00     0.163 HD
BRANCH   4   7
ATOM      7  C   UNL     1       0.768   4.346  -2.339  1.00  0.00     0.153 C 
BRANCH   7   8
ATOM      8  C   UNL     1       0.431   2.943  -1.965  1.00  0.00     0.057 C 
ATOM      9  C   UNL     1       0.954  -0.040  -0.200  1.00  0.00     0.177 C 
ATOM     10  N   UNL     1       0.478   1.000  -1.076  1.00  0.00    -0.237 N 
ATOM     11  N   UNL     1       1.083   2.235  -1.094  1.00  0.00    -0.179 NA
ATOM     12  C   UNL     1      -0.604   0.875  -1.941  1.00  0.00     0.248 C 
ATOM     13  C   UNL     1      -0.703   2.207  -2.617  1.00  0.00     0.156 C 
ATOM     14  O   UNL     1      -1.340  -0.081  -2.120  1.00  0.00    -0.273 OA
ENDBRANCH   7   8
ENDBRANCH   4   7
ENDBRANCH   2   3
ENDBRANCH   1   2
BRANCH   1  15
ATOM     15  C   UNL     1      -1.860   4.721   1.937  1.00  0.00     0.118 C 
BRANCH  15  16
ATOM     16  N   UNL     1      -2.845   5.774   2.142  1.00  0.00    -0.352 N 
ATOM     17  C   UNL     1      -3.917   5.845   2.993  1.00  0.00     0.251 C 
ATOM     18  H   UNL     1      -2.719   6.568   1.575  1.00  0.00     0.163 HD
ATOM     19  O   UNL     1      -4.741   6.743   2.842  1.00  0.00    -0.269 OA
BRANCH  17  20
ATOM     20  C   UNL     1      -4.101   4.858   4.080  1.00  0.00     0.039 A 
ATOM     21  C   UNL     1      -5.402   4.458   4.401  1.00  0.00     0.014 A 
ATOM     22  C   UNL     1      -3.023   4.373   4.824  1.00  0.00     0.014 A 
ATOM     23  C   UNL     1      -5.614   3.543   5.434  1.00  0.00     0.010 A 
ATOM     24  C   UNL     1      -3.228   3.395   5.795  1.00  0.00     0.010 A 
ATOM     25  C   UNL     1      -4.527   2.981   6.121  1.00  0.00    -0.014 A 
BRANCH  25  26
ATOM     26  C   UNL     1      -4.748   1.961   7.179  1.00  0.00     0.031 A 
ATOM     27  C   UNL     1      -4.351   2.230   8.603  1.00  0.00     0.074 A 
ATOM     28  C   UNL     1      -5.273   0.768   6.843  1.00  0.00     0.049 A 
ATOM     29  N   UNL     1      -4.480   1.463   9.659  1.00  0.00    -0.248 NA
ATOM     30  C   UNL     1      -3.696   3.517   8.875  1.00  0.00     0.031 C 
ATOM     31  C   UNL     1      -5.633   0.358   5.486  1.00  0.00     0.029 A 
ATOM     32  N   UNL     1      -5.591  -0.321   7.616  1.00  0.00    -0.354 N 
ATOM     33  C   UNL     1      -3.912   2.169  10.711  1.00  0.00     0.074 A 
ATOM     34  C   UNL     1      -3.381   3.395  10.156  1.00  0.00     0.031 C 
ATOM     35  C   UNL     1      -6.147  -0.880   5.523  1.00  0.00     0.029 A 
ATOM     36  C   UNL     1      -6.120  -1.365   6.900  1.00  0.00     0.049 A 
ATOM     37  H   UNL     1      -5.452  -0.350   8.590  1.00  0.00     0.167 HD
ATOM     38  C   UNL     1      -3.857   1.836  12.024  1.00  0.00     0.037 A 
ATOM     39  C   UNL     1      -6.535  -2.580   7.304  1.00  0.00     0.037 A 
ATOM     40  C   UNL     1      -4.392   0.614  12.571  1.00  0.00     0.049 A 
ATOM     41  C   UNL     1      -6.484  -2.923   8.766  1.00  0.00     0.074 A 
ATOM     42  C   UNL     1      -4.455   0.213  13.894  1.00  0.00     0.029 A 
ATOM     43  N   UNL     1      -4.942  -0.415  11.818  1.00  0.00    -0.354 N 
ATOM     44  N   UNL     1      -6.033  -2.210   9.769  1.00  0.00    -0.248 NA
ATOM     45  C   UNL     1      -7.019  -4.234   9.153  1.00  0.00     0.031 C 
ATOM     46  C   UNL     1      -4.978  -1.085  13.935  1.00  0.00     0.029 A 
ATOM     47  C   UNL     1      -5.314  -1.465  12.645  1.00  0.00     0.049 A 
ATOM     48  H   UNL     1      -5.053  -0.401  10.840  1.00  0.00     0.167 HD
ATOM     49  C   UNL     1      -6.245  -2.974  10.909  1.00  0.00     0.074 A 
ATOM     50  C   UNL     1      -6.890  -4.197  10.472  1.00  0.00     0.031 C 
ATOM     51  C   UNL     1      -5.935  -2.689  12.199  1.00  0.00     0.037 A 
BRANCH  38  52
ATOM     52  C   UNL     1      -3.171   2.802  12.952  1.00  0.00     0.064 A 
ATOM     53  C   UNL     1      -3.685   4.085  13.205  1.00  0.00     0.173 A 
ATOM     54  C   UNL     1      -1.976   2.443  13.595  1.00  0.00     0.173 A 
ATOM     55  F   UNL     1      -4.821   4.487  12.613  1.00  0.00    -0.203 F 
ATOM     56  C   UNL     1      -3.003   4.987  14.019  1.00  0.00     0.198 A 
ATOM     57  C   UNL     1      -1.317   3.333  14.440  1.00  0.00     0.198 A 
ATOM     58  F   UNL     1      -1.441   1.228  13.401  1.00  0.00    -0.203 F 
ATOM     59  F   UNL     1      -3.475   6.231  14.180  1.00  0.00    -0.200 F 
ATOM     60  C   UNL     1      -1.822   4.609  14.639  1.00  0.00     0.200 A 
ATOM     61  F   UNL     1      -0.185   2.960  15.053  1.00  0.00    -0.200 F 
ATOM     62  F   UNL     1      -1.164   5.479  15.418  1.00  0.00    -0.200 F 
ENDBRANCH  38  52
BRANCH  39  63
ATOM     63  C   UNL     1      -7.060  -3.541   6.300  1.00  0.00     0.064 A 
ATOM     64  C   UNL     1      -8.423  -3.863   6.246  1.00  0.00     0.173 A 
ATOM     65  C   UNL     1      -6.213  -4.125   5.346  1.00  0.00     0.173 A 
ATOM     66  F   UNL     1      -9.270  -3.344   7.147  1.00  0.00    -0.203 F 
ATOM     67  C   UNL     1      -8.917  -4.740   5.282  1.00  0.00     0.198 A 
ATOM     68  C   UNL     1      -6.712  -4.978   4.365  1.00  0.00     0.198 A 
ATOM     69  F   UNL     1      -4.902  -3.841   5.350  1.00  0.00    -0.203 F 
ATOM     70  F   UNL     1     -10.218  -5.058   5.274  1.00  0.00    -0.200 F 
ATOM     71  C   UNL     1      -8.063  -5.289   4.337  1.00  0.00     0.200 A 
ATOM     72  F   UNL     1      -5.887  -5.489   3.442  1.00  0.00    -0.200 F 
ATOM     73  F   UNL     1      -8.542  -6.119   3.400  1.00  0.00    -0.200 F 
ENDBRANCH  39  63
BRANCH  51  74
ATOM     74  C   UNL     1      -6.312  -3.714  13.234  1.00  0.00     0.064 A 
ATOM     75  C   UNL     1      -5.689  -4.971  13.295  1.00  0.00     0.173 A 
ATOM     76  C   UNL     1      -7.311  -3.435  14.180  1.00  0.00     0.173 A 
ATOM     77  F   UNL     1      -4.736  -5.296  12.409  1.00  0.00    -0.203 F 
ATOM     78  C   UNL     1      -6.087  -5.925  14.229  1.00  0.00     0.198 A 
ATOM     79  C   UNL     1      -7.678  -4.376  15.138  1.00  0.00     0.198 A 
ATOM     80  F   UNL     1      -7.934  -2.247  14.176  1.00  0.00    -0.203 F 
ATOM     81  F   UNL     1      -5.530  -7.144  14.218  1.00  0.00    -0.200 F 
ATOM     82  C   UNL     1      -7.077  -5.625  15.152  1.00  0.00     0.200 A 
ATOM     83  F   UNL     1      -8.622  -4.077  16.041  1.00  0.00    -0.200 F 
ATOM     84  F   UNL     1      -7.461  -6.544  16.049  1.00  0.00    -0.200 F 
ENDBRANCH  51  74
ENDBRANCH  25  26
ENDBRANCH  17  20
ENDBRANCH  15  16
ENDBRANCH   1  15
TORSDOF 11
