REMARK SMILES COCC1=C(C(=O)NCCCNC(=O)c2ccc(-c3c4nc(c(-c5c(F)c(F)c(F)c(F)c5F)c5ccc([nH]5)c(-c5c(F)c(F)c(F)c(F)c5F)c5nc(c(-c6c(F)c(F)c(F)c(F)c6F)c6ccc3[nH]6)C=C5)C=C4)cc2)[C@H](C)N=N1
REMARK SMILES IDX 10 1 9 2 8 3 6 4 7 5 5 7 4 8 81 9 78 10 80 11 79 12 3 13
REMARK SMILES IDX 2 14 1 15 11 16 12 17 13 18 14 20 15 21 16 22 77 23 17 24
REMARK SMILES IDX 76 25 18 26 19 27 20 28 70 29 21 30 75 31 69 32 71 33 22 34
REMARK SMILES IDX 74 35 68 36 67 37 23 39 55 40 35 41 54 42 36 43 39 44 53 45
REMARK SMILES IDX 72 46 37 47 38 48 52 50 73 51 40 52 24 53 25 54 33 55 26 56
REMARK SMILES IDX 27 57 31 58 34 59 28 60 29 61 32 62 30 63 56 64 57 65 65 66
REMARK SMILES IDX 58 67 59 68 63 69 66 70 60 71 61 72 64 73 62 74 41 75 42 76
REMARK SMILES IDX 50 77 43 78 44 79 48 80 51 81 45 82 46 83 49 84 47 85
REMARK H PARENT 8 6 12 19 71 38 39 49
REMARK Flexibility Score: inf
ROOT
ATOM      1  C   UNL     1       0.314   1.575   1.693  1.00  0.00     0.042 C 
ENDROOT
BRANCH   1   2
ATOM      2  C   UNL     1      -0.854   0.656   2.078  1.00  0.00     0.118 C 
BRANCH   2   3
ATOM      3  N   UNL     1      -1.373  -0.094   0.943  1.00  0.00    -0.352 N 
ATOM      4  C   UNL     1      -1.256  -1.383   0.545  1.00  0.00     0.251 C 
ATOM      5  O   UNL     1      -1.920  -1.731  -0.433  1.00  0.00    -0.270 OA
ATOM      6  H   UNL     1      -1.925   0.451   0.337  1.00  0.00     0.163 HD
BRANCH   4   7
ATOM      7  C   UNL     1      -0.438  -2.398   1.231  1.00  0.00     0.069 C 
ATOM      8  C   UNL     1       0.762  -2.442   1.828  1.00  0.00     0.099 C 
ATOM      9  N   UNL     1       1.111  -3.729   2.183  1.00  0.00    -0.157 NA
ATOM     10  C   UNL     1      -0.825  -3.838   1.058  1.00  0.00     0.163 C 
ATOM     11  N   UNL     1       0.257  -4.556   1.778  1.00  0.00    -0.181 NA
ATOM     12  C   UNL     1      -2.157  -4.266   1.652  1.00  0.00     0.041 C 
BRANCH   8  13
ATOM     13  C   UNL     1       1.819  -1.410   2.081  1.00  0.00     0.218 C 
BRANCH  13  14
ATOM     14  O   UNL     1       2.409  -0.728   0.973  1.00  0.00    -0.378 OA
ATOM     15  C   UNL     1       2.080  -1.147  -0.339  1.00  0.00     0.195 C 
ENDBRANCH  13  14
ENDBRANCH   8  13
ENDBRANCH   4   7
ENDBRANCH   2   3
ENDBRANCH   1   2
BRANCH   1  16
ATOM     16  C   UNL     1      -0.107   2.809   0.924  1.00  0.00     0.118 C 
BRANCH  16  17
ATOM     17  N   UNL     1      -0.548   3.912   1.778  1.00  0.00    -0.352 N 
ATOM     18  C   UNL     1      -0.798   5.224   1.388  1.00  0.00     0.251 C 
ATOM     19  H   UNL     1      -0.683   3.704   2.731  1.00  0.00     0.163 HD
ATOM     20  O   UNL     1      -0.770   6.141   2.184  1.00  0.00    -0.269 OA
BRANCH  18  21
ATOM     21  C   UNL     1      -1.119   5.466  -0.034  1.00  0.00     0.039 A 
ATOM     22  C   UNL     1      -0.712   6.611  -0.723  1.00  0.00     0.014 A 
ATOM     23  C   UNL     1      -1.830   4.467  -0.686  1.00  0.00     0.014 A 
ATOM     24  C   UNL     1      -1.007   6.702  -2.083  1.00  0.00     0.010 A 
ATOM     25  C   UNL     1      -1.855   4.429  -2.045  1.00  0.00     0.010 A 
ATOM     26  C   UNL     1      -1.578   5.594  -2.731  1.00  0.00    -0.014 A 
BRANCH  26  27
ATOM     27  C   UNL     1      -1.854   5.564  -4.156  1.00  0.00     0.031 A 
ATOM     28  C   UNL     1      -0.670   5.845  -4.994  1.00  0.00     0.074 A 
ATOM     29  C   UNL     1      -3.026   5.119  -4.664  1.00  0.00     0.049 A 
ATOM     30  N   UNL     1      -0.457   6.915  -5.679  1.00  0.00    -0.248 NA
ATOM     31  C   UNL     1       0.481   4.932  -4.932  1.00  0.00     0.031 C 
ATOM     32  C   UNL     1      -4.184   4.542  -3.967  1.00  0.00     0.029 A 
ATOM     33  N   UNL     1      -3.398   5.021  -5.967  1.00  0.00    -0.354 N 
ATOM     34  C   UNL     1       0.768   6.731  -6.305  1.00  0.00     0.074 A 
ATOM     35  C   UNL     1       1.380   5.595  -5.666  1.00  0.00     0.031 C 
ATOM     36  C   UNL     1      -5.018   3.962  -4.861  1.00  0.00     0.029 A 
ATOM     37  C   UNL     1      -4.548   4.271  -6.197  1.00  0.00     0.049 A 
ATOM     38  H   UNL     1      -2.891   5.449  -6.695  1.00  0.00     0.167 HD
ATOM     39  C   UNL     1       1.050   7.392  -7.461  1.00  0.00     0.037 A 
ATOM     40  C   UNL     1      -5.059   3.934  -7.410  1.00  0.00     0.037 A 
ATOM     41  C   UNL     1       0.107   8.464  -7.680  1.00  0.00     0.049 A 
ATOM     42  C   UNL     1      -4.497   4.895  -8.394  1.00  0.00     0.074 A 
ATOM     43  C   UNL     1      -0.230   9.606  -6.979  1.00  0.00     0.029 A 
ATOM     44  N   UNL     1      -0.947   8.221  -8.528  1.00  0.00    -0.354 N 
ATOM     45  N   UNL     1      -4.808   6.162  -8.409  1.00  0.00    -0.248 NA
ATOM     46  C   UNL     1      -3.222   4.556  -9.011  1.00  0.00     0.031 C 
ATOM     47  C   UNL     1      -1.650   9.696  -7.081  1.00  0.00     0.029 A 
ATOM     48  C   UNL     1      -2.091   8.665  -7.912  1.00  0.00     0.049 A 
ATOM     49  H   UNL     1      -0.892   7.802  -9.417  1.00  0.00     0.167 HD
ATOM     50  C   UNL     1      -3.602   6.816  -8.615  1.00  0.00     0.074 A 
ATOM     51  C   UNL     1      -2.673   5.775  -9.053  1.00  0.00     0.031 C 
ATOM     52  C   UNL     1      -3.390   8.070  -8.118  1.00  0.00     0.037 A 
BRANCH  39  53
ATOM     53  C   UNL     1       1.911   6.852  -8.571  1.00  0.00     0.064 A 
ATOM     54  C   UNL     1       2.236   7.698  -9.650  1.00  0.00     0.173 A 
ATOM     55  C   UNL     1       2.171   5.480  -8.771  1.00  0.00     0.173 A 
ATOM     56  F   UNL     1       2.020   9.020  -9.571  1.00  0.00    -0.203 F 
ATOM     57  C   UNL     1       2.698   7.194 -10.868  1.00  0.00     0.198 A 
ATOM     58  C   UNL     1       2.683   4.987  -9.969  1.00  0.00     0.198 A 
ATOM     59  F   UNL     1       1.835   4.550  -7.871  1.00  0.00    -0.203 F 
ATOM     60  F   UNL     1       2.866   8.021 -11.908  1.00  0.00    -0.200 F 
ATOM     61  C   UNL     1       2.913   5.838 -11.029  1.00  0.00     0.200 A 
ATOM     62  F   UNL     1       2.866   3.667 -10.112  1.00  0.00    -0.200 F 
ATOM     63  F   UNL     1       3.292   5.345 -12.214  1.00  0.00    -0.200 F 
ENDBRANCH  39  53
BRANCH  40  64
ATOM     64  C   UNL     1      -5.772   2.699  -7.822  1.00  0.00     0.064 A 
ATOM     65  C   UNL     1      -6.479   2.633  -9.035  1.00  0.00     0.173 A 
ATOM     66  C   UNL     1      -5.528   1.471  -7.177  1.00  0.00     0.173 A 
ATOM     67  F   UNL     1      -6.719   3.750  -9.738  1.00  0.00    -0.203 F 
ATOM     68  C   UNL     1      -6.889   1.412  -9.584  1.00  0.00     0.198 A 
ATOM     69  C   UNL     1      -5.938   0.253  -7.725  1.00  0.00     0.198 A 
ATOM     70  F   UNL     1      -4.801   1.421  -6.051  1.00  0.00    -0.203 F 
ATOM     71  F   UNL     1      -7.505   1.385 -10.775  1.00  0.00    -0.200 F 
ATOM     72  C   UNL     1      -6.605   0.222  -8.935  1.00  0.00     0.200 A 
ATOM     73  F   UNL     1      -5.623  -0.894  -7.106  1.00  0.00    -0.200 F 
ATOM     74  F   UNL     1      -6.936  -0.952  -9.493  1.00  0.00    -0.200 F 
ENDBRANCH  40  64
BRANCH  52  75
ATOM     75  C   UNL     1      -4.574   8.806  -7.547  1.00  0.00     0.064 A 
ATOM     76  C   UNL     1      -5.305   8.382  -6.423  1.00  0.00     0.173 A 
ATOM     77  C   UNL     1      -4.890  10.063  -8.077  1.00  0.00     0.173 A 
ATOM     78  F   UNL     1      -5.001   7.244  -5.790  1.00  0.00    -0.203 F 
ATOM     79  C   UNL     1      -6.334   9.157  -5.889  1.00  0.00     0.198 A 
ATOM     80  C   UNL     1      -5.893  10.852  -7.521  1.00  0.00     0.198 A 
ATOM     81  F   UNL     1      -4.190  10.549  -9.114  1.00  0.00    -0.203 F 
ATOM     82  F   UNL     1      -7.023   8.721  -4.824  1.00  0.00    -0.200 F 
ATOM     83  C   UNL     1      -6.623  10.395  -6.436  1.00  0.00     0.200 A 
ATOM     84  F   UNL     1      -6.133  12.072  -8.022  1.00  0.00    -0.200 F 
ATOM     85  F   UNL     1      -7.586  11.159  -5.902  1.00  0.00    -0.200 F 
ENDBRANCH  52  75
ENDBRANCH  26  27
ENDBRANCH  18  21
ENDBRANCH  16  17
ENDBRANCH   1  16
TORSDOF 12
