REMARK SMILES COc1cc(-c2cccc(C(N)=O)c2)ccc1C(=O)NCCCNC(=O)c1ccc(-c2c3nc(c(-c4c(F)c(F)c(F)c(F)c4F)c4ccc([nH]4)c(-c4c(F)c(F)c(F)c(F)c4F)c4nc(c(-c5c(F)c(F)c(F)c(F)c5F)c5ccc2[nH]5)C=C4)C=C3)cc1
REMARK SMILES IDX 22 1 21 2 20 3 18 4 19 5 17 7 3 8 4 9 5 10 16 11 15 12 2 13
REMARK SMILES IDX 1 14 6 15 7 16 14 17 8 18 10 19 9 20 11 21 12 22 13 23 23 26
REMARK SMILES IDX 24 27 25 28 26 30 27 31 28 32 89 33 29 34 88 35 30 36 31 37
REMARK SMILES IDX 32 38 82 39 33 40 87 41 81 42 83 43 34 44 86 45 80 46 79 47
REMARK SMILES IDX 35 49 67 50 47 51 66 52 48 53 51 54 65 55 84 56 49 57 50 58
REMARK SMILES IDX 64 60 85 61 52 62 36 63 37 64 45 65 38 66 39 67 43 68 46 69
REMARK SMILES IDX 40 70 41 71 44 72 42 73 68 74 69 75 77 76 70 77 71 78 75 79
REMARK SMILES IDX 78 80 72 81 73 82 76 83 74 84 53 85 54 86 62 87 55 88 56 89
REMARK SMILES IDX 60 90 63 91 57 92 58 93 61 94 59 95
REMARK H PARENT 20 6 12 24 12 25 24 29 83 48 51 59
REMARK Flexibility Score: inf
ROOT
ATOM      1  C   UNL     1       2.031   2.329   0.835  1.00  0.00     0.042 C 
ENDROOT
BRANCH   1   2
ATOM      2  C   UNL     1       1.629   0.869   0.752  1.00  0.00     0.118 C 
BRANCH   2   3
ATOM      3  N   UNL     1       2.712  -0.038   0.416  1.00  0.00    -0.352 N 
ATOM      4  C   UNL     1       2.843  -1.377   0.694  1.00  0.00     0.255 C 
ATOM      5  O   UNL     1       3.827  -1.973   0.261  1.00  0.00    -0.269 OA
ATOM      6  H   UNL     1       3.459   0.365  -0.083  1.00  0.00     0.163 HD
BRANCH   4   7
ATOM      7  C   UNL     1       1.884  -2.097   1.568  1.00  0.00     0.081 A 
ATOM      8  C   UNL     1       0.492  -1.987   1.514  1.00  0.00     0.132 A 
ATOM      9  C   UNL     1      -0.288  -2.542   2.533  1.00  0.00     0.056 A 
ATOM     10  C   UNL     1       0.282  -3.291   3.575  1.00  0.00    -0.015 A 
ATOM     11  C   UNL     1       2.458  -2.922   2.549  1.00  0.00     0.018 A 
ATOM     12  C   UNL     1       1.665  -3.516   3.535  1.00  0.00     0.010 A 
BRANCH   8  13
ATOM     13  O   UNL     1      -0.206  -1.260   0.590  1.00  0.00    -0.496 OA
ATOM     14  C   UNL     1      -0.161  -1.839  -0.712  1.00  0.00     0.278 C 
ENDBRANCH   8  13
BRANCH  10  15
ATOM     15  C   UNL     1      -0.550  -3.741   4.704  1.00  0.00    -0.017 A 
ATOM     16  C   UNL     1      -1.810  -4.322   4.501  1.00  0.00     0.009 A 
ATOM     17  C   UNL     1      -0.137  -3.515   6.029  1.00  0.00     0.022 A 
ATOM     18  C   UNL     1      -2.638  -4.642   5.579  1.00  0.00     0.001 A 
ATOM     19  C   UNL     1      -0.961  -3.828   7.122  1.00  0.00     0.040 A 
ATOM     20  C   UNL     1      -2.219  -4.392   6.886  1.00  0.00     0.014 A 
BRANCH  19  21
ATOM     21  C   UNL     1      -0.444  -3.518   8.485  1.00  0.00     0.248 C 
ATOM     22  N   UNL     1      -1.278  -3.667   9.555  1.00  0.00    -0.366 N 
ATOM     23  O   UNL     1       0.705  -3.122   8.659  1.00  0.00    -0.270 OA
ATOM     24  H   UNL     1      -2.200  -3.984   9.420  1.00  0.00     0.159 HD
ATOM     25  H   UNL     1      -0.958  -3.458  10.463  1.00  0.00     0.159 HD
ENDBRANCH  19  21
ENDBRANCH  10  15
ENDBRANCH   4   7
ENDBRANCH   2   3
ENDBRANCH   1   2
BRANCH   1  26
ATOM     26  C   UNL     1       2.671   2.886  -0.427  1.00  0.00     0.118 C 
BRANCH  26  27
ATOM     27  N   UNL     1       1.843   2.785  -1.623  1.00  0.00    -0.352 N 
ATOM     28  C   UNL     1       1.169   3.723  -2.372  1.00  0.00     0.251 C 
ATOM     29  H   UNL     1       1.747   1.865  -1.961  1.00  0.00     0.163 HD
ATOM     30  O   UNL     1       0.465   3.352  -3.304  1.00  0.00    -0.269 OA
BRANCH  28  31
ATOM     31  C   UNL     1       1.235   5.166  -2.041  1.00  0.00     0.039 A 
ATOM     32  C   UNL     1       0.086   5.949  -2.203  1.00  0.00     0.014 A 
ATOM     33  C   UNL     1       2.404   5.761  -1.577  1.00  0.00     0.014 A 
ATOM     34  C   UNL     1       0.088   7.287  -1.794  1.00  0.00     0.010 A 
ATOM     35  C   UNL     1       2.366   7.043  -1.041  1.00  0.00     0.010 A 
ATOM     36  C   UNL     1       1.211   7.828  -1.148  1.00  0.00    -0.014 A 
BRANCH  36  37
ATOM     37  C   UNL     1       1.213   9.207  -0.590  1.00  0.00     0.031 A 
ATOM     38  C   UNL     1       2.258  10.200  -1.031  1.00  0.00     0.074 A 
ATOM     39  C   UNL     1       0.341   9.540   0.383  1.00  0.00     0.049 A 
ATOM     40  N   UNL     1       2.512  11.399  -0.570  1.00  0.00    -0.248 NA
ATOM     41  C   UNL     1       3.174   9.768  -2.100  1.00  0.00     0.031 C 
ATOM     42  C   UNL     1      -0.671   8.652   0.958  1.00  0.00     0.029 A 
ATOM     43  N   UNL     1       0.175  10.717   1.072  1.00  0.00    -0.354 N 
ATOM     44  C   UNL     1       3.635  11.839  -1.259  1.00  0.00     0.074 A 
ATOM     45  C   UNL     1       4.053  10.758  -2.123  1.00  0.00     0.031 C 
ATOM     46  C   UNL     1      -1.375   9.324   1.883  1.00  0.00     0.029 A 
ATOM     47  C   UNL     1      -0.841  10.676   1.997  1.00  0.00     0.049 A 
ATOM     48  H   UNL     1       0.731  11.514   0.917  1.00  0.00     0.167 HD
ATOM     49  C   UNL     1       4.247  13.046  -1.203  1.00  0.00     0.037 A 
ATOM     50  C   UNL     1      -1.289  11.623   2.842  1.00  0.00     0.037 A 
ATOM     51  C   UNL     1       3.787  14.145  -0.397  1.00  0.00     0.049 A 
ATOM     52  C   UNL     1      -0.632  12.977   2.841  1.00  0.00     0.074 A 
ATOM     53  C   UNL     1       4.278  15.438  -0.339  1.00  0.00     0.029 A 
ATOM     54  N   UNL     1       2.716  14.082   0.482  1.00  0.00    -0.354 N 
ATOM     55  N   UNL     1       0.384  13.403   2.132  1.00  0.00    -0.248 NA
ATOM     56  C   UNL     1      -1.191  13.984   3.754  1.00  0.00     0.031 C 
ATOM     57  C   UNL     1       3.522  16.149   0.599  1.00  0.00     0.029 A 
ATOM     58  C   UNL     1       2.537  15.311   1.095  1.00  0.00     0.049 A 
ATOM     59  H   UNL     1       2.166  13.283   0.646  1.00  0.00     0.167 HD
ATOM     60  C   UNL     1       0.572  14.729   2.494  1.00  0.00     0.074 A 
ATOM     61  C   UNL     1      -0.448  15.044   3.472  1.00  0.00     0.031 C 
ATOM     62  C   UNL     1       1.508  15.607   2.058  1.00  0.00     0.037 A 
BRANCH  49  63
ATOM     63  C   UNL     1       5.465  13.248  -2.056  1.00  0.00     0.064 A 
ATOM     64  C   UNL     1       5.381  13.317  -3.455  1.00  0.00     0.173 A 
ATOM     65  C   UNL     1       6.731  13.398  -1.469  1.00  0.00     0.173 A 
ATOM     66  F   UNL     1       4.196  13.167  -4.068  1.00  0.00    -0.203 F 
ATOM     67  C   UNL     1       6.520  13.493  -4.236  1.00  0.00     0.198 A 
ATOM     68  C   UNL     1       7.864  13.606  -2.251  1.00  0.00     0.198 A 
ATOM     69  F   UNL     1       6.868  13.347  -0.135  1.00  0.00    -0.203 F 
ATOM     70  F   UNL     1       6.420  13.498  -5.572  1.00  0.00    -0.200 F 
ATOM     71  C   UNL     1       7.760  13.644  -3.633  1.00  0.00     0.200 A 
ATOM     72  F   UNL     1       9.060  13.765  -1.667  1.00  0.00    -0.200 F 
ATOM     73  F   UNL     1       8.855  13.818  -4.385  1.00  0.00    -0.200 F 
ENDBRANCH  49  63
BRANCH  50  74
ATOM     74  C   UNL     1      -2.447  11.341   3.729  1.00  0.00     0.064 A 
ATOM     75  C   UNL     1      -3.691  11.945   3.495  1.00  0.00     0.173 A 
ATOM     76  C   UNL     1      -2.340  10.473   4.825  1.00  0.00     0.173 A 
ATOM     77  F   UNL     1      -3.837  12.798   2.470  1.00  0.00    -0.203 F 
ATOM     78  C   UNL     1      -4.777  11.708   4.334  1.00  0.00     0.198 A 
ATOM     79  C   UNL     1      -3.434  10.216   5.649  1.00  0.00     0.198 A 
ATOM     80  F   UNL     1      -1.174   9.865   5.088  1.00  0.00    -0.203 F 
ATOM     81  F   UNL     1      -5.941  12.333   4.113  1.00  0.00    -0.200 F 
ATOM     82  C   UNL     1      -4.649  10.839   5.408  1.00  0.00     0.200 A 
ATOM     83  F   UNL     1      -3.311   9.366   6.677  1.00  0.00    -0.200 F 
ATOM     84  F   UNL     1      -5.695  10.610   6.214  1.00  0.00    -0.200 F 
ENDBRANCH  50  74
BRANCH  62  85
ATOM     85  C   UNL     1       1.453  16.999   2.611  1.00  0.00     0.064 A 
ATOM     86  C   UNL     1       1.847  17.281   3.927  1.00  0.00     0.173 A 
ATOM     87  C   UNL     1       1.041  18.069   1.802  1.00  0.00     0.173 A 
ATOM     88  F   UNL     1       2.234  16.289   4.743  1.00  0.00    -0.203 F 
ATOM     89  C   UNL     1       1.810  18.582   4.420  1.00  0.00     0.198 A 
ATOM     90  C   UNL     1       1.032  19.372   2.290  1.00  0.00     0.198 A 
ATOM     91  F   UNL     1       0.660  17.851   0.535  1.00  0.00    -0.203 F 
ATOM     92  F   UNL     1       2.151  18.823   5.694  1.00  0.00    -0.200 F 
ATOM     93  C   UNL     1       1.410  19.627   3.600  1.00  0.00     0.200 A 
ATOM     94  F   UNL     1       0.656  20.382   1.493  1.00  0.00    -0.200 F 
ATOM     95  F   UNL     1       1.382  20.880   4.075  1.00  0.00    -0.200 F 
ENDBRANCH  62  85
ENDBRANCH  36  37
ENDBRANCH  28  31
ENDBRANCH  26  27
ENDBRANCH   1  26
TORSDOF 13
