REMARK SMILES Cn1c(=O)c2c(nc(Nc3cccc(Cl)c3Cl)n2CC(=O)NCCCNC(=O)c2ccc(-c3c4nc(c(-c5c(F)c(F)c(F)c(F)c5F)c5ccc([nH]5)c(-c5c(F)c(F)c(F)c(F)c5F)c5nc(c(-c6c(F)c(F)c(F)c(F)c6F)c6ccc3[nH]6)C=C5)C=C4)cc2)n(C)c1=O
REMARK SMILES IDX 23 1 22 2 20 3 21 4 19 6 18 7 1 8 2 9 3 10 94 11 4 12 5 13
REMARK SMILES IDX 92 14 95 15 6 16 93 17 7 18 8 19 9 20 10 22 11 23 16 24
REMARK SMILES IDX 12 25 14 26 17 27 13 28 15 29 24 30 25 31 26 32 27 33 28 35
REMARK SMILES IDX 29 36 30 37 91 38 31 39 90 40 32 41 33 42 34 43 84 44 35 45
REMARK SMILES IDX 89 46 83 47 85 48 36 49 88 50 82 51 81 52 37 54 69 55 49 56
REMARK SMILES IDX 68 57 50 58 53 59 67 60 86 61 51 62 52 63 66 65 87 66 54 67
REMARK SMILES IDX 38 68 39 69 47 70 40 71 41 72 45 73 48 74 42 75 43 76 46 77
REMARK SMILES IDX 44 78 70 79 71 80 79 81 72 82 73 83 77 84 80 85 74 86 75 87
REMARK SMILES IDX 78 88 76 89 55 90 56 91 64 92 57 93 58 94 62 95 65 96 59 97
REMARK SMILES IDX 60 98 63 99 61 100
REMARK H PARENT 22 5 9 21 26 34 85 53 53 64
REMARK Flexibility Score: inf
ROOT
ATOM      1  C   UNL     1      -3.822   2.406  -4.898  1.00  0.00     0.117 C 
ENDROOT
BRANCH   1   2
ATOM      2  N   UNL     1      -3.259   3.275  -3.892  1.00  0.00    -0.354 N 
ATOM      3  C   UNL     1      -1.942   3.588  -3.721  1.00  0.00     0.240 C 
ATOM      4  O   UNL     1      -1.664   4.447  -2.885  1.00  0.00    -0.273 OA
ATOM      5  H   UNL     1      -3.893   3.686  -3.262  1.00  0.00     0.163 HD
BRANCH   3   6
ATOM      6  C   UNL     1      -0.917   3.005  -4.670  1.00  0.00     0.226 C 
BRANCH   6   7
ATOM      7  N   UNL     1      -0.780   1.551  -4.681  1.00  0.00    -0.295 N 
ATOM      8  C   UNL     1       0.909   0.198  -0.142  1.00  0.00     0.159 C 
ATOM      9  N   UNL     1       0.444  -0.004  -1.506  1.00  0.00    -0.261 N 
ATOM     10  C   UNL     1       0.102   1.118  -2.279  1.00  0.00     0.282 A 
ATOM     11  C   UNL     1       0.419  -1.336  -1.950  1.00  0.00     0.332 A 
ATOM     12  O   UNL     1       0.167   2.269  -1.863  1.00  0.00    -0.267 OA
ATOM     13  C   UNL     1      -0.332   0.791  -3.606  1.00  0.00     0.154 A 
ATOM     14  N   UNL     1      -0.014  -1.562  -3.251  1.00  0.00    -0.279 N 
ATOM     15  O   UNL     1       0.764  -2.264  -1.212  1.00  0.00    -0.247 OA
ATOM     16  C   UNL     1      -0.374  -0.497  -4.042  1.00  0.00     0.170 A 
ATOM     17  C   UNL     1      -0.070  -2.916  -3.769  1.00  0.00     0.157 C 
ATOM     18  N   UNL     1      -0.821  -0.590  -5.316  1.00  0.00    -0.194 NA
ATOM     19  C   UNL     1      -1.032   0.646  -5.730  1.00  0.00     0.210 A 
BRANCH  19  20
ATOM     20  N   UNL     1      -1.552   0.865  -6.970  1.00  0.00    -0.324 N 
ATOM     21  H   UNL     1      -1.889   0.042  -7.394  1.00  0.00     0.170 HD
BRANCH  20  22
ATOM     22  C   UNL     1      -1.717   2.010  -7.783  1.00  0.00     0.061 A 
ATOM     23  C   UNL     1      -2.987   2.221  -8.372  1.00  0.00     0.028 A 
ATOM     24  C   UNL     1      -0.713   2.969  -8.009  1.00  0.00     0.083 A 
ATOM     25  C   UNL     1      -3.287   3.409  -9.045  1.00  0.00     0.004 A 
ATOM     26  C   UNL     1      -1.032   4.177  -8.651  1.00  0.00     0.061 A 
ATOM     27  Cl  UNL     1       0.920   2.641  -7.511  1.00  0.00    -0.080 Cl
ATOM     28  C   UNL     1      -2.317   4.400  -9.153  1.00  0.00     0.022 A 
ATOM     29  Cl  UNL     1       0.113   5.463  -8.806  1.00  0.00    -0.083 Cl
ENDBRANCH  20  22
ENDBRANCH  19  20
ENDBRANCH   6   7
ENDBRANCH   3   6
ENDBRANCH   1   2
BRANCH   1  30
ATOM     30  C   UNL     1      -4.179   1.056  -4.328  1.00  0.00     0.042 C 
BRANCH  30  31
ATOM     31  C   UNL     1      -5.330   1.222  -3.390  1.00  0.00     0.118 C 
BRANCH  31  32
ATOM     32  N   UNL     1      -6.554   1.628  -4.075  1.00  0.00    -0.352 N 
ATOM     33  C   UNL     1      -7.839   1.098  -3.885  1.00  0.00     0.251 C 
ATOM     34  H   UNL     1      -6.469   2.349  -4.740  1.00  0.00     0.163 HD
ATOM     35  O   UNL     1      -8.713   1.276  -4.650  1.00  0.00    -0.269 OA
BRANCH  33  36
ATOM     36  C   UNL     1      -8.044   0.484  -2.537  1.00  0.00     0.039 A 
ATOM     37  C   UNL     1      -9.027  -0.399  -2.123  1.00  0.00     0.014 A 
ATOM     38  C   UNL     1      -7.292   1.043  -1.524  1.00  0.00     0.014 A 
ATOM     39  C   UNL     1      -9.266  -0.420  -0.677  1.00  0.00     0.010 A 
ATOM     40  C   UNL     1      -7.259   0.434  -0.329  1.00  0.00     0.010 A 
ATOM     41  C   UNL     1      -8.497   0.453   0.220  1.00  0.00    -0.014 A 
BRANCH  41  42
ATOM     42  C   UNL     1      -8.240   0.614   1.827  1.00  0.00     0.031 A 
ATOM     43  C   UNL     1      -7.837  -1.083   1.988  1.00  0.00     0.074 A 
ATOM     44  C   UNL     1      -8.217   1.833   2.795  1.00  0.00     0.049 A 
ATOM     45  N   UNL     1      -8.754  -2.005   2.159  1.00  0.00    -0.248 NA
ATOM     46  C   UNL     1      -6.642  -1.919   1.387  1.00  0.00     0.031 C 
ATOM     47  C   UNL     1      -8.415   3.468   2.810  1.00  0.00     0.029 A 
ATOM     48  N   UNL     1      -8.067   1.896   4.245  1.00  0.00    -0.354 N 
ATOM     49  C   UNL     1      -8.056  -3.179   2.482  1.00  0.00     0.074 A 
ATOM     50  C   UNL     1      -6.883  -3.199   1.719  1.00  0.00     0.031 C 
ATOM     51  C   UNL     1      -7.945   4.114   3.966  1.00  0.00     0.029 A 
ATOM     52  C   UNL     1      -7.587   3.128   4.957  1.00  0.00     0.049 A 
ATOM     53  H   UNL     1      -8.290   1.099   4.778  1.00  0.00     0.167 HD
ATOM     54  C   UNL     1      -8.221  -3.709   3.714  1.00  0.00     0.037 A 
ATOM     55  C   UNL     1      -7.260   3.326   6.329  1.00  0.00     0.037 A 
ATOM     56  C   UNL     1      -9.387  -3.090   4.272  1.00  0.00     0.049 A 
ATOM     57  C   UNL     1      -7.655   2.030   6.945  1.00  0.00     0.074 A 
ATOM     58  C   UNL     1     -10.701  -3.023   3.852  1.00  0.00     0.029 A 
ATOM     59  N   UNL     1      -9.087  -1.889   4.843  1.00  0.00    -0.354 N 
ATOM     60  N   UNL     1      -8.917   1.696   7.031  1.00  0.00    -0.248 NA
ATOM     61  C   UNL     1      -6.672   0.980   6.659  1.00  0.00     0.031 C 
ATOM     62  C   UNL     1     -11.136  -1.690   4.095  1.00  0.00     0.029 A 
ATOM     63  C   UNL     1     -10.150  -1.043   4.825  1.00  0.00     0.049 A 
ATOM     64  H   UNL     1      -8.208  -1.662   5.223  1.00  0.00     0.167 HD
ATOM     65  C   UNL     1      -8.983   0.521   6.304  1.00  0.00     0.074 A 
ATOM     66  C   UNL     1      -7.538   0.112   6.113  1.00  0.00     0.031 C 
ATOM     67  C   UNL     1     -10.082   0.204   5.524  1.00  0.00     0.037 A 
BRANCH  54  68
ATOM     68  C   UNL     1      -7.138  -4.323   4.554  1.00  0.00     0.064 A 
ATOM     69  C   UNL     1      -7.577  -5.123   5.614  1.00  0.00     0.173 A 
ATOM     70  C   UNL     1      -5.746  -4.054   4.511  1.00  0.00     0.173 A 
ATOM     71  F   UNL     1      -8.884  -5.385   5.756  1.00  0.00    -0.203 F 
ATOM     72  C   UNL     1      -6.698  -5.650   6.553  1.00  0.00     0.198 A 
ATOM     73  C   UNL     1      -4.859  -4.619   5.433  1.00  0.00     0.198 A 
ATOM     74  F   UNL     1      -5.204  -3.200   3.631  1.00  0.00    -0.203 F 
ATOM     75  F   UNL     1      -7.182  -6.389   7.559  1.00  0.00    -0.200 F 
ATOM     76  C   UNL     1      -5.339  -5.413   6.456  1.00  0.00     0.200 A 
ATOM     77  F   UNL     1      -3.543  -4.371   5.339  1.00  0.00    -0.200 F 
ATOM     78  F   UNL     1      -4.497  -5.938   7.355  1.00  0.00    -0.200 F 
ENDBRANCH  54  68
BRANCH  55  79
ATOM     79  C   UNL     1      -6.098   4.139   7.014  1.00  0.00     0.064 A 
ATOM     80  C   UNL     1      -5.811   4.420   8.401  1.00  0.00     0.173 A 
ATOM     81  C   UNL     1      -5.000   4.363   6.177  1.00  0.00     0.173 A 
ATOM     82  F   UNL     1      -6.749   4.301   9.357  1.00  0.00    -0.203 F 
ATOM     83  C   UNL     1      -4.512   4.829   8.855  1.00  0.00     0.198 A 
ATOM     84  C   UNL     1      -3.723   4.733   6.625  1.00  0.00     0.198 A 
ATOM     85  F   UNL     1      -5.125   4.130   4.868  1.00  0.00    -0.203 F 
ATOM     86  F   UNL     1      -4.261   5.064  10.158  1.00  0.00    -0.200 F 
ATOM     87  C   UNL     1      -3.464   4.947   7.962  1.00  0.00     0.200 A 
ATOM     88  F   UNL     1      -2.729   4.818   5.732  1.00  0.00    -0.200 F 
ATOM     89  F   UNL     1      -2.217   5.237   8.369  1.00  0.00    -0.200 F 
ENDBRANCH  55  79
BRANCH  67  90
ATOM     90  C   UNL     1     -11.358   1.050   5.469  1.00  0.00     0.064 A 
ATOM     91  C   UNL     1     -11.647   2.166   4.644  1.00  0.00     0.173 A 
ATOM     92  C   UNL     1     -12.460   0.515   6.136  1.00  0.00     0.173 A 
ATOM     93  F   UNL     1     -10.767   2.616   3.748  1.00  0.00    -0.203 F 
ATOM     94  C   UNL     1     -12.905   2.796   4.633  1.00  0.00     0.198 A 
ATOM     95  C   UNL     1     -13.728   1.093   6.072  1.00  0.00     0.198 A 
ATOM     96  F   UNL     1     -12.327  -0.651   6.785  1.00  0.00    -0.203 F 
ATOM     97  F   UNL     1     -13.113   3.897   3.890  1.00  0.00    -0.200 F 
ATOM     98  C   UNL     1     -13.945   2.258   5.360  1.00  0.00     0.200 A 
ATOM     99  F   UNL     1     -14.751   0.488   6.687  1.00  0.00    -0.200 F 
ATOM    100  F   UNL     1     -15.157   2.831   5.346  1.00  0.00    -0.200 F 
ENDBRANCH  67  90
ENDBRANCH  41  42
ENDBRANCH  33  36
ENDBRANCH  31  32
ENDBRANCH  30  31
ENDBRANCH   1  30
TORSDOF 13
