REMARK SMILES O=C(NCCCNC(=O)c1ccccc1Nc1nc(Cl)nc(Nc2ccc(N3CCOCC3=O)cc2)n1)c1ccc(-c2c3nc(c(-c4c(F)c(F)c(F)c(F)c4F)c4ccc([nH]4)c(-c4c(F)c(F)c(F)c(F)c4F)c4nc(c(-c5c(F)c(F)c(F)c(F)c5F)c5ccc2[nH]5)C=C4)C=C3)cc1
REMARK SMILES IDX 7 1 8 2 9 3 6 5 5 6 4 7 3 8 1 9 2 10 38 12 39 13 100 14
REMARK SMILES IDX 40 15 99 16 41 17 42 18 43 19 93 20 44 21 98 22 92 23 94 24
REMARK SMILES IDX 45 25 97 26 91 27 90 28 46 30 78 31 58 32 77 33 59 34 62 35
REMARK SMILES IDX 76 36 95 37 60 38 61 39 75 41 96 42 63 43 47 44 48 45 56 46
REMARK SMILES IDX 49 47 50 48 54 49 57 50 51 51 52 52 55 53 53 54 79 55 80 56
REMARK SMILES IDX 88 57 81 58 82 59 86 60 89 61 83 62 84 63 87 64 85 65 64 66
REMARK SMILES IDX 65 67 73 68 66 69 67 70 71 71 74 72 68 73 69 74 72 75 70 76
REMARK SMILES IDX 10 77 11 78 15 79 12 80 14 81 13 82 16 83 17 85 18 86 37 87
REMARK SMILES IDX 19 88 22 89 20 90 21 91 23 92 24 94 25 95 36 96 26 97 35 98
REMARK SMILES IDX 27 99 28 100 29 101 33 102 30 103 32 104 34 105 31 106
REMARK H PARENT 7 4 3 11 94 29 62 40 16 84 23 93
REMARK Flexibility Score: inf
ROOT
ATOM      1  N   UNL     1       5.048  -2.238  -3.803  1.00  0.00    -0.352 N 
ATOM      2  C   UNL     1       5.803  -2.798  -4.802  1.00  0.00     0.253 C 
ATOM      3  O   UNL     1       6.143  -2.112  -5.762  1.00  0.00    -0.269 OA
ATOM      4  H   UNL     1       4.753  -1.314  -3.970  1.00  0.00     0.163 HD
ENDROOT
BRANCH   1   5
ATOM      5  C   UNL     1       4.617  -2.804  -2.531  1.00  0.00     0.118 C 
BRANCH   5   6
ATOM      6  C   UNL     1       5.117  -2.014  -1.332  1.00  0.00     0.042 C 
BRANCH   6   7
ATOM      7  C   UNL     1       4.689  -0.554  -1.317  1.00  0.00     0.118 C 
BRANCH   7   8
ATOM      8  N   UNL     1       3.252  -0.369  -1.154  1.00  0.00    -0.352 N 
ATOM      9  O   UNL     1       1.292   0.048  -0.127  1.00  0.00    -0.269 OA
ATOM     10  C   UNL     1       2.518   0.108  -0.093  1.00  0.00     0.251 C 
ATOM     11  H   UNL     1       2.715  -0.631  -1.936  1.00  0.00     0.163 HD
BRANCH  10  12
ATOM     12  C   UNL     1       3.189   0.660   1.106  1.00  0.00     0.039 A 
ATOM     13  C   UNL     1       4.312   1.476   0.991  1.00  0.00     0.014 A 
ATOM     14  C   UNL     1       2.677   0.363   2.374  1.00  0.00     0.014 A 
ATOM     15  C   UNL     1       5.041   1.812   2.124  1.00  0.00     0.010 A 
ATOM     16  C   UNL     1       3.345   0.809   3.520  1.00  0.00     0.010 A 
ATOM     17  C   UNL     1       4.564   1.493   3.405  1.00  0.00    -0.014 A 
BRANCH  17  18
ATOM     18  C   UNL     1       5.350   1.921   4.593  1.00  0.00     0.031 A 
ATOM     19  C   UNL     1       5.933   0.916   5.549  1.00  0.00     0.074 A 
ATOM     20  C   UNL     1       5.591   3.235   4.769  1.00  0.00     0.049 A 
ATOM     21  N   UNL     1       6.697   1.119   6.594  1.00  0.00    -0.248 NA
ATOM     22  C   UNL     1       5.612  -0.499   5.313  1.00  0.00     0.031 C 
ATOM     23  C   UNL     1       5.069   4.306   3.916  1.00  0.00     0.029 A 
ATOM     24  N   UNL     1       6.363   3.894   5.691  1.00  0.00    -0.354 N 
ATOM     25  C   UNL     1       6.920  -0.132   7.155  1.00  0.00     0.074 A 
ATOM     26  C   UNL     1       6.195  -1.089   6.348  1.00  0.00     0.031 C 
ATOM     27  C   UNL     1       5.596   5.475   4.306  1.00  0.00     0.029 A 
ATOM     28  C   UNL     1       6.435   5.249   5.477  1.00  0.00     0.049 A 
ATOM     29  H   UNL     1       6.821   3.440   6.435  1.00  0.00     0.167 HD
ATOM     30  C   UNL     1       7.667  -0.451   8.240  1.00  0.00     0.037 A 
ATOM     31  C   UNL     1       7.098   6.206   6.149  1.00  0.00     0.037 A 
ATOM     32  C   UNL     1       8.417   0.500   9.020  1.00  0.00     0.049 A 
ATOM     33  C   UNL     1       7.918   5.822   7.346  1.00  0.00     0.074 A 
ATOM     34  C   UNL     1       9.244   0.267  10.106  1.00  0.00     0.029 A 
ATOM     35  N   UNL     1       8.431   1.869   8.796  1.00  0.00    -0.354 N 
ATOM     36  N   UNL     1       8.146   4.631   7.844  1.00  0.00    -0.248 NA
ATOM     37  C   UNL     1       8.567   6.917   8.078  1.00  0.00     0.031 C 
ATOM     38  C   UNL     1       9.723   1.498  10.566  1.00  0.00     0.029 A 
ATOM     39  C   UNL     1       9.233   2.495   9.738  1.00  0.00     0.049 A 
ATOM     40  H   UNL     1       7.943   2.329   8.075  1.00  0.00     0.167 HD
ATOM     41  C   UNL     1       8.974   4.830   8.938  1.00  0.00     0.074 A 
ATOM     42  C   UNL     1       9.228   6.254   9.017  1.00  0.00     0.031 C 
ATOM     43  C   UNL     1       9.476   3.914   9.802  1.00  0.00     0.037 A 
BRANCH  30  44
ATOM     44  C   UNL     1       7.695  -1.891   8.668  1.00  0.00     0.064 A 
ATOM     45  C   UNL     1       8.385  -2.869   7.936  1.00  0.00     0.173 A 
ATOM     46  C   UNL     1       7.057  -2.289   9.854  1.00  0.00     0.173 A 
ATOM     47  F   UNL     1       9.003  -2.544   6.791  1.00  0.00    -0.203 F 
ATOM     48  C   UNL     1       8.414  -4.195   8.361  1.00  0.00     0.198 A 
ATOM     49  C   UNL     1       7.111  -3.610  10.290  1.00  0.00     0.198 A 
ATOM     50  F   UNL     1       6.390  -1.393  10.596  1.00  0.00    -0.203 F 
ATOM     51  F   UNL     1       9.044  -5.120   7.624  1.00  0.00    -0.200 F 
ATOM     52  C   UNL     1       7.783  -4.564   9.540  1.00  0.00     0.200 A 
ATOM     53  F   UNL     1       6.511  -3.961  11.436  1.00  0.00    -0.200 F 
ATOM     54  F   UNL     1       7.817  -5.839   9.951  1.00  0.00    -0.200 F 
ENDBRANCH  30  44
BRANCH  31  55
ATOM     55  C   UNL     1       7.019   7.617   5.693  1.00  0.00     0.064 A 
ATOM     56  C   UNL     1       8.135   8.257   5.138  1.00  0.00     0.173 A 
ATOM     57  C   UNL     1       5.824   8.347   5.783  1.00  0.00     0.173 A 
ATOM     58  F   UNL     1       9.305   7.607   5.049  1.00  0.00    -0.203 F 
ATOM     59  C   UNL     1       8.062   9.578   4.699  1.00  0.00     0.198 A 
ATOM     60  C   UNL     1       5.744   9.656   5.316  1.00  0.00     0.198 A 
ATOM     61  F   UNL     1       4.727   7.777   6.301  1.00  0.00    -0.203 F 
ATOM     62  F   UNL     1       9.153  10.178   4.205  1.00  0.00    -0.200 F 
ATOM     63  C   UNL     1       6.865  10.273   4.781  1.00  0.00     0.200 A 
ATOM     64  F   UNL     1       4.581  10.318   5.382  1.00  0.00    -0.200 F 
ATOM     65  F   UNL     1       6.792  11.539   4.348  1.00  0.00    -0.200 F 
ENDBRANCH  31  55
BRANCH  43  66
ATOM     66  C   UNL     1      10.371   4.428  10.890  1.00  0.00     0.064 A 
ATOM     67  C   UNL     1       9.863   5.155  11.976  1.00  0.00     0.173 A 
ATOM     68  C   UNL     1      11.751   4.179  10.851  1.00  0.00     0.173 A 
ATOM     69  F   UNL     1       8.553   5.435  12.048  1.00  0.00    -0.203 F 
ATOM     70  C   UNL     1      10.709   5.641  12.969  1.00  0.00     0.198 A 
ATOM     71  C   UNL     1      12.590   4.642  11.860  1.00  0.00     0.198 A 
ATOM     72  F   UNL     1      12.284   3.485   9.835  1.00  0.00    -0.203 F 
ATOM     73  F   UNL     1      10.210   6.379  13.970  1.00  0.00    -0.200 F 
ATOM     74  C   UNL     1      12.070   5.380  12.913  1.00  0.00     0.200 A 
ATOM     75  F   UNL     1      13.903   4.381  11.810  1.00  0.00    -0.200 F 
ATOM     76  F   UNL     1      12.883   5.849  13.870  1.00  0.00    -0.200 F 
ENDBRANCH  43  66
ENDBRANCH  17  18
ENDBRANCH  10  12
ENDBRANCH   7   8
ENDBRANCH   6   7
ENDBRANCH   5   6
ENDBRANCH   1   5
BRANCH   2  77
ATOM     77  C   UNL     1       6.231  -4.210  -4.726  1.00  0.00     0.063 A 
ATOM     78  C   UNL     1       7.609  -4.455  -4.841  1.00  0.00     0.016 A 
ATOM     79  C   UNL     1       5.319  -5.271  -4.572  1.00  0.00     0.054 A 
ATOM     80  C   UNL     1       8.098  -5.755  -4.739  1.00  0.00     0.001 A 
ATOM     81  C   UNL     1       5.844  -6.564  -4.416  1.00  0.00     0.027 A 
ATOM     82  C   UNL     1       7.217  -6.806  -4.509  1.00  0.00     0.002 A 
BRANCH  79  83
ATOM     83  N   UNL     1       3.932  -5.058  -4.554  1.00  0.00    -0.323 N 
ATOM     84  H   UNL     1       3.618  -4.318  -5.122  1.00  0.00     0.170 HD
BRANCH  83  85
ATOM     85  C   UNL     1       2.933  -5.728  -3.858  1.00  0.00     0.233 A 
ATOM     86  N   UNL     1       3.218  -6.324  -2.712  1.00  0.00    -0.182 NA
ATOM     87  N   UNL     1       1.720  -5.693  -4.397  1.00  0.00    -0.176 NA
ATOM     88  C   UNL     1       2.173  -6.884  -2.131  1.00  0.00     0.228 A 
ATOM     89  C   UNL     1       0.764  -6.358  -3.756  1.00  0.00     0.233 A 
ATOM     90  Cl  UNL     1       2.469  -7.648  -0.632  1.00  0.00    -0.041 Cl
ATOM     91  N   UNL     1       0.936  -6.949  -2.585  1.00  0.00    -0.182 NA
BRANCH  89  92
ATOM     92  N   UNL     1      -0.428  -6.516  -4.458  1.00  0.00    -0.324 N 
ATOM     93  H   UNL     1      -0.497  -6.015  -5.303  1.00  0.00     0.170 HD
BRANCH  92  94
ATOM     94  C   UNL     1      -1.539  -7.291  -4.119  1.00  0.00     0.041 A 
ATOM     95  C   UNL     1      -1.980  -8.286  -4.997  1.00  0.00     0.028 A 
ATOM     96  C   UNL     1      -2.159  -7.180  -2.873  1.00  0.00     0.028 A 
ATOM     97  C   UNL     1      -3.004  -9.165  -4.628  1.00  0.00     0.028 A 
ATOM     98  C   UNL     1      -3.221  -8.019  -2.525  1.00  0.00     0.028 A 
ATOM     99  C   UNL     1      -3.640  -9.035  -3.390  1.00  0.00     0.044 A 
BRANCH  99 100
ATOM    100  N   UNL     1      -4.654  -9.955  -2.993  1.00  0.00    -0.308 N 
ATOM    101  C   UNL     1      -4.319 -11.383  -3.071  1.00  0.00     0.154 C 
ATOM    102  C   UNL     1      -5.769  -9.527  -2.260  1.00  0.00     0.253 C 
ATOM    103  C   UNL     1      -5.522 -12.298  -2.890  1.00  0.00     0.183 C 
ATOM    104  C   UNL     1      -6.715 -10.639  -1.780  1.00  0.00     0.260 C 
ATOM    105  O   UNL     1      -6.074  -8.347  -2.076  1.00  0.00    -0.272 OA
ATOM    106  O   UNL     1      -6.199 -11.957  -1.684  1.00  0.00    -0.370 OA
ENDBRANCH  99 100
ENDBRANCH  92  94
ENDBRANCH  89  92
ENDBRANCH  83  85
ENDBRANCH  79  83
ENDBRANCH   2  77
TORSDOF 15
