REMARK SMILES O=C(CCNC(=O)N[C@@H]1CCOC1)NCCCNC(=O)c1ccc(-c2c3nc(c(-c4c(F)c(F)c(F)c(F)c4F)c4ccc([nH]4)c(-c4c(F)c(F)c(F)c(F)c4F)c4nc(c(-c5c(F)c(F)c(F)c(F)c5F)c5ccc2[nH]5)C=C4)C=C3)cc1
REMARK SMILES IDX 15 1 14 2 1 3 2 4 3 6 4 7 5 8 6 9 7 11 8 12 9 14 10 15 13 16
REMARK SMILES IDX 11 17 12 18 16 19 17 20 18 21 19 22 20 24 21 25 22 26 83 27
REMARK SMILES IDX 23 28 82 29 24 30 25 31 26 32 76 33 27 34 81 35 75 36 77 37
REMARK SMILES IDX 28 38 80 39 74 40 73 41 29 43 61 44 41 45 60 46 42 47 45 48
REMARK SMILES IDX 59 49 78 50 43 51 44 52 58 54 79 55 46 56 30 57 31 58 39 59
REMARK SMILES IDX 32 60 33 61 37 62 40 63 34 64 35 65 38 66 36 67 62 68 63 69
REMARK SMILES IDX 71 70 64 71 65 72 69 73 72 74 66 75 67 76 70 77 68 78 47 79
REMARK SMILES IDX 48 80 56 81 49 82 50 83 54 84 57 85 51 86 52 87 55 88 53 89
REMARK H PARENT 14 5 5 10 8 13 18 23 77 42 45 53
REMARK Flexibility Score: inf
ROOT
ATOM      1  C   UNL     1       2.021   2.771   0.667  1.00  0.00     0.117 C 
ENDROOT
BRANCH   1   2
ATOM      2  N   UNL     1       2.630   1.563   0.154  1.00  0.00    -0.356 N 
ATOM      3  O   UNL     1       0.677   0.571  -0.534  1.00  0.00    -0.275 OA
ATOM      4  C   UNL     1       1.897   0.562  -0.433  1.00  0.00     0.221 C 
ATOM      5  H   UNL     1       3.606   1.454   0.229  1.00  0.00     0.163 HD
BRANCH   4   6
ATOM      6  C   UNL     1       2.731  -0.603  -0.897  1.00  0.00     0.121 C 
BRANCH   6   7
ATOM      7  C   UNL     1       3.676  -0.265  -2.051  1.00  0.00     0.127 C 
BRANCH   7   8
ATOM      8  N   UNL     1       4.972   0.216  -1.609  1.00  0.00    -0.338 N 
ATOM      9  C   UNL     1       6.188  -0.308  -1.493  1.00  0.00     0.315 C 
ATOM     10  H   UNL     1       4.944   1.159  -1.326  1.00  0.00     0.165 HD
ATOM     11  O   UNL     1       7.106   0.492  -1.279  1.00  0.00    -0.249 OA
ATOM     12  N   UNL     1       6.525  -1.587  -1.566  1.00  0.00    -0.333 N 
ATOM     13  H   UNL     1       7.503  -1.658  -1.475  1.00  0.00     0.165 HD
BRANCH  12  14
ATOM     14  C   UNL     1       5.970  -2.945  -1.735  1.00  0.00     0.112 C 
ATOM     15  C   UNL     1       4.686  -3.273  -1.018  1.00  0.00     0.056 C 
ATOM     16  C   UNL     1       6.870  -3.931  -0.959  1.00  0.00     0.185 C 
ATOM     17  C   UNL     1       5.129  -3.260   0.424  1.00  0.00     0.162 C 
ATOM     18  O   UNL     1       6.420  -3.891   0.417  1.00  0.00    -0.379 OA
ENDBRANCH  12  14
ENDBRANCH   7   8
ENDBRANCH   6   7
ENDBRANCH   4   6
ENDBRANCH   1   2
BRANCH   1  19
ATOM     19  C   UNL     1       2.493   3.100   2.076  1.00  0.00     0.042 C 
BRANCH  19  20
ATOM     20  C   UNL     1       4.006   3.228   2.220  1.00  0.00     0.118 C 
BRANCH  20  21
ATOM     21  N   UNL     1       4.577   4.243   1.347  1.00  0.00    -0.352 N 
ATOM     22  C   UNL     1       5.262   5.393   1.653  1.00  0.00     0.251 C 
ATOM     23  H   UNL     1       4.453   4.078   0.385  1.00  0.00     0.163 HD
ATOM     24  O   UNL     1       5.505   6.209   0.772  1.00  0.00    -0.269 OA
BRANCH  22  25
ATOM     25  C   UNL     1       5.677   5.666   3.045  1.00  0.00     0.039 A 
ATOM     26  C   UNL     1       5.519   6.959   3.549  1.00  0.00     0.014 A 
ATOM     27  C   UNL     1       6.228   4.665   3.849  1.00  0.00     0.014 A 
ATOM     28  C   UNL     1       5.850   7.230   4.878  1.00  0.00     0.010 A 
ATOM     29  C   UNL     1       6.470   4.913   5.197  1.00  0.00     0.010 A 
ATOM     30  C   UNL     1       6.290   6.200   5.725  1.00  0.00    -0.014 A 
BRANCH  30  31
ATOM     31  C   UNL     1       6.566   6.456   7.162  1.00  0.00     0.031 A 
ATOM     32  C   UNL     1       7.950   6.263   7.717  1.00  0.00     0.074 A 
ATOM     33  C   UNL     1       5.557   6.815   7.980  1.00  0.00     0.049 A 
ATOM     34  N   UNL     1       8.376   6.397   8.948  1.00  0.00    -0.248 NA
ATOM     35  C   UNL     1       8.991   5.837   6.768  1.00  0.00     0.031 C 
ATOM     36  C   UNL     1       4.160   6.987   7.575  1.00  0.00     0.029 A 
ATOM     37  N   UNL     1       5.548   7.096   9.324  1.00  0.00    -0.354 N 
ATOM     38  C   UNL     1       9.724   6.063   8.921  1.00  0.00     0.074 A 
ATOM     39  C   UNL     1      10.032   5.660   7.567  1.00  0.00     0.031 C 
ATOM     40  C   UNL     1       3.438   7.372   8.638  1.00  0.00     0.029 A 
ATOM     41  C   UNL     1       4.308   7.433   9.809  1.00  0.00     0.049 A 
ATOM     42  H   UNL     1       6.355   7.058   9.887  1.00  0.00     0.167 HD
ATOM     43  C   UNL     1      10.628   6.113   9.928  1.00  0.00     0.037 A 
ATOM     44  C   UNL     1       3.915   7.749  11.057  1.00  0.00     0.037 A 
ATOM     45  C   UNL     1      10.321   6.530  11.272  1.00  0.00     0.049 A 
ATOM     46  C   UNL     1       4.938   7.782  12.161  1.00  0.00     0.074 A 
ATOM     47  C   UNL     1      11.178   6.665  12.351  1.00  0.00     0.029 A 
ATOM     48  N   UNL     1       9.055   6.873  11.723  1.00  0.00    -0.354 N 
ATOM     49  N   UNL     1       6.224   7.535  12.108  1.00  0.00    -0.248 NA
ATOM     50  C   UNL     1       4.454   8.150  13.498  1.00  0.00     0.031 C 
ATOM     51  C   UNL     1      10.421   7.034  13.467  1.00  0.00     0.029 A 
ATOM     52  C   UNL     1       9.104   7.195  13.071  1.00  0.00     0.049 A 
ATOM     53  H   UNL     1       8.242   6.887  11.168  1.00  0.00     0.167 HD
ATOM     54  C   UNL     1       6.708   7.749  13.392  1.00  0.00     0.074 A 
ATOM     55  C   UNL     1       5.579   8.164  14.198  1.00  0.00     0.031 C 
ATOM     56  C   UNL     1       7.973   7.614  13.861  1.00  0.00     0.037 A 
BRANCH  43  57
ATOM     57  C   UNL     1      12.041   5.705   9.615  1.00  0.00     0.064 A 
ATOM     58  C   UNL     1      12.861   6.473   8.774  1.00  0.00     0.173 A 
ATOM     59  C   UNL     1      12.593   4.551  10.191  1.00  0.00     0.173 A 
ATOM     60  F   UNL     1      12.381   7.580   8.188  1.00  0.00    -0.203 F 
ATOM     61  C   UNL     1      14.169   6.084   8.496  1.00  0.00     0.198 A 
ATOM     62  C   UNL     1      13.913   4.184   9.939  1.00  0.00     0.198 A 
ATOM     63  F   UNL     1      11.857   3.783  11.008  1.00  0.00    -0.203 F 
ATOM     64  F   UNL     1      14.915   6.804   7.647  1.00  0.00    -0.200 F 
ATOM     65  C   UNL     1      14.697   4.945   9.085  1.00  0.00     0.200 A 
ATOM     66  F   UNL     1      14.426   3.092  10.522  1.00  0.00    -0.200 F 
ATOM     67  F   UNL     1      15.959   4.577   8.825  1.00  0.00    -0.200 F 
ENDBRANCH  43  57
BRANCH  44  68
ATOM     68  C   UNL     1       2.491   8.082  11.329  1.00  0.00     0.064 A 
ATOM     69  C   UNL     1       2.111   9.382  11.693  1.00  0.00     0.173 A 
ATOM     70  C   UNL     1       1.484   7.109  11.244  1.00  0.00     0.173 A 
ATOM     71  F   UNL     1       3.040  10.343  11.808  1.00  0.00    -0.203 F 
ATOM     72  C   UNL     1       0.785   9.688  11.989  1.00  0.00     0.198 A 
ATOM     73  C   UNL     1       0.153   7.425  11.508  1.00  0.00     0.198 A 
ATOM     74  F   UNL     1       1.792   5.852  10.894  1.00  0.00    -0.203 F 
ATOM     75  F   UNL     1       0.459  10.925  12.389  1.00  0.00    -0.200 F 
ATOM     76  C   UNL     1      -0.194   8.711  11.891  1.00  0.00     0.200 A 
ATOM     77  F   UNL     1      -0.792   6.482  11.395  1.00  0.00    -0.200 F 
ATOM     78  F   UNL     1      -1.470   9.007  12.173  1.00  0.00    -0.200 F 
ENDBRANCH  44  68
BRANCH  56  79
ATOM     79  C   UNL     1       8.213   7.963  15.303  1.00  0.00     0.064 A 
ATOM     80  C   UNL     1       7.710   7.178  16.351  1.00  0.00     0.173 A 
ATOM     81  C   UNL     1       8.980   9.090  15.640  1.00  0.00     0.173 A 
ATOM     82  F   UNL     1       6.960   6.098  16.085  1.00  0.00    -0.203 F 
ATOM     83  C   UNL     1       7.933   7.529  17.680  1.00  0.00     0.198 A 
ATOM     84  C   UNL     1       9.232   9.417  16.969  1.00  0.00     0.198 A 
ATOM     85  F   UNL     1       9.493   9.872  14.678  1.00  0.00    -0.203 F 
ATOM     86  F   UNL     1       7.389   6.798  18.663  1.00  0.00    -0.200 F 
ATOM     87  C   UNL     1       8.699   8.643  17.988  1.00  0.00     0.200 A 
ATOM     88  F   UNL     1       9.988  10.484  17.264  1.00  0.00    -0.200 F 
ATOM     89  F   UNL     1       8.916   8.976  19.268  1.00  0.00    -0.200 F 
ENDBRANCH  56  79
ENDBRANCH  30  31
ENDBRANCH  22  25
ENDBRANCH  20  21
ENDBRANCH  19  20
ENDBRANCH   1  19
TORSDOF 13
