REMARK SMILES O=C(Cc1cccn(C(F)F)c1=O)NCCCNC(=O)c1ccc(-c2c3nc(c(-c4c(F)c(F)c(F)c(F)c4F)c4ccc([nH]4)c(-c4c(F)c(F)c(F)c(F)c4F)c4nc(c(-c5c(F)c(F)c(F)c(F)c5F)c5ccc2[nH]5)C=C4)C=C3)cc1
REMARK SMILES IDX 16 1 15 2 14 3 1 4 2 5 3 7 4 8 5 9 12 10 6 11 8 12 13 13
REMARK SMILES IDX 7 14 9 15 10 16 11 17 17 18 18 19 19 20 20 22 21 23 22 24
REMARK SMILES IDX 83 25 23 26 82 27 24 28 25 29 26 30 76 31 27 32 81 33 75 34
REMARK SMILES IDX 77 35 28 36 80 37 74 38 73 39 29 41 61 42 41 43 60 44 42 45
REMARK SMILES IDX 45 46 59 47 78 48 43 49 44 50 58 52 79 53 46 54 30 55 31 56
REMARK SMILES IDX 39 57 32 58 33 59 37 60 40 61 34 62 35 63 38 64 36 65 62 66
REMARK SMILES IDX 63 67 71 68 64 69 65 70 69 71 72 72 66 73 67 74 70 75 68 76
REMARK SMILES IDX 47 77 48 78 56 79 49 80 50 81 54 82 57 83 51 84 52 85 55 86
REMARK SMILES IDX 53 87
REMARK H PARENT 14 6 18 21 77 40 45 51
REMARK Flexibility Score: inf
ROOT
ATOM      1  C   UNL     1       2.367  -0.492   3.352  1.00  0.00     0.042 C 
ENDROOT
BRANCH   1   2
ATOM      2  C   UNL     1       2.116   0.591   2.313  1.00  0.00     0.117 C 
BRANCH   2   3
ATOM      3  N   UNL     1       2.755   0.300   1.046  1.00  0.00    -0.356 N 
ATOM      4  O   UNL     1       0.815   0.057  -0.163  1.00  0.00    -0.275 OA
ATOM      5  C   UNL     1       2.041   0.098  -0.116  1.00  0.00     0.224 C 
ATOM      6  H   UNL     1       3.737   0.246   1.014  1.00  0.00     0.163 HD
BRANCH   5   7
ATOM      7  C   UNL     1       2.901  -0.070  -1.359  1.00  0.00     0.141 C 
BRANCH   7   8
ATOM      8  C   UNL     1       3.740   1.156  -1.598  1.00  0.00     0.027 A 
ATOM      9  C   UNL     1       3.241   2.403  -1.672  1.00  0.00     0.011 A 
ATOM     10  C   UNL     1       5.224   0.963  -1.729  1.00  0.00     0.258 A 
ATOM     11  C   UNL     1       4.098   3.543  -1.867  1.00  0.00     0.019 A 
ATOM     12  N   UNL     1       5.971   2.102  -1.971  1.00  0.00    -0.258 N 
ATOM     13  O   UNL     1       5.712  -0.157  -1.604  1.00  0.00    -0.269 OA
ATOM     14  C   UNL     1       5.415   3.366  -2.019  1.00  0.00     0.095 A 
BRANCH  12  15
ATOM     15  C   UNL     1       7.393   1.950  -2.149  1.00  0.00     0.451 C 
ATOM     16  F   UNL     1       7.776   2.560  -3.303  1.00  0.00    -0.185 F 
ATOM     17  F   UNL     1       8.046   2.592  -1.145  1.00  0.00    -0.185 F 
ENDBRANCH  12  15
ENDBRANCH   7   8
ENDBRANCH   5   7
ENDBRANCH   2   3
ENDBRANCH   1   2
BRANCH   1  18
ATOM     18  C   UNL     1       3.835  -0.701   3.708  1.00  0.00     0.118 C 
BRANCH  18  19
ATOM     19  N   UNL     1       4.454   0.455   4.344  1.00  0.00    -0.352 N 
ATOM     20  C   UNL     1       5.141   0.559   5.530  1.00  0.00     0.251 C 
ATOM     21  H   UNL     1       4.365   1.298   3.844  1.00  0.00     0.163 HD
ATOM     22  O   UNL     1       5.487   1.667   5.934  1.00  0.00    -0.269 OA
BRANCH  20  23
ATOM     23  C   UNL     1       5.433  -0.640   6.348  1.00  0.00     0.039 A 
ATOM     24  C   UNL     1       5.852  -1.837   5.767  1.00  0.00     0.014 A 
ATOM     25  C   UNL     1       5.282  -0.560   7.737  1.00  0.00     0.014 A 
ATOM     26  C   UNL     1       5.938  -2.991   6.542  1.00  0.00     0.010 A 
ATOM     27  C   UNL     1       5.456  -1.701   8.528  1.00  0.00     0.010 A 
ATOM     28  C   UNL     1       5.729  -2.940   7.929  1.00  0.00    -0.014 A 
BRANCH  28  29
ATOM     29  C   UNL     1       5.773  -4.194   8.729  1.00  0.00     0.031 A 
ATOM     30  C   UNL     1       4.537  -4.707   9.418  1.00  0.00     0.074 A 
ATOM     31  C   UNL     1       6.916  -4.905   8.788  1.00  0.00     0.049 A 
ATOM     32  N   UNL     1       4.381  -5.790  10.140  1.00  0.00    -0.248 NA
ATOM     33  C   UNL     1       3.313  -3.901   9.286  1.00  0.00     0.031 C 
ATOM     34  C   UNL     1       8.178  -4.523   8.155  1.00  0.00     0.029 A 
ATOM     35  N   UNL     1       7.195  -6.108   9.388  1.00  0.00    -0.354 N 
ATOM     36  C   UNL     1       3.056  -5.787  10.554  1.00  0.00     0.074 A 
ATOM     37  C   UNL     1       2.455  -4.577  10.036  1.00  0.00     0.031 C 
ATOM     38  C   UNL     1       9.081  -5.495   8.355  1.00  0.00     0.029 A 
ATOM     39  C   UNL     1       8.481  -6.541   9.178  1.00  0.00     0.049 A 
ATOM     40  H   UNL     1       6.536  -6.612   9.918  1.00  0.00     0.167 HD
ATOM     41  C   UNL     1       2.394  -6.716  11.284  1.00  0.00     0.037 A 
ATOM     42  C   UNL     1       9.112  -7.651   9.607  1.00  0.00     0.037 A 
ATOM     43  C   UNL     1       2.982  -7.934  11.779  1.00  0.00     0.049 A 
ATOM     44  C   UNL     1       8.367  -8.642  10.456  1.00  0.00     0.074 A 
ATOM     45  C   UNL     1       2.381  -8.947  12.506  1.00  0.00     0.029 A 
ATOM     46  N   UNL     1       4.305  -8.306  11.594  1.00  0.00    -0.354 N 
ATOM     47  N   UNL     1       7.112  -8.630  10.830  1.00  0.00    -0.248 NA
ATOM     48  C   UNL     1       9.130  -9.797  10.950  1.00  0.00     0.031 C 
ATOM     49  C   UNL     1       3.350  -9.912  12.797  1.00  0.00     0.029 A 
ATOM     50  C   UNL     1       4.544  -9.523  12.212  1.00  0.00     0.049 A 
ATOM     51  H   UNL     1       4.975  -7.783  11.097  1.00  0.00     0.167 HD
ATOM     52  C   UNL     1       6.930  -9.776  11.591  1.00  0.00     0.074 A 
ATOM     53  C   UNL     1       8.199 -10.473  11.608  1.00  0.00     0.031 C 
ATOM     54  C   UNL     1       5.811 -10.207  12.223  1.00  0.00     0.037 A 
BRANCH  41  55
ATOM     55  C   UNL     1       0.948  -6.463  11.598  1.00  0.00     0.064 A 
ATOM     56  C   UNL     1      -0.046  -6.578  10.615  1.00  0.00     0.173 A 
ATOM     57  C   UNL     1       0.543  -6.175  12.910  1.00  0.00     0.173 A 
ATOM     58  F   UNL     1       0.289  -6.842   9.343  1.00  0.00    -0.203 F 
ATOM     59  C   UNL     1      -1.391  -6.401  10.932  1.00  0.00     0.198 A 
ATOM     60  C   UNL     1      -0.804  -6.024  13.229  1.00  0.00     0.198 A 
ATOM     61  F   UNL     1       1.454  -6.062  13.889  1.00  0.00    -0.203 F 
ATOM     62  F   UNL     1      -2.321  -6.485   9.971  1.00  0.00    -0.200 F 
ATOM     63  C   UNL     1      -1.769  -6.134  12.239  1.00  0.00     0.200 A 
ATOM     64  F   UNL     1      -1.168  -5.780  14.495  1.00  0.00    -0.200 F 
ATOM     65  F   UNL     1      -3.065  -5.979  12.546  1.00  0.00    -0.200 F 
ENDBRANCH  41  55
BRANCH  42  66
ATOM     66  C   UNL     1      10.529  -7.882   9.226  1.00  0.00     0.064 A 
ATOM     67  C   UNL     1      10.874  -8.900   8.328  1.00  0.00     0.173 A 
ATOM     68  C   UNL     1      11.561  -7.076   9.730  1.00  0.00     0.173 A 
ATOM     69  F   UNL     1       9.925  -9.710   7.837  1.00  0.00    -0.203 F 
ATOM     70  C   UNL     1      12.200  -9.108   7.952  1.00  0.00     0.198 A 
ATOM     71  C   UNL     1      12.882  -7.266   9.332  1.00  0.00     0.198 A 
ATOM     72  F   UNL     1      11.281  -6.087  10.591  1.00  0.00    -0.203 F 
ATOM     73  F   UNL     1      12.508 -10.108   7.115  1.00  0.00    -0.200 F 
ATOM     74  C   UNL     1      13.201  -8.285   8.447  1.00  0.00     0.200 A 
ATOM     75  F   UNL     1      13.843  -6.460   9.800  1.00  0.00    -0.200 F 
ATOM     76  F   UNL     1      14.473  -8.476   8.073  1.00  0.00    -0.200 F 
ENDBRANCH  42  66
BRANCH  54  77
ATOM     77  C   UNL     1       5.897 -11.498  12.982  1.00  0.00     0.064 A 
ATOM     78  C   UNL     1       6.570 -11.580  14.209  1.00  0.00     0.173 A 
ATOM     79  C   UNL     1       5.241 -12.646  12.512  1.00  0.00     0.173 A 
ATOM     80  F   UNL     1       7.224 -10.513  14.692  1.00  0.00    -0.203 F 
ATOM     81  C   UNL     1       6.594 -12.768  14.933  1.00  0.00     0.198 A 
ATOM     82  C   UNL     1       5.244 -13.825  13.252  1.00  0.00     0.198 A 
ATOM     83  F   UNL     1       4.577 -12.616  11.347  1.00  0.00    -0.203 F 
ATOM     84  F   UNL     1       7.271 -12.834  16.088  1.00  0.00    -0.200 F 
ATOM     85  C   UNL     1       5.924 -13.886  14.459  1.00  0.00     0.200 A 
ATOM     86  F   UNL     1       4.585 -14.900  12.799  1.00  0.00    -0.200 F 
ATOM     87  F   UNL     1       5.935 -15.025  15.165  1.00  0.00    -0.200 F 
ENDBRANCH  54  77
ENDBRANCH  28  29
ENDBRANCH  20  23
ENDBRANCH  18  19
ENDBRANCH   1  18
TORSDOF 12
