REMARK SMILES O=C(NCCCNC(=O)c1cc(NC(=O)c2ccccc2Cl)ccc1N1CCC[C@H](C[NH+]2CCCC2)C1)c1ccc(-c2c3nc(c(-c4c(F)c(F)c(F)c(F)c4F)c4ccc([nH]4)c(-c4c(F)c(F)c(F)c(F)c4F)c4nc(c(-c5c(F)c(F)c(F)c(F)c5F)c5ccc2[nH]5)C=C4)C=C3)cc1
REMARK SMILES IDX 5 1 4 2 3 3 1 4 2 5 38 7 39 8 100 9 40 10 99 11 41 12 42 13
REMARK SMILES IDX 43 14 93 15 44 16 98 17 92 18 94 19 45 20 97 21 91 22 90 23
REMARK SMILES IDX 46 25 78 26 58 27 77 28 59 29 62 30 76 31 95 32 60 33 61 34
REMARK SMILES IDX 75 36 96 37 63 38 47 39 48 40 56 41 49 42 50 43 54 44 57 45
REMARK SMILES IDX 51 46 52 47 55 48 53 49 79 50 80 51 88 52 81 53 82 54 86 55
REMARK SMILES IDX 89 56 83 57 84 58 87 59 85 60 64 61 65 62 73 63 66 64 67 65
REMARK SMILES IDX 71 66 74 67 68 68 69 69 72 70 70 71 6 72 7 73 8 74 9 76
REMARK SMILES IDX 10 77 11 78 25 79 12 80 24 81 23 82 26 83 27 84 37 85 28 86
REMARK SMILES IDX 30 87 29 88 31 89 32 90 33 91 36 92 34 94 35 95 13 96 14 97
REMARK SMILES IDX 15 99 16 100 17 101 21 102 18 103 20 104 22 105 19 106
REMARK H PARENT 3 6 94 24 62 35 7 75 32 93 13 98
REMARK Flexibility Score: inf
ROOT
ATOM      1  C   UNL     1       5.550  -1.384   1.392  1.00  0.00     0.042 C 
ENDROOT
BRANCH   1   2
ATOM      2  C   UNL     1       4.867  -1.207   0.045  1.00  0.00     0.118 C 
BRANCH   2   3
ATOM      3  N   UNL     1       3.414  -1.078   0.127  1.00  0.00    -0.352 N 
ATOM      4  O   UNL     1       1.386  -0.107   0.202  1.00  0.00    -0.269 OA
ATOM      5  C   UNL     1       2.580   0.004  -0.043  1.00  0.00     0.251 C 
ATOM      6  H   UNL     1       2.947  -1.917   0.344  1.00  0.00     0.163 HD
BRANCH   5   7
ATOM      7  C   UNL     1       3.121   1.312  -0.477  1.00  0.00     0.039 A 
ATOM      8  C   UNL     1       4.126   1.392  -1.437  1.00  0.00     0.014 A 
ATOM      9  C   UNL     1       2.612   2.486   0.089  1.00  0.00     0.014 A 
ATOM     10  C   UNL     1       4.784   2.594  -1.651  1.00  0.00     0.010 A 
ATOM     11  C   UNL     1       3.185   3.721  -0.234  1.00  0.00     0.010 A 
ATOM     12  C   UNL     1       4.314   3.779  -1.065  1.00  0.00    -0.014 A 
BRANCH  12  13
ATOM     13  C   UNL     1       5.001   5.059  -1.373  1.00  0.00     0.031 A 
ATOM     14  C   UNL     1       5.646   5.876  -0.288  1.00  0.00     0.074 A 
ATOM     15  C   UNL     1       5.082   5.457  -2.658  1.00  0.00     0.049 A 
ATOM     16  N   UNL     1       6.280   7.019  -0.383  1.00  0.00    -0.248 NA
ATOM     17  C   UNL     1       5.565   5.352   1.083  1.00  0.00     0.031 C 
ATOM     18  C   UNL     1       4.495   4.747  -3.797  1.00  0.00     0.029 A 
ATOM     19  N   UNL     1       5.704   6.537  -3.228  1.00  0.00    -0.354 N 
ATOM     20  C   UNL     1       6.640   7.365   0.913  1.00  0.00     0.074 A 
ATOM     21  C   UNL     1       6.141   6.321   1.781  1.00  0.00     0.031 C 
ATOM     22  C   UNL     1       4.835   5.373  -4.931  1.00  0.00     0.029 A 
ATOM     23  C   UNL     1       5.590   6.574  -4.596  1.00  0.00     0.049 A 
ATOM     24  H   UNL     1       6.186   7.220  -2.708  1.00  0.00     0.167 HD
ATOM     25  C   UNL     1       7.329   8.453   1.335  1.00  0.00     0.037 A 
ATOM     26  C   UNL     1       6.022   7.486  -5.486  1.00  0.00     0.037 A 
ATOM     27  C   UNL     1       7.848   9.473   0.460  1.00  0.00     0.049 A 
ATOM     28  C   UNL     1       6.769   8.687  -4.989  1.00  0.00     0.074 A 
ATOM     29  C   UNL     1       8.587  10.598   0.787  1.00  0.00     0.029 A 
ATOM     30  N   UNL     1       7.685   9.491  -0.918  1.00  0.00    -0.354 N 
ATOM     31  N   UNL     1       7.108   8.998  -3.762  1.00  0.00    -0.248 NA
ATOM     32  C   UNL     1       7.185   9.669  -5.998  1.00  0.00     0.031 C 
ATOM     33  C   UNL     1       8.833  11.317  -0.388  1.00  0.00     0.029 A 
ATOM     34  C   UNL     1       8.290  10.617  -1.453  1.00  0.00     0.049 A 
ATOM     35  H   UNL     1       7.209   8.804  -1.439  1.00  0.00     0.167 HD
ATOM     36  C   UNL     1       7.786  10.204  -3.849  1.00  0.00     0.074 A 
ATOM     37  C   UNL     1       7.828  10.558  -5.254  1.00  0.00     0.031 C 
ATOM     38  C   UNL     1       8.322  10.952  -2.854  1.00  0.00     0.037 A 
BRANCH  25  39
ATOM     39  C   UNL     1       7.540   8.615   2.814  1.00  0.00     0.064 A 
ATOM     40  C   UNL     1       8.428   7.799   3.530  1.00  0.00     0.173 A 
ATOM     41  C   UNL     1       6.869   9.628   3.517  1.00  0.00     0.173 A 
ATOM     42  F   UNL     1       9.085   6.808   2.909  1.00  0.00    -0.203 F 
ATOM     43  C   UNL     1       8.618   7.975   4.899  1.00  0.00     0.198 A 
ATOM     44  C   UNL     1       7.082   9.819   4.880  1.00  0.00     0.198 A 
ATOM     45  F   UNL     1       6.013  10.441   2.880  1.00  0.00    -0.203 F 
ATOM     46  F   UNL     1       9.438   7.155   5.571  1.00  0.00    -0.200 F 
ATOM     47  C   UNL     1       7.950   8.988   5.572  1.00  0.00     0.200 A 
ATOM     48  F   UNL     1       6.445  10.806   5.526  1.00  0.00    -0.200 F 
ATOM     49  F   UNL     1       8.138   9.159   6.888  1.00  0.00    -0.200 F 
ENDBRANCH  25  39
BRANCH  26  50
ATOM     50  C   UNL     1       5.738   7.288  -6.929  1.00  0.00     0.064 A 
ATOM     51  C   UNL     1       6.764   6.980  -7.832  1.00  0.00     0.173 A 
ATOM     52  C   UNL     1       4.428   7.363  -7.427  1.00  0.00     0.173 A 
ATOM     53  F   UNL     1       8.034   6.913  -7.405  1.00  0.00    -0.203 F 
ATOM     54  C   UNL     1       6.491   6.758  -9.180  1.00  0.00     0.198 A 
ATOM     55  C   UNL     1       4.153   7.112  -8.769  1.00  0.00     0.198 A 
ATOM     56  F   UNL     1       3.411   7.647  -6.601  1.00  0.00    -0.203 F 
ATOM     57  F   UNL     1       7.493   6.492 -10.029  1.00  0.00    -0.200 F 
ATOM     58  C   UNL     1       5.185   6.814  -9.645  1.00  0.00     0.200 A 
ATOM     59  F   UNL     1       2.888   7.146  -9.208  1.00  0.00    -0.200 F 
ATOM     60  F   UNL     1       4.921   6.583 -10.938  1.00  0.00    -0.200 F 
ENDBRANCH  26  50
BRANCH  38  61
ATOM     61  C   UNL     1       9.023  12.215  -3.256  1.00  0.00     0.064 A 
ATOM     62  C   UNL     1       8.311  13.345  -3.682  1.00  0.00     0.173 A 
ATOM     63  C   UNL     1      10.421  12.302  -3.188  1.00  0.00     0.173 A 
ATOM     64  F   UNL     1       6.973  13.303  -3.781  1.00  0.00    -0.203 F 
ATOM     65  C   UNL     1       8.976  14.512  -4.047  1.00  0.00     0.198 A 
ATOM     66  C   UNL     1      11.081  13.479  -3.528  1.00  0.00     0.198 A 
ATOM     67  F   UNL     1      11.145  11.248  -2.784  1.00  0.00    -0.203 F 
ATOM     68  F   UNL     1       8.280  15.566  -4.495  1.00  0.00    -0.200 F 
ATOM     69  C   UNL     1      10.359  14.580  -3.963  1.00  0.00     0.200 A 
ATOM     70  F   UNL     1      12.416  13.546  -3.437  1.00  0.00    -0.200 F 
ATOM     71  F   UNL     1      10.998  15.706  -4.311  1.00  0.00    -0.200 F 
ENDBRANCH  38  61
ENDBRANCH  12  13
ENDBRANCH   5   7
ENDBRANCH   2   3
ENDBRANCH   1   2
BRANCH   1  72
ATOM     72  C   UNL     1       5.150  -2.651   2.119  1.00  0.00     0.118 C 
BRANCH  72  73
ATOM     73  N   UNL     1       5.437  -3.877   1.405  1.00  0.00    -0.352 N 
ATOM     74  C   UNL     1       5.670  -5.122   1.938  1.00  0.00     0.253 C 
ATOM     75  H   UNL     1       5.470  -3.811   0.423  1.00  0.00     0.163 HD
ATOM     76  O   UNL     1       5.757  -6.089   1.183  1.00  0.00    -0.269 OA
BRANCH  74  77
ATOM     77  C   UNL     1       5.937  -5.288   3.388  1.00  0.00     0.065 A 
ATOM     78  C   UNL     1       7.206  -5.830   3.652  1.00  0.00     0.042 A 
ATOM     79  C   UNL     1       5.077  -4.900   4.433  1.00  0.00     0.050 A 
ATOM     80  C   UNL     1       7.726  -5.873   4.938  1.00  0.00     0.042 A 
ATOM     81  C   UNL     1       5.598  -5.010   5.735  1.00  0.00     0.029 A 
ATOM     82  C   UNL     1       6.897  -5.480   5.986  1.00  0.00     0.028 A 
BRANCH  79  83
ATOM     83  N   UNL     1       3.757  -4.498   4.271  1.00  0.00    -0.370 N 
ATOM     84  C   UNL     1       3.262  -3.264   4.891  1.00  0.00     0.116 C 
ATOM     85  C   UNL     1       2.922  -5.171   3.272  1.00  0.00     0.126 C 
ATOM     86  C   UNL     1       1.812  -3.403   5.342  1.00  0.00     0.022 C 
ATOM     87  C   UNL     1       1.525  -5.436   3.851  1.00  0.00     0.064 C 
ATOM     88  C   UNL     1       0.944  -4.082   4.285  1.00  0.00     0.013 C 
BRANCH  87  89
ATOM     89  C   UNL     1       1.636  -6.518   4.959  1.00  0.00     0.267 C 
BRANCH  89  90
ATOM     90  N   UNL     1       0.428  -7.158   5.484  1.00  0.00    -0.335 N 
ATOM     91  C   UNL     1      -0.403  -7.824   4.487  1.00  0.00     0.262 C 
ATOM     92  C   UNL     1      -0.439  -6.328   6.313  1.00  0.00     0.262 C 
ATOM     93  H   UNL     1       0.861  -7.857   6.088  1.00  0.00     0.348 HD
ATOM     94  C   UNL     1      -1.556  -6.874   4.234  1.00  0.00     0.067 C 
ATOM     95  C   UNL     1      -1.764  -6.189   5.573  1.00  0.00     0.067 C 
ENDBRANCH  89  90
ENDBRANCH  87  89
ENDBRANCH  79  83
BRANCH  80  96
ATOM     96  N   UNL     1       9.036  -6.282   5.254  1.00  0.00    -0.322 N 
ATOM     97  C   UNL     1      10.161  -6.461   4.473  1.00  0.00     0.257 C 
ATOM     98  H   UNL     1       9.176  -6.476   6.209  1.00  0.00     0.170 HD
ATOM     99  O   UNL     1      11.177  -6.960   4.954  1.00  0.00    -0.269 OA
BRANCH  97 100
ATOM    100  C   UNL     1      10.186  -6.060   3.057  1.00  0.00     0.058 A 
ATOM    101  C   UNL     1      10.257  -7.087   2.104  1.00  0.00     0.015 A 
ATOM    102  C   UNL     1      10.066  -4.725   2.650  1.00  0.00     0.053 A 
ATOM    103  C   UNL     1      10.121  -6.785   0.749  1.00  0.00     0.001 A 
ATOM    104  C   UNL     1       9.925  -4.433   1.290  1.00  0.00     0.021 A 
ATOM    105  Cl  UNL     1      10.039  -3.407   3.765  1.00  0.00    -0.083 Cl
ATOM    106  C   UNL     1       9.937  -5.462   0.344  1.00  0.00     0.002 A 
ENDBRANCH  97 100
ENDBRANCH  80  96
ENDBRANCH  74  77
ENDBRANCH  72  73
ENDBRANCH   1  72
TORSDOF 15
