REMARK SMILES CC[NH2+]C(C)(C)C(=O)N[C@@](C)(C(=O)NCCCNC(=O)c1ccc(-c2c3nc(c(-c4c(F)c(F)c(F)c(F)c4F)c4ccc([nH]4)c(-c4c(F)c(F)c(F)c(F)c4F)c4nc(c(-c5c(F)c(F)c(F)c(F)c5F)c5ccc2[nH]5)C=C4)C=C3)cc1)C(F)(F)F
REMARK SMILES IDX 15 1 14 2 12 3 13 4 10 6 11 7 9 8 7 9 8 10 4 12 5 13 6 14
REMARK SMILES IDX 3 15 2 18 1 19 84 20 85 21 86 22 87 23 16 24 17 25 18 26
REMARK SMILES IDX 19 27 20 29 21 30 22 31 83 32 23 33 82 34 24 35 25 36 26 37
REMARK SMILES IDX 76 38 27 39 81 40 75 41 77 42 28 43 80 44 74 45 73 46 29 48
REMARK SMILES IDX 61 49 41 50 60 51 42 52 45 53 59 54 78 55 43 56 44 57 58 59
REMARK SMILES IDX 79 60 46 61 30 62 31 63 39 64 32 65 33 66 37 67 40 68 34 69
REMARK SMILES IDX 35 70 38 71 36 72 62 73 63 74 71 75 64 76 65 77 69 78 72 79
REMARK SMILES IDX 66 80 67 81 70 82 68 83 47 84 48 85 56 86 49 87 50 88 54 89
REMARK SMILES IDX 57 90 51 91 52 92 55 93 53 94
REMARK H PARENT 14 5 9 11 3 16 3 17 18 28 77 47 45 58
REMARK Flexibility Score: inf
ROOT
ATOM      1  C   UNL     1      -3.930   6.466   2.595  1.00  0.00     0.117 C 
ENDROOT
BRANCH   1   2
ATOM      2  N   UNL     1      -2.772   6.377   3.470  1.00  0.00    -0.354 N 
ATOM      3  C   UNL     1      -1.425   6.333   3.264  1.00  0.00     0.254 C 
ATOM      4  O   UNL     1      -0.760   6.223   4.298  1.00  0.00    -0.272 OA
ATOM      5  H   UNL     1      -3.015   6.338   4.423  1.00  0.00     0.163 HD
BRANCH   3   6
ATOM      6  C   UNL     1      -0.775   6.352   1.861  1.00  0.00     0.212 C 
ATOM      7  C   UNL     1      -1.262   7.544   1.006  1.00  0.00     0.056 C 
BRANCH   6   8
ATOM      8  N   UNL     1      -1.264   5.075   1.189  1.00  0.00    -0.329 N 
ATOM      9  C   UNL     1      -0.862   3.843   0.767  1.00  0.00     0.281 C 
ATOM     10  O   UNL     1      -1.807   3.097   0.483  1.00  0.00    -0.268 OA
ATOM     11  H   UNL     1      -2.221   5.177   0.985  1.00  0.00     0.165 HD
BRANCH   9  12
ATOM     12  C   UNL     1       0.620   3.405   0.623  1.00  0.00     0.169 C 
ATOM     13  C   UNL     1       1.261   3.324   2.013  1.00  0.00     0.090 C 
ATOM     14  C   UNL     1       1.292   4.425  -0.323  1.00  0.00     0.090 C 
BRANCH  12  15
ATOM     15  N   UNL     1       0.817   2.126  -0.122  1.00  0.00    -0.334 N 
ATOM     16  H   UNL     1       0.374   2.240  -1.034  1.00  0.00     0.347 HD
ATOM     17  H   UNL     1       1.828   1.995  -0.118  1.00  0.00     0.347 HD
BRANCH  15  18
ATOM     18  C   UNL     1       0.302   0.886   0.450  1.00  0.00     0.257 C 
ATOM     19  C   UNL     1       0.822  -0.282  -0.386  1.00  0.00     0.071 C 
ENDBRANCH  15  18
ENDBRANCH  12  15
ENDBRANCH   9  12
ENDBRANCH   6   8
BRANCH   6  20
ATOM     20  C   UNL     1       0.727   6.689   2.134  1.00  0.00     0.420 C 
ATOM     21  F   UNL     1       1.409   5.792   2.861  1.00  0.00    -0.168 F 
ATOM     22  F   UNL     1       1.417   6.864   0.981  1.00  0.00    -0.168 F 
ATOM     23  F   UNL     1       0.837   7.880   2.786  1.00  0.00    -0.168 F 
ENDBRANCH   6  20
ENDBRANCH   3   6
ENDBRANCH   1   2
BRANCH   1  24
ATOM     24  C   UNL     1      -4.934   5.353   2.850  1.00  0.00     0.042 C 
BRANCH  24  25
ATOM     25  C   UNL     1      -5.529   5.349   4.251  1.00  0.00     0.118 C 
BRANCH  25  26
ATOM     26  N   UNL     1      -6.263   6.570   4.558  1.00  0.00    -0.352 N 
ATOM     27  C   UNL     1      -7.595   6.756   4.831  1.00  0.00     0.251 C 
ATOM     28  H   UNL     1      -5.718   7.390   4.571  1.00  0.00     0.163 HD
ATOM     29  O   UNL     1      -8.053   7.897   4.879  1.00  0.00    -0.269 OA
BRANCH  27  30
ATOM     30  C   UNL     1      -8.485   5.597   5.043  1.00  0.00     0.039 A 
ATOM     31  C   UNL     1      -9.765   5.614   4.483  1.00  0.00     0.014 A 
ATOM     32  C   UNL     1      -8.068   4.497   5.796  1.00  0.00     0.014 A 
ATOM     33  C   UNL     1     -10.595   4.499   4.617  1.00  0.00     0.010 A 
ATOM     34  C   UNL     1      -8.854   3.352   5.845  1.00  0.00     0.010 A 
ATOM     35  C   UNL     1     -10.130   3.342   5.262  1.00  0.00    -0.014 A 
BRANCH  35  36
ATOM     36  C   UNL     1     -10.961   2.114   5.344  1.00  0.00     0.031 A 
ATOM     37  C   UNL     1     -11.380   1.573   6.683  1.00  0.00     0.074 A 
ATOM     38  C   UNL     1     -11.278   1.448   4.216  1.00  0.00     0.049 A 
ATOM     39  N   UNL     1     -12.040   0.478   6.965  1.00  0.00    -0.248 NA
ATOM     40  C   UNL     1     -10.978   2.351   7.866  1.00  0.00     0.031 C 
ATOM     41  C   UNL     1     -10.888   1.843   2.862  1.00  0.00     0.029 A 
ATOM     42  N   UNL     1     -11.993   0.290   4.031  1.00  0.00    -0.354 N 
ATOM     43  C   UNL     1     -12.116   0.429   8.351  1.00  0.00     0.074 A 
ATOM     44  C   UNL     1     -11.384   1.571   8.855  1.00  0.00     0.031 C 
ATOM     45  C   UNL     1     -11.390   0.960   1.984  1.00  0.00     0.029 A 
ATOM     46  C   UNL     1     -12.098  -0.087   2.715  1.00  0.00     0.049 A 
ATOM     47  H   UNL     1     -12.392  -0.221   4.772  1.00  0.00     0.167 HD
ATOM     48  C   UNL     1     -12.759  -0.471   9.132  1.00  0.00     0.037 A 
ATOM     49  C   UNL     1     -12.689  -1.163   2.160  1.00  0.00     0.037 A 
ATOM     50  C   UNL     1     -13.505  -1.593   8.623  1.00  0.00     0.049 A 
ATOM     51  C   UNL     1     -13.384  -2.157   3.051  1.00  0.00     0.074 A 
ATOM     52  C   UNL     1     -14.245  -2.526   9.326  1.00  0.00     0.029 A 
ATOM     53  N   UNL     1     -13.599  -1.936   7.282  1.00  0.00    -0.354 N 
ATOM     54  N   UNL     1     -13.515  -2.151   4.356  1.00  0.00    -0.248 NA
ATOM     55  C   UNL     1     -14.019  -3.306   2.390  1.00  0.00     0.031 C 
ATOM     56  C   UNL     1     -14.740  -3.467   8.417  1.00  0.00     0.029 A 
ATOM     57  C   UNL     1     -14.361  -3.085   7.140  1.00  0.00     0.049 A 
ATOM     58  H   UNL     1     -13.185  -1.438   6.541  1.00  0.00     0.167 HD
ATOM     59  C   UNL     1     -14.271  -3.273   4.669  1.00  0.00     0.074 A 
ATOM     60  C   UNL     1     -14.584  -3.928   3.415  1.00  0.00     0.031 C 
ATOM     61  C   UNL     1     -14.671  -3.720   5.885  1.00  0.00     0.037 A 
BRANCH  48  62
ATOM     62  C   UNL     1     -12.683  -0.282  10.620  1.00  0.00     0.064 A 
ATOM     63  C   UNL     1     -13.315   0.796  11.261  1.00  0.00     0.173 A 
ATOM     64  C   UNL     1     -11.998  -1.208  11.422  1.00  0.00     0.173 A 
ATOM     65  F   UNL     1     -13.974   1.717  10.542  1.00  0.00    -0.203 F 
ATOM     66  C   UNL     1     -13.234   0.958  12.642  1.00  0.00     0.198 A 
ATOM     67  C   UNL     1     -11.949  -1.062  12.806  1.00  0.00     0.198 A 
ATOM     68  F   UNL     1     -11.382  -2.261  10.864  1.00  0.00    -0.203 F 
ATOM     69  F   UNL     1     -13.797   2.026  13.223  1.00  0.00    -0.200 F 
ATOM     70  C   UNL     1     -12.559   0.025  13.414  1.00  0.00     0.200 A 
ATOM     71  F   UNL     1     -11.309  -1.973  13.552  1.00  0.00    -0.200 F 
ATOM     72  F   UNL     1     -12.488   0.178  14.743  1.00  0.00    -0.200 F 
ENDBRANCH  48  62
BRANCH  49  73
ATOM     73  C   UNL     1     -12.669  -1.345   0.684  1.00  0.00     0.064 A 
ATOM     74  C   UNL     1     -13.847  -1.243  -0.069  1.00  0.00     0.173 A 
ATOM     75  C   UNL     1     -11.481  -1.634  -0.002  1.00  0.00     0.173 A 
ATOM     76  F   UNL     1     -15.013  -0.988   0.544  1.00  0.00    -0.203 F 
ATOM     77  C   UNL     1     -13.842  -1.446  -1.447  1.00  0.00     0.198 A 
ATOM     78  C   UNL     1     -11.471  -1.805  -1.385  1.00  0.00     0.198 A 
ATOM     79  F   UNL     1     -10.325  -1.737   0.670  1.00  0.00    -0.203 F 
ATOM     80  F   UNL     1     -14.991  -1.393  -2.135  1.00  0.00    -0.200 F 
ATOM     81  C   UNL     1     -12.652  -1.721  -2.105  1.00  0.00     0.200 A 
ATOM     82  F   UNL     1     -10.317  -2.054  -2.018  1.00  0.00    -0.200 F 
ATOM     83  F   UNL     1     -12.647  -1.913  -3.431  1.00  0.00    -0.200 F 
ENDBRANCH  49  73
BRANCH  61  84
ATOM     84  C   UNL     1     -15.526  -4.955   5.918  1.00  0.00     0.064 A 
ATOM     85  C   UNL     1     -15.008  -6.222   5.612  1.00  0.00     0.173 A 
ATOM     86  C   UNL     1     -16.874  -4.872   6.302  1.00  0.00     0.173 A 
ATOM     87  F   UNL     1     -13.730  -6.354   5.225  1.00  0.00    -0.203 F 
ATOM     88  C   UNL     1     -15.815  -7.356   5.660  1.00  0.00     0.198 A 
ATOM     89  C   UNL     1     -17.668  -6.012   6.384  1.00  0.00     0.198 A 
ATOM     90  F   UNL     1     -17.417  -3.686   6.614  1.00  0.00    -0.203 F 
ATOM     91  F   UNL     1     -15.313  -8.549   5.311  1.00  0.00    -0.200 F 
ATOM     92  C   UNL     1     -17.141  -7.252   6.054  1.00  0.00     0.200 A 
ATOM     93  F   UNL     1     -18.944  -5.911   6.781  1.00  0.00    -0.200 F 
ATOM     94  F   UNL     1     -17.913  -8.345   6.109  1.00  0.00    -0.200 F 
ENDBRANCH  61  84
ENDBRANCH  35  36
ENDBRANCH  27  30
ENDBRANCH  25  26
ENDBRANCH  24  25
ENDBRANCH   1  24
TORSDOF 15
