REMARK SMILES O=C(NCCCNC(=O)c1sccc1S(=O)(=O)Nc1ccccc1N1CCCCC1)c1ccc(-c2c3nc(c(-c4c(F)c(F)c(F)c(F)c4F)c4ccc([nH]4)c(-c4c(F)c(F)c(F)c(F)c4F)c4nc(c(-c5c(F)c(F)c(F)c(F)c5F)c5ccc2[nH]5)C=C4)C=C3)cc1
REMARK SMILES IDX 6 1 5 2 4 3 3 4 1 5 2 6 31 8 32 9 93 10 33 11 92 12 34 13
REMARK SMILES IDX 35 14 36 15 86 16 37 17 91 18 85 19 87 20 38 21 90 22 84 23
REMARK SMILES IDX 83 24 39 26 71 27 51 28 70 29 52 30 55 31 69 32 88 33 53 34
REMARK SMILES IDX 54 35 68 37 89 38 56 39 40 40 41 41 49 42 42 43 43 44 47 45
REMARK SMILES IDX 50 46 44 47 45 48 48 49 46 50 72 51 73 52 81 53 74 54 75 55
REMARK SMILES IDX 79 56 82 57 76 58 77 59 80 60 78 61 57 62 58 63 66 64 59 65
REMARK SMILES IDX 60 66 64 67 67 68 61 69 62 70 65 71 63 72 7 73 8 74 9 76
REMARK SMILES IDX 10 77 11 78 14 79 12 80 13 81 15 82 16 83 17 84 18 85 19 87
REMARK SMILES IDX 20 88 24 89 21 90 23 91 22 92 25 93 26 94 30 95 27 96 29 97
REMARK SMILES IDX 28 98
REMARK H PARENT 3 7 87 25 55 36 7 75 18 86
REMARK Flexibility Score: inf
ROOT
ATOM      1  C   UNL     1       5.271  -2.712   1.986  1.00  0.00     0.118 C 
ENDROOT
BRANCH   1   2
ATOM      2  C   UNL     1       5.325  -1.217   1.764  1.00  0.00     0.042 C 
BRANCH   2   3
ATOM      3  C   UNL     1       4.762  -0.839   0.402  1.00  0.00     0.118 C 
BRANCH   3   4
ATOM      4  N   UNL     1       3.303  -0.899   0.339  1.00  0.00    -0.352 N 
ATOM      5  O   UNL     1       1.184  -0.107   0.214  1.00  0.00    -0.269 OA
ATOM      6  C   UNL     1       2.389   0.115   0.180  1.00  0.00     0.251 C 
ATOM      7  H   UNL     1       2.917  -1.801   0.424  1.00  0.00     0.163 HD
BRANCH   6   8
ATOM      8  C   UNL     1       2.896   1.488   0.036  1.00  0.00     0.039 A 
ATOM      9  C   UNL     1       3.901   1.752  -0.892  1.00  0.00     0.014 A 
ATOM     10  C   UNL     1       2.480   2.464   0.943  1.00  0.00     0.014 A 
ATOM     11  C   UNL     1       4.659   2.900  -0.744  1.00  0.00     0.010 A 
ATOM     12  C   UNL     1       3.156   3.683   0.989  1.00  0.00     0.010 A 
ATOM     13  C   UNL     1       4.289   3.886   0.187  1.00  0.00    -0.014 A 
BRANCH  13  14
ATOM     14  C   UNL     1       5.084   5.136   0.259  1.00  0.00     0.031 A 
ATOM     15  C   UNL     1       5.789   5.549   1.521  1.00  0.00     0.074 A 
ATOM     16  C   UNL     1       5.197   5.875  -0.861  1.00  0.00     0.049 A 
ATOM     17  N   UNL     1       6.504   6.623   1.749  1.00  0.00    -0.248 NA
ATOM     18  C   UNL     1       5.672   4.655   2.683  1.00  0.00     0.031 C 
ATOM     19  C   UNL     1       4.552   5.563  -2.139  1.00  0.00     0.029 A 
ATOM     20  N   UNL     1       5.910   7.014  -1.120  1.00  0.00    -0.354 N 
ATOM     21  C   UNL     1       6.886   6.554   3.082  1.00  0.00     0.074 A 
ATOM     22  C   UNL     1       6.318   5.337   3.620  1.00  0.00     0.031 C 
ATOM     23  C   UNL     1       4.957   6.442  -3.064  1.00  0.00     0.029 A 
ATOM     24  C   UNL     1       5.807   7.435  -2.422  1.00  0.00     0.049 A 
ATOM     25  H   UNL     1       6.445   7.485  -0.440  1.00  0.00     0.167 HD
ATOM     26  C   UNL     1       7.641   7.433   3.787  1.00  0.00     0.037 A 
ATOM     27  C   UNL     1       6.314   8.520  -3.031  1.00  0.00     0.037 A 
ATOM     28  C   UNL     1       8.228   8.624   3.225  1.00  0.00     0.049 A 
ATOM     29  C   UNL     1       7.138   9.476  -2.225  1.00  0.00     0.074 A 
ATOM     30  C   UNL     1       9.039   9.562   3.841  1.00  0.00     0.029 A 
ATOM     31  N   UNL     1       8.067   9.040   1.910  1.00  0.00    -0.354 N 
ATOM     32  N   UNL     1       7.487   9.401  -0.964  1.00  0.00    -0.248 NA
ATOM     33  C   UNL     1       7.623  10.673  -2.920  1.00  0.00     0.031 C 
ATOM     34  C   UNL     1       9.332  10.566   2.912  1.00  0.00     0.029 A 
ATOM     35  C   UNL     1       8.744  10.231   1.702  1.00  0.00     0.049 A 
ATOM     36  H   UNL     1       7.548   8.559   1.226  1.00  0.00     0.167 HD
ATOM     37  C   UNL     1       8.234  10.540  -0.710  1.00  0.00     0.074 A 
ATOM     38  C   UNL     1       8.312  11.273  -1.959  1.00  0.00     0.031 C 
ATOM     39  C   UNL     1       8.797  10.947   0.453  1.00  0.00     0.037 A 
BRANCH  26  40
ATOM     40  C   UNL     1       7.858   7.160   5.248  1.00  0.00     0.064 A 
ATOM     41  C   UNL     1       8.696   6.129   5.697  1.00  0.00     0.173 A 
ATOM     42  C   UNL     1       7.255   7.980   6.217  1.00  0.00     0.173 A 
ATOM     43  F   UNL     1       9.289   5.310   4.815  1.00  0.00    -0.203 F 
ATOM     44  C   UNL     1       8.906   5.915   7.058  1.00  0.00     0.198 A 
ATOM     45  C   UNL     1       7.488   7.780   7.575  1.00  0.00     0.198 A 
ATOM     46  F   UNL     1       6.449   8.985   5.844  1.00  0.00    -0.203 F 
ATOM     47  F   UNL     1       9.682   4.900   7.463  1.00  0.00    -0.200 F 
ATOM     48  C   UNL     1       8.308   6.745   7.995  1.00  0.00     0.200 A 
ATOM     49  F   UNL     1       6.918   8.590   8.478  1.00  0.00    -0.200 F 
ATOM     50  F   UNL     1       8.519   6.543   9.303  1.00  0.00    -0.200 F 
ENDBRANCH  26  40
BRANCH  27  51
ATOM     51  C   UNL     1       6.026   8.749  -4.469  1.00  0.00     0.064 A 
ATOM     52  C   UNL     1       7.034   8.627  -5.433  1.00  0.00     0.173 A 
ATOM     53  C   UNL     1       4.726   9.036  -4.912  1.00  0.00     0.173 A 
ATOM     54  F   UNL     1       8.294   8.367  -5.056  1.00  0.00    -0.203 F 
ATOM     55  C   UNL     1       6.753   8.787  -6.788  1.00  0.00     0.198 A 
ATOM     56  C   UNL     1       4.440   9.164  -6.268  1.00  0.00     0.198 A 
ATOM     57  F   UNL     1       3.724   9.150  -4.027  1.00  0.00    -0.203 F 
ATOM     58  F   UNL     1       7.739   8.691  -7.690  1.00  0.00    -0.200 F 
ATOM     59  C   UNL     1       5.455   9.044  -7.205  1.00  0.00     0.200 A 
ATOM     60  F   UNL     1       3.180   9.387  -6.667  1.00  0.00    -0.200 F 
ATOM     61  F   UNL     1       5.182   9.176  -8.510  1.00  0.00    -0.200 F 
ENDBRANCH  27  51
BRANCH  39  62
ATOM     62  C   UNL     1       9.554  12.240   0.415  1.00  0.00     0.064 A 
ATOM     63  C   UNL     1       8.890  13.472   0.326  1.00  0.00     0.173 A 
ATOM     64  C   UNL     1      10.955  12.246   0.477  1.00  0.00     0.173 A 
ATOM     65  F   UNL     1       7.552  13.514   0.243  1.00  0.00    -0.203 F 
ATOM     66  C   UNL     1       9.605  14.665   0.272  1.00  0.00     0.198 A 
ATOM     67  C   UNL     1      11.665  13.442   0.451  1.00  0.00     0.198 A 
ATOM     68  F   UNL     1      11.633  11.092   0.564  1.00  0.00    -0.203 F 
ATOM     69  F   UNL     1       8.954  15.828   0.135  1.00  0.00    -0.200 F 
ATOM     70  C   UNL     1      10.991  14.649   0.340  1.00  0.00     0.200 A 
ATOM     71  F   UNL     1      13.003  13.426   0.524  1.00  0.00    -0.200 F 
ATOM     72  F   UNL     1      11.678  15.798   0.287  1.00  0.00    -0.200 F 
ENDBRANCH  39  62
ENDBRANCH  13  14
ENDBRANCH   6   8
ENDBRANCH   3   4
ENDBRANCH   2   3
ENDBRANCH   1   2
BRANCH   1  73
ATOM     73  N   UNL     1       6.154  -3.427   1.094  1.00  0.00    -0.351 N 
ATOM     74  C   UNL     1       6.702  -4.669   1.227  1.00  0.00     0.262 C 
ATOM     75  H   UNL     1       6.395  -2.948   0.269  1.00  0.00     0.163 HD
ATOM     76  O   UNL     1       7.529  -4.989   0.370  1.00  0.00    -0.268 OA
BRANCH  74  77
ATOM     77  C   UNL     1       6.393  -5.486   2.375  1.00  0.00     0.112 A 
ATOM     78  S   UNL     1       7.797  -6.033   3.234  1.00  0.00    -0.137 S 
ATOM     79  C   UNL     1       5.230  -5.987   2.942  1.00  0.00     0.111 A 
ATOM     80  C   UNL     1       6.873  -6.872   4.382  1.00  0.00     0.067 A 
ATOM     81  C   UNL     1       5.530  -6.762   4.125  1.00  0.00     0.035 A 
BRANCH  79  82
ATOM     82  S   UNL     1       3.563  -5.745   2.515  1.00  0.00     0.263 S 
ATOM     83  O   UNL     1       2.905  -6.931   3.032  1.00  0.00    -0.201 OA
ATOM     84  O   UNL     1       3.257  -4.483   3.163  1.00  0.00    -0.201 OA
BRANCH  82  85
ATOM     85  N   UNL     1       3.033  -5.582   0.941  1.00  0.00    -0.277 N 
ATOM     86  H   UNL     1       2.061  -5.528   0.797  1.00  0.00     0.180 HD
BRANCH  85  87
ATOM     87  C   UNL     1       3.866  -5.513  -0.212  1.00  0.00     0.072 A 
ATOM     88  C   UNL     1       3.728  -4.375  -1.024  1.00  0.00     0.029 A 
ATOM     89  C   UNL     1       4.746  -6.554  -0.576  1.00  0.00     0.061 A 
ATOM     90  C   UNL     1       4.526  -4.203  -2.151  1.00  0.00     0.002 A 
ATOM     91  C   UNL     1       5.553  -6.343  -1.708  1.00  0.00     0.028 A 
ATOM     92  C   UNL     1       5.455  -5.180  -2.482  1.00  0.00     0.002 A 
BRANCH  89  93
ATOM     93  N   UNL     1       4.790  -7.767   0.091  1.00  0.00    -0.370 N 
ATOM     94  C   UNL     1       6.053  -8.365   0.515  1.00  0.00     0.116 C 
ATOM     95  C   UNL     1       3.554  -8.530   0.275  1.00  0.00     0.116 C 
ATOM     96  C   UNL     1       6.195  -9.788  -0.010  1.00  0.00     0.021 C 
ATOM     97  C   UNL     1       3.715  -9.943  -0.278  1.00  0.00     0.021 C 
ATOM     98  C   UNL     1       4.952 -10.614   0.309  1.00  0.00     0.004 C 
ENDBRANCH  89  93
ENDBRANCH  85  87
ENDBRANCH  82  85
ENDBRANCH  79  82
ENDBRANCH  74  77
ENDBRANCH   1  73
TORSDOF 14
