REMARK SMILES CC/C(C(=O)NCCCNC(=O)c1ccc(-c2c3nc(c(-c4c(F)c(F)c(F)c(F)c4F)c4ccc([nH]4)c(-c4c(F)c(F)c(F)c(F)c4F)c4nc(c(-c5c(F)c(F)c(F)c(F)c5F)c5ccc2[nH]5)C=C4)C=C3)cc1)=C1\CCc2ccccc21
REMARK SMILES IDX 8 1 7 2 6 3 4 4 5 5 3 7 76 8 77 9 84 10 78 11 79 12 83 13
REMARK SMILES IDX 80 14 82 15 81 16 2 17 1 18 9 19 10 20 11 21 12 23 13 24
REMARK SMILES IDX 14 25 75 26 15 27 74 28 16 29 17 30 18 31 68 32 19 33 73 34
REMARK SMILES IDX 67 35 69 36 20 37 72 38 66 39 65 40 21 42 53 43 33 44 52 45
REMARK SMILES IDX 34 46 37 47 51 48 70 49 35 50 36 51 50 53 71 54 38 55 22 56
REMARK SMILES IDX 23 57 31 58 24 59 25 60 29 61 32 62 26 63 27 64 30 65 28 66
REMARK SMILES IDX 54 67 55 68 63 69 56 70 57 71 61 72 64 73 58 74 59 75 62 76
REMARK SMILES IDX 60 77 39 78 40 79 48 80 41 81 42 82 46 83 49 84 43 85 44 86
REMARK SMILES IDX 47 87 45 88
REMARK H PARENT 6 6 10 22 69 41 37 52
REMARK Flexibility Score: inf
ROOT
ATOM      1  C   UNL     1       1.070  -6.332   1.424  1.00  0.00     0.042 C 
ENDROOT
BRANCH   1   2
ATOM      2  C   UNL     1       2.118  -5.358   0.880  1.00  0.00     0.118 C 
BRANCH   2   3
ATOM      3  N   UNL     1       1.526  -4.440  -0.083  1.00  0.00    -0.352 N 
ATOM      4  C   UNL     1       0.525  -3.544   0.189  1.00  0.00     0.247 C 
ATOM      5  O   UNL     1      -0.564  -3.719  -0.360  1.00  0.00    -0.270 OA
ATOM      6  H   UNL     1       1.873  -4.465  -1.004  1.00  0.00     0.163 HD
BRANCH   4   7
ATOM      7  C   UNL     1       0.892  -2.179   0.736  1.00  0.00     0.020 C 
ATOM      8  C   UNL     1       1.365  -1.925   1.978  1.00  0.00    -0.031 C 
ATOM      9  C   UNL     1       1.964  -0.620   2.478  1.00  0.00     0.041 C 
ATOM     10  C   UNL     1       1.592  -2.824   3.122  1.00  0.00    -0.019 A 
ATOM     11  C   UNL     1       3.133  -1.022   3.386  1.00  0.00     0.041 C 
ATOM     12  C   UNL     1       2.690  -2.365   3.856  1.00  0.00    -0.040 A 
ATOM     13  C   UNL     1       0.878  -3.906   3.595  1.00  0.00     0.009 A 
ATOM     14  C   UNL     1       3.244  -3.104   4.891  1.00  0.00     0.004 A 
ATOM     15  C   UNL     1       1.408  -4.657   4.657  1.00  0.00     0.001 A 
ATOM     16  C   UNL     1       2.612  -4.285   5.267  1.00  0.00     0.000 A 
BRANCH   7  17
ATOM     17  C   UNL     1       0.579  -1.161  -0.369  1.00  0.00     0.038 C 
ATOM     18  C   UNL     1       0.784   0.336  -0.183  1.00  0.00     0.009 C 
ENDBRANCH   7  17
ENDBRANCH   4   7
ENDBRANCH   2   3
ENDBRANCH   1   2
BRANCH   1  19
ATOM     19  C   UNL     1       1.473  -7.793   1.460  1.00  0.00     0.118 C 
BRANCH  19  20
ATOM     20  N   UNL     1       2.705  -8.056   2.187  1.00  0.00    -0.352 N 
ATOM     21  C   UNL     1       3.001  -8.782   3.312  1.00  0.00     0.251 C 
ATOM     22  H   UNL     1       3.492  -7.622   1.787  1.00  0.00     0.163 HD
ATOM     23  O   UNL     1       4.167  -8.761   3.717  1.00  0.00    -0.269 OA
BRANCH  21  24
ATOM     24  C   UNL     1       1.993  -9.558   4.079  1.00  0.00     0.039 A 
ATOM     25  C   UNL     1       2.238  -9.803   5.439  1.00  0.00     0.014 A 
ATOM     26  C   UNL     1       0.846 -10.101   3.505  1.00  0.00     0.014 A 
ATOM     27  C   UNL     1       1.326 -10.534   6.208  1.00  0.00     0.010 A 
ATOM     28  C   UNL     1      -0.131 -10.694   4.299  1.00  0.00     0.010 A 
ATOM     29  C   UNL     1       0.111 -10.956   5.652  1.00  0.00    -0.014 A 
BRANCH  29  30
ATOM     30  C   UNL     1      -0.890 -11.735   6.431  1.00  0.00     0.031 A 
ATOM     31  C   UNL     1      -1.327 -13.094   5.939  1.00  0.00     0.074 A 
ATOM     32  C   UNL     1      -1.455 -11.203   7.532  1.00  0.00     0.049 A 
ATOM     33  N   UNL     1      -2.279 -13.875   6.386  1.00  0.00    -0.248 NA
ATOM     34  C   UNL     1      -0.630 -13.627   4.756  1.00  0.00     0.031 C 
ATOM     35  C   UNL     1      -1.159  -9.879   8.082  1.00  0.00     0.029 A 
ATOM     36  N   UNL     1      -2.410 -11.707   8.380  1.00  0.00    -0.354 N 
ATOM     37  C   UNL     1      -2.307 -14.967   5.526  1.00  0.00     0.074 A 
ATOM     38  C   UNL     1      -1.338 -14.712   4.485  1.00  0.00     0.031 C 
ATOM     39  C   UNL     1      -1.897  -9.685   9.186  1.00  0.00     0.029 A 
ATOM     40  C   UNL     1      -2.754 -10.847   9.396  1.00  0.00     0.049 A 
ATOM     41  H   UNL     1      -2.811 -12.599   8.271  1.00  0.00     0.167 HD
ATOM     42  C   UNL     1      -3.045 -16.099   5.614  1.00  0.00     0.037 A 
ATOM     43  C   UNL     1      -3.667 -10.978  10.377  1.00  0.00     0.037 A 
ATOM     44  C   UNL     1      -3.979 -16.366   6.674  1.00  0.00     0.049 A 
ATOM     45  C   UNL     1      -4.467 -12.251  10.462  1.00  0.00     0.074 A 
ATOM     46  C   UNL     1      -4.750 -17.496   6.884  1.00  0.00     0.029 A 
ATOM     47  N   UNL     1      -4.260 -15.490   7.713  1.00  0.00    -0.354 N 
ATOM     48  N   UNL     1      -4.451 -13.295   9.668  1.00  0.00    -0.248 NA
ATOM     49  C   UNL     1      -5.402 -12.371  11.588  1.00  0.00     0.031 C 
ATOM     50  C   UNL     1      -5.529 -17.286   8.027  1.00  0.00     0.029 A 
ATOM     51  C   UNL     1      -5.197 -16.053   8.564  1.00  0.00     0.049 A 
ATOM     52  H   UNL     1      -3.854 -14.601   7.828  1.00  0.00     0.167 HD
ATOM     53  C   UNL     1      -5.342 -14.207  10.218  1.00  0.00     0.074 A 
ATOM     54  C   UNL     1      -5.869 -13.599  11.421  1.00  0.00     0.031 C 
ATOM     55  C   UNL     1      -5.692 -15.438   9.769  1.00  0.00     0.037 A 
BRANCH  42  56
ATOM     56  C   UNL     1      -2.851 -17.143   4.548  1.00  0.00     0.064 A 
ATOM     57  C   UNL     1      -1.647 -17.855   4.426  1.00  0.00     0.173 A 
ATOM     58  C   UNL     1      -3.888 -17.458   3.656  1.00  0.00     0.173 A 
ATOM     59  F   UNL     1      -0.617 -17.586   5.243  1.00  0.00    -0.203 F 
ATOM     60  C   UNL     1      -1.476 -18.814   3.431  1.00  0.00     0.198 A 
ATOM     61  C   UNL     1      -3.726 -18.445   2.687  1.00  0.00     0.198 A 
ATOM     62  F   UNL     1      -5.062 -16.815   3.729  1.00  0.00    -0.203 F 
ATOM     63  F   UNL     1      -0.295 -19.436   3.299  1.00  0.00    -0.200 F 
ATOM     64  C   UNL     1      -2.518 -19.115   2.569  1.00  0.00     0.200 A 
ATOM     65  F   UNL     1      -4.740 -18.746   1.863  1.00  0.00    -0.200 F 
ATOM     66  F   UNL     1      -2.355 -20.046   1.618  1.00  0.00    -0.200 F 
ENDBRANCH  42  56
BRANCH  43  67
ATOM     67  C   UNL     1      -3.860  -9.886  11.368  1.00  0.00     0.064 A 
ATOM     68  C   UNL     1      -3.506 -10.058  12.714  1.00  0.00     0.173 A 
ATOM     69  C   UNL     1      -4.416  -8.652  10.996  1.00  0.00     0.173 A 
ATOM     70  F   UNL     1      -2.985 -11.224  13.125  1.00  0.00    -0.203 F 
ATOM     71  C   UNL     1      -3.729  -9.054  13.654  1.00  0.00     0.198 A 
ATOM     72  C   UNL     1      -4.607  -7.636  11.930  1.00  0.00     0.198 A 
ATOM     73  F   UNL     1      -4.763  -8.430   9.720  1.00  0.00    -0.203 F 
ATOM     74  F   UNL     1      -3.436  -9.269  14.944  1.00  0.00    -0.200 F 
ATOM     75  C   UNL     1      -4.275  -7.842  13.260  1.00  0.00     0.200 A 
ATOM     76  F   UNL     1      -5.117  -6.459  11.542  1.00  0.00    -0.200 F 
ATOM     77  F   UNL     1      -4.489  -6.876  14.164  1.00  0.00    -0.200 F 
ENDBRANCH  43  67
BRANCH  55  78
ATOM     78  C   UNL     1      -6.645 -16.234  10.614  1.00  0.00     0.064 A 
ATOM     79  C   UNL     1      -7.996 -15.882  10.744  1.00  0.00     0.173 A 
ATOM     80  C   UNL     1      -6.200 -17.389  11.277  1.00  0.00     0.173 A 
ATOM     81  F   UNL     1      -8.468 -14.780  10.140  1.00  0.00    -0.203 F 
ATOM     82  C   UNL     1      -8.858 -16.636  11.535  1.00  0.00     0.198 A 
ATOM     83  C   UNL     1      -7.073 -18.160  12.037  1.00  0.00     0.198 A 
ATOM     84  F   UNL     1      -4.919 -17.776  11.177  1.00  0.00    -0.203 F 
ATOM     85  F   UNL     1     -10.131 -16.247  11.692  1.00  0.00    -0.200 F 
ATOM     86  C   UNL     1      -8.398 -17.778  12.174  1.00  0.00     0.200 A 
ATOM     87  F   UNL     1      -6.631 -19.273  12.639  1.00  0.00    -0.200 F 
ATOM     88  F   UNL     1      -9.232 -18.506  12.930  1.00  0.00    -0.200 F 
ENDBRANCH  55  78
ENDBRANCH  29  30
ENDBRANCH  21  24
ENDBRANCH  19  20
ENDBRANCH   1  19
TORSDOF 11
