REMARK SMILES Cc1ccc(S(=O)(=O)n2cc(C(=O)C(=O)NCC(=O)N[C@H](Cc3c[nH]c4ccccc34)C(=O)NCCCNC(=O)c3ccc(-c4c5nc(c(-c6c(F)c(F)c(F)c(F)c6F)c6ccc([nH]6)c(-c6c(F)c(F)c(F)c(F)c6F)c6nc(c(-c7c(F)c(F)c(F)c(F)c7F)c7ccc4[nH]7)C=C6)C=C5)cc3)c3ccccc32)cc1
REMARK SMILES IDX 32 1 33 2 34 3 21 5 20 6 18 7 19 8 17 10 16 11 14 12 15 13
REMARK SMILES IDX 12 15 13 16 11 17 9 18 10 19 109 20 104 21 108 22 105 23
REMARK SMILES IDX 107 24 106 25 6 26 7 27 8 28 5 29 1 30 2 31 3 32 111 33 4 34
REMARK SMILES IDX 110 35 22 36 23 37 24 38 31 39 25 40 26 41 30 42 27 44 29 45
REMARK SMILES IDX 28 46 35 47 36 48 37 49 38 50 39 51 40 53 41 54 42 55 103 56
REMARK SMILES IDX 43 57 102 58 44 59 45 60 46 61 96 62 47 63 101 64 95 65
REMARK SMILES IDX 97 66 48 67 100 68 94 69 93 70 49 72 81 73 61 74 80 75 62 76
REMARK SMILES IDX 65 77 79 78 98 79 63 80 64 81 78 83 99 84 66 85 50 86 51 87
REMARK SMILES IDX 59 88 52 89 53 90 57 91 60 92 54 93 55 94 58 95 56 96 82 97
REMARK SMILES IDX 83 98 91 99 84 100 85 101 89 102 92 103 86 104 87 105 90 106
REMARK SMILES IDX 88 107 67 108 68 109 76 110 69 111 70 112 74 113 77 114
REMARK SMILES IDX 71 115 72 116 75 117 73 118
REMARK H PARENT 34 4 20 9 16 14 25 43 38 52 97 71 65 82
REMARK Flexibility Score: inf
ROOT
ATOM      1  C   UNL     1      -9.263   0.474   4.024  1.00  0.00     0.242 C 
ATOM      2  O   UNL     1      -8.772  -0.647   3.838  1.00  0.00    -0.273 OA
ATOM      3  N   UNL     1      -9.328   0.866   5.323  1.00  0.00    -0.354 N 
ATOM      4  H   UNL     1      -8.997   0.180   5.948  1.00  0.00     0.163 HD
ENDROOT
BRANCH   1   5
ATOM      5  C   UNL     1      -9.805   1.275   2.824  1.00  0.00     0.175 C 
BRANCH   5   6
ATOM      6  N   UNL     1      -9.321   2.655   2.942  1.00  0.00    -0.342 N 
ATOM      7  C   UNL     1      -8.070   3.153   2.721  1.00  0.00     0.240 C 
ATOM      8  O   UNL     1      -7.893   4.340   3.010  1.00  0.00    -0.273 OA
ATOM      9  H   UNL     1      -9.995   3.316   3.221  1.00  0.00     0.164 HD
BRANCH   7  10
ATOM     10  C   UNL     1      -6.989   2.352   1.961  1.00  0.00     0.216 C 
BRANCH  10  11
ATOM     11  N   UNL     1      -6.788   0.952   2.326  1.00  0.00    -0.340 N 
ATOM     12  C   UNL     1      -6.480  -0.115   1.495  1.00  0.00     0.292 C 
ATOM     13  O   UNL     1      -6.269  -1.240   1.932  1.00  0.00    -0.265 OA
ATOM     14  H   UNL     1      -6.883   0.739   3.282  1.00  0.00     0.164 HD
BRANCH  12  15
ATOM     15  C   UNL     1      -6.379   0.127  -0.009  1.00  0.00     0.252 C 
ATOM     16  O   UNL     1      -5.542   0.953  -0.371  1.00  0.00    -0.283 OA
BRANCH  15  17
ATOM     17  C   UNL     1      -7.365  -0.443  -0.936  1.00  0.00     0.054 A 
ATOM     18  N   UNL     1      -8.750  -1.770  -2.135  1.00  0.00    -0.240 N 
ATOM     19  C   UNL     1      -7.780  -1.766  -1.133  1.00  0.00     0.117 A 
ATOM     20  C   UNL     1      -9.099  -0.432  -2.390  1.00  0.00     0.065 A 
ATOM     21  C   UNL     1      -8.037   0.336  -1.923  1.00  0.00     0.012 A 
ATOM     22  C   UNL     1     -10.091   0.118  -3.226  1.00  0.00     0.028 A 
ATOM     23  C   UNL     1      -7.859   1.634  -2.448  1.00  0.00     0.011 A 
ATOM     24  C   UNL     1      -9.854   1.373  -3.785  1.00  0.00     0.002 A 
ATOM     25  C   UNL     1      -8.731   2.107  -3.432  1.00  0.00     0.001 A 
BRANCH  18  26
ATOM     26  S   UNL     1      -8.692  -2.703  -3.610  1.00  0.00     0.268 S 
ATOM     27  O   UNL     1      -7.524  -2.167  -4.290  1.00  0.00    -0.201 OA
ATOM     28  O   UNL     1     -10.032  -2.513  -4.152  1.00  0.00    -0.201 OA
BRANCH  26  29
ATOM     29  C   UNL     1      -8.525  -4.447  -3.715  1.00  0.00     0.088 A 
ATOM     30  C   UNL     1      -8.679  -8.602  -4.888  1.00  0.00     0.044 C 
ATOM     31  C   UNL     1      -8.569  -7.169  -4.452  1.00  0.00    -0.051 A 
ATOM     32  C   UNL     1      -8.702  -6.195  -5.431  1.00  0.00     0.005 A 
ATOM     33  C   UNL     1      -8.396  -6.769  -3.107  1.00  0.00     0.005 A 
ATOM     34  C   UNL     1      -8.667  -4.862  -5.064  1.00  0.00     0.022 A 
ATOM     35  C   UNL     1      -8.377  -5.402  -2.725  1.00  0.00     0.022 A 
ENDBRANCH  26  29
ENDBRANCH  18  26
ENDBRANCH  15  17
ENDBRANCH  12  15
ENDBRANCH  10  11
ENDBRANCH   7  10
ENDBRANCH   5   6
BRANCH   5  36
ATOM     36  C   UNL     1     -11.323   1.222   2.534  1.00  0.00     0.072 C 
BRANCH  36  37
ATOM     37  C   UNL     1     -12.199   0.121   3.083  1.00  0.00    -0.020 A 
ATOM     38  C   UNL     1     -11.893  -0.902   3.958  1.00  0.00     0.087 A 
ATOM     39  C   UNL     1     -13.607  -0.041   2.786  1.00  0.00     0.003 A 
ATOM     40  N   UNL     1     -13.032  -1.589   4.262  1.00  0.00    -0.361 N 
ATOM     41  C   UNL     1     -14.102  -1.056   3.605  1.00  0.00     0.046 A 
ATOM     42  C   UNL     1     -14.517   0.592   1.911  1.00  0.00     0.010 A 
ATOM     43  H   UNL     1     -13.075  -2.362   4.870  1.00  0.00     0.166 HD
ATOM     44  C   UNL     1     -15.451  -1.421   3.662  1.00  0.00     0.026 A 
ATOM     45  C   UNL     1     -15.866   0.202   1.914  1.00  0.00     0.001 A 
ATOM     46  C   UNL     1     -16.328  -0.772   2.795  1.00  0.00     0.002 A 
ENDBRANCH  36  37
ENDBRANCH   5  36
ENDBRANCH   1   5
BRANCH   3  47
ATOM     47  C   UNL     1      -9.778   2.075   5.994  1.00  0.00     0.117 C 
BRANCH  47  48
ATOM     48  C   UNL     1     -11.284   2.140   6.224  1.00  0.00     0.042 C 
BRANCH  48  49
ATOM     49  C   UNL     1     -11.830   1.004   7.092  1.00  0.00     0.118 C 
BRANCH  49  50
ATOM     50  N   UNL     1     -12.342   1.438   8.389  1.00  0.00    -0.352 N 
ATOM     51  C   UNL     1     -12.928   0.686   9.396  1.00  0.00     0.251 C 
ATOM     52  H   UNL     1     -12.259   2.401   8.575  1.00  0.00     0.163 HD
ATOM     53  O   UNL     1     -13.277   1.207  10.438  1.00  0.00    -0.269 OA
BRANCH  51  54
ATOM     54  C   UNL     1     -13.010  -0.785   9.236  1.00  0.00     0.039 A 
ATOM     55  C   UNL     1     -12.466  -1.585  10.246  1.00  0.00     0.014 A 
ATOM     56  C   UNL     1     -13.463  -1.359   8.051  1.00  0.00     0.014 A 
ATOM     57  C   UNL     1     -12.137  -2.910   9.967  1.00  0.00     0.010 A 
ATOM     58  C   UNL     1     -13.102  -2.662   7.761  1.00  0.00     0.010 A 
ATOM     59  C   UNL     1     -12.356  -3.402   8.680  1.00  0.00    -0.014 A 
BRANCH  59  60
ATOM     60  C   UNL     1     -11.696  -4.601   8.174  1.00  0.00     0.031 A 
ATOM     61  C   UNL     1     -12.396  -5.897   8.108  1.00  0.00     0.074 A 
ATOM     62  C   UNL     1     -10.416  -4.520   7.744  1.00  0.00     0.049 A 
ATOM     63  N   UNL     1     -11.808  -7.035   8.272  1.00  0.00    -0.248 NA
ATOM     64  C   UNL     1     -13.828  -6.011   7.862  1.00  0.00     0.031 C 
ATOM     65  C   UNL     1      -9.648  -5.556   7.055  1.00  0.00     0.029 A 
ATOM     66  N   UNL     1      -9.468  -3.524   8.041  1.00  0.00    -0.354 N 
ATOM     67  C   UNL     1     -12.697  -8.016   7.908  1.00  0.00     0.074 A 
ATOM     68  C   UNL     1     -13.961  -7.336   7.724  1.00  0.00     0.031 C 
ATOM     69  C   UNL     1      -8.342  -5.329   7.260  1.00  0.00     0.029 A 
ATOM     70  C   UNL     1      -8.238  -4.209   8.178  1.00  0.00     0.049 A 
ATOM     71  H   UNL     1      -9.627  -2.557   8.134  1.00  0.00     0.167 HD
ATOM     72  C   UNL     1     -12.251  -9.281   7.660  1.00  0.00     0.037 A 
ATOM     73  C   UNL     1      -7.532  -4.209   9.343  1.00  0.00     0.037 A 
ATOM     74  C   UNL     1     -10.807  -9.390   7.819  1.00  0.00     0.049 A 
ATOM     75  C   UNL     1      -7.247  -5.584   9.889  1.00  0.00     0.074 A 
ATOM     76  C   UNL     1      -9.768  -9.332   6.904  1.00  0.00     0.029 A 
ATOM     77  N   UNL     1     -10.231  -9.262   9.078  1.00  0.00    -0.354 N 
ATOM     78  N   UNL     1      -7.934  -6.644   9.571  1.00  0.00    -0.248 NA
ATOM     79  C   UNL     1      -6.194  -5.866  10.859  1.00  0.00     0.031 C 
ATOM     80  C   UNL     1      -8.561  -9.149   7.615  1.00  0.00     0.029 A 
ATOM     81  C   UNL     1      -8.863  -9.104   8.964  1.00  0.00     0.049 A 
ATOM     82  H   UNL     1     -10.727  -9.280   9.928  1.00  0.00     0.167 HD
ATOM     83  C   UNL     1      -7.452  -7.724  10.268  1.00  0.00     0.074 A 
ATOM     84  C   UNL     1      -6.354  -7.188  11.048  1.00  0.00     0.031 C 
ATOM     85  C   UNL     1      -8.012  -8.964  10.134  1.00  0.00     0.037 A 
BRANCH  72  86
ATOM     86  C   UNL     1     -13.104 -10.316   6.971  1.00  0.00     0.064 A 
ATOM     87  C   UNL     1     -12.571 -11.176   5.989  1.00  0.00     0.173 A 
ATOM     88  C   UNL     1     -14.480 -10.464   7.216  1.00  0.00     0.173 A 
ATOM     89  F   UNL     1     -11.261 -11.209   5.717  1.00  0.00    -0.203 F 
ATOM     90  C   UNL     1     -13.374 -12.028   5.227  1.00  0.00     0.198 A 
ATOM     91  C   UNL     1     -15.292 -11.280   6.421  1.00  0.00     0.198 A 
ATOM     92  F   UNL     1     -15.068  -9.827   8.239  1.00  0.00    -0.203 F 
ATOM     93  F   UNL     1     -12.816 -12.807   4.290  1.00  0.00    -0.200 F 
ATOM     94  C   UNL     1     -14.741 -12.051   5.417  1.00  0.00     0.200 A 
ATOM     95  F   UNL     1     -16.617 -11.301   6.625  1.00  0.00    -0.200 F 
ATOM     96  F   UNL     1     -15.518 -12.821   4.645  1.00  0.00    -0.200 F 
ENDBRANCH  72  86
BRANCH  73  97
ATOM     97  C   UNL     1      -7.737  -2.991  10.165  1.00  0.00     0.064 A 
ATOM     98  C   UNL     1      -7.299  -1.756   9.650  1.00  0.00     0.173 A 
ATOM     99  C   UNL     1      -8.649  -2.964  11.226  1.00  0.00     0.173 A 
ATOM    100  F   UNL     1      -6.428  -1.728   8.629  1.00  0.00    -0.203 F 
ATOM    101  C   UNL     1      -7.835  -0.553  10.099  1.00  0.00     0.198 A 
ATOM    102  C   UNL     1      -9.171  -1.753  11.687  1.00  0.00     0.198 A 
ATOM    103  F   UNL     1      -9.124  -4.107  11.742  1.00  0.00    -0.203 F 
ATOM    104  F   UNL     1      -7.485   0.598   9.505  1.00  0.00    -0.200 F 
ATOM    105  C   UNL     1      -8.791  -0.554  11.100  1.00  0.00     0.200 A 
ATOM    106  F   UNL     1     -10.113  -1.755  12.640  1.00  0.00    -0.200 F 
ATOM    107  F   UNL     1      -9.376   0.595  11.469  1.00  0.00    -0.200 F 
ENDBRANCH  73  97
BRANCH  85 108
ATOM    108  C   UNL     1      -7.738 -10.188  10.982  1.00  0.00     0.064 A 
ATOM    109  C   UNL     1      -7.255 -10.147  12.299  1.00  0.00     0.173 A 
ATOM    110  C   UNL     1      -8.098 -11.478  10.512  1.00  0.00     0.173 A 
ATOM    111  F   UNL     1      -6.995  -8.986  12.914  1.00  0.00    -0.203 F 
ATOM    112  C   UNL     1      -7.081 -11.307  13.063  1.00  0.00     0.198 A 
ATOM    113  C   UNL     1      -7.979 -12.625  11.296  1.00  0.00     0.198 A 
ATOM    114  F   UNL     1      -8.605 -11.666   9.285  1.00  0.00    -0.203 F 
ATOM    115  F   UNL     1      -6.576 -11.215  14.301  1.00  0.00    -0.200 F 
ATOM    116  C   UNL     1      -7.454 -12.542  12.567  1.00  0.00     0.200 A 
ATOM    117  F   UNL     1      -8.398 -13.805  10.817  1.00  0.00    -0.200 F 
ATOM    118  F   UNL     1      -7.330 -13.643  13.320  1.00  0.00    -0.200 F 
ENDBRANCH  85 108
ENDBRANCH  59  60
ENDBRANCH  51  54
ENDBRANCH  49  50
ENDBRANCH  48  49
ENDBRANCH  47  48
ENDBRANCH   3  47
TORSDOF 19
