REMARK SMILES O=C(NCCCNC(=O)[C@H]1CC[C@@H](CNC(=O)c2ccc(CO)cc2)O1)c1ccc(-c2c3nc(c(-c4c(F)c(F)c(F)c(F)c4F)c4ccc([nH]4)c(-c4c(F)c(F)c(F)c(F)c4F)c4nc(c(-c5c(F)c(F)c(F)c(F)c5F)c5ccc2[nH]5)C=C4)C=C3)cc1
REMARK SMILES IDX 7 1 8 2 9 3 6 5 5 6 4 7 3 8 1 9 2 10 27 12 28 13 89 14 29 15
REMARK SMILES IDX 88 16 30 17 31 18 32 19 82 20 33 21 87 22 81 23 83 24 34 25
REMARK SMILES IDX 86 26 80 27 79 28 35 30 67 31 47 32 66 33 48 34 51 35 65 36
REMARK SMILES IDX 84 37 49 38 50 39 64 41 85 42 52 43 36 44 37 45 45 46 38 47
REMARK SMILES IDX 39 48 43 49 46 50 40 51 41 52 44 53 42 54 68 55 69 56 77 57
REMARK SMILES IDX 70 58 71 59 75 60 78 61 72 62 73 63 76 64 74 65 53 66 54 67
REMARK SMILES IDX 62 68 55 69 56 70 60 71 63 72 57 73 58 74 61 75 59 76 10 77
REMARK SMILES IDX 11 78 26 79 12 80 13 81 14 82 15 83 16 84 17 86 18 87 19 88
REMARK SMILES IDX 25 89 20 90 24 91 21 92 22 93 23 94
REMARK H PARENT 7 4 3 11 83 29 51 40 15 85 23 95
REMARK Flexibility Score: inf
ROOT
ATOM      1  N   UNL     1       7.778   3.022  -6.024  1.00  0.00    -0.354 N 
ATOM      2  C   UNL     1       6.786   2.365  -6.695  1.00  0.00     0.249 C 
ATOM      3  O   UNL     1       6.788   2.430  -7.925  1.00  0.00    -0.272 OA
ATOM      4  H   UNL     1       8.414   3.519  -6.588  1.00  0.00     0.163 HD
ENDROOT
BRANCH   1   5
ATOM      5  C   UNL     1       8.024   3.089  -4.596  1.00  0.00     0.117 C 
BRANCH   5   6
ATOM      6  C   UNL     1       9.273   2.316  -4.194  1.00  0.00     0.042 C 
BRANCH   6   7
ATOM      7  C   UNL     1      10.559   2.837  -4.824  1.00  0.00     0.118 C 
BRANCH   7   8
ATOM      8  N   UNL     1      10.930   4.171  -4.365  1.00  0.00    -0.352 N 
ATOM      9  O   UNL     1      12.105   5.757  -3.277  1.00  0.00    -0.269 OA
ATOM     10  C   UNL     1      12.055   4.606  -3.704  1.00  0.00     0.251 C 
ATOM     11  H   UNL     1      10.268   4.874  -4.561  1.00  0.00     0.163 HD
BRANCH  10  12
ATOM     12  C   UNL     1      13.196   3.692  -3.479  1.00  0.00     0.039 A 
ATOM     13  C   UNL     1      13.623   2.822  -4.482  1.00  0.00     0.014 A 
ATOM     14  C   UNL     1      13.866   3.718  -2.251  1.00  0.00     0.014 A 
ATOM     15  C   UNL     1      14.587   1.863  -4.200  1.00  0.00     0.010 A 
ATOM     16  C   UNL     1      14.914   2.822  -2.005  1.00  0.00     0.010 A 
ATOM     17  C   UNL     1      15.257   1.859  -2.965  1.00  0.00    -0.014 A 
BRANCH  17  18
ATOM     18  C   UNL     1      16.348   0.871  -2.751  1.00  0.00     0.031 A 
ATOM     19  C   UNL     1      16.246  -0.200  -1.701  1.00  0.00     0.074 A 
ATOM     20  C   UNL     1      17.412   0.908  -3.577  1.00  0.00     0.049 A 
ATOM     21  N   UNL     1      17.067  -1.192  -1.455  1.00  0.00    -0.248 NA
ATOM     22  C   UNL     1      15.081  -0.154  -0.805  1.00  0.00     0.031 C 
ATOM     23  C   UNL     1      17.635   1.919  -4.613  1.00  0.00     0.029 A 
ATOM     24  N   UNL     1      18.484   0.062  -3.704  1.00  0.00    -0.354 N 
ATOM     25  C   UNL     1      16.524  -1.881  -0.379  1.00  0.00     0.074 A 
ATOM     26  C   UNL     1      15.320  -1.176   0.007  1.00  0.00     0.031 C 
ATOM     27  C   UNL     1      18.734   1.601  -5.310  1.00  0.00     0.029 A 
ATOM     28  C   UNL     1      19.328   0.401  -4.732  1.00  0.00     0.049 A 
ATOM     29  H   UNL     1      18.634  -0.712  -3.115  1.00  0.00     0.167 HD
ATOM     30  C   UNL     1      16.981  -3.008   0.220  1.00  0.00     0.037 A 
ATOM     31  C   UNL     1      20.462  -0.182  -5.162  1.00  0.00     0.037 A 
ATOM     32  C   UNL     1      18.178  -3.710  -0.170  1.00  0.00     0.049 A 
ATOM     33  C   UNL     1      20.942  -1.429  -4.478  1.00  0.00     0.074 A 
ATOM     34  C   UNL     1      18.721  -4.863   0.372  1.00  0.00     0.029 A 
ATOM     35  N   UNL     1      19.020  -3.323  -1.203  1.00  0.00    -0.354 N 
ATOM     36  N   UNL     1      20.401  -2.085  -3.480  1.00  0.00    -0.248 NA
ATOM     37  C   UNL     1      22.189  -2.019  -4.980  1.00  0.00     0.031 C 
ATOM     38  C   UNL     1      19.909  -5.153  -0.308  1.00  0.00     0.029 A 
ATOM     39  C   UNL     1      20.084  -4.208  -1.306  1.00  0.00     0.049 A 
ATOM     40  H   UNL     1      18.883  -2.537  -1.779  1.00  0.00     0.167 HD
ATOM     41  C   UNL     1      21.236  -3.165  -3.238  1.00  0.00     0.074 A 
ATOM     42  C   UNL     1      22.300  -3.097  -4.219  1.00  0.00     0.031 C 
ATOM     43  C   UNL     1      21.138  -4.121  -2.282  1.00  0.00     0.037 A 
BRANCH  30  44
ATOM     44  C   UNL     1      16.186  -3.561   1.369  1.00  0.00     0.064 A 
ATOM     45  C   UNL     1      14.949  -4.192   1.167  1.00  0.00     0.173 A 
ATOM     46  C   UNL     1      16.693  -3.517   2.676  1.00  0.00     0.173 A 
ATOM     47  F   UNL     1      14.414  -4.252  -0.062  1.00  0.00    -0.203 F 
ATOM     48  C   UNL     1      14.243  -4.743   2.234  1.00  0.00     0.198 A 
ATOM     49  C   UNL     1      15.996  -4.092   3.737  1.00  0.00     0.198 A 
ATOM     50  F   UNL     1      17.874  -2.931   2.924  1.00  0.00    -0.203 F 
ATOM     51  F   UNL     1      13.047  -5.311   2.022  1.00  0.00    -0.200 F 
ATOM     52  C   UNL     1      14.771  -4.701   3.515  1.00  0.00     0.200 A 
ATOM     53  F   UNL     1      16.514  -4.061   4.973  1.00  0.00    -0.200 F 
ATOM     54  F   UNL     1      14.095  -5.243   4.538  1.00  0.00    -0.200 F 
ENDBRANCH  30  44
BRANCH  31  55
ATOM     55  C   UNL     1      21.218   0.417  -6.292  1.00  0.00     0.064 A 
ATOM     56  C   UNL     1      21.318  -0.234  -7.528  1.00  0.00     0.173 A 
ATOM     57  C   UNL     1      21.852   1.661  -6.156  1.00  0.00     0.173 A 
ATOM     58  F   UNL     1      20.744  -1.434  -7.701  1.00  0.00    -0.203 F 
ATOM     59  C   UNL     1      22.041   0.326  -8.579  1.00  0.00     0.198 A 
ATOM     60  C   UNL     1      22.545   2.236  -7.218  1.00  0.00     0.198 A 
ATOM     61  F   UNL     1      21.780   2.329  -4.995  1.00  0.00    -0.203 F 
ATOM     62  F   UNL     1      22.163  -0.340  -9.735  1.00  0.00    -0.200 F 
ATOM     63  C   UNL     1      22.648   1.564  -8.425  1.00  0.00     0.200 A 
ATOM     64  F   UNL     1      23.113   3.441  -7.069  1.00  0.00    -0.200 F 
ATOM     65  F   UNL     1      23.337   2.105  -9.439  1.00  0.00    -0.200 F 
ENDBRANCH  31  55
BRANCH  43  66
ATOM     66  C   UNL     1      22.209  -5.172  -2.266  1.00  0.00     0.064 A 
ATOM     67  C   UNL     1      23.518  -4.878  -1.856  1.00  0.00     0.173 A 
ATOM     68  C   UNL     1      21.922  -6.487  -2.662  1.00  0.00     0.173 A 
ATOM     69  F   UNL     1      23.845  -3.631  -1.485  1.00  0.00    -0.203 F 
ATOM     70  C   UNL     1      24.510  -5.854  -1.878  1.00  0.00     0.198 A 
ATOM     71  C   UNL     1      22.910  -7.467  -2.654  1.00  0.00     0.198 A 
ATOM     72  F   UNL     1      20.684  -6.820  -3.057  1.00  0.00    -0.203 F 
ATOM     73  F   UNL     1      25.767  -5.536  -1.539  1.00  0.00    -0.200 F 
ATOM     74  C   UNL     1      24.205  -7.148  -2.272  1.00  0.00     0.200 A 
ATOM     75  F   UNL     1      22.611  -8.720  -3.025  1.00  0.00    -0.200 F 
ATOM     76  F   UNL     1      25.162  -8.086  -2.296  1.00  0.00    -0.200 F 
ENDBRANCH  43  66
ENDBRANCH  17  18
ENDBRANCH  10  12
ENDBRANCH   7   8
ENDBRANCH   6   7
ENDBRANCH   5   6
ENDBRANCH   1   5
BRANCH   2  77
ATOM     77  C   UNL     1       5.713   1.599  -5.893  1.00  0.00     0.207 C 
ATOM     78  C   UNL     1       4.551   1.149  -6.761  1.00  0.00     0.045 C 
ATOM     79  O   UNL     1       6.258   0.403  -5.312  1.00  0.00    -0.363 OA
ATOM     80  C   UNL     1       5.041  -0.180  -7.277  1.00  0.00     0.037 C 
ATOM     81  C   UNL     1       5.789  -0.736  -6.075  1.00  0.00     0.138 C 
BRANCH  81  82
ATOM     82  C   UNL     1       6.981  -1.643  -6.408  1.00  0.00     0.148 C 
BRANCH  82  83
ATOM     83  N   UNL     1       6.771  -2.511  -7.557  1.00  0.00    -0.349 N 
ATOM     84  C   UNL     1       7.382  -2.464  -8.788  1.00  0.00     0.251 C 
ATOM     85  H   UNL     1       6.105  -3.226  -7.438  1.00  0.00     0.163 HD
ATOM     86  O   UNL     1       6.938  -3.122  -9.724  1.00  0.00    -0.269 OA
BRANCH  84  87
ATOM     87  C   UNL     1       8.569  -1.604  -8.993  1.00  0.00     0.039 A 
ATOM     88  C   UNL     1       8.579  -0.706 -10.062  1.00  0.00     0.014 A 
ATOM     89  C   UNL     1       9.685  -1.712  -8.157  1.00  0.00     0.014 A 
ATOM     90  C   UNL     1       9.677   0.138 -10.249  1.00  0.00     0.007 A 
ATOM     91  C   UNL     1      10.777  -0.861  -8.339  1.00  0.00     0.007 A 
ATOM     92  C   UNL     1      10.771   0.087  -9.371  1.00  0.00    -0.023 A 
BRANCH  92  93
ATOM     93  C   UNL     1      11.942   1.013  -9.564  1.00  0.00     0.191 C 
BRANCH  93  94
ATOM     94  O   UNL     1      12.841   0.504 -10.537  1.00  0.00    -0.392 OA
ATOM     95  H   UNL     1      13.183  -0.355 -10.243  1.00  0.00     0.211 HD
ENDBRANCH  93  94
ENDBRANCH  92  93
ENDBRANCH  84  87
ENDBRANCH  82  83
ENDBRANCH  81  82
ENDBRANCH   2  77
TORSDOF 15
