REMARK SMILES O=C(COc1ccccc1[C@@H]1[NH2+]CCc2cc(O)c(O)cc21)NCCCNC(=O)c1ccc(-c2c3nc(c(-c4c(F)c(F)c(F)c(F)c4F)c4ccc([nH]4)c(-c4c(F)c(F)c(F)c(F)c4F)c4nc(c(-c5c(F)c(F)c(F)c(F)c5F)c5ccc2[nH]5)C=C4)C=C3)cc1
REMARK SMILES IDX 24 1 23 2 1 3 2 4 3 6 4 7 5 8 6 9 10 10 7 11 9 12 8 13 11 14
REMARK SMILES IDX 12 15 22 16 13 17 15 20 21 21 14 22 16 23 19 24 17 25 20 26
REMARK SMILES IDX 18 28 25 30 26 31 27 32 28 33 29 35 30 36 31 37 92 38 32 39
REMARK SMILES IDX 91 40 33 41 34 42 35 43 85 44 36 45 90 46 84 47 86 48 37 49
REMARK SMILES IDX 89 50 83 51 82 52 38 54 70 55 50 56 69 57 51 58 54 59 68 60
REMARK SMILES IDX 87 61 52 62 53 63 67 65 88 66 55 67 39 68 40 69 48 70 41 71
REMARK SMILES IDX 42 72 46 73 49 74 43 75 44 76 47 77 45 78 71 79 72 80 80 81
REMARK SMILES IDX 73 82 74 83 78 84 81 85 75 86 76 87 79 88 77 89 56 90 57 91
REMARK SMILES IDX 65 92 58 93 59 94 63 95 66 96 60 97 61 98 64 99 62 100
REMARK H PARENT 23 5 12 18 12 19 20 27 18 29 27 34 86 53 54 64
REMARK Flexibility Score: inf
ROOT
ATOM      1  C   UNL     1       2.559   2.140  -1.269  1.00  0.00     0.117 C 
ENDROOT
BRANCH   1   2
ATOM      2  N   UNL     1       3.482   1.132  -0.782  1.00  0.00    -0.353 N 
ATOM      3  O   UNL     1       3.050   1.405   1.453  1.00  0.00    -0.271 OA
ATOM      4  C   UNL     1       3.499   0.720   0.537  1.00  0.00     0.257 C 
ATOM      5  H   UNL     1       4.118   0.727  -1.414  1.00  0.00     0.163 HD
BRANCH   4   6
ATOM      6  C   UNL     1       4.112  -0.675   0.755  1.00  0.00     0.329 C 
BRANCH   6   7
ATOM      7  O   UNL     1       4.361  -1.474  -0.387  1.00  0.00    -0.483 OA
BRANCH   7   8
ATOM      8  C   UNL     1       3.459  -2.271  -1.041  1.00  0.00     0.129 A 
ATOM      9  C   UNL     1       4.145  -3.337  -1.657  1.00  0.00     0.047 A 
ATOM     10  C   UNL     1       2.084  -2.085  -1.326  1.00  0.00     0.056 A 
ATOM     11  C   UNL     1       3.552  -4.131  -2.634  1.00  0.00     0.004 A 
ATOM     12  C   UNL     1       1.541  -2.839  -2.397  1.00  0.00     0.014 A 
ATOM     13  C   UNL     1       2.264  -3.839  -3.047  1.00  0.00     0.001 A 
BRANCH  10  14
ATOM     14  C   UNL     1       1.170  -1.098  -0.618  1.00  0.00     0.249 C 
ATOM     15  N   UNL     1       1.302  -1.153   0.846  1.00  0.00    -0.336 N 
ATOM     16  C   UNL     1      -0.334  -1.043  -0.904  1.00  0.00     0.021 A 
ATOM     17  C   UNL     1       0.696  -2.356   1.437  1.00  0.00     0.266 C 
ATOM     18  H   UNL     1       0.847  -0.332   1.244  1.00  0.00     0.347 HD
ATOM     19  H   UNL     1       2.299  -1.180   1.060  1.00  0.00     0.347 HD
ATOM     20  C   UNL     1      -1.159  -1.925  -0.170  1.00  0.00    -0.029 A 
ATOM     21  C   UNL     1      -0.908   0.009  -1.638  1.00  0.00     0.060 A 
ATOM     22  C   UNL     1      -0.463  -2.983   0.645  1.00  0.00     0.097 C 
ATOM     23  C   UNL     1      -2.538  -1.725  -0.120  1.00  0.00     0.054 A 
ATOM     24  C   UNL     1      -2.280   0.216  -1.550  1.00  0.00     0.157 A 
ATOM     25  C   UNL     1      -3.078  -0.632  -0.782  1.00  0.00     0.157 A 
BRANCH  24  26
ATOM     26  O   UNL     1      -2.889   1.286  -2.148  1.00  0.00    -0.504 OA
ATOM     27  H   UNL     1      -3.816   1.400  -2.071  1.00  0.00     0.293 HD
ENDBRANCH  24  26
BRANCH  25  28
ATOM     28  O   UNL     1      -4.406  -0.354  -0.624  1.00  0.00    -0.504 OA
ATOM     29  H   UNL     1      -4.946  -0.921  -0.109  1.00  0.00     0.293 HD
ENDBRANCH  25  28
ENDBRANCH  10  14
ENDBRANCH   7   8
ENDBRANCH   6   7
ENDBRANCH   4   6
ENDBRANCH   1   2
BRANCH   1  30
ATOM     30  C   UNL     1       2.794   3.549  -0.776  1.00  0.00     0.042 C 
BRANCH  30  31
ATOM     31  C   UNL     1       4.224   4.003  -0.931  1.00  0.00     0.118 C 
BRANCH  31  32
ATOM     32  N   UNL     1       4.696   3.944  -2.308  1.00  0.00    -0.352 N 
ATOM     33  C   UNL     1       5.364   4.893  -3.035  1.00  0.00     0.251 C 
ATOM     34  H   UNL     1       4.507   3.103  -2.783  1.00  0.00     0.163 HD
ATOM     35  O   UNL     1       5.572   4.723  -4.233  1.00  0.00    -0.269 OA
BRANCH  33  36
ATOM     36  C   UNL     1       5.807   6.135  -2.371  1.00  0.00     0.039 A 
ATOM     37  C   UNL     1       5.668   7.348  -3.047  1.00  0.00     0.014 A 
ATOM     38  C   UNL     1       6.338   6.106  -1.078  1.00  0.00     0.014 A 
ATOM     39  C   UNL     1       6.026   8.534  -2.406  1.00  0.00     0.010 A 
ATOM     40  C   UNL     1       6.571   7.292  -0.399  1.00  0.00     0.010 A 
ATOM     41  C   UNL     1       6.457   8.516  -1.069  1.00  0.00    -0.014 A 
BRANCH  41  42
ATOM     42  C   UNL     1       6.865   9.763  -0.381  1.00  0.00     0.031 A 
ATOM     43  C   UNL     1       8.285   9.920   0.094  1.00  0.00     0.074 A 
ATOM     44  C   UNL     1       5.959  10.733  -0.159  1.00  0.00     0.049 A 
ATOM     45  N   UNL     1       8.844  10.928   0.714  1.00  0.00    -0.248 NA
ATOM     46  C   UNL     1       9.192   8.781  -0.128  1.00  0.00     0.031 C 
ATOM     47  C   UNL     1       4.541  10.665  -0.516  1.00  0.00     0.029 A 
ATOM     48  N   UNL     1       6.098  11.969   0.418  1.00  0.00    -0.354 N 
ATOM     49  C   UNL     1      10.153  10.536   0.964  1.00  0.00     0.074 A 
ATOM     50  C   UNL     1      10.286   9.174   0.502  1.00  0.00     0.031 C 
ATOM     51  C   UNL     1       3.950  11.826  -0.189  1.00  0.00     0.029 A 
ATOM     52  C   UNL     1       4.938  12.704   0.430  1.00  0.00     0.049 A 
ATOM     53  H   UNL     1       6.949  12.298   0.788  1.00  0.00     0.167 HD
ATOM     54  C   UNL     1      11.166  11.260   1.494  1.00  0.00     0.037 A 
ATOM     55  C   UNL     1       4.705  13.949   0.884  1.00  0.00     0.037 A 
ATOM     56  C   UNL     1      11.033  12.625   1.926  1.00  0.00     0.049 A 
ATOM     57  C   UNL     1       5.851  14.738   1.461  1.00  0.00     0.074 A 
ATOM     58  C   UNL     1      12.004  13.470   2.432  1.00  0.00     0.029 A 
ATOM     59  N   UNL     1       9.847  13.345   1.901  1.00  0.00    -0.354 N 
ATOM     60  N   UNL     1       7.105  14.387   1.619  1.00  0.00    -0.248 NA
ATOM     61  C   UNL     1       5.551  16.105   1.906  1.00  0.00     0.031 C 
ATOM     62  C   UNL     1      11.395  14.685   2.762  1.00  0.00     0.029 A 
ATOM     63  C   UNL     1      10.058  14.620   2.399  1.00  0.00     0.049 A 
ATOM     64  H   UNL     1       8.983  13.000   1.578  1.00  0.00     0.167 HD
ATOM     65  C   UNL     1       7.750  15.499   2.144  1.00  0.00     0.074 A 
ATOM     66  C   UNL     1       6.751  16.540   2.263  1.00  0.00     0.031 C 
ATOM     67  C   UNL     1       9.052  15.647   2.493  1.00  0.00     0.037 A 
BRANCH  54  68
ATOM     68  C   UNL     1      12.503  10.588   1.628  1.00  0.00     0.064 A 
ATOM     69  C   UNL     1      13.265  10.229   0.504  1.00  0.00     0.173 A 
ATOM     70  C   UNL     1      13.040  10.314   2.895  1.00  0.00     0.173 A 
ATOM     71  F   UNL     1      12.793  10.453  -0.732  1.00  0.00    -0.203 F 
ATOM     72  C   UNL     1      14.495   9.591   0.644  1.00  0.00     0.198 A 
ATOM     73  C   UNL     1      14.286   9.709   3.031  1.00  0.00     0.198 A 
ATOM     74  F   UNL     1      12.357  10.637   4.003  1.00  0.00    -0.203 F 
ATOM     75  F   UNL     1      15.174   9.204  -0.445  1.00  0.00    -0.200 F 
ATOM     76  C   UNL     1      15.008   9.339   1.906  1.00  0.00     0.200 A 
ATOM     77  F   UNL     1      14.788   9.479   4.253  1.00  0.00    -0.200 F 
ATOM     78  F   UNL     1      16.195   8.731   2.039  1.00  0.00    -0.200 F 
ENDBRANCH  54  68
BRANCH  55  79
ATOM     79  C   UNL     1       3.348  14.543   0.771  1.00  0.00     0.064 A 
ATOM     80  C   UNL     1       3.100  15.617  -0.097  1.00  0.00     0.173 A 
ATOM     81  C   UNL     1       2.273  14.061   1.533  1.00  0.00     0.173 A 
ATOM     82  F   UNL     1       4.097  16.125  -0.836  1.00  0.00    -0.203 F 
ATOM     83  C   UNL     1       1.839  16.204  -0.175  1.00  0.00     0.198 A 
ATOM     84  C   UNL     1       1.005  14.629   1.430  1.00  0.00     0.198 A 
ATOM     85  F   UNL     1       2.454  13.030   2.371  1.00  0.00    -0.203 F 
ATOM     86  F   UNL     1       1.644  17.264  -0.972  1.00  0.00    -0.200 F 
ATOM     87  C   UNL     1       0.791  15.707   0.584  1.00  0.00     0.200 A 
ATOM     88  F   UNL     1      -0.009  14.134   2.153  1.00  0.00    -0.200 F 
ATOM     89  F   UNL     1      -0.422  16.271   0.508  1.00  0.00    -0.200 F 
ENDBRANCH  55  79
BRANCH  67  90
ATOM     90  C   UNL     1       9.483  17.001   2.981  1.00  0.00     0.064 A 
ATOM     91  C   UNL     1       9.068  17.512   4.219  1.00  0.00     0.173 A 
ATOM     92  C   UNL     1      10.350  17.785   2.204  1.00  0.00     0.173 A 
ATOM     93  F   UNL     1       8.230  16.807   4.995  1.00  0.00    -0.203 F 
ATOM     94  C   UNL     1       9.471  18.776   4.642  1.00  0.00     0.198 A 
ATOM     95  C   UNL     1      10.781  19.032   2.647  1.00  0.00     0.198 A 
ATOM     96  F   UNL     1      10.787  17.339   1.016  1.00  0.00    -0.203 F 
ATOM     97  F   UNL     1       9.011  19.271   5.799  1.00  0.00    -0.200 F 
ATOM     98  C   UNL     1      10.332  19.531   3.860  1.00  0.00     0.200 A 
ATOM     99  F   UNL     1      11.629  19.751   1.898  1.00  0.00    -0.200 F 
ATOM    100  F   UNL     1      10.723  20.745   4.271  1.00  0.00    -0.200 F 
ENDBRANCH  67  90
ENDBRANCH  41  42
ENDBRANCH  33  36
ENDBRANCH  31  32
ENDBRANCH  30  31
ENDBRANCH   1  30
TORSDOF 15
