REMARK SMILES CCN(CCC#N)C(=O)c1ccncc1/C=C/C(=O)NCCCNC(=O)c1ccc(-c2c3nc(c(-c4c(F)c(F)c(F)c(F)c4F)c4ccc([nH]4)c(-c4c(F)c(F)c(F)c(F)c4F)c4nc(c(-c5c(F)c(F)c(F)c(F)c5F)c5ccc2[nH]5)C=C4)C=C3)cc1
REMARK SMILES IDX 18 1 19 2 20 3 17 5 16 6 15 7 10 8 11 9 12 10 14 11 13 12
REMARK SMILES IDX 8 13 9 14 3 15 2 16 1 17 4 18 5 19 6 20 7 21 21 22 22 23
REMARK SMILES IDX 23 24 24 25 25 26 26 28 27 29 28 30 89 31 29 32 88 33 30 34
REMARK SMILES IDX 31 35 32 36 82 37 33 38 87 39 81 40 83 41 34 42 86 43 80 44
REMARK SMILES IDX 79 45 35 47 67 48 47 49 66 50 48 51 51 52 65 53 84 54 49 55
REMARK SMILES IDX 50 56 64 58 85 59 52 60 36 61 37 62 45 63 38 64 39 65 43 66
REMARK SMILES IDX 46 67 40 68 41 69 44 70 42 71 68 72 69 73 77 74 70 75 71 76
REMARK SMILES IDX 75 77 78 78 72 79 73 80 76 81 74 82 53 83 54 84 62 85 55 86
REMARK SMILES IDX 56 87 60 88 63 89 57 90 58 91 61 92 59 93
REMARK H PARENT 20 4 24 27 83 46 51 57
REMARK Flexibility Score: inf
ROOT
ATOM      1  C   UNL     1       6.861  -2.869   1.563  1.00  0.00     0.244 C 
ATOM      2  O   UNL     1       7.864  -3.398   2.036  1.00  0.00    -0.270 OA
ATOM      3  N   UNL     1       6.585  -1.564   1.831  1.00  0.00    -0.352 N 
ATOM      4  H   UNL     1       7.239  -1.101   2.403  1.00  0.00     0.163 HD
ENDROOT
BRANCH   1   5
ATOM      5  C   UNL     1       5.859  -3.694   0.860  1.00  0.00     0.072 C 
ATOM      6  C   UNL     1       5.300  -3.460  -0.341  1.00  0.00     0.016 C 
BRANCH   6   7
ATOM      7  C   UNL     1       4.188  -4.339  -0.730  1.00  0.00     0.006 A 
ATOM      8  C   UNL     1       2.814  -4.009  -0.602  1.00  0.00     0.050 A 
ATOM      9  C   UNL     1       1.925  -5.076  -0.484  1.00  0.00     0.034 A 
ATOM     10  C   UNL     1       2.367  -6.365  -0.753  1.00  0.00     0.112 A 
ATOM     11  C   UNL     1       4.521  -5.665  -1.027  1.00  0.00     0.119 A 
ATOM     12  N   UNL     1       3.634  -6.679  -1.066  1.00  0.00    -0.264 NA
BRANCH   8  13
ATOM     13  C   UNL     1       2.339  -2.569  -0.692  1.00  0.00     0.254 C 
ATOM     14  O   UNL     1       3.159  -1.696  -0.412  1.00  0.00    -0.269 OA
BRANCH  13  15
ATOM     15  N   UNL     1       1.057  -2.150  -1.166  1.00  0.00    -0.338 N 
BRANCH  15  16
ATOM     16  C   UNL     1       0.850  -0.686  -1.269  1.00  0.00     0.116 C 
ATOM     17  C   UNL     1       0.979   0.074   0.047  1.00  0.00     0.027 C 
ENDBRANCH  15  16
BRANCH  15  18
ATOM     18  C   UNL     1       0.025  -2.968  -1.845  1.00  0.00     0.135 C 
BRANCH  18  19
ATOM     19  C   UNL     1       0.302  -3.315  -3.315  1.00  0.00     0.141 C 
BRANCH  19  20
ATOM     20  C   UNL     1       1.720  -3.846  -3.442  1.00  0.00     0.064 C 
ATOM     21  N   UNL     1       2.897  -4.287  -3.547  1.00  0.00    -0.198 NA
ENDBRANCH  19  20
ENDBRANCH  18  19
ENDBRANCH  15  18
ENDBRANCH  13  15
ENDBRANCH   8  13
ENDBRANCH   6   7
ENDBRANCH   1   5
BRANCH   3  22
ATOM     22  C   UNL     1       5.463  -0.761   1.391  1.00  0.00     0.118 C 
BRANCH  22  23
ATOM     23  C   UNL     1       4.298  -0.759   2.372  1.00  0.00     0.042 C 
BRANCH  23  24
ATOM     24  C   UNL     1       4.551   0.107   3.597  1.00  0.00     0.118 C 
BRANCH  24  25
ATOM     25  N   UNL     1       4.897   1.483   3.242  1.00  0.00    -0.352 N 
ATOM     26  C   UNL     1       4.257   2.665   3.483  1.00  0.00     0.251 C 
ATOM     27  H   UNL     1       5.740   1.573   2.741  1.00  0.00     0.163 HD
ATOM     28  O   UNL     1       4.602   3.681   2.872  1.00  0.00    -0.269 OA
BRANCH  26  29
ATOM     29  C   UNL     1       3.163   2.744   4.466  1.00  0.00     0.039 A 
ATOM     30  C   UNL     1       2.094   3.612   4.228  1.00  0.00     0.014 A 
ATOM     31  C   UNL     1       3.209   1.996   5.644  1.00  0.00     0.014 A 
ATOM     32  C   UNL     1       1.044   3.682   5.142  1.00  0.00     0.010 A 
ATOM     33  C   UNL     1       2.116   1.985   6.498  1.00  0.00     0.010 A 
ATOM     34  C   UNL     1       1.030   2.839   6.266  1.00  0.00    -0.014 A 
BRANCH  34  35
ATOM     35  C   UNL     1      -0.101   2.843   7.223  1.00  0.00     0.031 A 
ATOM     36  C   UNL     1       0.134   3.212   8.660  1.00  0.00     0.074 A 
ATOM     37  C   UNL     1      -1.316   2.436   6.811  1.00  0.00     0.049 A 
ATOM     38  N   UNL     1      -0.701   3.191   9.668  1.00  0.00    -0.248 NA
ATOM     39  C   UNL     1       1.500   3.623   9.023  1.00  0.00     0.031 C 
ATOM     40  C   UNL     1      -1.647   2.000   5.454  1.00  0.00     0.029 A 
ATOM     41  N   UNL     1      -2.497   2.310   7.498  1.00  0.00    -0.354 N 
ATOM     42  C   UNL     1       0.043   3.563  10.780  1.00  0.00     0.074 A 
ATOM     43  C   UNL     1       1.408   3.742  10.338  1.00  0.00     0.031 C 
ATOM     44  C   UNL     1      -2.949   1.680   5.400  1.00  0.00     0.029 A 
ATOM     45  C   UNL     1      -3.533   1.844   6.727  1.00  0.00     0.049 A 
ATOM     46  H   UNL     1      -2.592   2.532   8.452  1.00  0.00     0.167 HD
ATOM     47  C   UNL     1      -0.382   3.763  12.050  1.00  0.00     0.037 A 
ATOM     48  C   UNL     1      -4.808   1.571   7.059  1.00  0.00     0.037 A 
ATOM     49  C   UNL     1      -1.749   3.607  12.472  1.00  0.00     0.049 A 
ATOM     50  C   UNL     1      -5.257   1.803   8.476  1.00  0.00     0.074 A 
ATOM     51  C   UNL     1      -2.302   3.853  13.716  1.00  0.00     0.029 A 
ATOM     52  N   UNL     1      -2.779   3.156  11.657  1.00  0.00    -0.354 N 
ATOM     53  N   UNL     1      -4.566   2.232   9.503  1.00  0.00    -0.248 NA
ATOM     54  C   UNL     1      -6.667   1.520   8.777  1.00  0.00     0.031 C 
ATOM     55  C   UNL     1      -3.654   3.496  13.670  1.00  0.00     0.029 A 
ATOM     56  C   UNL     1      -3.959   3.088  12.380  1.00  0.00     0.049 A 
ATOM     57  H   UNL     1      -2.685   2.920  10.706  1.00  0.00     0.167 HD
ATOM     58  C   UNL     1      -5.458   2.297  10.565  1.00  0.00     0.074 A 
ATOM     59  C   UNL     1      -6.746   1.879  10.050  1.00  0.00     0.031 C 
ATOM     60  C   UNL     1      -5.232   2.671  11.849  1.00  0.00     0.037 A 
BRANCH  47  61
ATOM     61  C   UNL     1       0.644   4.168  13.071  1.00  0.00     0.064 A 
ATOM     62  C   UNL     1       1.287   5.415  13.021  1.00  0.00     0.173 A 
ATOM     63  C   UNL     1       0.978   3.303  14.124  1.00  0.00     0.173 A 
ATOM     64  F   UNL     1       1.014   6.277  12.029  1.00  0.00    -0.203 F 
ATOM     65  C   UNL     1       2.252   5.764  13.963  1.00  0.00     0.198 A 
ATOM     66  C   UNL     1       1.917   3.670  15.085  1.00  0.00     0.198 A 
ATOM     67  F   UNL     1       0.392   2.101  14.225  1.00  0.00    -0.203 F 
ATOM     68  F   UNL     1       2.896   6.935  13.857  1.00  0.00    -0.200 F 
ATOM     69  C   UNL     1       2.561   4.895  14.997  1.00  0.00     0.200 A 
ATOM     70  F   UNL     1       2.203   2.835  16.093  1.00  0.00    -0.200 F 
ATOM     71  F   UNL     1       3.486   5.234  15.906  1.00  0.00    -0.200 F 
ENDBRANCH  47  61
BRANCH  48  72
ATOM     72  C   UNL     1      -5.751   1.076   6.022  1.00  0.00     0.064 A 
ATOM     73  C   UNL     1      -6.804   1.880   5.564  1.00  0.00     0.173 A 
ATOM     74  C   UNL     1      -5.611  -0.200   5.456  1.00  0.00     0.173 A 
ATOM     75  F   UNL     1      -6.989   3.102   6.085  1.00  0.00    -0.203 F 
ATOM     76  C   UNL     1      -7.692   1.420   4.594  1.00  0.00     0.198 A 
ATOM     77  C   UNL     1      -6.480  -0.647   4.464  1.00  0.00     0.198 A 
ATOM     78  F   UNL     1      -4.613  -1.005   5.851  1.00  0.00    -0.203 F 
ATOM     79  F   UNL     1      -8.714   2.193   4.204  1.00  0.00    -0.200 F 
ATOM     80  C   UNL     1      -7.525   0.160   4.039  1.00  0.00     0.200 A 
ATOM     81  F   UNL     1      -6.302  -1.856   3.914  1.00  0.00    -0.200 F 
ATOM     82  F   UNL     1      -8.371  -0.278   3.097  1.00  0.00    -0.200 F 
ENDBRANCH  48  72
BRANCH  60  83
ATOM     83  C   UNL     1      -6.410   2.676  12.780  1.00  0.00     0.064 A 
ATOM     84  C   UNL     1      -7.010   1.487  13.220  1.00  0.00     0.173 A 
ATOM     85  C   UNL     1      -6.920   3.889  13.270  1.00  0.00     0.173 A 
ATOM     86  F   UNL     1      -6.570   0.302  12.770  1.00  0.00    -0.203 F 
ATOM     87  C   UNL     1      -8.093   1.513  14.095  1.00  0.00     0.198 A 
ATOM     88  C   UNL     1      -7.979   3.909  14.171  1.00  0.00     0.198 A 
ATOM     89  F   UNL     1      -6.378   5.054  12.886  1.00  0.00    -0.203 F 
ATOM     90  F   UNL     1      -8.683   0.367  14.460  1.00  0.00    -0.200 F 
ATOM     91  C   UNL     1      -8.571   2.723  14.576  1.00  0.00     0.200 A 
ATOM     92  F   UNL     1      -8.429   5.078  14.648  1.00  0.00    -0.200 F 
ATOM     93  F   UNL     1      -9.607   2.745  15.425  1.00  0.00    -0.200 F 
ENDBRANCH  60  83
ENDBRANCH  34  35
ENDBRANCH  26  29
ENDBRANCH  24  25
ENDBRANCH  23  24
ENDBRANCH  22  23
ENDBRANCH   3  22
TORSDOF 17
