REMARK SMILES CC[C@@H](Oc1ccc(/C=C2\SC(=S)N(NC(=O)c3ccccc3O)C2=O)cc1)C(=O)NCCCNC(=O)c1ccc(-c2c3nc(c(-c4c(F)c(F)c(F)c(F)c4F)c4ccc([nH]4)c(-c4c(F)c(F)c(F)c(F)c4F)c4nc(c(-c5c(F)c(F)c(F)c(F)c5F)c5ccc2[nH]5)C=C4)C=C3)cc1
REMARK SMILES IDX 29 1 30 2 31 3 3 5 2 6 1 7 4 8 5 9 6 10 28 11 7 12 27 13
REMARK SMILES IDX 8 14 9 15 10 16 11 17 25 18 12 19 14 20 26 21 13 22 15 23
REMARK SMILES IDX 16 24 17 26 18 27 19 28 23 29 20 30 22 31 21 32 24 33 32 35
REMARK SMILES IDX 33 36 34 37 35 38 36 39 37 41 38 42 39 43 100 44 40 45 99 46
REMARK SMILES IDX 41 47 42 48 43 49 93 50 44 51 98 52 92 53 94 54 45 55 97 56
REMARK SMILES IDX 91 57 90 58 46 60 78 61 58 62 77 63 59 64 62 65 76 66 95 67
REMARK SMILES IDX 60 68 61 69 75 71 96 72 63 73 47 74 48 75 56 76 49 77 50 78
REMARK SMILES IDX 54 79 57 80 51 81 52 82 55 83 53 84 79 85 80 86 88 87 81 88
REMARK SMILES IDX 82 89 86 90 89 91 83 92 84 93 87 94 85 95 64 96 65 97 73 98
REMARK SMILES IDX 66 99 67 100 71 101 74 102 68 103 69 104 72 105 70 106
REMARK H PARENT 31 4 15 25 24 34 35 40 94 59 62 70
REMARK Flexibility Score: inf
ROOT
ATOM      1  C   UNL     1       0.622   0.560  -3.478  1.00  0.00     0.261 C 
ATOM      2  O   UNL     1       1.480   1.071  -4.203  1.00  0.00    -0.271 OA
ATOM      3  N   UNL     1      -0.675   0.547  -3.937  1.00  0.00    -0.353 N 
ATOM      4  H   UNL     1      -0.813   0.998  -4.802  1.00  0.00     0.163 HD
ENDROOT
BRANCH   1   5
ATOM      5  C   UNL     1       0.983  -0.000  -2.082  1.00  0.00     0.261 C 
BRANCH   5   6
ATOM      6  C   UNL     1       0.263   0.879  -1.044  1.00  0.00     0.052 C 
ATOM      7  C   UNL     1       0.940   1.018   0.311  1.00  0.00     0.008 C 
ENDBRANCH   5   6
BRANCH   5   8
ATOM      8  O   UNL     1       0.555  -1.355  -2.207  1.00  0.00    -0.481 OA
BRANCH   8   9
ATOM      9  C   UNL     1       0.851  -2.340  -1.330  1.00  0.00     0.120 A 
ATOM     10  C   UNL     1       0.330  -3.582  -1.705  1.00  0.00     0.047 A 
ATOM     11  C   UNL     1       1.538  -2.230  -0.131  1.00  0.00     0.047 A 
ATOM     12  C   UNL     1       0.388  -4.675  -0.844  1.00  0.00     0.012 A 
ATOM     13  C   UNL     1       1.564  -3.312   0.759  1.00  0.00     0.012 A 
ATOM     14  C   UNL     1       0.954  -4.526   0.420  1.00  0.00    -0.024 A 
BRANCH  14  15
ATOM     15  C   UNL     1       0.816  -5.621   1.380  1.00  0.00     0.029 C 
ATOM     16  C   UNL     1      -0.056  -5.612   2.398  1.00  0.00     0.082 C 
ATOM     17  S   UNL     1      -1.118  -4.337   2.872  1.00  0.00    -0.052 SA
ATOM     18  C   UNL     1      -0.167  -6.749   3.347  1.00  0.00     0.285 C 
ATOM     19  C   UNL     1      -1.458  -5.083   4.426  1.00  0.00     0.168 C 
ATOM     20  N   UNL     1      -0.818  -6.306   4.487  1.00  0.00    -0.198 N 
ATOM     21  O   UNL     1       0.246  -7.881   3.113  1.00  0.00    -0.266 OA
ATOM     22  S   UNL     1      -2.420  -4.383   5.596  1.00  0.00    -0.050 S 
BRANCH  20  23
ATOM     23  N   UNL     1      -0.878  -7.091   5.648  1.00  0.00    -0.254 N 
ATOM     24  C   UNL     1       0.217  -7.525   6.368  1.00  0.00     0.274 C 
ATOM     25  H   UNL     1      -1.769  -7.352   5.974  1.00  0.00     0.192 HD
ATOM     26  O   UNL     1       0.070  -8.061   7.464  1.00  0.00    -0.267 OA
BRANCH  24  27
ATOM     27  C   UNL     1       1.580  -7.407   5.811  1.00  0.00     0.083 A 
ATOM     28  C   UNL     1       2.263  -8.607   5.570  1.00  0.00     0.018 A 
ATOM     29  C   UNL     1       2.169  -6.190   5.454  1.00  0.00     0.128 A 
ATOM     30  C   UNL     1       3.496  -8.591   4.918  1.00  0.00     0.001 A 
ATOM     31  C   UNL     1       3.391  -6.177   4.784  1.00  0.00     0.047 A 
ATOM     32  C   UNL     1       4.052  -7.377   4.513  1.00  0.00     0.004 A 
BRANCH  29  33
ATOM     33  O   UNL     1       1.593  -4.976   5.705  1.00  0.00    -0.507 OA
ATOM     34  H   UNL     1       0.771  -4.931   6.152  1.00  0.00     0.293 HD
ENDBRANCH  29  33
ENDBRANCH  24  27
ENDBRANCH  20  23
ENDBRANCH  14  15
ENDBRANCH   8   9
ENDBRANCH   5   8
ENDBRANCH   1   5
BRANCH   3  35
ATOM     35  C   UNL     1      -1.879  -0.029  -3.347  1.00  0.00     0.118 C 
BRANCH  35  36
ATOM     36  C   UNL     1      -2.806   1.019  -2.732  1.00  0.00     0.042 C 
BRANCH  36  37
ATOM     37  C   UNL     1      -3.543   1.890  -3.742  1.00  0.00     0.118 C 
BRANCH  37  38
ATOM     38  N   UNL     1      -4.536   1.149  -4.504  1.00  0.00    -0.352 N 
ATOM     39  C   UNL     1      -5.895   1.301  -4.614  1.00  0.00     0.251 C 
ATOM     40  H   UNL     1      -4.168   0.406  -5.034  1.00  0.00     0.163 HD
ATOM     41  O   UNL     1      -6.539   0.431  -5.197  1.00  0.00    -0.269 OA
BRANCH  39  42
ATOM     42  C   UNL     1      -6.612   2.466  -4.040  1.00  0.00     0.039 A 
ATOM     43  C   UNL     1      -7.900   2.259  -3.531  1.00  0.00     0.014 A 
ATOM     44  C   UNL     1      -6.085   3.760  -4.055  1.00  0.00     0.014 A 
ATOM     45  C   UNL     1      -8.628   3.325  -2.995  1.00  0.00     0.010 A 
ATOM     46  C   UNL     1      -6.782   4.813  -3.453  1.00  0.00     0.010 A 
ATOM     47  C   UNL     1      -8.062   4.608  -2.920  1.00  0.00    -0.014 A 
BRANCH  47  48
ATOM     48  C   UNL     1      -8.803   5.725  -2.277  1.00  0.00     0.031 A 
ATOM     49  C   UNL     1      -9.259   6.914  -3.078  1.00  0.00     0.074 A 
ATOM     50  C   UNL     1      -9.043   5.682  -0.951  1.00  0.00     0.049 A 
ATOM     51  N   UNL     1      -9.907   7.982  -2.679  1.00  0.00    -0.248 NA
ATOM     52  C   UNL     1      -8.926   6.917  -4.510  1.00  0.00     0.031 C 
ATOM     53  C   UNL     1      -8.609   4.613  -0.050  1.00  0.00     0.029 A 
ATOM     54  N   UNL     1      -9.705   6.561  -0.130  1.00  0.00    -0.354 N 
ATOM     55  C   UNL     1     -10.056   8.780  -3.806  1.00  0.00     0.074 A 
ATOM     56  C   UNL     1      -9.386   8.099  -4.894  1.00  0.00     0.031 C 
ATOM     57  C   UNL     1      -9.035   4.886   1.193  1.00  0.00     0.029 A 
ATOM     58  C   UNL     1      -9.745   6.162   1.184  1.00  0.00     0.049 A 
ATOM     59  H   UNL     1     -10.112   7.397  -0.452  1.00  0.00     0.167 HD
ATOM     60  C   UNL     1     -10.712   9.959  -3.929  1.00  0.00     0.037 A 
ATOM     61  C   UNL     1     -10.292   6.755   2.262  1.00  0.00     0.037 A 
ATOM     62  C   UNL     1     -11.393  10.631  -2.852  1.00  0.00     0.049 A 
ATOM     63  C   UNL     1     -11.024   8.058   2.095  1.00  0.00     0.074 A 
ATOM     64  C   UNL     1     -12.123  11.807  -2.891  1.00  0.00     0.029 A 
ATOM     65  N   UNL     1     -11.429  10.185  -1.539  1.00  0.00    -0.354 N 
ATOM     66  N   UNL     1     -11.210   8.770   1.011  1.00  0.00    -0.248 NA
ATOM     67  C   UNL     1     -11.631   8.635   3.303  1.00  0.00     0.031 C 
ATOM     68  C   UNL     1     -12.569  12.092  -1.596  1.00  0.00     0.029 A 
ATOM     69  C   UNL     1     -12.154  11.071  -0.757  1.00  0.00     0.049 A 
ATOM     70  H   UNL     1     -11.002   9.361  -1.211  1.00  0.00     0.167 HD
ATOM     71  C   UNL     1     -11.966   9.867   1.400  1.00  0.00     0.074 A 
ATOM     72  C   UNL     1     -12.227   9.713   2.816  1.00  0.00     0.031 C 
ATOM     73  C   UNL     1     -12.401  10.910   0.652  1.00  0.00     0.037 A 
BRANCH  60  74
ATOM     74  C   UNL     1     -10.737  10.601  -5.286  1.00  0.00     0.064 A 
ATOM     75  C   UNL     1     -11.504  10.067  -6.333  1.00  0.00     0.173 A 
ATOM     76  C   UNL     1     -10.030  11.788  -5.530  1.00  0.00     0.173 A 
ATOM     77  F   UNL     1     -12.190   8.928  -6.154  1.00  0.00    -0.203 F 
ATOM     78  C   UNL     1     -11.544  10.685  -7.580  1.00  0.00     0.198 A 
ATOM     79  C   UNL     1     -10.094  12.418  -6.771  1.00  0.00     0.198 A 
ATOM     80  F   UNL     1      -9.287  12.345  -4.561  1.00  0.00    -0.203 F 
ATOM     81  F   UNL     1     -12.251  10.134  -8.576  1.00  0.00    -0.200 F 
ATOM     82  C   UNL     1     -10.845  11.863  -7.796  1.00  0.00     0.200 A 
ATOM     83  F   UNL     1      -9.428  13.564  -6.974  1.00  0.00    -0.200 F 
ATOM     84  F   UNL     1     -10.892  12.462  -8.994  1.00  0.00    -0.200 F 
ENDBRANCH  60  74
BRANCH  61  85
ATOM     85  C   UNL     1     -10.187   6.108   3.595  1.00  0.00     0.064 A 
ATOM     86  C   UNL     1     -11.312   5.549   4.216  1.00  0.00     0.173 A 
ATOM     87  C   UNL     1      -8.962   6.040   4.275  1.00  0.00     0.173 A 
ATOM     88  F   UNL     1     -12.508   5.609   3.614  1.00  0.00    -0.203 F 
ATOM     89  C   UNL     1     -11.220   4.964   5.477  1.00  0.00     0.198 A 
ATOM     90  C   UNL     1      -8.867   5.431   5.524  1.00  0.00     0.198 A 
ATOM     91  F   UNL     1      -7.856   6.557   3.720  1.00  0.00    -0.203 F 
ATOM     92  F   UNL     1     -12.320   4.478   6.069  1.00  0.00    -0.200 F 
ATOM     93  C   UNL     1      -9.997   4.901   6.127  1.00  0.00     0.200 A 
ATOM     94  F   UNL     1      -7.680   5.359   6.143  1.00  0.00    -0.200 F 
ATOM     95  F   UNL     1      -9.909   4.335   7.339  1.00  0.00    -0.200 F 
ENDBRANCH  61  85
BRANCH  73  96
ATOM     96  C   UNL     1     -13.214  11.959   1.353  1.00  0.00     0.064 A 
ATOM     97  C   UNL     1     -12.629  12.855   2.260  1.00  0.00     0.173 A 
ATOM     98  C   UNL     1     -14.590  12.079   1.105  1.00  0.00     0.173 A 
ATOM     99  F   UNL     1     -11.321  12.770   2.543  1.00  0.00    -0.203 F 
ATOM    100  C   UNL     1     -13.398  13.812   2.917  1.00  0.00     0.198 A 
ATOM    101  C   UNL     1     -15.350  13.055   1.743  1.00  0.00     0.198 A 
ATOM    102  F   UNL     1     -15.197  11.250   0.242  1.00  0.00    -0.203 F 
ATOM    103  F   UNL     1     -12.828  14.622   3.820  1.00  0.00    -0.200 F 
ATOM    104  C   UNL     1     -14.756  13.915   2.655  1.00  0.00     0.200 A 
ATOM    105  F   UNL     1     -16.660  13.160   1.481  1.00  0.00    -0.200 F 
ATOM    106  F   UNL     1     -15.494  14.835   3.289  1.00  0.00    -0.200 F 
ENDBRANCH  73  96
ENDBRANCH  47  48
ENDBRANCH  39  42
ENDBRANCH  37  38
ENDBRANCH  36  37
ENDBRANCH  35  36
ENDBRANCH   3  35
TORSDOF 17
