REMARK SMILES O=C(NCCCNC(=O)[C@@H]1c2[nH]cnc2CCN1C(=O)CCCc1c[nH]c2ccccc12)c1ccc(-c2c3nc(c(-c4c(F)c(F)c(F)c(F)c4F)c4ccc([nH]4)c(-c4c(F)c(F)c(F)c(F)c4F)c4nc(c(-c5c(F)c(F)c(F)c(F)c5F)c5ccc2[nH]5)C=C4)C=C3)cc1
REMARK SMILES IDX 7 1 8 2 9 3 6 5 5 6 4 7 3 8 1 9 2 10 33 12 34 13 95 14 35 15
REMARK SMILES IDX 94 16 36 17 37 18 38 19 88 20 39 21 93 22 87 23 89 24 40 25
REMARK SMILES IDX 92 26 86 27 85 28 41 30 73 31 53 32 72 33 54 34 57 35 71 36
REMARK SMILES IDX 90 37 55 38 56 39 70 41 91 42 58 43 42 44 43 45 51 46 44 47
REMARK SMILES IDX 45 48 49 49 52 50 46 51 47 52 50 53 48 54 74 55 75 56 83 57
REMARK SMILES IDX 76 58 77 59 81 60 84 61 78 62 79 63 82 64 80 65 59 66 60 67
REMARK SMILES IDX 68 68 61 69 62 70 66 71 69 72 63 73 64 74 67 75 65 76 10 77
REMARK SMILES IDX 11 78 18 79 12 80 15 81 17 82 13 83 14 85 16 86 19 87 20 88
REMARK SMILES IDX 21 89 22 90 23 91 24 92 25 93 32 94 26 95 27 96 31 97 28 99
REMARK SMILES IDX 30 100 29 101
REMARK H PARENT 7 4 3 11 89 29 57 40 12 84 26 98
REMARK Flexibility Score: inf
ROOT
ATOM      1  N   UNL     1       6.962  -5.706  -1.510  1.00  0.00    -0.354 N 
ATOM      2  C   UNL     1       6.088  -4.814  -2.043  1.00  0.00     0.249 C 
ATOM      3  O   UNL     1       5.266  -4.331  -1.250  1.00  0.00    -0.272 OA
ATOM      4  H   UNL     1       6.904  -5.801  -0.531  1.00  0.00     0.163 HD
ENDROOT
BRANCH   1   5
ATOM      5  C   UNL     1       7.965  -6.538  -2.136  1.00  0.00     0.117 C 
BRANCH   5   6
ATOM      6  C   UNL     1       9.362  -6.173  -1.642  1.00  0.00     0.042 C 
BRANCH   6   7
ATOM      7  C   UNL     1       9.506  -6.249  -0.119  1.00  0.00     0.118 C 
BRANCH   7   8
ATOM      8  N   UNL     1       9.201  -7.553   0.435  1.00  0.00    -0.352 N 
ATOM      9  O   UNL     1       9.346  -9.605   1.236  1.00  0.00    -0.269 OA
ATOM     10  C   UNL     1       9.911  -8.703   0.606  1.00  0.00     0.251 C 
ATOM     11  H   UNL     1       8.274  -7.623   0.760  1.00  0.00     0.163 HD
BRANCH  10  12
ATOM     12  C   UNL     1      11.258  -8.968   0.035  1.00  0.00     0.039 A 
ATOM     13  C   UNL     1      12.041  -8.051  -0.670  1.00  0.00     0.014 A 
ATOM     14  C   UNL     1      11.728 -10.286   0.174  1.00  0.00     0.014 A 
ATOM     15  C   UNL     1      13.197  -8.463  -1.319  1.00  0.00     0.010 A 
ATOM     16  C   UNL     1      12.894 -10.700  -0.451  1.00  0.00     0.010 A 
ATOM     17  C   UNL     1      13.598  -9.795  -1.238  1.00  0.00    -0.014 A 
BRANCH  17  18
ATOM     18  C   UNL     1      14.838 -10.178  -1.899  1.00  0.00     0.031 A 
ATOM     19  C   UNL     1      16.068  -9.570  -1.314  1.00  0.00     0.074 A 
ATOM     20  C   UNL     1      14.880 -11.117  -2.863  1.00  0.00     0.049 A 
ATOM     21  N   UNL     1      16.969  -8.850  -1.900  1.00  0.00    -0.248 NA
ATOM     22  C   UNL     1      16.267  -9.709   0.139  1.00  0.00     0.031 C 
ATOM     23  C   UNL     1      13.796 -11.988  -3.322  1.00  0.00     0.029 A 
ATOM     24  N   UNL     1      15.953 -11.568  -3.570  1.00  0.00    -0.354 N 
ATOM     25  C   UNL     1      17.936  -8.578  -0.931  1.00  0.00     0.074 A 
ATOM     26  C   UNL     1      17.388  -9.012   0.326  1.00  0.00     0.031 C 
ATOM     27  C   UNL     1      14.317 -13.002  -4.049  1.00  0.00     0.029 A 
ATOM     28  C   UNL     1      15.744 -12.780  -4.212  1.00  0.00     0.049 A 
ATOM     29  H   UNL     1      16.805 -11.075  -3.621  1.00  0.00     0.167 HD
ATOM     30  C   UNL     1      19.203  -8.215  -1.272  1.00  0.00     0.037 A 
ATOM     31  C   UNL     1      16.694 -13.575  -4.765  1.00  0.00     0.037 A 
ATOM     32  C   UNL     1      19.253  -7.685  -2.609  1.00  0.00     0.049 A 
ATOM     33  C   UNL     1      17.904 -12.745  -4.984  1.00  0.00     0.074 A 
ATOM     34  C   UNL     1      18.685  -6.602  -3.251  1.00  0.00     0.029 A 
ATOM     35  N   UNL     1      19.732  -8.491  -3.611  1.00  0.00    -0.354 N 
ATOM     36  N   UNL     1      17.976 -11.780  -5.857  1.00  0.00    -0.248 NA
ATOM     37  C   UNL     1      18.890 -12.696  -3.914  1.00  0.00     0.031 C 
ATOM     38  C   UNL     1      18.405  -7.061  -4.572  1.00  0.00     0.029 A 
ATOM     39  C   UNL     1      18.866  -8.374  -4.666  1.00  0.00     0.049 A 
ATOM     40  H   UNL     1      20.544  -9.046  -3.579  1.00  0.00     0.167 HD
ATOM     41  C   UNL     1      18.709 -10.788  -5.224  1.00  0.00     0.074 A 
ATOM     42  C   UNL     1      19.316 -11.440  -4.066  1.00  0.00     0.031 C 
ATOM     43  C   UNL     1      18.527  -9.472  -5.536  1.00  0.00     0.037 A 
BRANCH  30  44
ATOM     44  C   UNL     1      20.447  -8.698  -0.554  1.00  0.00     0.064 A 
ATOM     45  C   UNL     1      21.706  -8.229  -0.986  1.00  0.00     0.173 A 
ATOM     46  C   UNL     1      20.481  -9.830   0.289  1.00  0.00     0.173 A 
ATOM     47  F   UNL     1      21.800  -7.155  -1.785  1.00  0.00    -0.203 F 
ATOM     48  C   UNL     1      22.889  -8.916  -0.700  1.00  0.00     0.198 A 
ATOM     49  C   UNL     1      21.670 -10.482   0.614  1.00  0.00     0.198 A 
ATOM     50  F   UNL     1      19.371 -10.421   0.742  1.00  0.00    -0.203 F 
ATOM     51  F   UNL     1      24.040  -8.518  -1.259  1.00  0.00    -0.200 F 
ATOM     52  C   UNL     1      22.868 -10.052   0.086  1.00  0.00     0.200 A 
ATOM     53  F   UNL     1      21.627 -11.587   1.371  1.00  0.00    -0.200 F 
ATOM     54  F   UNL     1      23.986 -10.758   0.296  1.00  0.00    -0.200 F 
ENDBRANCH  30  44
BRANCH  31  55
ATOM     55  C   UNL     1      16.737 -15.057  -4.791  1.00  0.00     0.064 A 
ATOM     56  C   UNL     1      17.595 -15.746  -5.664  1.00  0.00     0.173 A 
ATOM     57  C   UNL     1      16.141 -15.821  -3.768  1.00  0.00     0.173 A 
ATOM     58  F   UNL     1      18.245 -15.085  -6.632  1.00  0.00    -0.203 F 
ATOM     59  C   UNL     1      17.852 -17.114  -5.511  1.00  0.00     0.198 A 
ATOM     60  C   UNL     1      16.392 -17.185  -3.621  1.00  0.00     0.198 A 
ATOM     61  F   UNL     1      15.379 -15.239  -2.831  1.00  0.00    -0.203 F 
ATOM     62  F   UNL     1      18.723 -17.726  -6.326  1.00  0.00    -0.200 F 
ATOM     63  C   UNL     1      17.257 -17.829  -4.485  1.00  0.00     0.200 A 
ATOM     64  F   UNL     1      15.841 -17.856  -2.600  1.00  0.00    -0.200 F 
ATOM     65  F   UNL     1      17.549 -19.125  -4.302  1.00  0.00    -0.200 F 
ENDBRANCH  31  55
BRANCH  43  66
ATOM     66  C   UNL     1      17.697  -9.149  -6.745  1.00  0.00     0.064 A 
ATOM     67  C   UNL     1      16.332  -9.461  -6.862  1.00  0.00     0.173 A 
ATOM     68  C   UNL     1      18.270  -8.371  -7.758  1.00  0.00     0.173 A 
ATOM     69  F   UNL     1      15.686 -10.109  -5.885  1.00  0.00    -0.203 F 
ATOM     70  C   UNL     1      15.589  -9.053  -7.968  1.00  0.00     0.198 A 
ATOM     71  C   UNL     1      17.517  -7.933  -8.844  1.00  0.00     0.198 A 
ATOM     72  F   UNL     1      19.554  -7.990  -7.669  1.00  0.00    -0.203 F 
ATOM     73  F   UNL     1      14.289  -9.373  -8.061  1.00  0.00    -0.200 F 
ATOM     74  C   UNL     1      16.181  -8.284  -8.955  1.00  0.00     0.200 A 
ATOM     75  F   UNL     1      18.081  -7.144  -9.770  1.00  0.00    -0.200 F 
ATOM     76  F   UNL     1      15.457  -7.855  -9.998  1.00  0.00    -0.200 F 
ENDBRANCH  43  66
ENDBRANCH  17  18
ENDBRANCH  10  12
ENDBRANCH   7   8
ENDBRANCH   6   7
ENDBRANCH   5   6
ENDBRANCH   1   5
BRANCH   2  77
ATOM     77  C   UNL     1       5.878  -4.656  -3.573  1.00  0.00     0.223 C 
ATOM     78  C   UNL     1       5.059  -5.857  -3.994  1.00  0.00     0.071 A 
ATOM     79  N   UNL     1       7.005  -4.574  -4.548  1.00  0.00    -0.325 N 
ATOM     80  N   UNL     1       4.182  -6.586  -3.236  1.00  0.00    -0.346 N 
ATOM     81  C   UNL     1       5.114  -6.517  -5.198  1.00  0.00     0.066 A 
ATOM     82  C   UNL     1       6.551  -4.695  -5.948  1.00  0.00     0.127 C 
ATOM     83  C   UNL     1       3.830  -7.683  -3.979  1.00  0.00     0.197 A 
ATOM     84  H   UNL     1       3.865  -6.365  -2.331  1.00  0.00     0.167 HD
ATOM     85  N   UNL     1       4.362  -7.654  -5.182  1.00  0.00    -0.242 NA
ATOM     86  C   UNL     1       6.005  -6.095  -6.295  1.00  0.00     0.080 C 
BRANCH  79  87
ATOM     87  C   UNL     1       8.126  -3.863  -4.173  1.00  0.00     0.223 C 
ATOM     88  O   UNL     1       8.114  -3.233  -3.106  1.00  0.00    -0.275 OA
BRANCH  87  89
ATOM     89  C   UNL     1       9.435  -3.813  -4.981  1.00  0.00     0.100 C 
BRANCH  89  90
ATOM     90  C   UNL     1      10.034  -4.930  -5.822  1.00  0.00     0.015 C 
BRANCH  90  91
ATOM     91  C   UNL     1       9.424  -5.407  -7.131  1.00  0.00     0.038 C 
BRANCH  91  92
ATOM     92  C   UNL     1       9.119  -4.495  -8.296  1.00  0.00    -0.023 A 
ATOM     93  C   UNL     1       8.974  -5.036  -9.567  1.00  0.00     0.087 A 
ATOM     94  C   UNL     1       8.791  -3.091  -8.455  1.00  0.00     0.003 A 
ATOM     95  N   UNL     1       8.873  -4.026 -10.473  1.00  0.00    -0.361 N 
ATOM     96  C   UNL     1       8.853  -2.819  -9.826  1.00  0.00     0.046 A 
ATOM     97  C   UNL     1       8.426  -1.998  -7.633  1.00  0.00     0.010 A 
ATOM     98  H   UNL     1       8.823  -4.145 -11.449  1.00  0.00     0.166 HD
ATOM     99  C   UNL     1       8.813  -1.527 -10.366  1.00  0.00     0.026 A 
ATOM    100  C   UNL     1       8.275  -0.709  -8.165  1.00  0.00     0.001 A 
ATOM    101  C   UNL     1       8.521  -0.470  -9.507  1.00  0.00     0.002 A 
ENDBRANCH  91  92
ENDBRANCH  90  91
ENDBRANCH  89  90
ENDBRANCH  87  89
ENDBRANCH  79  87
ENDBRANCH   2  77
TORSDOF 15
