REMARK SMILES CC(C)CC1(CNc2ccnc(C(=O)NCCCNC(=O)c3ccc(-c4c5nc(c(-c6c(F)c(F)c(F)c(F)c6F)c6ccc([nH]6)c(-c6c(F)c(F)c(F)c(F)c6F)c6nc(c(-c7c(F)c(F)c(F)c(F)c7F)c7ccc4[nH]7)C=C6)C=C5)cc3)c2)CCCC1
REMARK SMILES IDX 13 1 14 2 15 3 12 5 8 6 9 7 85 8 10 9 11 10 7 11 6 13 5 14
REMARK SMILES IDX 86 15 89 16 87 17 88 18 4 19 2 20 1 21 3 22 16 23 17 24
REMARK SMILES IDX 18 25 19 26 20 27 21 29 22 30 23 31 84 32 24 33 83 34 25 35
REMARK SMILES IDX 26 36 27 37 77 38 28 39 82 40 76 41 78 42 29 43 81 44 75 45
REMARK SMILES IDX 74 46 30 48 62 49 42 50 61 51 43 52 46 53 60 54 79 55 44 56
REMARK SMILES IDX 45 57 59 59 80 60 47 61 31 62 32 63 40 64 33 65 34 66 38 67
REMARK SMILES IDX 41 68 35 69 36 70 39 71 37 72 63 73 64 74 72 75 65 76 66 77
REMARK SMILES IDX 70 78 73 79 67 80 68 81 71 82 69 83 48 84 49 85 57 86 50 87
REMARK SMILES IDX 51 88 55 89 58 90 52 91 53 92 56 93 54 94
REMARK H PARENT 15 4 7 12 19 28 78 47 46 58
REMARK Flexibility Score: inf
ROOT
ATOM      1  C   UNL     1      -5.053   2.369   4.500  1.00  0.00     0.269 C 
ATOM      2  O   UNL     1      -5.412   3.533   4.693  1.00  0.00    -0.268 OA
ATOM      3  N   UNL     1      -4.652   1.681   5.626  1.00  0.00    -0.351 N 
ATOM      4  H   UNL     1      -4.679   2.230   6.443  1.00  0.00     0.163 HD
ENDROOT
BRANCH   1   5
ATOM      5  C   UNL     1      -5.088   1.792   3.107  1.00  0.00     0.130 A 
ATOM      6  C   UNL     1      -4.494   0.182   1.408  1.00  0.00     0.038 A 
ATOM      7  C   UNL     1      -5.225   0.928   0.496  1.00  0.00     0.046 A 
ATOM      8  C   UNL     1      -4.390   0.661   2.716  1.00  0.00     0.060 A 
ATOM      9  C   UNL     1      -5.880   2.061   0.946  1.00  0.00     0.114 A 
ATOM     10  N   UNL     1      -5.839   2.497   2.222  1.00  0.00    -0.251 NA
BRANCH   6  11
ATOM     11  N   UNL     1      -3.820  -0.977   1.083  1.00  0.00    -0.384 N 
ATOM     12  H   UNL     1      -3.885  -1.736   1.708  1.00  0.00     0.160 HD
BRANCH  11  13
ATOM     13  C   UNL     1      -3.020  -1.155  -0.118  1.00  0.00     0.119 C 
BRANCH  13  14
ATOM     14  C   UNL     1      -1.533  -1.489   0.255  1.00  0.00    -0.012 C 
ATOM     15  C   UNL     1      -0.741  -1.816  -1.023  1.00  0.00     0.009 C 
ATOM     16  C   UNL     1      -1.418  -2.845   0.991  1.00  0.00     0.009 C 
ATOM     17  C   UNL     1      -1.186  -3.223  -1.413  1.00  0.00     0.001 C 
ATOM     18  C   UNL     1      -1.519  -3.918  -0.095  1.00  0.00     0.001 C 
BRANCH  14  19
ATOM     19  C   UNL     1      -0.967  -0.312   1.106  1.00  0.00     0.012 C 
BRANCH  19  20
ATOM     20  C   UNL     1       0.560  -0.187   1.307  1.00  0.00    -0.017 C 
ATOM     21  C   UNL     1       1.235   0.586   0.168  1.00  0.00     0.007 C 
ATOM     22  C   UNL     1       0.842   0.564   2.618  1.00  0.00     0.007 C 
ENDBRANCH  19  20
ENDBRANCH  14  19
ENDBRANCH  13  14
ENDBRANCH  11  13
ENDBRANCH   6  11
ENDBRANCH   1   5
BRANCH   3  23
ATOM     23  C   UNL     1      -4.201   0.324   5.866  1.00  0.00     0.118 C 
BRANCH  23  24
ATOM     24  C   UNL     1      -2.672   0.242   5.896  1.00  0.00     0.042 C 
BRANCH  24  25
ATOM     25  C   UNL     1      -2.068   0.754   7.203  1.00  0.00     0.118 C 
BRANCH  25  26
ATOM     26  N   UNL     1      -2.374  -0.129   8.322  1.00  0.00    -0.352 N 
ATOM     27  C   UNL     1      -1.544  -0.816   9.169  1.00  0.00     0.251 C 
ATOM     28  H   UNL     1      -3.335  -0.251   8.498  1.00  0.00     0.163 HD
ATOM     29  O   UNL     1      -2.012  -1.693   9.890  1.00  0.00    -0.269 OA
BRANCH  27  30
ATOM     30  C   UNL     1      -0.096  -0.520   9.228  1.00  0.00     0.039 A 
ATOM     31  C   UNL     1       0.799  -1.582   9.402  1.00  0.00     0.014 A 
ATOM     32  C   UNL     1       0.381   0.792   9.188  1.00  0.00     0.014 A 
ATOM     33  C   UNL     1       2.170  -1.332   9.490  1.00  0.00     0.010 A 
ATOM     34  C   UNL     1       1.752   1.036   9.209  1.00  0.00     0.010 A 
ATOM     35  C   UNL     1       2.659  -0.022   9.369  1.00  0.00    -0.014 A 
BRANCH  35  36
ATOM     36  C   UNL     1       4.116   0.261   9.411  1.00  0.00     0.031 A 
ATOM     37  C   UNL     1       4.699   1.071  10.534  1.00  0.00     0.074 A 
ATOM     38  C   UNL     1       4.901  -0.154   8.398  1.00  0.00     0.049 A 
ATOM     39  N   UNL     1       5.930   1.484  10.707  1.00  0.00    -0.248 NA
ATOM     40  C   UNL     1       3.769   1.496  11.591  1.00  0.00     0.031 C 
ATOM     41  C   UNL     1       4.444  -0.912   7.233  1.00  0.00     0.029 A 
ATOM     42  N   UNL     1       6.245   0.013   8.182  1.00  0.00    -0.354 N 
ATOM     43  C   UNL     1       5.915   2.238  11.873  1.00  0.00     0.074 A 
ATOM     44  C   UNL     1       4.546   2.260  12.344  1.00  0.00     0.031 C 
ATOM     45  C   UNL     1       5.494  -1.167   6.437  1.00  0.00     0.029 A 
ATOM     46  C   UNL     1       6.689  -0.559   7.015  1.00  0.00     0.049 A 
ATOM     47  H   UNL     1       6.836   0.497   8.804  1.00  0.00     0.167 HD
ATOM     48  C   UNL     1       6.952   2.841  12.503  1.00  0.00     0.037 A 
ATOM     49  C   UNL     1       7.920  -0.586   6.472  1.00  0.00     0.037 A 
ATOM     50  C   UNL     1       8.317   2.787  12.047  1.00  0.00     0.049 A 
ATOM     51  C   UNL     1       9.055   0.090   7.191  1.00  0.00     0.074 A 
ATOM     52  C   UNL     1       9.452   3.294  12.655  1.00  0.00     0.029 A 
ATOM     53  N   UNL     1       8.730   2.190  10.864  1.00  0.00    -0.354 N 
ATOM     54  N   UNL     1       9.044   0.739   8.329  1.00  0.00    -0.248 NA
ATOM     55  C   UNL     1      10.374   0.027   6.547  1.00  0.00     0.031 C 
ATOM     56  C   UNL     1      10.545   3.045  11.817  1.00  0.00     0.029 A 
ATOM     57  C   UNL     1      10.099   2.341  10.710  1.00  0.00     0.049 A 
ATOM     58  H   UNL     1       8.137   1.728  10.228  1.00  0.00     0.167 HD
ATOM     59  C   UNL     1      10.354   1.137   8.555  1.00  0.00     0.074 A 
ATOM     60  C   UNL     1      11.136   0.647   7.438  1.00  0.00     0.031 C 
ATOM     61  C   UNL     1      10.863   1.843   9.594  1.00  0.00     0.037 A 
BRANCH  48  62
ATOM     62  C   UNL     1       6.646   3.621  13.750  1.00  0.00     0.064 A 
ATOM     63  C   UNL     1       6.252   2.988  14.940  1.00  0.00     0.173 A 
ATOM     64  C   UNL     1       6.764   5.019  13.761  1.00  0.00     0.173 A 
ATOM     65  F   UNL     1       6.114   1.655  14.981  1.00  0.00    -0.203 F 
ATOM     66  C   UNL     1       5.950   3.729  16.080  1.00  0.00     0.198 A 
ATOM     67  C   UNL     1       6.491   5.754  14.912  1.00  0.00     0.198 A 
ATOM     68  F   UNL     1       7.145   5.675  12.654  1.00  0.00    -0.203 F 
ATOM     69  F   UNL     1       5.519   3.106  17.186  1.00  0.00    -0.200 F 
ATOM     70  C   UNL     1       6.074   5.110  16.067  1.00  0.00     0.200 A 
ATOM     71  F   UNL     1       6.625   7.087  14.902  1.00  0.00    -0.200 F 
ATOM     72  F   UNL     1       5.783   5.821  17.165  1.00  0.00    -0.200 F 
ENDBRANCH  48  62
BRANCH  49  73
ATOM     73  C   UNL     1       8.147  -1.316   5.199  1.00  0.00     0.064 A 
ATOM     74  C   UNL     1       8.857  -2.524   5.188  1.00  0.00     0.173 A 
ATOM     75  C   UNL     1       7.646  -0.840   3.979  1.00  0.00     0.173 A 
ATOM     76  F   UNL     1       9.371  -3.009   6.328  1.00  0.00    -0.203 F 
ATOM     77  C   UNL     1       9.067  -3.225   4.002  1.00  0.00     0.198 A 
ATOM     78  C   UNL     1       7.835  -1.554   2.798  1.00  0.00     0.198 A 
ATOM     79  F   UNL     1       6.955   0.308   3.939  1.00  0.00    -0.203 F 
ATOM     80  F   UNL     1       9.776  -4.361   4.015  1.00  0.00    -0.200 F 
ATOM     81  C   UNL     1       8.549  -2.743   2.809  1.00  0.00     0.200 A 
ATOM     82  F   UNL     1       7.320  -1.094   1.649  1.00  0.00    -0.200 F 
ATOM     83  F   UNL     1       8.742  -3.423   1.671  1.00  0.00    -0.200 F 
ENDBRANCH  49  73
BRANCH  61  84
ATOM     84  C   UNL     1      12.341   2.102   9.588  1.00  0.00     0.064 A 
ATOM     85  C   UNL     1      12.924   3.023   8.707  1.00  0.00     0.173 A 
ATOM     86  C   UNL     1      13.179   1.445  10.502  1.00  0.00     0.173 A 
ATOM     87  F   UNL     1      12.167   3.664   7.803  1.00  0.00    -0.203 F 
ATOM     88  C   UNL     1      14.296   3.261   8.725  1.00  0.00     0.198 A 
ATOM     89  C   UNL     1      14.546   1.706  10.537  1.00  0.00     0.198 A 
ATOM     90  F   UNL     1      12.670   0.557  11.370  1.00  0.00    -0.203 F 
ATOM     91  F   UNL     1      14.838   4.112   7.843  1.00  0.00    -0.200 F 
ATOM     92  C   UNL     1      15.104   2.609   9.645  1.00  0.00     0.200 A 
ATOM     93  F   UNL     1      15.323   1.084  11.434  1.00  0.00    -0.200 F 
ATOM     94  F   UNL     1      16.423   2.844   9.665  1.00  0.00    -0.200 F 
ENDBRANCH  61  84
ENDBRANCH  35  36
ENDBRANCH  27  30
ENDBRANCH  25  26
ENDBRANCH  24  25
ENDBRANCH  23  24
ENDBRANCH   3  23
TORSDOF 15
