REMARK SMILES CN(CC(N)=O)S(=O)(=O)c1ccc(C(=O)NCCCNC(=O)c2ccc(-c3c4nc(c(-c5c(F)c(F)c(F)c(F)c5F)c5ccc([nH]5)c(-c5c(F)c(F)c(F)c(F)c5F)c5nc(c(-c6c(F)c(F)c(F)c(F)c6F)c6ccc3[nH]6)C=C5)C=C4)cc2)cc1Br
REMARK SMILES IDX 17 1 16 2 14 3 15 4 13 6 10 7 11 8 87 9 12 10 86 11 88 12
REMARK SMILES IDX 7 13 8 14 9 15 2 16 1 17 3 18 4 19 5 20 6 21 18 24 19 25
REMARK SMILES IDX 20 26 21 27 22 29 23 30 24 31 85 32 25 33 84 34 26 35 27 36
REMARK SMILES IDX 28 37 78 38 29 39 83 40 77 41 79 42 30 43 82 44 76 45 75 46
REMARK SMILES IDX 31 48 63 49 43 50 62 51 44 52 47 53 61 54 80 55 45 56 46 57
REMARK SMILES IDX 60 59 81 60 48 61 32 62 33 63 41 64 34 65 35 66 39 67 42 68
REMARK SMILES IDX 36 69 37 70 40 71 38 72 64 73 65 74 73 75 66 76 67 77 71 78
REMARK SMILES IDX 74 79 68 80 69 81 72 82 70 83 49 84 50 85 58 86 51 87 52 88
REMARK SMILES IDX 56 89 59 90 53 91 54 92 57 93 55 94
REMARK H PARENT 16 5 5 22 5 23 20 28 79 47 47 58
REMARK Flexibility Score: inf
ROOT
ATOM      1  C   UNL     1      -0.228   8.146  -4.460  1.00  0.00     0.118 C 
ENDROOT
BRANCH   1   2
ATOM      2  N   UNL     1      -0.395   7.127  -5.481  1.00  0.00    -0.352 N 
ATOM      3  C   UNL     1      -0.296   5.760  -5.473  1.00  0.00     0.251 C 
ATOM      4  O   UNL     1      -0.585   5.174  -6.518  1.00  0.00    -0.269 OA
ATOM      5  H   UNL     1      -0.629   7.495  -6.364  1.00  0.00     0.163 HD
BRANCH   3   6
ATOM      6  C   UNL     1       0.104   4.945  -4.287  1.00  0.00     0.041 A 
ATOM      7  C   UNL     1       0.766   3.246  -2.122  1.00  0.00     0.096 A 
ATOM      8  C   UNL     1       0.135   2.729  -3.256  1.00  0.00     0.024 A 
ATOM      9  C   UNL     1       1.137   4.594  -2.103  1.00  0.00     0.038 A 
ATOM     10  C   UNL     1      -0.213   3.577  -4.314  1.00  0.00     0.015 A 
ATOM     11  C   UNL     1       0.822   5.424  -3.191  1.00  0.00     0.031 A 
ATOM     12  Br  UNL     1       2.123   5.420  -0.700  1.00  0.00    -0.049 Br
BRANCH   7  13
ATOM     13  S   UNL     1       1.125   2.207  -0.729  1.00  0.00     0.244 S 
ATOM     14  O   UNL     1       0.554   2.842   0.438  1.00  0.00    -0.207 OA
ATOM     15  O   UNL     1       2.536   1.900  -0.820  1.00  0.00    -0.207 OA
BRANCH  13  16
ATOM     16  N   UNL     1       0.267   0.743  -0.969  1.00  0.00    -0.192 NA
ATOM     17  C   UNL     1       0.806  -0.354  -0.115  1.00  0.00     0.125 C 
BRANCH  16  18
ATOM     18  C   UNL     1      -1.221   0.799  -0.892  1.00  0.00     0.201 C 
BRANCH  18  19
ATOM     19  C   UNL     1      -1.834   1.239   0.423  1.00  0.00     0.232 C 
ATOM     20  N   UNL     1      -2.486   2.440   0.401  1.00  0.00    -0.369 N 
ATOM     21  O   UNL     1      -1.787   0.565   1.448  1.00  0.00    -0.274 OA
ATOM     22  H   UNL     1      -2.515   2.969  -0.428  1.00  0.00     0.159 HD
ATOM     23  H   UNL     1      -2.927   2.776   1.215  1.00  0.00     0.159 HD
ENDBRANCH  18  19
ENDBRANCH  16  18
ENDBRANCH  13  16
ENDBRANCH   7  13
ENDBRANCH   3   6
ENDBRANCH   1   2
BRANCH   1  24
ATOM     24  C   UNL     1       1.181   8.741  -4.481  1.00  0.00     0.042 C 
BRANCH  24  25
ATOM     25  C   UNL     1       1.412   9.735  -5.617  1.00  0.00     0.118 C 
BRANCH  25  26
ATOM     26  N   UNL     1       0.706  10.988  -5.396  1.00  0.00    -0.352 N 
ATOM     27  C   UNL     1       1.183  12.271  -5.304  1.00  0.00     0.251 C 
ATOM     28  H   UNL     1      -0.270  10.901  -5.297  1.00  0.00     0.163 HD
ATOM     29  O   UNL     1       0.438  13.160  -4.899  1.00  0.00    -0.269 OA
BRANCH  27  30
ATOM     30  C   UNL     1       2.576  12.604  -5.679  1.00  0.00     0.039 A 
ATOM     31  C   UNL     1       3.269  13.546  -4.910  1.00  0.00     0.014 A 
ATOM     32  C   UNL     1       3.179  12.060  -6.817  1.00  0.00     0.014 A 
ATOM     33  C   UNL     1       4.574  13.909  -5.253  1.00  0.00     0.010 A 
ATOM     34  C   UNL     1       4.502  12.379  -7.126  1.00  0.00     0.010 A 
ATOM     35  C   UNL     1       5.210  13.311  -6.353  1.00  0.00    -0.014 A 
BRANCH  35  36
ATOM     36  C   UNL     1       6.607  13.661  -6.718  1.00  0.00     0.031 A 
ATOM     37  C   UNL     1       6.892  14.375  -8.010  1.00  0.00     0.074 A 
ATOM     38  C   UNL     1       7.621  13.287  -5.915  1.00  0.00     0.049 A 
ATOM     39  N   UNL     1       8.045  14.675  -8.555  1.00  0.00    -0.248 NA
ATOM     40  C   UNL     1       5.727  14.791  -8.807  1.00  0.00     0.031 C 
ATOM     41  C   UNL     1       7.476  12.566  -4.650  1.00  0.00     0.029 A 
ATOM     42  N   UNL     1       8.978  13.448  -6.052  1.00  0.00    -0.354 N 
ATOM     43  C   UNL     1       7.744  15.297  -9.760  1.00  0.00     0.074 A 
ATOM     44  C   UNL     1       6.303  15.298  -9.887  1.00  0.00     0.031 C 
ATOM     45  C   UNL     1       8.693  12.356  -4.122  1.00  0.00     0.029 A 
ATOM     46  C   UNL     1       9.704  12.895  -5.027  1.00  0.00     0.049 A 
ATOM     47  H   UNL     1       9.390  13.917  -6.814  1.00  0.00     0.167 HD
ATOM     48  C   UNL     1       8.593  15.837 -10.667  1.00  0.00     0.037 A 
ATOM     49  C   UNL     1      11.036  12.820  -4.844  1.00  0.00     0.037 A 
ATOM     50  C   UNL     1      10.026  15.860 -10.527  1.00  0.00     0.049 A 
ATOM     51  C   UNL     1      11.955  13.425  -5.870  1.00  0.00     0.074 A 
ATOM     52  C   UNL     1      10.969  16.408 -11.379  1.00  0.00     0.029 A 
ATOM     53  N   UNL     1      10.721  15.318  -9.457  1.00  0.00    -0.354 N 
ATOM     54  N   UNL     1      11.656  14.042  -6.988  1.00  0.00    -0.248 NA
ATOM     55  C   UNL     1      13.398  13.329  -5.606  1.00  0.00     0.031 C 
ATOM     56  C   UNL     1      12.237  16.175 -10.838  1.00  0.00     0.029 A 
ATOM     57  C   UNL     1      12.082  15.514  -9.631  1.00  0.00     0.049 A 
ATOM     58  H   UNL     1      10.309  14.861  -8.688  1.00  0.00     0.167 HD
ATOM     59  C   UNL     1      12.867  14.432  -7.543  1.00  0.00     0.074 A 
ATOM     60  C   UNL     1      13.905  13.995  -6.634  1.00  0.00     0.031 C 
ATOM     61  C   UNL     1      13.098  15.091  -8.704  1.00  0.00     0.037 A 
BRANCH  48  62
ATOM     62  C   UNL     1       7.997  16.461 -11.894  1.00  0.00     0.064 A 
ATOM     63  C   UNL     1       7.322  17.689 -11.832  1.00  0.00     0.173 A 
ATOM     64  C   UNL     1       8.150  15.857 -13.151  1.00  0.00     0.173 A 
ATOM     65  F   UNL     1       7.139  18.301 -10.652  1.00  0.00    -0.203 F 
ATOM     66  C   UNL     1       6.806  18.281 -12.982  1.00  0.00     0.198 A 
ATOM     67  C   UNL     1       7.655  16.465 -14.302  1.00  0.00     0.198 A 
ATOM     68  F   UNL     1       8.793  14.685 -13.264  1.00  0.00    -0.203 F 
ATOM     69  F   UNL     1       6.134  19.438 -12.895  1.00  0.00    -0.200 F 
ATOM     70  C   UNL     1       6.980  17.673 -14.216  1.00  0.00     0.200 A 
ATOM     71  F   UNL     1       7.834  15.882 -15.496  1.00  0.00    -0.200 F 
ATOM     72  F   UNL     1       6.493  18.250 -15.324  1.00  0.00    -0.200 F 
ENDBRANCH  48  62
BRANCH  49  73
ATOM     73  C   UNL     1      11.588  12.158  -3.634  1.00  0.00     0.064 A 
ATOM     74  C   UNL     1      12.223  12.906  -2.633  1.00  0.00     0.173 A 
ATOM     75  C   UNL     1      11.514  10.768  -3.464  1.00  0.00     0.173 A 
ATOM     76  F   UNL     1      12.338  14.236  -2.763  1.00  0.00    -0.203 F 
ATOM     77  C   UNL     1      12.787  12.286  -1.520  1.00  0.00     0.198 A 
ATOM     78  C   UNL     1      12.054  10.152  -2.337  1.00  0.00     0.198 A 
ATOM     79  F   UNL     1      10.913  10.008  -4.391  1.00  0.00    -0.203 F 
ATOM     80  F   UNL     1      13.434  13.019  -0.604  1.00  0.00    -0.200 F 
ATOM     81  C   UNL     1      12.699  10.910  -1.371  1.00  0.00     0.200 A 
ATOM     82  F   UNL     1      11.958   8.823  -2.191  1.00  0.00    -0.200 F 
ATOM     83  F   UNL     1      13.244  10.314  -0.302  1.00  0.00    -0.200 F 
ENDBRANCH  49  73
BRANCH  61  84
ATOM     84  C   UNL     1      14.523  15.420  -9.034  1.00  0.00     0.064 A 
ATOM     85  C   UNL     1      15.422  14.436  -9.469  1.00  0.00     0.173 A 
ATOM     86  C   UNL     1      14.982  16.743  -8.949  1.00  0.00     0.173 A 
ATOM     87  F   UNL     1      15.033  13.155  -9.551  1.00  0.00    -0.203 F 
ATOM     88  C   UNL     1      16.738  14.762  -9.787  1.00  0.00     0.198 A 
ATOM     89  C   UNL     1      16.291  17.069  -9.292  1.00  0.00     0.198 A 
ATOM     90  F   UNL     1      14.158  17.720  -8.543  1.00  0.00    -0.203 F 
ATOM     91  F   UNL     1      17.592  13.800 -10.162  1.00  0.00    -0.200 F 
ATOM     92  C   UNL     1      17.169  16.078  -9.705  1.00  0.00     0.200 A 
ATOM     93  F   UNL     1      16.704  18.342  -9.222  1.00  0.00    -0.200 F 
ATOM     94  F   UNL     1      18.434  16.390 -10.017  1.00  0.00    -0.200 F 
ENDBRANCH  61  84
ENDBRANCH  35  36
ENDBRANCH  27  30
ENDBRANCH  25  26
ENDBRANCH  24  25
ENDBRANCH   1  24
TORSDOF 14
