REMARK SMILES C[C@@H](C(=O)NCCCNC(=O)c1ccc(-c2c3nc(c(-c4c(F)c(F)c(F)c(F)c4F)c4ccc([nH]4)c(-c4c(F)c(F)c(F)c(F)c4F)c4nc(c(-c5c(F)c(F)c(F)c(F)c5F)c5ccc2[nH]5)C=C4)C=C3)cc1)c1cc(/C=C/S(C)(=O)=O)cc(C(=O)c2ccccc2)c1
REMARK SMILES IDX 6 1 5 2 3 3 4 4 2 6 1 7 75 8 76 9 94 10 77 11 85 12 84 13
REMARK SMILES IDX 78 14 79 15 80 16 81 17 82 18 83 19 86 20 87 21 88 22 89 23
REMARK SMILES IDX 93 24 90 25 92 26 91 27 7 28 8 29 9 30 10 31 11 33 12 34
REMARK SMILES IDX 13 35 74 36 14 37 73 38 15 39 16 40 17 41 67 42 18 43 72 44
REMARK SMILES IDX 66 45 68 46 19 47 71 48 65 49 64 50 20 52 52 53 32 54 51 55
REMARK SMILES IDX 33 56 36 57 50 58 69 59 34 60 35 61 49 63 70 64 37 65 21 66
REMARK SMILES IDX 22 67 30 68 23 69 24 70 28 71 31 72 25 73 26 74 29 75 27 76
REMARK SMILES IDX 53 77 54 78 62 79 55 80 56 81 60 82 63 83 57 84 58 85 61 86
REMARK SMILES IDX 59 87 38 88 39 89 47 90 40 91 41 92 45 93 48 94 42 95 43 96
REMARK SMILES IDX 46 97 44 98
REMARK H PARENT 5 5 9 32 68 51 36 62
REMARK Flexibility Score: inf
ROOT
ATOM      1  C   UNL     1       3.587  -1.444  -1.478  1.00  0.00     0.117 C 
ENDROOT
BRANCH   1   2
ATOM      2  N   UNL     1       2.547  -2.435  -1.283  1.00  0.00    -0.356 N 
ATOM      3  C   UNL     1       1.272  -2.260  -0.829  1.00  0.00     0.227 C 
ATOM      4  O   UNL     1       0.761  -3.228  -0.265  1.00  0.00    -0.274 OA
ATOM      5  H   UNL     1       2.795  -3.361  -1.508  1.00  0.00     0.163 HD
BRANCH   3   6
ATOM      6  C   UNL     1       0.576  -0.898  -1.013  1.00  0.00     0.105 C 
ATOM      7  C   UNL     1       0.996  -0.009   0.171  1.00  0.00     0.023 C 
BRANCH   6   8
ATOM      8  C   UNL     1      -0.956  -0.940  -1.106  1.00  0.00    -0.035 A 
ATOM      9  C   UNL     1      -1.687   0.256  -1.000  1.00  0.00     0.012 A 
ATOM     10  C   UNL     1      -1.686  -2.123  -1.243  1.00  0.00     0.016 A 
ATOM     11  C   UNL     1      -3.080   0.279  -0.834  1.00  0.00    -0.024 A 
ATOM     12  C   UNL     1      -3.072  -2.147  -1.046  1.00  0.00     0.023 A 
ATOM     13  C   UNL     1      -3.764  -0.944  -0.843  1.00  0.00     0.020 A 
BRANCH  11  14
ATOM     14  C   UNL     1      -3.820   1.533  -0.579  1.00  0.00     0.020 C 
ATOM     15  C   UNL     1      -3.246   2.736  -0.415  1.00  0.00     0.106 C 
BRANCH  15  16
ATOM     16  S   UNL     1      -4.196   4.138  -0.036  1.00  0.00     0.168 S 
ATOM     17  C   UNL     1      -3.355   4.737   1.412  1.00  0.00     0.163 C 
ATOM     18  O   UNL     1      -3.991   5.118  -1.082  1.00  0.00    -0.225 OA
ATOM     19  O   UNL     1      -5.533   3.751   0.374  1.00  0.00    -0.225 OA
ENDBRANCH  15  16
ENDBRANCH  11  14
BRANCH  12  20
ATOM     20  C   UNL     1      -3.824  -3.439  -1.022  1.00  0.00     0.193 C 
ATOM     21  O   UNL     1      -5.044  -3.443  -1.157  1.00  0.00    -0.289 OA
BRANCH  20  22
ATOM     22  C   UNL     1      -3.116  -4.736  -0.865  1.00  0.00     0.022 A 
ATOM     23  C   UNL     1      -3.392  -5.761  -1.775  1.00  0.00     0.012 A 
ATOM     24  C   UNL     1      -2.166  -4.935   0.146  1.00  0.00     0.012 A 
ATOM     25  C   UNL     1      -2.680  -6.960  -1.709  1.00  0.00     0.001 A 
ATOM     26  C   UNL     1      -1.452  -6.134   0.203  1.00  0.00     0.001 A 
ATOM     27  C   UNL     1      -1.703  -7.141  -0.728  1.00  0.00     0.000 A 
ENDBRANCH  20  22
ENDBRANCH  12  20
ENDBRANCH   6   8
ENDBRANCH   3   6
ENDBRANCH   1   2
BRANCH   1  28
ATOM     28  C   UNL     1       4.454  -1.314  -0.223  1.00  0.00     0.042 C 
BRANCH  28  29
ATOM     29  C   UNL     1       5.159  -2.602   0.189  1.00  0.00     0.118 C 
BRANCH  29  30
ATOM     30  N   UNL     1       6.116  -3.052  -0.807  1.00  0.00    -0.352 N 
ATOM     31  C   UNL     1       7.471  -3.232  -0.704  1.00  0.00     0.251 C 
ATOM     32  H   UNL     1       5.733  -3.260  -1.690  1.00  0.00     0.163 HD
ATOM     33  O   UNL     1       8.139  -3.410  -1.718  1.00  0.00    -0.269 OA
BRANCH  31  34
ATOM     34  C   UNL     1       8.136  -3.194   0.617  1.00  0.00     0.039 A 
ATOM     35  C   UNL     1       9.363  -2.536   0.729  1.00  0.00     0.014 A 
ATOM     36  C   UNL     1       7.577  -3.825   1.732  1.00  0.00     0.014 A 
ATOM     37  C   UNL     1      10.000  -2.462   1.969  1.00  0.00     0.010 A 
ATOM     38  C   UNL     1       8.172  -3.681   2.983  1.00  0.00     0.010 A 
ATOM     39  C   UNL     1       9.393  -3.004   3.115  1.00  0.00    -0.014 A 
BRANCH  39  40
ATOM     40  C   UNL     1      10.022  -2.863   4.453  1.00  0.00     0.031 A 
ATOM     41  C   UNL     1      10.464  -4.079   5.219  1.00  0.00     0.074 A 
ATOM     42  C   UNL     1      10.146  -1.639   5.003  1.00  0.00     0.049 A 
ATOM     43  N   UNL     1      10.979  -4.158   6.421  1.00  0.00    -0.248 NA
ATOM     44  C   UNL     1      10.282  -5.381   4.559  1.00  0.00     0.031 C 
ATOM     45  C   UNL     1       9.714  -0.387   4.380  1.00  0.00     0.029 A 
ATOM     46  N   UNL     1      10.661  -1.246   6.213  1.00  0.00    -0.354 N 
ATOM     47  C   UNL     1      11.170  -5.513   6.663  1.00  0.00     0.074 A 
ATOM     48  C   UNL     1      10.666  -6.223   5.508  1.00  0.00     0.031 C 
ATOM     49  C   UNL     1      10.001   0.635   5.201  1.00  0.00     0.029 A 
ATOM     50  C   UNL     1      10.595   0.110   6.426  1.00  0.00     0.049 A 
ATOM     51  H   UNL     1      11.042  -1.876   6.867  1.00  0.00     0.167 HD
ATOM     52  C   UNL     1      11.735  -6.107   7.741  1.00  0.00     0.037 A 
ATOM     53  C   UNL     1      10.959   0.846   7.494  1.00  0.00     0.037 A 
ATOM     54  C   UNL     1      12.252  -5.394   8.881  1.00  0.00     0.049 A 
ATOM     55  C   UNL     1      11.571   0.159   8.684  1.00  0.00     0.074 A 
ATOM     56  C   UNL     1      12.895  -5.903   9.996  1.00  0.00     0.029 A 
ATOM     57  N   UNL     1      12.177  -4.020   9.055  1.00  0.00    -0.354 N 
ATOM     58  N   UNL     1      11.810  -1.117   8.872  1.00  0.00    -0.248 NA
ATOM     59  C   UNL     1      11.973   1.015   9.809  1.00  0.00     0.031 C 
ATOM     60  C   UNL     1      13.153  -4.845  10.873  1.00  0.00     0.029 A 
ATOM     61  C   UNL     1      12.736  -3.667  10.274  1.00  0.00     0.049 A 
ATOM     62  H   UNL     1      11.785  -3.389   8.409  1.00  0.00     0.167 HD
ATOM     63  C   UNL     1      12.414  -1.214  10.119  1.00  0.00     0.074 A 
ATOM     64  C   UNL     1      12.521   0.135  10.635  1.00  0.00     0.031 C 
ATOM     65  C   UNL     1      12.841  -2.320  10.776  1.00  0.00     0.037 A 
BRANCH  52  66
ATOM     66  C   UNL     1      11.825  -7.607   7.745  1.00  0.00     0.064 A 
ATOM     67  C   UNL     1      12.681  -8.299   6.874  1.00  0.00     0.173 A 
ATOM     68  C   UNL     1      11.086  -8.361   8.670  1.00  0.00     0.173 A 
ATOM     69  F   UNL     1      13.403  -7.628   5.963  1.00  0.00    -0.203 F 
ATOM     70  C   UNL     1      12.772  -9.688   6.910  1.00  0.00     0.198 A 
ATOM     71  C   UNL     1      11.205  -9.747   8.726  1.00  0.00     0.198 A 
ATOM     72  F   UNL     1      10.257  -7.752   9.531  1.00  0.00    -0.203 F 
ATOM     73  F   UNL     1      13.560 -10.329   6.035  1.00  0.00    -0.200 F 
ATOM     74  C   UNL     1      12.042 -10.410   7.841  1.00  0.00     0.200 A 
ATOM     75  F   UNL     1      10.511 -10.442   9.638  1.00  0.00    -0.200 F 
ATOM     76  F   UNL     1      12.141 -11.746   7.883  1.00  0.00    -0.200 F 
ENDBRANCH  52  66
BRANCH  53  77
ATOM     77  C   UNL     1      10.763   2.320   7.479  1.00  0.00     0.064 A 
ATOM     78  C   UNL     1      11.857   3.196   7.451  1.00  0.00     0.173 A 
ATOM     79  C   UNL     1       9.479   2.884   7.496  1.00  0.00     0.173 A 
ATOM     80  F   UNL     1      13.106   2.706   7.453  1.00  0.00    -0.203 F 
ATOM     81  C   UNL     1      11.675   4.577   7.465  1.00  0.00     0.198 A 
ATOM     82  C   UNL     1       9.297   4.265   7.476  1.00  0.00     0.198 A 
ATOM     83  F   UNL     1       8.397   2.091   7.516  1.00  0.00    -0.203 F 
ATOM     84  F   UNL     1      12.740   5.390   7.488  1.00  0.00    -0.200 F 
ATOM     85  C   UNL     1      10.396   5.111   7.470  1.00  0.00     0.200 A 
ATOM     86  F   UNL     1       8.058   4.775   7.461  1.00  0.00    -0.200 F 
ATOM     87  F   UNL     1      10.221   6.439   7.476  1.00  0.00    -0.200 F 
ENDBRANCH  53  77
BRANCH  65  88
ATOM     88  C   UNL     1      13.500  -2.120  12.111  1.00  0.00     0.064 A 
ATOM     89  C   UNL     1      12.778  -1.706  13.240  1.00  0.00     0.173 A 
ATOM     90  C   UNL     1      14.870  -2.384  12.271  1.00  0.00     0.173 A 
ATOM     91  F   UNL     1      11.469  -1.427  13.139  1.00  0.00    -0.203 F 
ATOM     92  C   UNL     1      13.407  -1.537  14.471  1.00  0.00     0.198 A 
ATOM     93  C   UNL     1      15.488  -2.248  13.510  1.00  0.00     0.198 A 
ATOM     94  F   UNL     1      15.607  -2.790  11.226  1.00  0.00    -0.203 F 
ATOM     95  F   UNL     1      12.707  -1.088  15.522  1.00  0.00    -0.200 F 
ATOM     96  C   UNL     1      14.759  -1.816  14.607  1.00  0.00     0.200 A 
ATOM     97  F   UNL     1      16.790  -2.536  13.643  1.00  0.00    -0.200 F 
ATOM     98  F   UNL     1      15.360  -1.661  15.794  1.00  0.00    -0.200 F 
ENDBRANCH  65  88
ENDBRANCH  39  40
ENDBRANCH  31  34
ENDBRANCH  29  30
ENDBRANCH  28  29
ENDBRANCH   1  28
TORSDOF 15
