REMARK SMILES O=C(NCCCNC(=O)c1cc(-c2cccc(Cl)c2)ccc1Cl)c1ccc(-c2c3nc(c(-c4c(F)c(F)c(F)c(F)c4F)c4ccc([nH]4)c(-c4c(F)c(F)c(F)c(F)c4F)c4nc(c(-c5c(F)c(F)c(F)c(F)c5F)c5ccc2[nH]5)C=C4)C=C3)cc1
REMARK SMILES IDX 4 1 3 2 1 3 2 4 24 6 25 7 86 8 26 9 85 10 27 11 28 12 29 13
REMARK SMILES IDX 79 14 30 15 84 16 78 17 80 18 31 19 83 20 77 21 76 22 32 24
REMARK SMILES IDX 64 25 44 26 63 27 45 28 48 29 62 30 81 31 46 32 47 33 61 35
REMARK SMILES IDX 82 36 49 37 33 38 34 39 42 40 35 41 36 42 40 43 43 44 37 45
REMARK SMILES IDX 38 46 41 47 39 48 65 49 66 50 74 51 67 52 68 53 72 54 75 55
REMARK SMILES IDX 69 56 70 57 73 58 71 59 50 60 51 61 59 62 52 63 53 64 57 65
REMARK SMILES IDX 60 66 54 67 55 68 58 69 56 70 5 71 6 72 7 73 8 74 9 76 10 77
REMARK SMILES IDX 11 78 22 79 12 80 21 81 23 82 20 83 13 84 14 85 19 86 15 87
REMARK SMILES IDX 17 88 16 89 18 90
REMARK H PARENT 3 5 80 23 48 34 7 75
REMARK Flexibility Score: inf
ROOT
ATOM      1  C   UNL     1       4.615  -0.857  -1.057  1.00  0.00     0.118 C 
ENDROOT
BRANCH   1   2
ATOM      2  N   UNL     1       3.186  -0.589  -0.955  1.00  0.00    -0.352 N 
ATOM      3  O   UNL     1       1.239   0.144  -0.096  1.00  0.00    -0.269 OA
ATOM      4  C   UNL     1       2.467   0.179  -0.068  1.00  0.00     0.251 C 
ATOM      5  H   UNL     1       2.639  -1.035  -1.641  1.00  0.00     0.163 HD
BRANCH   4   6
ATOM      6  C   UNL     1       3.148   1.014   0.946  1.00  0.00     0.039 A 
ATOM      7  C   UNL     1       4.301   1.734   0.639  1.00  0.00     0.014 A 
ATOM      8  C   UNL     1       2.610   1.093   2.236  1.00  0.00     0.014 A 
ATOM      9  C   UNL     1       5.027   2.346   1.655  1.00  0.00     0.010 A 
ATOM     10  C   UNL     1       3.281   1.810   3.234  1.00  0.00     0.010 A 
ATOM     11  C   UNL     1       4.527   2.394   2.966  1.00  0.00    -0.014 A 
BRANCH  11  12
ATOM     12  C   UNL     1       5.327   3.074   4.020  1.00  0.00     0.031 A 
ATOM     13  C   UNL     1       5.858   2.314   5.207  1.00  0.00     0.074 A 
ATOM     14  C   UNL     1       5.632   4.378   3.868  1.00  0.00     0.049 A 
ATOM     15  N   UNL     1       6.631   2.735   6.178  1.00  0.00    -0.248 NA
ATOM     16  C   UNL     1       5.463   0.903   5.331  1.00  0.00     0.031 C 
ATOM     17  C   UNL     1       5.165   5.228   2.772  1.00  0.00     0.029 A 
ATOM     18  N   UNL     1       6.432   5.207   4.612  1.00  0.00    -0.354 N 
ATOM     19  C   UNL     1       6.789   1.655   7.038  1.00  0.00     0.074 A 
ATOM     20  C   UNL     1       6.014   0.564   6.488  1.00  0.00     0.031 C 
ATOM     21  C   UNL     1       5.740   6.435   2.874  1.00  0.00     0.029 A 
ATOM     22  C   UNL     1       6.569   6.464   4.074  1.00  0.00     0.049 A 
ATOM     23  H   UNL     1       6.867   4.929   5.451  1.00  0.00     0.167 HD
ATOM     24  C   UNL     1       7.522   1.578   8.176  1.00  0.00     0.037 A 
ATOM     25  C   UNL     1       7.280   7.524   4.498  1.00  0.00     0.037 A 
ATOM     26  C   UNL     1       8.324   2.653   8.702  1.00  0.00     0.049 A 
ATOM     27  C   UNL     1       8.095   7.404   5.753  1.00  0.00     0.074 A 
ATOM     28  C   UNL     1       9.137   2.655   9.822  1.00  0.00     0.029 A 
ATOM     29  N   UNL     1       8.416   3.918   8.140  1.00  0.00    -0.354 N 
ATOM     30  N   UNL     1       8.262   6.366   6.535  1.00  0.00    -0.248 NA
ATOM     31  C   UNL     1       8.817   8.607   6.187  1.00  0.00     0.031 C 
ATOM     32  C   UNL     1       9.690   3.933   9.961  1.00  0.00     0.029 A 
ATOM     33  C   UNL     1       9.258   4.714   8.902  1.00  0.00     0.049 A 
ATOM     34  H   UNL     1       7.952   4.208   7.322  1.00  0.00     0.167 HD
ATOM     35  C   UNL     1       9.122   6.782   7.540  1.00  0.00     0.074 A 
ATOM     36  C   UNL     1       9.458   8.163   7.258  1.00  0.00     0.031 C 
ATOM     37  C   UNL     1       9.588   6.083   8.604  1.00  0.00     0.037 A 
BRANCH  24  38
ATOM     38  C   UNL     1       7.481   0.290   8.946  1.00  0.00     0.064 A 
ATOM     39  C   UNL     1       8.126  -0.868   8.487  1.00  0.00     0.173 A 
ATOM     40  C   UNL     1       6.825   0.227  10.186  1.00  0.00     0.173 A 
ATOM     41  F   UNL     1       8.757  -0.865   7.303  1.00  0.00    -0.203 F 
ATOM     42  C   UNL     1       8.096  -2.047   9.229  1.00  0.00     0.198 A 
ATOM     43  C   UNL     1       6.819  -0.945  10.937  1.00  0.00     0.198 A 
ATOM     44  F   UNL     1       6.198   1.308  10.674  1.00  0.00    -0.203 F 
ATOM     45  F   UNL     1       8.684  -3.152   8.751  1.00  0.00    -0.200 F 
ATOM     46  C   UNL     1       7.449  -2.083  10.456  1.00  0.00     0.200 A 
ATOM     47  F   UNL     1       6.204  -0.974  12.128  1.00  0.00    -0.200 F 
ATOM     48  F   UNL     1       7.428  -3.216  11.171  1.00  0.00    -0.200 F 
ENDBRANCH  24  38
BRANCH  25  49
ATOM     49  C   UNL     1       7.266   8.784   3.712  1.00  0.00     0.064 A 
ATOM     50  C   UNL     1       8.405   9.213   3.019  1.00  0.00     0.173 A 
ATOM     51  C   UNL     1       6.111   9.575   3.625  1.00  0.00     0.173 A 
ATOM     52  F   UNL     1       9.539   8.500   3.087  1.00  0.00    -0.203 F 
ATOM     53  C   UNL     1       8.395  10.394   2.280  1.00  0.00     0.198 A 
ATOM     54  C   UNL     1       6.092  10.740   2.863  1.00  0.00     0.198 A 
ATOM     55  F   UNL     1       4.993   9.203   4.266  1.00  0.00    -0.203 F 
ATOM     56  F   UNL     1       9.509  10.803   1.658  1.00  0.00    -0.200 F 
ATOM     57  C   UNL     1       7.236  11.152   2.197  1.00  0.00     0.200 A 
ATOM     58  F   UNL     1       4.966  11.460   2.772  1.00  0.00    -0.200 F 
ATOM     59  F   UNL     1       7.224  12.284   1.479  1.00  0.00    -0.200 F 
ENDBRANCH  25  49
BRANCH  37  60
ATOM     60  C   UNL     1      10.538   6.795   9.522  1.00  0.00     0.064 A 
ATOM     61  C   UNL     1      10.101   7.801  10.396  1.00  0.00     0.173 A 
ATOM     62  C   UNL     1      11.898   6.453   9.537  1.00  0.00     0.173 A 
ATOM     63  F   UNL     1       8.813   8.174  10.405  1.00  0.00    -0.203 F 
ATOM     64  C   UNL     1      10.998   8.460  11.231  1.00  0.00     0.198 A 
ATOM     65  C   UNL     1      12.788   7.095  10.393  1.00  0.00     0.198 A 
ATOM     66  F   UNL     1      12.364   5.493   8.724  1.00  0.00    -0.203 F 
ATOM     67  F   UNL     1      10.569   9.454  12.020  1.00  0.00    -0.200 F 
ATOM     68  C   UNL     1      12.339   8.104  11.233  1.00  0.00     0.200 A 
ATOM     69  F   UNL     1      14.081   6.743  10.401  1.00  0.00    -0.200 F 
ATOM     70  F   UNL     1      13.201   8.740  12.037  1.00  0.00    -0.200 F 
ENDBRANCH  37  60
ENDBRANCH  11  12
ENDBRANCH   4   6
ENDBRANCH   1   2
BRANCH   1  71
ATOM     71  C   UNL     1       4.996  -2.279  -0.667  1.00  0.00     0.042 C 
BRANCH  71  72
ATOM     72  C   UNL     1       4.454  -3.353  -1.598  1.00  0.00     0.118 C 
BRANCH  72  73
ATOM     73  N   UNL     1       4.904  -3.185  -2.971  1.00  0.00    -0.352 N 
ATOM     74  C   UNL     1       5.632  -4.024  -3.774  1.00  0.00     0.252 C 
ATOM     75  H   UNL     1       4.645  -2.333  -3.390  1.00  0.00     0.163 HD
ATOM     76  O   UNL     1       5.992  -3.641  -4.884  1.00  0.00    -0.269 OA
BRANCH  74  77
ATOM     77  C   UNL     1       6.046  -5.360  -3.305  1.00  0.00     0.059 A 
ATOM     78  C   UNL     1       7.420  -5.657  -3.377  1.00  0.00     0.024 A 
ATOM     79  C   UNL     1       5.140  -6.346  -2.904  1.00  0.00     0.053 A 
ATOM     80  C   UNL     1       7.906  -6.920  -3.005  1.00  0.00    -0.017 A 
ATOM     81  C   UNL     1       5.620  -7.577  -2.457  1.00  0.00     0.022 A 
ATOM     82  Cl  UNL     1       3.425  -6.159  -3.008  1.00  0.00    -0.083 Cl
ATOM     83  C   UNL     1       6.989  -7.856  -2.500  1.00  0.00     0.010 A 
BRANCH  80  84
ATOM     84  C   UNL     1       9.314  -7.293  -3.214  1.00  0.00    -0.017 A 
ATOM     85  C   UNL     1       9.631  -8.422  -3.993  1.00  0.00     0.009 A 
ATOM     86  C   UNL     1      10.371  -6.543  -2.677  1.00  0.00     0.029 A 
ATOM     87  C   UNL     1      10.955  -8.799  -4.224  1.00  0.00     0.002 A 
ATOM     88  C   UNL     1      11.696  -6.924  -2.909  1.00  0.00     0.041 A 
ATOM     89  C   UNL     1      11.992  -8.048  -3.678  1.00  0.00     0.020 A 
ATOM     90  Cl  UNL     1      12.981  -5.997  -2.236  1.00  0.00    -0.084 Cl
ENDBRANCH  80  84
ENDBRANCH  74  77
ENDBRANCH  72  73
ENDBRANCH  71  72
ENDBRANCH   1  71
TORSDOF 11
