REMARK SMILES C#CCN(CC(=O)NCCCNC(=O)c1ccc(-c2c3nc(c(-c4c(F)c(F)c(F)c(F)c4F)c4ccc([nH]4)c(-c4c(F)c(F)c(F)c(F)c4F)c4nc(c(-c5c(F)c(F)c(F)c(F)c5F)c5ccc2[nH]5)C=C4)C=C3)cc1)C(=O)[C@H]1C[NH2+]C[C@H]1C
REMARK SMILES IDX 9 1 8 2 6 3 7 4 5 6 4 7 3 8 2 9 1 10 78 11 79 12 80 13 81 14
REMARK SMILES IDX 84 15 82 16 83 17 85 18 10 21 11 22 12 23 13 24 14 26 15 27
REMARK SMILES IDX 16 28 77 29 17 30 76 31 18 32 19 33 20 34 70 35 21 36 75 37
REMARK SMILES IDX 69 38 71 39 22 40 74 41 68 42 67 43 23 45 55 46 35 47 54 48
REMARK SMILES IDX 36 49 39 50 53 51 72 52 37 53 38 54 52 56 73 57 40 58 24 59
REMARK SMILES IDX 25 60 33 61 26 62 27 63 31 64 34 65 28 66 29 67 32 68 30 69
REMARK SMILES IDX 56 70 57 71 65 72 58 73 59 74 63 75 66 76 60 77 61 78 64 79
REMARK SMILES IDX 62 80 41 81 42 82 50 83 43 84 44 85 48 86 51 87 45 88 46 89
REMARK SMILES IDX 49 90 47 91
REMARK H PARENT 8 5 82 19 82 20 12 25 71 44 39 55
REMARK Flexibility Score: inf
ROOT
ATOM      1  C   UNL     1      -5.132   0.170   0.364  1.00  0.00     0.117 C 
ENDROOT
BRANCH   1   2
ATOM      2  N   UNL     1      -5.409  -0.984  -0.466  1.00  0.00    -0.354 N 
ATOM      3  C   UNL     1      -4.605  -2.015  -0.852  1.00  0.00     0.239 C 
ATOM      4  O   UNL     1      -5.158  -2.991  -1.362  1.00  0.00    -0.273 OA
ATOM      5  H   UNL     1      -6.331  -1.032  -0.808  1.00  0.00     0.163 HD
BRANCH   3   6
ATOM      6  C   UNL     1      -3.098  -2.027  -0.559  1.00  0.00     0.220 C 
BRANCH   6   7
ATOM      7  N   UNL     1      -2.347  -0.888  -1.087  1.00  0.00    -0.322 N 
BRANCH   7   8
ATOM      8  C   UNL     1      -1.776   0.014  -0.087  1.00  0.00     0.209 C 
BRANCH   8   9
ATOM      9  C   UNL     1      -0.256   0.014  -0.087  1.00  0.00    -0.085 C 
ATOM     10  C   UNL     1       1.048   0.014  -0.087  1.00  0.00     0.006 C 
ENDBRANCH   8   9
ENDBRANCH   7   8
BRANCH   7  11
ATOM     11  C   UNL     1      -2.106  -0.574  -2.412  1.00  0.00     0.233 C 
ATOM     12  O   UNL     1      -1.621   0.540  -2.678  1.00  0.00    -0.274 OA
BRANCH  11  13
ATOM     13  C   UNL     1      -2.435  -1.451  -3.632  1.00  0.00     0.142 C 
ATOM     14  C   UNL     1      -2.518  -2.969  -3.607  1.00  0.00     0.274 C 
ATOM     15  C   UNL     1      -3.632  -1.003  -4.498  1.00  0.00     0.059 C 
ATOM     16  N   UNL     1      -3.357  -3.322  -4.767  1.00  0.00    -0.345 N 
ATOM     17  C   UNL     1      -4.403  -2.294  -4.755  1.00  0.00     0.264 C 
ATOM     18  C   UNL     1      -4.519   0.105  -3.961  1.00  0.00     0.015 C 
ATOM     19  H   UNL     1      -3.759  -4.253  -4.657  1.00  0.00     0.346 HD
ATOM     20  H   UNL     1      -2.834  -3.349  -5.642  1.00  0.00     0.346 HD
ENDBRANCH  11  13
ENDBRANCH   7  11
ENDBRANCH   6   7
ENDBRANCH   3   6
ENDBRANCH   1   2
BRANCH   1  21
ATOM     21  C   UNL     1      -4.958   1.460  -0.430  1.00  0.00     0.042 C 
BRANCH  21  22
ATOM     22  C   UNL     1      -6.204   1.909  -1.185  1.00  0.00     0.118 C 
BRANCH  22  23
ATOM     23  N   UNL     1      -7.309   2.239  -0.299  1.00  0.00    -0.352 N 
ATOM     24  C   UNL     1      -7.934   3.439  -0.077  1.00  0.00     0.251 C 
ATOM     25  H   UNL     1      -7.664   1.483   0.222  1.00  0.00     0.163 HD
ATOM     26  O   UNL     1      -8.721   3.551   0.863  1.00  0.00    -0.269 OA
BRANCH  24  27
ATOM     27  C   UNL     1      -7.663   4.601  -0.947  1.00  0.00     0.039 A 
ATOM     28  C   UNL     1      -7.489   5.860  -0.364  1.00  0.00     0.014 A 
ATOM     29  C   UNL     1      -7.616   4.460  -2.336  1.00  0.00     0.014 A 
ATOM     30  C   UNL     1      -7.201   6.966  -1.169  1.00  0.00     0.010 A 
ATOM     31  C   UNL     1      -7.259   5.546  -3.129  1.00  0.00     0.010 A 
ATOM     32  C   UNL     1      -7.050   6.810  -2.555  1.00  0.00    -0.014 A 
BRANCH  32  33
ATOM     33  C   UNL     1      -6.694   7.946  -3.443  1.00  0.00     0.031 A 
ATOM     34  C   UNL     1      -7.658   8.386  -4.508  1.00  0.00     0.074 A 
ATOM     35  C   UNL     1      -5.472   8.506  -3.362  1.00  0.00     0.049 A 
ATOM     36  N   UNL     1      -7.476   9.215  -5.503  1.00  0.00    -0.248 NA
ATOM     37  C   UNL     1      -9.002   7.786  -4.463  1.00  0.00     0.031 C 
ATOM     38  C   UNL     1      -4.443   8.157  -2.383  1.00  0.00     0.029 A 
ATOM     39  N   UNL     1      -4.877   9.470  -4.140  1.00  0.00    -0.354 N 
ATOM     40  C   UNL     1      -8.667   9.215  -6.216  1.00  0.00     0.074 A 
ATOM     41  C   UNL     1      -9.552   8.274  -5.565  1.00  0.00     0.031 C 
ATOM     42  C   UNL     1      -3.345   8.893  -2.617  1.00  0.00     0.029 A 
ATOM     43  C   UNL     1      -3.572   9.726  -3.795  1.00  0.00     0.049 A 
ATOM     44  H   UNL     1      -5.341   9.932  -4.875  1.00  0.00     0.167 HD
ATOM     45  C   UNL     1      -8.996   9.946  -7.308  1.00  0.00     0.037 A 
ATOM     46  C   UNL     1      -2.654  10.520  -4.380  1.00  0.00     0.037 A 
ATOM     47  C   UNL     1      -8.118  10.898  -7.935  1.00  0.00     0.049 A 
ATOM     48  C   UNL     1      -3.033  11.297  -5.614  1.00  0.00     0.074 A 
ATOM     49  C   UNL     1      -8.373  11.724  -9.016  1.00  0.00     0.029 A 
ATOM     50  N   UNL     1      -6.813  11.149  -7.537  1.00  0.00    -0.354 N 
ATOM     51  N   UNL     1      -4.176  11.324  -6.256  1.00  0.00    -0.248 NA
ATOM     52  C   UNL     1      -1.995  12.154  -6.205  1.00  0.00     0.031 C 
ATOM     53  C   UNL     1      -7.206  12.435  -9.306  1.00  0.00     0.029 A 
ATOM     54  C   UNL     1      -6.244  12.102  -8.366  1.00  0.00     0.049 A 
ATOM     55  H   UNL     1      -6.359  10.715  -6.779  1.00  0.00     0.167 HD
ATOM     56  C   UNL     1      -4.009  12.229  -7.296  1.00  0.00     0.074 A 
ATOM     57  C   UNL     1      -2.654  12.729  -7.203  1.00  0.00     0.031 C 
ATOM     58  C   UNL     1      -4.903  12.614  -8.238  1.00  0.00     0.037 A 
BRANCH  45  59
ATOM     59  C   UNL     1     -10.360   9.740  -7.902  1.00  0.00     0.064 A 
ATOM     60  C   UNL     1     -11.525  10.151  -7.237  1.00  0.00     0.173 A 
ATOM     61  C   UNL     1     -10.501   9.160  -9.172  1.00  0.00     0.173 A 
ATOM     62  F   UNL     1     -11.447  10.702  -6.016  1.00  0.00    -0.203 F 
ATOM     63  C   UNL     1     -12.781   9.961  -7.807  1.00  0.00     0.198 A 
ATOM     64  C   UNL     1     -11.757   9.003  -9.754  1.00  0.00     0.198 A 
ATOM     65  F   UNL     1      -9.420   8.756  -9.856  1.00  0.00    -0.203 F 
ATOM     66  F   UNL     1     -13.883  10.314  -7.130  1.00  0.00    -0.200 F 
ATOM     67  C   UNL     1     -12.896   9.394  -9.068  1.00  0.00     0.200 A 
ATOM     68  F   UNL     1     -11.864   8.470 -10.979  1.00  0.00    -0.200 F 
ATOM     69  F   UNL     1     -14.105   9.221  -9.619  1.00  0.00    -0.200 F 
ENDBRANCH  45  59
BRANCH  46  70
ATOM     70  C   UNL     1      -1.287  10.625  -3.805  1.00  0.00     0.064 A 
ATOM     71  C   UNL     1      -0.848  11.816  -3.210  1.00  0.00     0.173 A 
ATOM     72  C   UNL     1      -0.390   9.547  -3.844  1.00  0.00     0.173 A 
ATOM     73  F   UNL     1      -1.661  12.882  -3.167  1.00  0.00    -0.203 F 
ATOM     74  C   UNL     1       0.442  11.931  -2.695  1.00  0.00     0.198 A 
ATOM     75  C   UNL     1       0.889   9.654  -3.301  1.00  0.00     0.198 A 
ATOM     76  F   UNL     1      -0.761   8.384  -4.398  1.00  0.00    -0.203 F 
ATOM     77  F   UNL     1       0.851  13.097  -2.176  1.00  0.00    -0.200 F 
ATOM     78  C   UNL     1       1.307  10.849  -2.735  1.00  0.00     0.200 A 
ATOM     79  F   UNL     1       1.717   8.601  -3.328  1.00  0.00    -0.200 F 
ATOM     80  F   UNL     1       2.546  10.960  -2.237  1.00  0.00    -0.200 F 
ENDBRANCH  46  70
BRANCH  58  81
ATOM     81  C   UNL     1      -4.483  13.680  -9.209  1.00  0.00     0.064 A 
ATOM     82  C   UNL     1      -3.585  13.421 -10.252  1.00  0.00     0.173 A 
ATOM     83  C   UNL     1      -5.064  14.956  -9.141  1.00  0.00     0.173 A 
ATOM     84  F   UNL     1      -2.992  12.221 -10.351  1.00  0.00    -0.203 F 
ATOM     85  C   UNL     1      -3.278  14.403 -11.191  1.00  0.00     0.198 A 
ATOM     86  C   UNL     1      -4.778  15.926 -10.097  1.00  0.00     0.198 A 
ATOM     87  F   UNL     1      -5.935  15.252  -8.164  1.00  0.00    -0.203 F 
ATOM     88  F   UNL     1      -2.396  14.144 -12.165  1.00  0.00    -0.200 F 
ATOM     89  C   UNL     1      -3.884  15.649 -11.120  1.00  0.00     0.200 A 
ATOM     90  F   UNL     1      -5.378  17.122 -10.036  1.00  0.00    -0.200 F 
ATOM     91  F   UNL     1      -3.606  16.585 -12.038  1.00  0.00    -0.200 F 
ENDBRANCH  58  81
ENDBRANCH  32  33
ENDBRANCH  24  27
ENDBRANCH  22  23
ENDBRANCH  21  22
ENDBRANCH   1  21
TORSDOF 15
