REMARK SMILES Cc1cccc(O[C@H](C)C(=O)NNC(=O)[C@H]2[C@@H]3CC[C@@H](C3)[C@@H]2C(=O)NCCCNC(=O)c2ccc(-c3c4nc(c(-c5c(F)c(F)c(F)c(F)c5F)c5ccc([nH]5)c(-c5c(F)c(F)c(F)c(F)c5F)c5nc(c(-c6c(F)c(F)c(F)c(F)c6F)c6ccc3[nH]6)C=C5)C=C4)cc2)c1
REMARK SMILES IDX 23 1 24 2 25 3 22 5 16 6 17 7 18 8 21 9 20 10 19 11 14 12
REMARK SMILES IDX 13 13 15 15 12 16 10 17 11 18 8 20 9 21 7 22 6 23 1 24 2 25
REMARK SMILES IDX 3 26 95 27 4 28 5 29 26 30 27 31 28 32 29 33 30 34 31 36
REMARK SMILES IDX 32 37 33 38 94 39 34 40 93 41 35 42 36 43 37 44 87 45 38 46
REMARK SMILES IDX 92 47 86 48 88 49 39 50 91 51 85 52 84 53 40 55 72 56 52 57
REMARK SMILES IDX 71 58 53 59 56 60 70 61 89 62 54 63 55 64 69 66 90 67 57 68
REMARK SMILES IDX 41 69 42 70 50 71 43 72 44 73 48 74 51 75 45 76 46 77 49 78
REMARK SMILES IDX 47 79 73 80 74 81 82 82 75 83 76 84 80 85 83 86 77 87 78 88
REMARK SMILES IDX 81 89 79 90 58 91 59 92 67 93 60 94 61 95 65 96 68 97 62 98
REMARK SMILES IDX 63 99 66 100 64 101
REMARK H PARENT 25 4 13 14 12 19 29 35 88 54 56 65
REMARK Flexibility Score: inf
ROOT
ATOM      1  C   UNL     1       4.513   2.873  -2.863  1.00  0.00     0.224 C 
ATOM      2  O   UNL     1       5.515   2.302  -2.443  1.00  0.00    -0.275 OA
ATOM      3  N   UNL     1       4.596   4.201  -3.194  1.00  0.00    -0.356 N 
ATOM      4  H   UNL     1       5.487   4.608  -3.103  1.00  0.00     0.163 HD
ENDROOT
BRANCH   1   5
ATOM      5  C   UNL     1       3.164   2.188  -3.021  1.00  0.00     0.094 C 
ATOM      6  C   UNL     1       3.012   0.855  -2.268  1.00  0.00     0.096 C 
ATOM      7  C   UNL     1       2.431  -0.101  -3.343  1.00  0.00     0.002 C 
ATOM      8  C   UNL     1       3.589  -0.515  -4.274  1.00  0.00     0.005 C 
ATOM      9  C   UNL     1       1.656   0.824  -4.279  1.00  0.00     0.009 C 
ATOM     10  C   UNL     1       2.841   1.770  -4.480  1.00  0.00     0.002 C 
ATOM     11  C   UNL     1       3.901   0.790  -5.025  1.00  0.00     0.005 C 
BRANCH   6  12
ATOM     12  C   UNL     1       2.246   0.825  -0.949  1.00  0.00     0.242 C 
ATOM     13  N   UNL     1       1.160   1.587  -0.635  1.00  0.00    -0.267 N 
ATOM     14  H   UNL     1       0.844   1.506   0.293  1.00  0.00     0.191 HD
ATOM     15  O   UNL     1       2.601   0.011  -0.085  1.00  0.00    -0.273 OA
BRANCH  13  16
ATOM     16  N   UNL     1       0.445   2.449  -1.424  1.00  0.00    -0.264 N 
ATOM     17  C   UNL     1      -0.445   3.403  -1.038  1.00  0.00     0.279 C 
ATOM     18  O   UNL     1      -0.704   4.256  -1.903  1.00  0.00    -0.269 OA
ATOM     19  H   UNL     1       0.594   2.369  -2.394  1.00  0.00     0.191 HD
BRANCH  17  20
ATOM     20  C   UNL     1      -1.224   3.426   0.309  1.00  0.00     0.260 C 
ATOM     21  C   UNL     1      -2.626   2.827   0.129  1.00  0.00     0.064 C 
BRANCH  20  22
ATOM     22  O   UNL     1      -0.674   3.315   1.603  1.00  0.00    -0.481 OA
BRANCH  22  23
ATOM     23  C   UNL     1      -0.252   2.175   2.200  1.00  0.00     0.120 A 
ATOM     24  C   UNL     1       2.362   1.577   4.918  1.00  0.00     0.044 C 
ATOM     25  C   UNL     1       1.320   1.331   3.868  1.00  0.00    -0.047 A 
ATOM     26  C   UNL     1       0.990   0.025   3.501  1.00  0.00     0.003 A 
ATOM     27  C   UNL     1       0.684   2.396   3.218  1.00  0.00     0.049 A 
ATOM     28  C   UNL     1       0.026  -0.204   2.521  1.00  0.00     0.004 A 
ATOM     29  C   UNL     1      -0.605   0.867   1.881  1.00  0.00     0.046 A 
ENDBRANCH  22  23
ENDBRANCH  20  22
ENDBRANCH  17  20
ENDBRANCH  13  16
ENDBRANCH   6  12
ENDBRANCH   1   5
BRANCH   3  30
ATOM     30  C   UNL     1       3.540   5.089  -3.663  1.00  0.00     0.117 C 
BRANCH  30  31
ATOM     31  C   UNL     1       2.762   5.728  -2.516  1.00  0.00     0.042 C 
BRANCH  31  32
ATOM     32  C   UNL     1       3.416   7.005  -2.013  1.00  0.00     0.118 C 
BRANCH  32  33
ATOM     33  N   UNL     1       3.109   8.185  -2.817  1.00  0.00    -0.352 N 
ATOM     34  C   UNL     1       3.655   9.459  -2.776  1.00  0.00     0.251 C 
ATOM     35  H   UNL     1       2.406   8.056  -3.493  1.00  0.00     0.163 HD
ATOM     36  O   UNL     1       3.236  10.327  -3.522  1.00  0.00    -0.269 OA
BRANCH  34  37
ATOM     37  C   UNL     1       4.838   9.723  -1.919  1.00  0.00     0.039 A 
ATOM     38  C   UNL     1       5.898  10.463  -2.463  1.00  0.00     0.014 A 
ATOM     39  C   UNL     1       4.991   9.085  -0.695  1.00  0.00     0.014 A 
ATOM     40  C   UNL     1       7.173  10.332  -1.918  1.00  0.00     0.010 A 
ATOM     41  C   UNL     1       6.265   8.857  -0.226  1.00  0.00     0.010 A 
ATOM     42  C   UNL     1       7.364   9.419  -0.886  1.00  0.00    -0.014 A 
BRANCH  42  43
ATOM     43  C   UNL     1       8.655   8.873  -0.493  1.00  0.00     0.031 A 
ATOM     44  C   UNL     1       9.206   9.156   0.847  1.00  0.00     0.074 A 
ATOM     45  C   UNL     1       9.219   7.922  -1.274  1.00  0.00     0.049 A 
ATOM     46  N   UNL     1      10.372   8.771   1.235  1.00  0.00    -0.248 NA
ATOM     47  C   UNL     1       8.512   9.963   1.846  1.00  0.00     0.031 C 
ATOM     48  C   UNL     1      10.219   6.929  -0.888  1.00  0.00     0.029 A 
ATOM     49  N   UNL     1       9.135   7.797  -2.673  1.00  0.00    -0.354 N 
ATOM     50  C   UNL     1      10.465   9.001   2.585  1.00  0.00     0.074 A 
ATOM     51  C   UNL     1       9.350   9.863   2.884  1.00  0.00     0.031 C 
ATOM     52  C   UNL     1      10.871   6.519  -1.986  1.00  0.00     0.029 A 
ATOM     53  C   UNL     1      10.427   7.364  -3.077  1.00  0.00     0.049 A 
ATOM     54  H   UNL     1       8.354   7.970  -3.246  1.00  0.00     0.167 HD
ATOM     55  C   UNL     1      11.420   8.325   3.284  1.00  0.00     0.037 A 
ATOM     56  C   UNL     1      11.240   8.179  -3.813  1.00  0.00     0.037 A 
ATOM     57  C   UNL     1      12.409   7.734   2.376  1.00  0.00     0.049 A 
ATOM     58  C   UNL     1      12.560   8.534  -3.155  1.00  0.00     0.074 A 
ATOM     59  C   UNL     1      12.753   6.459   1.963  1.00  0.00     0.029 A 
ATOM     60  N   UNL     1      13.100   8.597   1.541  1.00  0.00    -0.354 N 
ATOM     61  N   UNL     1      12.898   8.191  -1.943  1.00  0.00    -0.248 NA
ATOM     62  C   UNL     1      13.562   9.397  -3.783  1.00  0.00     0.031 C 
ATOM     63  C   UNL     1      13.652   6.579   0.856  1.00  0.00     0.029 A 
ATOM     64  C   UNL     1      13.867   7.924   0.617  1.00  0.00     0.049 A 
ATOM     65  H   UNL     1      13.047   9.578   1.601  1.00  0.00     0.167 HD
ATOM     66  C   UNL     1      14.072   8.809  -1.602  1.00  0.00     0.074 A 
ATOM     67  C   UNL     1      14.453   9.550  -2.789  1.00  0.00     0.031 C 
ATOM     68  C   UNL     1      14.615   8.709  -0.353  1.00  0.00     0.037 A 
BRANCH  55  69
ATOM     69  C   UNL     1      11.431   8.083   4.782  1.00  0.00     0.064 A 
ATOM     70  C   UNL     1      12.470   7.322   5.367  1.00  0.00     0.173 A 
ATOM     71  C   UNL     1      10.412   8.460   5.684  1.00  0.00     0.173 A 
ATOM     72  F   UNL     1      13.515   6.896   4.644  1.00  0.00    -0.203 F 
ATOM     73  C   UNL     1      12.467   6.947   6.716  1.00  0.00     0.198 A 
ATOM     74  C   UNL     1      10.434   8.124   7.042  1.00  0.00     0.198 A 
ATOM     75  F   UNL     1       9.321   9.124   5.301  1.00  0.00    -0.203 F 
ATOM     76  F   UNL     1      13.452   6.173   7.192  1.00  0.00    -0.200 F 
ATOM     77  C   UNL     1      11.452   7.353   7.555  1.00  0.00     0.200 A 
ATOM     78  F   UNL     1       9.437   8.534   7.839  1.00  0.00    -0.200 F 
ATOM     79  F   UNL     1      11.443   6.992   8.845  1.00  0.00    -0.200 F 
ENDBRANCH  55  69
BRANCH  56  80
ATOM     80  C   UNL     1      10.469   9.073  -4.718  1.00  0.00     0.064 A 
ATOM     81  C   UNL     1       9.658   8.483  -5.709  1.00  0.00     0.173 A 
ATOM     82  C   UNL     1      10.204  10.403  -4.371  1.00  0.00     0.173 A 
ATOM     83  F   UNL     1       9.868   7.209  -6.076  1.00  0.00    -0.203 F 
ATOM     84  C   UNL     1       8.548   9.148  -6.225  1.00  0.00     0.198 A 
ATOM     85  C   UNL     1       9.104  11.073  -4.908  1.00  0.00     0.198 A 
ATOM     86  F   UNL     1      10.926  11.013  -3.420  1.00  0.00    -0.203 F 
ATOM     87  F   UNL     1       7.719   8.513  -7.065  1.00  0.00    -0.200 F 
ATOM     88  C   UNL     1       8.256  10.433  -5.800  1.00  0.00     0.200 A 
ATOM     89  F   UNL     1       8.803  12.306  -4.477  1.00  0.00    -0.200 F 
ATOM     90  F   UNL     1       7.133  11.038  -6.212  1.00  0.00    -0.200 F 
ENDBRANCH  56  80
BRANCH  68  91
ATOM     91  C   UNL     1      15.886   9.397   0.070  1.00  0.00     0.064 A 
ATOM     92  C   UNL     1      17.041   9.411  -0.726  1.00  0.00     0.173 A 
ATOM     93  C   UNL     1      16.014   9.978   1.353  1.00  0.00     0.173 A 
ATOM     94  F   UNL     1      17.049   8.829  -1.934  1.00  0.00    -0.203 F 
ATOM     95  C   UNL     1      18.227  10.007  -0.288  1.00  0.00     0.198 A 
ATOM     96  C   UNL     1      17.213  10.522   1.808  1.00  0.00     0.198 A 
ATOM     97  F   UNL     1      14.973  10.064   2.193  1.00  0.00    -0.203 F 
ATOM     98  F   UNL     1      19.290  10.049  -1.103  1.00  0.00    -0.200 F 
ATOM     99  C   UNL     1      18.317  10.551   0.982  1.00  0.00     0.200 A 
ATOM    100  F   UNL     1      17.285  11.026   3.049  1.00  0.00    -0.200 F 
ATOM    101  F   UNL     1      19.460  11.104   1.407  1.00  0.00    -0.200 F 
ENDBRANCH  68  91
ENDBRANCH  42  43
ENDBRANCH  34  37
ENDBRANCH  32  33
ENDBRANCH  31  32
ENDBRANCH  30  31
ENDBRANCH   3  30
TORSDOF 15
