REMARK SMILES CC(C)[C@H](C(=O)NCCCNC(=O)c1ccc(-c2c3nc(c(-c4c(F)c(F)c(F)c(F)c4F)c4ccc([nH]4)c(-c4c(F)c(F)c(F)c(F)c4F)c4nc(c(-c5c(F)c(F)c(F)c(F)c5F)c5ccc2[nH]5)C=C4)C=C3)cc1)[NH+]1CC2(CCCCCC2)C1
REMARK SMILES IDX 8 1 7 2 5 3 6 4 4 6 2 7 1 8 3 9 77 10 78 11 86 12 79 14
REMARK SMILES IDX 80 15 81 16 82 17 85 19 84 20 83 21 9 23 10 24 11 25 12 26
REMARK SMILES IDX 13 28 14 29 15 30 76 31 16 32 75 33 17 34 18 35 19 36 69 37
REMARK SMILES IDX 20 38 74 39 68 40 70 41 21 42 73 43 67 44 66 45 22 47 54 48
REMARK SMILES IDX 34 49 53 50 35 51 38 52 52 53 71 54 36 55 37 56 51 58 72 59
REMARK SMILES IDX 39 60 23 61 24 62 32 63 25 64 26 65 30 66 33 67 27 68 28 69
REMARK SMILES IDX 31 70 29 71 55 72 56 73 64 74 57 75 58 76 62 77 65 78 59 79
REMARK SMILES IDX 60 80 63 81 61 82 40 83 41 84 49 85 42 86 43 87 47 88 50 89
REMARK SMILES IDX 44 90 45 91 48 92 46 93
REMARK H PARENT 7 5 77 13 11 27 70 46 38 57
REMARK Flexibility Score: 90.00
ROOT
ATOM      1  C   UNL     1       0.307  -3.041   1.454  1.00  0.00     0.118 C 
ENDROOT
BRANCH   1   2
ATOM      2  N   UNL     1       0.841  -1.917   0.715  1.00  0.00    -0.351 N 
ATOM      3  C   UNL     1       0.205  -1.005  -0.072  1.00  0.00     0.278 C 
ATOM      4  O   UNL     1       0.895  -0.071  -0.497  1.00  0.00    -0.268 OA
ATOM      5  H   UNL     1       1.814  -1.792   0.794  1.00  0.00     0.163 HD
BRANCH   3   6
ATOM      6  C   UNL     1      -1.300  -1.163  -0.464  1.00  0.00     0.276 C 
BRANCH   6   7
ATOM      7  C   UNL     1      -1.950   0.285  -0.284  1.00  0.00     0.051 C 
ATOM      8  C   UNL     1      -3.429   0.400  -0.655  1.00  0.00     0.014 C 
ATOM      9  C   UNL     1      -1.796   0.836   1.149  1.00  0.00     0.014 C 
ENDBRANCH   6   7
BRANCH   6  10
ATOM     10  N   UNL     1      -1.385  -2.143  -1.621  1.00  0.00    -0.323 N 
ATOM     11  C   UNL     1      -0.247  -2.153  -2.583  1.00  0.00     0.275 C 
ATOM     12  C   UNL     1      -2.277  -1.918  -2.791  1.00  0.00     0.275 C 
ATOM     13  H   UNL     1      -1.597  -2.903  -0.975  1.00  0.00     0.348 HD
ATOM     14  C   UNL     1      -1.076  -1.293  -3.600  1.00  0.00     0.068 C 
BRANCH  14  15
ATOM     15  C   UNL     1      -0.868   0.193  -3.346  1.00  0.00     0.019 C 
BRANCH  15  16
ATOM     16  C   UNL     1      -1.551   1.194  -4.245  1.00  0.00     0.001 C 
BRANCH  16  17
ATOM     17  C   UNL     1      -0.663   1.495  -5.425  1.00  0.00     0.000 CG0
ATOM     18  G   UNL     1      -0.695   0.417  -6.498  1.00  0.00     0.000 G0
ENDBRANCH  16  17
ENDBRANCH  15  16
ENDBRANCH  14  15
BRANCH  14  19
ATOM     19  C   UNL     1      -0.727  -1.729  -5.033  1.00  0.00     0.019 C 
BRANCH  19  20
ATOM     20  C   UNL     1      -1.381  -0.915  -6.152  1.00  0.00     0.001 C 
BRANCH  20  21
ATOM     21  C   UNL     1      -0.695   0.417  -6.498  1.00  0.00     0.000 CG0
ATOM     22  G   UNL     1      -0.663   1.495  -5.425  1.00  0.00     0.000 G0
ENDBRANCH  20  21
ENDBRANCH  19  20
ENDBRANCH  14  19
ENDBRANCH   6  10
ENDBRANCH   3   6
ENDBRANCH   1   2
BRANCH   1  23
ATOM     23  C   UNL     1       0.796  -4.383   0.927  1.00  0.00     0.042 C 
BRANCH  23  24
ATOM     24  C   UNL     1       2.309  -4.581   0.982  1.00  0.00     0.118 C 
BRANCH  24  25
ATOM     25  N   UNL     1       2.858  -4.472   2.329  1.00  0.00    -0.352 N 
ATOM     26  C   UNL     1       3.464  -5.403   3.131  1.00  0.00     0.251 C 
ATOM     27  H   UNL     1       2.779  -3.577   2.731  1.00  0.00     0.163 HD
ATOM     28  O   UNL     1       3.698  -5.125   4.311  1.00  0.00    -0.269 OA
BRANCH  26  29
ATOM     29  C   UNL     1       3.822  -6.743   2.619  1.00  0.00     0.039 A 
ATOM     30  C   UNL     1       3.612  -7.857   3.439  1.00  0.00     0.014 A 
ATOM     31  C   UNL     1       4.395  -6.910   1.357  1.00  0.00     0.014 A 
ATOM     32  C   UNL     1       3.901  -9.139   2.962  1.00  0.00     0.010 A 
ATOM     33  C   UNL     1       4.605  -8.191   0.852  1.00  0.00     0.010 A 
ATOM     34  C   UNL     1       4.359  -9.321   1.647  1.00  0.00    -0.014 A 
BRANCH  34  35
ATOM     35  C   UNL     1       4.583 -10.679   1.084  1.00  0.00     0.031 A 
ATOM     36  C   UNL     1       5.959 -11.099   0.644  1.00  0.00     0.074 A 
ATOM     37  C   UNL     1       3.537 -11.513   0.912  1.00  0.00     0.049 A 
ATOM     38  N   UNL     1       6.338 -12.198   0.040  1.00  0.00    -0.248 NA
ATOM     39  C   UNL     1       7.053 -10.148   0.897  1.00  0.00     0.031 C 
ATOM     40  C   UNL     1       2.149 -11.216   1.272  1.00  0.00     0.029 A 
ATOM     41  N   UNL     1       3.477 -12.778   0.381  1.00  0.00    -0.354 N 
ATOM     42  C   UNL     1       7.706 -12.069  -0.159  1.00  0.00     0.074 A 
ATOM     43  C   UNL     1       8.082 -10.760   0.329  1.00  0.00     0.031 C 
ATOM     44  C   UNL     1       1.380 -12.275   0.971  1.00  0.00     0.029 A 
ATOM     45  C   UNL     1       2.208 -13.305   0.353  1.00  0.00     0.049 A 
ATOM     46  H   UNL     1       4.268 -13.261   0.050  1.00  0.00     0.167 HD
ATOM     47  C   UNL     1       8.575 -12.970  -0.674  1.00  0.00     0.037 A 
ATOM     48  C   UNL     1       1.761 -14.480  -0.131  1.00  0.00     0.037 A 
ATOM     49  C   UNL     1       8.202 -14.277  -1.151  1.00  0.00     0.049 A 
ATOM     50  C   UNL     1       2.744 -15.439  -0.752  1.00  0.00     0.074 A 
ATOM     51  C   UNL     1       9.013 -15.268  -1.675  1.00  0.00     0.029 A 
ATOM     52  N   UNL     1       6.908 -14.774  -1.158  1.00  0.00    -0.354 N 
ATOM     53  N   UNL     1       4.043 -15.324  -0.889  1.00  0.00    -0.248 NA
ATOM     54  C   UNL     1       2.197 -16.696  -1.282  1.00  0.00     0.031 C 
ATOM     55  C   UNL     1       8.204 -16.348  -2.041  1.00  0.00     0.029 A 
ATOM     56  C   UNL     1       6.897 -16.053  -1.691  1.00  0.00     0.049 A 
ATOM     57  H   UNL     1       6.114 -14.291  -0.833  1.00  0.00     0.167 HD
ATOM     58  C   UNL     1       4.471 -16.507  -1.477  1.00  0.00     0.074 A 
ATOM     59  C   UNL     1       3.296 -17.332  -1.659  1.00  0.00     0.031 C 
ATOM     60  C   UNL     1       5.724 -16.876  -1.837  1.00  0.00     0.037 A 
BRANCH  47  61
ATOM     61  C   UNL     1      10.026 -12.585  -0.736  1.00  0.00     0.064 A 
ATOM     62  C   UNL     1      10.799 -12.465   0.430  1.00  0.00     0.173 A 
ATOM     63  C   UNL     1      10.667 -12.394  -1.969  1.00  0.00     0.173 A 
ATOM     64  F   UNL     1      10.233 -12.628   1.635  1.00  0.00    -0.203 F 
ATOM     65  C   UNL     1      12.153 -12.148   0.364  1.00  0.00     0.198 A 
ATOM     66  C   UNL     1      12.028 -12.108  -2.033  1.00  0.00     0.198 A 
ATOM     67  F   UNL     1       9.977 -12.504  -3.114  1.00  0.00    -0.203 F 
ATOM     68  F   UNL     1      12.860 -11.997   1.492  1.00  0.00    -0.200 F 
ATOM     69  C   UNL     1      12.768 -11.979  -0.867  1.00  0.00     0.200 A 
ATOM     70  F   UNL     1      12.626 -11.962  -3.224  1.00  0.00    -0.200 F 
ATOM     71  F   UNL     1      14.075 -11.689  -0.930  1.00  0.00    -0.200 F 
ENDBRANCH  47  61
BRANCH  48  72
ATOM     72  C   UNL     1       0.317 -14.834  -0.050  1.00  0.00     0.064 A 
ATOM     73  C   UNL     1      -0.116 -15.915   0.733  1.00  0.00     0.173 A 
ATOM     74  C   UNL     1      -0.651 -14.143  -0.793  1.00  0.00     0.173 A 
ATOM     75  F   UNL     1       0.773 -16.622   1.447  1.00  0.00    -0.203 F 
ATOM     76  C   UNL     1      -1.450 -16.315   0.736  1.00  0.00     0.198 A 
ATOM     77  C   UNL     1      -1.991 -14.521  -0.760  1.00  0.00     0.198 A 
ATOM     78  F   UNL     1      -0.294 -13.098  -1.555  1.00  0.00    -0.203 F 
ATOM     79  F   UNL     1      -1.821 -17.397   1.435  1.00  0.00    -0.200 F 
ATOM     80  C   UNL     1      -2.388 -15.617  -0.009  1.00  0.00     0.200 A 
ATOM     81  F   UNL     1      -2.897 -13.834  -1.470  1.00  0.00    -0.200 F 
ATOM     82  F   UNL     1      -3.669 -16.009  -0.014  1.00  0.00    -0.200 F 
ENDBRANCH  48  72
BRANCH  60  83
ATOM     83  C   UNL     1       5.905 -18.257  -2.401  1.00  0.00     0.064 A 
ATOM     84  C   UNL     1       5.433 -18.606  -3.674  1.00  0.00     0.173 A 
ATOM     85  C   UNL     1       6.599 -19.233  -1.668  1.00  0.00     0.173 A 
ATOM     86  F   UNL     1       4.750 -17.714  -4.409  1.00  0.00    -0.203 F 
ATOM     87  C   UNL     1       5.623 -19.889  -4.181  1.00  0.00     0.198 A 
ATOM     88  C   UNL     1       6.818 -20.503  -2.193  1.00  0.00     0.198 A 
ATOM     89  F   UNL     1       7.079 -18.949  -0.448  1.00  0.00    -0.203 F 
ATOM     90  F   UNL     1       5.116 -20.215  -5.378  1.00  0.00    -0.200 F 
ATOM     91  C   UNL     1       6.323 -20.833  -3.445  1.00  0.00     0.200 A 
ATOM     92  F   UNL     1       7.510 -21.408  -1.486  1.00  0.00    -0.200 F 
ATOM     93  F   UNL     1       6.514 -22.063  -3.939  1.00  0.00    -0.200 F 
ENDBRANCH  60  83
ENDBRANCH  34  35
ENDBRANCH  26  29
ENDBRANCH  24  25
ENDBRANCH  23  24
ENDBRANCH   1  23
TORSDOF 12
