REMARK SMILES C[NH2+][C@](C)(CCSc1ccncc1)C(=O)NCCCNC(=O)c1ccc(-c2c3nc(c(-c4c(F)c(F)c(F)c(F)c4F)c4ccc([nH]4)c(-c4c(F)c(F)c(F)c(F)c4F)c4nc(c(-c5c(F)c(F)c(F)c(F)c5F)c5ccc2[nH]5)C=C4)C=C3)cc1
REMARK SMILES IDX 17 1 16 2 14 3 15 4 3 6 4 7 2 8 1 9 5 12 6 13 7 14 8 15 9 16
REMARK SMILES IDX 13 17 10 18 12 19 11 20 18 21 19 22 20 23 21 24 22 26 23 27
REMARK SMILES IDX 24 28 85 29 25 30 84 31 26 32 27 33 28 34 78 35 29 36 83 37
REMARK SMILES IDX 77 38 79 39 30 40 82 41 76 42 75 43 31 45 63 46 43 47 62 48
REMARK SMILES IDX 44 49 47 50 61 51 80 52 45 53 46 54 60 56 81 57 48 58 32 59
REMARK SMILES IDX 33 60 41 61 34 62 35 63 39 64 42 65 36 66 37 67 40 68 38 69
REMARK SMILES IDX 64 70 65 71 73 72 66 73 67 74 71 75 74 76 68 77 69 78 72 79
REMARK SMILES IDX 70 80 49 81 50 82 58 83 51 84 52 85 56 86 59 87 53 88 54 89
REMARK SMILES IDX 57 90 55 91
REMARK H PARENT 16 5 2 10 2 11 20 25 79 44 47 55
REMARK Flexibility Score: inf
ROOT
ATOM      1  C   UNL     1      -4.283   0.965   0.117  1.00  0.00     0.118 C 
ENDROOT
BRANCH   1   2
ATOM      2  N   UNL     1      -3.214   0.257  -0.565  1.00  0.00    -0.351 N 
ATOM      3  C   UNL     1      -1.871   0.208  -0.311  1.00  0.00     0.281 C 
ATOM      4  O   UNL     1      -1.270  -0.768  -0.770  1.00  0.00    -0.268 OA
ATOM      5  H   UNL     1      -3.505  -0.277  -1.339  1.00  0.00     0.163 HD
BRANCH   3   6
ATOM      6  C   UNL     1      -1.151   1.259   0.598  1.00  0.00     0.173 C 
ATOM      7  C   UNL     1       0.382   1.014   0.576  1.00  0.00     0.090 C 
BRANCH   6   8
ATOM      8  N   UNL     1      -1.609   0.876   1.966  1.00  0.00    -0.336 N 
ATOM      9  C   UNL     1      -1.773   1.910   2.959  1.00  0.00     0.331 C 
ATOM     10  H   UNL     1      -2.513   0.414   1.861  1.00  0.00     0.346 HD
ATOM     11  H   UNL     1      -0.847   0.303   2.329  1.00  0.00     0.346 HD
ENDBRANCH   6   8
BRANCH   6  12
ATOM     12  C   UNL     1      -1.435   2.730   0.178  1.00  0.00     0.090 C 
BRANCH  12  13
ATOM     13  C   UNL     1      -0.926   3.254  -1.183  1.00  0.00     0.082 C 
BRANCH  13  14
ATOM     14  S   UNL     1      -1.784   2.705  -2.706  1.00  0.00    -0.126 SA
BRANCH  14  15
ATOM     15  C   UNL     1      -0.895   1.237  -3.200  1.00  0.00     0.010 A 
ATOM     16  C   UNL     1      -1.639   0.144  -3.650  1.00  0.00     0.035 A 
ATOM     17  C   UNL     1       0.491   1.127  -3.166  1.00  0.00     0.035 A 
ATOM     18  C   UNL     1      -0.974  -1.030  -3.963  1.00  0.00     0.112 A 
ATOM     19  C   UNL     1       1.066  -0.086  -3.516  1.00  0.00     0.112 A 
ATOM     20  N   UNL     1       0.366  -1.167  -3.916  1.00  0.00    -0.265 NA
ENDBRANCH  14  15
ENDBRANCH  13  14
ENDBRANCH  12  13
ENDBRANCH   6  12
ENDBRANCH   3   6
ENDBRANCH   1   2
BRANCH   1  21
ATOM     21  C   UNL     1      -4.981   2.026  -0.733  1.00  0.00     0.042 C 
BRANCH  21  22
ATOM     22  C   UNL     1      -5.517   1.537  -2.074  1.00  0.00     0.118 C 
BRANCH  22  23
ATOM     23  N   UNL     1      -6.516   0.487  -1.938  1.00  0.00    -0.352 N 
ATOM     24  C   UNL     1      -7.875   0.509  -2.102  1.00  0.00     0.251 C 
ATOM     25  H   UNL     1      -6.151  -0.391  -1.685  1.00  0.00     0.163 HD
ATOM     26  O   UNL     1      -8.537  -0.471  -1.744  1.00  0.00    -0.269 OA
BRANCH  24  27
ATOM     27  C   UNL     1      -8.574   1.684  -2.664  1.00  0.00     0.039 A 
ATOM     28  C   UNL     1      -9.781   2.082  -2.078  1.00  0.00     0.014 A 
ATOM     29  C   UNL     1      -8.090   2.370  -3.780  1.00  0.00     0.014 A 
ATOM     30  C   UNL     1     -10.451   3.212  -2.553  1.00  0.00     0.010 A 
ATOM     31  C   UNL     1      -8.722   3.539  -4.209  1.00  0.00     0.010 A 
ATOM     32  C   UNL     1      -9.900   3.982  -3.590  1.00  0.00    -0.014 A 
BRANCH  32  33
ATOM     33  C   UNL     1     -10.512   5.278  -3.989  1.00  0.00     0.031 A 
ATOM     34  C   UNL     1     -11.077   5.476  -5.368  1.00  0.00     0.074 A 
ATOM     35  C   UNL     1     -10.493   6.306  -3.116  1.00  0.00     0.049 A 
ATOM     36  N   UNL     1     -11.580   6.560  -5.906  1.00  0.00    -0.248 NA
ATOM     37  C   UNL     1     -11.059   4.313  -6.268  1.00  0.00     0.031 C 
ATOM     38  C   UNL     1      -9.935   6.254  -1.763  1.00  0.00     0.029 A 
ATOM     39  N   UNL     1     -10.941   7.598  -3.238  1.00  0.00    -0.354 N 
ATOM     40  C   UNL     1     -11.926   6.214  -7.206  1.00  0.00     0.074 A 
ATOM     41  C   UNL     1     -11.542   4.831  -7.390  1.00  0.00     0.031 C 
ATOM     42  C   UNL     1     -10.085   7.452  -1.177  1.00  0.00     0.029 A 
ATOM     43  C   UNL     1     -10.707   8.370  -2.125  1.00  0.00     0.049 A 
ATOM     44  H   UNL     1     -11.387   7.940  -4.046  1.00  0.00     0.167 HD
ATOM     45  C   UNL     1     -12.523   6.979  -8.152  1.00  0.00     0.037 A 
ATOM     46  C   UNL     1     -10.947   9.676  -1.898  1.00  0.00     0.037 A 
ATOM     47  C   UNL     1     -12.927   8.348  -7.957  1.00  0.00     0.049 A 
ATOM     48  C   UNL     1     -11.592  10.503  -2.979  1.00  0.00     0.074 A 
ATOM     49  C   UNL     1     -13.610   9.176  -8.832  1.00  0.00     0.029 A 
ATOM     50  N   UNL     1     -12.679   9.093  -6.815  1.00  0.00    -0.354 N 
ATOM     51  N   UNL     1     -11.990  10.139  -4.173  1.00  0.00    -0.248 NA
ATOM     52  C   UNL     1     -11.821  11.923  -2.678  1.00  0.00     0.031 C 
ATOM     53  C   UNL     1     -13.723  10.439  -8.243  1.00  0.00     0.029 A 
ATOM     54  C   UNL     1     -13.162  10.383  -6.978  1.00  0.00     0.049 A 
ATOM     55  H   UNL     1     -12.226   8.757  -6.008  1.00  0.00     0.167 HD
ATOM     56  C   UNL     1     -12.538  11.275  -4.754  1.00  0.00     0.074 A 
ATOM     57  C   UNL     1     -12.443  12.334  -3.773  1.00  0.00     0.031 C 
ATOM     58  C   UNL     1     -13.066  11.428  -5.992  1.00  0.00     0.037 A 
BRANCH  45  59
ATOM     59  C   UNL     1     -12.788   6.362  -9.495  1.00  0.00     0.064 A 
ATOM     60  C   UNL     1     -13.791   5.399  -9.677  1.00  0.00     0.173 A 
ATOM     61  C   UNL     1     -12.094   6.810 -10.630  1.00  0.00     0.173 A 
ATOM     62  F   UNL     1     -14.479   4.934  -8.624  1.00  0.00    -0.203 F 
ATOM     63  C   UNL     1     -14.081   4.897 -10.944  1.00  0.00     0.198 A 
ATOM     64  C   UNL     1     -12.405   6.327 -11.898  1.00  0.00     0.198 A 
ATOM     65  F   UNL     1     -11.132   7.737 -10.512  1.00  0.00    -0.203 F 
ATOM     66  F   UNL     1     -15.025   3.958 -11.090  1.00  0.00    -0.200 F 
ATOM     67  C   UNL     1     -13.396   5.369 -12.054  1.00  0.00     0.200 A 
ATOM     68  F   UNL     1     -11.754   6.796 -12.971  1.00  0.00    -0.200 F 
ATOM     69  F   UNL     1     -13.691   4.901 -13.274  1.00  0.00    -0.200 F 
ENDBRANCH  45  59
BRANCH  46  70
ATOM     70  C   UNL     1     -10.570  10.294  -0.599  1.00  0.00     0.064 A 
ATOM     71  C   UNL     1     -11.549  10.771   0.285  1.00  0.00     0.173 A 
ATOM     72  C   UNL     1      -9.227  10.458  -0.231  1.00  0.00     0.173 A 
ATOM     73  F   UNL     1     -12.848  10.658  -0.031  1.00  0.00    -0.203 F 
ATOM     74  C   UNL     1     -11.198  11.416   1.469  1.00  0.00     0.198 A 
ATOM     75  C   UNL     1      -8.877  11.072   0.969  1.00  0.00     0.198 A 
ATOM     76  F   UNL     1      -8.250  10.017  -1.038  1.00  0.00    -0.203 F 
ATOM     77  F   UNL     1     -12.153  11.918   2.264  1.00  0.00    -0.200 F 
ATOM     78  C   UNL     1      -9.863  11.563   1.812  1.00  0.00     0.200 A 
ATOM     79  F   UNL     1      -7.586  11.198   1.304  1.00  0.00    -0.200 F 
ATOM     80  F   UNL     1      -9.525  12.188   2.948  1.00  0.00    -0.200 F 
ENDBRANCH  46  70
BRANCH  58  81
ATOM     81  C   UNL     1     -13.606  12.783  -6.347  1.00  0.00     0.064 A 
ATOM     82  C   UNL     1     -12.757  13.879  -6.564  1.00  0.00     0.173 A 
ATOM     83  C   UNL     1     -14.986  12.982  -6.502  1.00  0.00     0.173 A 
ATOM     84  F   UNL     1     -11.430  13.745  -6.412  1.00  0.00    -0.203 F 
ATOM     85  C   UNL     1     -13.271  15.129  -6.896  1.00  0.00     0.198 A 
ATOM     86  C   UNL     1     -15.495  14.226  -6.866  1.00  0.00     0.198 A 
ATOM     87  F   UNL     1     -15.842  11.967  -6.312  1.00  0.00    -0.203 F 
ATOM     88  F   UNL     1     -12.445  16.173  -7.046  1.00  0.00    -0.200 F 
ATOM     89  C   UNL     1     -14.639  15.300  -7.054  1.00  0.00     0.200 A 
ATOM     90  F   UNL     1     -16.815  14.385  -7.033  1.00  0.00    -0.200 F 
ATOM     91  F   UNL     1     -15.132  16.503  -7.380  1.00  0.00    -0.200 F 
ENDBRANCH  58  81
ENDBRANCH  32  33
ENDBRANCH  24  27
ENDBRANCH  22  23
ENDBRANCH  21  22
ENDBRANCH   1  21
TORSDOF 15
