REMARK SMILES O=C(NCCCNC(=O)c1ccc(N2C(=O)[C@@H]3N=NC(c4ccccc4)=C3[C@H]2c2cccc(Br)c2)cc1)c1ccc(-c2c3nc(c(-c4c(F)c(F)c(F)c(F)c4F)c4ccc([nH]4)c(-c4c(F)c(F)c(F)c(F)c4F)c4nc(c(-c5c(F)c(F)c(F)c(F)c5F)c5ccc2[nH]5)C=C4)C=C3)cc1
REMARK SMILES IDX 5 1 4 2 3 3 1 4 2 5 38 7 39 8 100 9 40 10 99 11 41 12 42 13
REMARK SMILES IDX 43 14 93 15 44 16 98 17 92 18 94 19 45 20 97 21 91 22 90 23
REMARK SMILES IDX 46 25 78 26 58 27 77 28 59 29 62 30 76 31 95 32 60 33 61 34
REMARK SMILES IDX 75 36 96 37 63 38 47 39 48 40 56 41 49 42 50 43 54 44 57 45
REMARK SMILES IDX 51 46 52 47 55 48 53 49 79 50 80 51 88 52 81 53 82 54 86 55
REMARK SMILES IDX 89 56 83 57 84 58 87 59 85 60 64 61 65 62 73 63 66 64 67 65
REMARK SMILES IDX 71 66 74 67 68 68 69 69 72 70 70 71 6 72 7 73 8 74 9 76
REMARK SMILES IDX 10 77 11 78 37 79 12 80 36 81 13 82 14 83 15 84 28 85 17 86
REMARK SMILES IDX 16 87 27 88 18 89 20 90 19 91 29 92 30 93 35 94 31 95 33 96
REMARK SMILES IDX 32 97 34 98 21 99 22 100 26 101 23 102 25 103 24 104
REMARK H PARENT 3 6 94 24 62 35 7 75
REMARK Flexibility Score: inf
ROOT
ATOM      1  C   UNL     1       4.901   0.305  -2.192  1.00  0.00     0.042 C 
ENDROOT
BRANCH   1   2
ATOM      2  C   UNL     1       4.563   0.815  -0.790  1.00  0.00     0.118 C 
BRANCH   2   3
ATOM      3  N   UNL     1       3.150   0.997  -0.524  1.00  0.00    -0.352 N 
ATOM      4  O   UNL     1       1.109   0.798   0.284  1.00  0.00    -0.269 OA
ATOM      5  C   UNL     1       2.147   0.210  -0.031  1.00  0.00     0.251 C 
ATOM      6  H   UNL     1       2.838   1.902  -0.752  1.00  0.00     0.163 HD
BRANCH   5   7
ATOM      7  C   UNL     1       2.177  -1.275   0.070  1.00  0.00     0.039 A 
ATOM      8  C   UNL     1       3.277  -2.097  -0.178  1.00  0.00     0.014 A 
ATOM      9  C   UNL     1       0.942  -1.881   0.376  1.00  0.00     0.014 A 
ATOM     10  C   UNL     1       3.121  -3.483  -0.231  1.00  0.00     0.010 A 
ATOM     11  C   UNL     1       0.783  -3.260   0.335  1.00  0.00     0.010 A 
ATOM     12  C   UNL     1       1.865  -4.058  -0.018  1.00  0.00    -0.014 A 
BRANCH  12  13
ATOM     13  C   UNL     1       1.741  -5.516  -0.019  1.00  0.00     0.031 A 
ATOM     14  C   UNL     1       2.458  -6.196   1.103  1.00  0.00     0.074 A 
ATOM     15  C   UNL     1       0.906  -6.177  -0.849  1.00  0.00     0.049 A 
ATOM     16  N   UNL     1       3.326  -7.154   1.044  1.00  0.00    -0.248 NA
ATOM     17  C   UNL     1       2.245  -5.674   2.465  1.00  0.00     0.031 C 
ATOM     18  C   UNL     1      -0.060  -5.606  -1.792  1.00  0.00     0.029 A 
ATOM     19  N   UNL     1       0.667  -7.517  -0.954  1.00  0.00    -0.354 N 
ATOM     20  C   UNL     1       3.650  -7.468   2.366  1.00  0.00     0.074 A 
ATOM     21  C   UNL     1       3.062  -6.443   3.184  1.00  0.00     0.031 C 
ATOM     22  C   UNL     1      -0.925  -6.567  -2.189  1.00  0.00     0.029 A 
ATOM     23  C   UNL     1      -0.503  -7.841  -1.635  1.00  0.00     0.049 A 
ATOM     24  H   UNL     1       1.272  -8.198  -0.580  1.00  0.00     0.167 HD
ATOM     25  C   UNL     1       4.194  -8.672   2.696  1.00  0.00     0.037 A 
ATOM     26  C   UNL     1      -1.115  -9.054  -1.680  1.00  0.00     0.037 A 
ATOM     27  C   UNL     1       4.837  -9.277   1.559  1.00  0.00     0.049 A 
ATOM     28  C   UNL     1      -0.120 -10.074  -1.270  1.00  0.00     0.074 A 
ATOM     29  C   UNL     1       5.893  -8.931   0.739  1.00  0.00     0.029 A 
ATOM     30  N   UNL     1       4.180 -10.286   0.902  1.00  0.00    -0.354 N 
ATOM     31  N   UNL     1       0.924 -10.398  -1.978  1.00  0.00    -0.248 NA
ATOM     32  C   UNL     1      -0.050 -10.409   0.143  1.00  0.00     0.031 C 
ATOM     33  C   UNL     1       5.515  -9.385  -0.560  1.00  0.00     0.029 A 
ATOM     34  C   UNL     1       4.285 -10.030  -0.439  1.00  0.00     0.049 A 
ATOM     35  H   UNL     1       3.720 -11.050   1.317  1.00  0.00     0.167 HD
ATOM     36  C   UNL     1       1.938 -10.561  -1.047  1.00  0.00     0.074 A 
ATOM     37  C   UNL     1       1.262 -10.632   0.246  1.00  0.00     0.031 C 
ATOM     38  C   UNL     1       3.240 -10.336  -1.383  1.00  0.00     0.037 A 
BRANCH  25  39
ATOM     39  C   UNL     1       3.791  -9.481   3.915  1.00  0.00     0.064 A 
ATOM     40  C   UNL     1       4.402 -10.737   4.126  1.00  0.00     0.173 A 
ATOM     41  C   UNL     1       2.620  -9.249   4.669  1.00  0.00     0.173 A 
ATOM     42  F   UNL     1       5.532 -11.067   3.481  1.00  0.00    -0.203 F 
ATOM     43  C   UNL     1       3.809 -11.727   4.914  1.00  0.00     0.198 A 
ATOM     44  C   UNL     1       2.057 -10.224   5.492  1.00  0.00     0.198 A 
ATOM     45  F   UNL     1       1.911  -8.121   4.568  1.00  0.00    -0.203 F 
ATOM     46  F   UNL     1       4.347 -12.953   4.956  1.00  0.00    -0.200 F 
ATOM     47  C   UNL     1       2.626 -11.476   5.581  1.00  0.00     0.200 A 
ATOM     48  F   UNL     1       0.906  -9.962   6.128  1.00  0.00    -0.200 F 
ATOM     49  F   UNL     1       2.010 -12.447   6.267  1.00  0.00    -0.200 F 
ENDBRANCH  25  39
BRANCH  26  50
ATOM     50  C   UNL     1      -2.570  -9.353  -1.715  1.00  0.00     0.064 A 
ATOM     51  C   UNL     1      -3.047 -10.627  -2.070  1.00  0.00     0.173 A 
ATOM     52  C   UNL     1      -3.504  -8.482  -1.122  1.00  0.00     0.173 A 
ATOM     53  F   UNL     1      -2.214 -11.540  -2.590  1.00  0.00    -0.203 F 
ATOM     54  C   UNL     1      -4.373 -11.009  -1.829  1.00  0.00     0.198 A 
ATOM     55  C   UNL     1      -4.827  -8.861  -0.888  1.00  0.00     0.198 A 
ATOM     56  F   UNL     1      -3.127  -7.279  -0.666  1.00  0.00    -0.203 F 
ATOM     57  F   UNL     1      -4.777 -12.253  -2.126  1.00  0.00    -0.200 F 
ATOM     58  C   UNL     1      -5.259 -10.129  -1.230  1.00  0.00     0.200 A 
ATOM     59  F   UNL     1      -5.661  -8.014  -0.270  1.00  0.00    -0.200 F 
ATOM     60  F   UNL     1      -6.511 -10.513  -0.944  1.00  0.00    -0.200 F 
ENDBRANCH  26  50
BRANCH  38  61
ATOM     61  C   UNL     1       3.568 -10.159  -2.838  1.00  0.00     0.064 A 
ATOM     62  C   UNL     1       3.084  -9.105  -3.631  1.00  0.00     0.173 A 
ATOM     63  C   UNL     1       4.522 -11.011  -3.409  1.00  0.00     0.173 A 
ATOM     64  F   UNL     1       2.248  -8.189  -3.128  1.00  0.00    -0.203 F 
ATOM     65  C   UNL     1       3.505  -8.941  -4.950  1.00  0.00     0.198 A 
ATOM     66  C   UNL     1       4.969 -10.823  -4.713  1.00  0.00     0.198 A 
ATOM     67  F   UNL     1       5.060 -12.002  -2.679  1.00  0.00    -0.203 F 
ATOM     68  F   UNL     1       3.020  -7.934  -5.691  1.00  0.00    -0.200 F 
ATOM     69  C   UNL     1       4.453  -9.796  -5.486  1.00  0.00     0.200 A 
ATOM     70  F   UNL     1       5.923 -11.622  -5.210  1.00  0.00    -0.200 F 
ATOM     71  F   UNL     1       4.891  -9.614  -6.740  1.00  0.00    -0.200 F 
ENDBRANCH  38  61
ENDBRANCH  12  13
ENDBRANCH   5   7
ENDBRANCH   2   3
ENDBRANCH   1   2
BRANCH   1  72
ATOM     72  C   UNL     1       4.362   1.147  -3.350  1.00  0.00     0.118 C 
BRANCH  72  73
ATOM     73  N   UNL     1       4.920   2.487  -3.398  1.00  0.00    -0.352 N 
ATOM     74  C   UNL     1       5.678   3.105  -4.366  1.00  0.00     0.251 C 
ATOM     75  H   UNL     1       4.724   3.043  -2.610  1.00  0.00     0.163 HD
ATOM     76  O   UNL     1       6.146   4.212  -4.147  1.00  0.00    -0.269 OA
BRANCH  74  77
ATOM     77  C   UNL     1       5.979   2.429  -5.653  1.00  0.00     0.039 A 
ATOM     78  C   UNL     1       7.317   2.340  -6.030  1.00  0.00     0.016 A 
ATOM     79  C   UNL     1       4.985   1.932  -6.509  1.00  0.00     0.016 A 
ATOM     80  C   UNL     1       7.661   1.670  -7.207  1.00  0.00     0.027 A 
ATOM     81  C   UNL     1       5.335   1.268  -7.704  1.00  0.00     0.027 A 
ATOM     82  C   UNL     1       6.679   1.101  -8.042  1.00  0.00     0.045 A 
BRANCH  82  83
ATOM     83  N   UNL     1       7.081   0.269  -9.138  1.00  0.00    -0.299 N 
ATOM     84  C   UNL     1       8.177  -0.618  -8.862  1.00  0.00     0.259 C 
ATOM     85  C   UNL     1       7.199   0.828 -10.508  1.00  0.00     0.152 C 
ATOM     86  C   UNL     1       9.089  -0.611 -10.051  1.00  0.00     0.248 C 
ATOM     87  O   UNL     1       8.375  -1.227  -7.817  1.00  0.00    -0.271 OA
ATOM     88  C   UNL     1       8.668   0.692 -10.614  1.00  0.00     0.021 C 
ATOM     89  N   UNL     1      10.514  -0.378  -9.779  1.00  0.00    -0.170 NA
ATOM     90  C   UNL     1       9.780   1.389 -10.828  1.00  0.00     0.097 C 
ATOM     91  N   UNL     1      10.876   0.692 -10.355  1.00  0.00    -0.154 NA
BRANCH  85  92
ATOM     92  C   UNL     1       6.525  -0.002 -11.627  1.00  0.00    -0.020 A 
ATOM     93  C   UNL     1       7.265  -0.424 -12.765  1.00  0.00     0.006 A 
ATOM     94  C   UNL     1       5.161  -0.329 -11.607  1.00  0.00     0.022 A 
ATOM     95  C   UNL     1       6.703  -1.180 -13.794  1.00  0.00     0.002 A 
ATOM     96  C   UNL     1       4.590  -1.060 -12.667  1.00  0.00     0.018 A 
ATOM     97  C   UNL     1       5.356  -1.497 -13.748  1.00  0.00     0.016 A 
ATOM     98  Br  UNL     1       2.738  -1.452 -12.658  1.00  0.00    -0.051 Br
ENDBRANCH  85  92
BRANCH  90  99
ATOM     99  C   UNL     1       9.970   2.761 -11.289  1.00  0.00     0.002 A 
ATOM    100  C   UNL     1      10.089   3.037 -12.658  1.00  0.00     0.010 A 
ATOM    101  C   UNL     1      10.289   3.755 -10.357  1.00  0.00     0.010 A 
ATOM    102  C   UNL     1      10.616   4.262 -13.081  1.00  0.00     0.001 A 
ATOM    103  C   UNL     1      10.813   4.977 -10.783  1.00  0.00     0.001 A 
ATOM    104  C   UNL     1      11.003   5.218 -12.143  1.00  0.00     0.000 A 
ENDBRANCH  90  99
ENDBRANCH  82  83
ENDBRANCH  74  77
ENDBRANCH  72  73
ENDBRANCH   1  72
TORSDOF 13
