REMARK SMILES O=C(COc1cc(-c2ccncc2)nc(N2CCN(c3ccccc3F)CC2)n1)NCCCNC(=O)c1ccc(-c2c3nc(c(-c4c(F)c(F)c(F)c(F)c4F)c4ccc([nH]4)c(-c4c(F)c(F)c(F)c(F)c4F)c4nc(c(-c5c(F)c(F)c(F)c(F)c5F)c5ccc2[nH]5)C=C4)C=C3)cc1
REMARK SMILES IDX 31 1 30 2 1 3 2 4 3 6 4 7 5 8 6 9 29 10 7 11 15 12 14 13
REMARK SMILES IDX 8 14 9 15 13 16 10 17 12 18 11 19 16 20 17 21 28 22 18 23
REMARK SMILES IDX 27 24 19 25 20 26 21 27 25 28 22 29 24 30 26 31 23 32 32 33
REMARK SMILES IDX 33 34 34 35 35 36 36 38 37 39 38 40 99 41 39 42 98 43 40 44
REMARK SMILES IDX 41 45 42 46 92 47 43 48 97 49 91 50 93 51 44 52 96 53 90 54
REMARK SMILES IDX 89 55 45 57 77 58 57 59 76 60 58 61 61 62 75 63 94 64 59 65
REMARK SMILES IDX 60 66 74 68 95 69 62 70 46 71 47 72 55 73 48 74 49 75 53 76
REMARK SMILES IDX 56 77 50 78 51 79 54 80 52 81 78 82 79 83 87 84 80 85 81 86
REMARK SMILES IDX 85 87 88 88 82 89 83 90 86 91 84 92 63 93 64 94 72 95 65 96
REMARK SMILES IDX 66 97 70 98 73 99 67 100 68 101 71 102 69 103
REMARK H PARENT 30 5 34 37 93 56 61 67
REMARK Flexibility Score: inf
ROOT
ATOM      1  C   UNL     1       2.245   1.665   1.615  1.00  0.00     0.117 C 
ENDROOT
BRANCH   1   2
ATOM      2  N   UNL     1       2.929   0.723   0.751  1.00  0.00    -0.353 N 
ATOM      3  O   UNL     1       1.137  -0.685   0.449  1.00  0.00    -0.271 OA
ATOM      4  C   UNL     1       2.264  -0.320   0.130  1.00  0.00     0.258 C 
ATOM      5  H   UNL     1       3.897   0.827   0.602  1.00  0.00     0.163 HD
BRANCH   4   6
ATOM      6  C   UNL     1       3.039  -0.954  -1.031  1.00  0.00     0.331 C 
BRANCH   6   7
ATOM      7  O   UNL     1       3.864  -0.036  -1.748  1.00  0.00    -0.467 OA
BRANCH   7   8
ATOM      8  C   UNL     1       3.162   0.673  -2.696  1.00  0.00     0.219 A 
ATOM      9  C   UNL     1       2.289   1.658  -2.320  1.00  0.00     0.097 A 
ATOM     10  N   UNL     1       3.509   0.444  -3.968  1.00  0.00    -0.177 NA
ATOM     11  C   UNL     1       1.742   2.403  -3.335  1.00  0.00     0.080 A 
ATOM     12  C   UNL     1       2.991   1.266  -4.895  1.00  0.00     0.229 A 
ATOM     13  N   UNL     1       2.100   2.235  -4.619  1.00  0.00    -0.213 NA
BRANCH  11  14
ATOM     14  C   UNL     1       0.700   3.391  -3.042  1.00  0.00     0.004 A 
ATOM     15  C   UNL     1       0.919   4.435  -2.133  1.00  0.00     0.030 A 
ATOM     16  C   UNL     1      -0.582   3.252  -3.584  1.00  0.00     0.030 A 
ATOM     17  C   UNL     1      -0.139   5.262  -1.794  1.00  0.00     0.111 A 
ATOM     18  C   UNL     1      -1.578   4.124  -3.176  1.00  0.00     0.111 A 
ATOM     19  N   UNL     1      -1.385   5.121  -2.287  1.00  0.00    -0.265 NA
ENDBRANCH  11  14
BRANCH  12  20
ATOM     20  N   UNL     1       3.430   1.146  -6.178  1.00  0.00    -0.337 N 
ATOM     21  C   UNL     1       3.346  -0.120  -6.893  1.00  0.00     0.141 C 
ATOM     22  C   UNL     1       3.861   2.321  -6.930  1.00  0.00     0.141 C 
ATOM     23  C   UNL     1       2.488   0.047  -8.179  1.00  0.00     0.138 C 
ATOM     24  C   UNL     1       3.040   2.488  -8.220  1.00  0.00     0.138 C 
ATOM     25  N   UNL     1       2.925   1.219  -8.955  1.00  0.00    -0.366 N 
BRANCH  25  26
ATOM     26  C   UNL     1       3.351   1.103 -10.261  1.00  0.00     0.073 A 
ATOM     27  C   UNL     1       2.506   0.546 -11.232  1.00  0.00     0.029 A 
ATOM     28  C   UNL     1       4.617   1.538 -10.692  1.00  0.00     0.146 A 
ATOM     29  C   UNL     1       2.900   0.444 -12.572  1.00  0.00     0.002 A 
ATOM     30  C   UNL     1       5.028   1.420 -12.020  1.00  0.00     0.041 A 
ATOM     31  F   UNL     1       5.485   2.059  -9.808  1.00  0.00    -0.205 F 
ATOM     32  C   UNL     1       4.164   0.876 -12.966  1.00  0.00     0.003 A 
ENDBRANCH  25  26
ENDBRANCH  12  20
ENDBRANCH   7   8
ENDBRANCH   6   7
ENDBRANCH   4   6
ENDBRANCH   1   2
BRANCH   1  33
ATOM     33  C   UNL     1       2.518   1.457   3.095  1.00  0.00     0.042 C 
BRANCH  33  34
ATOM     34  C   UNL     1       3.977   1.624   3.503  1.00  0.00     0.118 C 
BRANCH  34  35
ATOM     35  N   UNL     1       4.505   2.958   3.250  1.00  0.00    -0.352 N 
ATOM     36  C   UNL     1       5.226   3.801   4.056  1.00  0.00     0.251 C 
ATOM     37  H   UNL     1       4.313   3.312   2.352  1.00  0.00     0.163 HD
ATOM     38  O   UNL     1       5.479   4.939   3.652  1.00  0.00    -0.269 OA
BRANCH  36  39
ATOM     39  C   UNL     1       5.680   3.392   5.405  1.00  0.00     0.039 A 
ATOM     40  C   UNL     1       5.651   4.343   6.431  1.00  0.00     0.014 A 
ATOM     41  C   UNL     1       6.165   2.109   5.670  1.00  0.00     0.014 A 
ATOM     42  C   UNL     1       6.044   3.991   7.725  1.00  0.00     0.010 A 
ATOM     43  C   UNL     1       6.487   1.736   6.976  1.00  0.00     0.010 A 
ATOM     44  C   UNL     1       6.431   2.674   8.018  1.00  0.00    -0.014 A 
BRANCH  44  45
ATOM     45  C   UNL     1       6.768   2.270   9.408  1.00  0.00     0.031 A 
ATOM     46  C   UNL     1       8.161   1.834   9.765  1.00  0.00     0.074 A 
ATOM     47  C   UNL     1       5.802   2.261  10.347  1.00  0.00     0.049 A 
ATOM     48  N   UNL     1       8.630   1.430  10.919  1.00  0.00    -0.248 NA
ATOM     49  C   UNL     1       9.155   1.830   8.681  1.00  0.00     0.031 C 
ATOM     50  C   UNL     1       4.400   2.615  10.119  1.00  0.00     0.029 A 
ATOM     51  N   UNL     1       5.852   1.945  11.683  1.00  0.00    -0.354 N 
ATOM     52  C   UNL     1       9.964   1.117  10.698  1.00  0.00     0.074 A 
ATOM     53  C   UNL     1      10.221   1.329   9.290  1.00  0.00     0.031 C 
ATOM     54  C   UNL     1       3.732   2.532  11.280  1.00  0.00     0.029 A 
ATOM     55  C   UNL     1       4.647   2.088  12.327  1.00  0.00     0.049 A 
ATOM     56  H   UNL     1       6.673   1.644  12.135  1.00  0.00     0.167 HD
ATOM     57  C   UNL     1      10.898   0.714  11.593  1.00  0.00     0.037 A 
ATOM     58  C   UNL     1       4.318   1.892  13.618  1.00  0.00     0.037 A 
ATOM     59  C   UNL     1      10.652   0.532  13.000  1.00  0.00     0.049 A 
ATOM     60  C   UNL     1       5.375   1.454  14.594  1.00  0.00     0.074 A 
ATOM     61  C   UNL     1      11.551   0.178  13.992  1.00  0.00     0.029 A 
ATOM     62  N   UNL     1       9.420   0.694  13.616  1.00  0.00    -0.354 N 
ATOM     63  N   UNL     1       6.645   1.213  14.381  1.00  0.00    -0.248 NA
ATOM     64  C   UNL     1       4.954   1.267  15.989  1.00  0.00     0.031 C 
ATOM     65  C   UNL     1      10.855   0.089  15.202  1.00  0.00     0.029 A 
ATOM     66  C   UNL     1       9.533   0.431  14.972  1.00  0.00     0.049 A 
ATOM     67  H   UNL     1       8.589   0.956  13.158  1.00  0.00     0.167 HD
ATOM     68  C   UNL     1       7.179   0.866  15.614  1.00  0.00     0.074 A 
ATOM     69  C   UNL     1       6.098   0.943  16.575  1.00  0.00     0.031 C 
ATOM     70  C   UNL     1       8.451   0.513  15.919  1.00  0.00     0.037 A 
BRANCH  57  71
ATOM     71  C   UNL     1      12.286   0.457  11.087  1.00  0.00     0.064 A 
ATOM     72  C   UNL     1      12.803  -0.847  11.050  1.00  0.00     0.173 A 
ATOM     73  C   UNL     1      13.130   1.510  10.704  1.00  0.00     0.173 A 
ATOM     74  F   UNL     1      12.039  -1.888  11.412  1.00  0.00    -0.203 F 
ATOM     75  C   UNL     1      14.119  -1.085  10.659  1.00  0.00     0.198 A 
ATOM     76  C   UNL     1      14.436   1.266  10.288  1.00  0.00     0.198 A 
ATOM     77  F   UNL     1      12.679   2.773  10.711  1.00  0.00    -0.203 F 
ATOM     78  F   UNL     1      14.601  -2.335  10.660  1.00  0.00    -0.200 F 
ATOM     79  C   UNL     1      14.932  -0.029  10.275  1.00  0.00     0.200 A 
ATOM     80  F   UNL     1      15.214   2.284   9.895  1.00  0.00    -0.200 F 
ATOM     81  F   UNL     1      16.195  -0.261   9.890  1.00  0.00    -0.200 F 
ENDBRANCH  57  71
BRANCH  58  82
ATOM     82  C   UNL     1       2.927   2.156  14.067  1.00  0.00     0.064 A 
ATOM     83  C   UNL     1       1.866   1.317  13.698  1.00  0.00     0.173 A 
ATOM     84  C   UNL     1       2.632   3.277  14.855  1.00  0.00     0.173 A 
ATOM     85  F   UNL     1       2.098   0.235  12.941  1.00  0.00    -0.203 F 
ATOM     86  C   UNL     1       0.559   1.600  14.087  1.00  0.00     0.198 A 
ATOM     87  C   UNL     1       1.327   3.545  15.264  1.00  0.00     0.198 A 
ATOM     88  F   UNL     1       3.617   4.096  15.250  1.00  0.00    -0.203 F 
ATOM     89  F   UNL     1      -0.442   0.799  13.697  1.00  0.00    -0.200 F 
ATOM     90  C   UNL     1       0.291   2.711  14.873  1.00  0.00     0.200 A 
ATOM     91  F   UNL     1       1.076   4.606  16.042  1.00  0.00    -0.200 F 
ATOM     92  F   UNL     1      -0.966   2.975  15.256  1.00  0.00    -0.200 F 
ENDBRANCH  58  82
BRANCH  70  93
ATOM     93  C   UNL     1       8.758   0.198  17.353  1.00  0.00     0.064 A 
ATOM     94  C   UNL     1       9.546   1.069  18.121  1.00  0.00     0.173 A 
ATOM     95  C   UNL     1       8.328  -0.997  17.948  1.00  0.00     0.173 A 
ATOM     96  F   UNL     1       9.988   2.222  17.595  1.00  0.00    -0.203 F 
ATOM     97  C   UNL     1       9.901   0.750  19.428  1.00  0.00     0.198 A 
ATOM     98  C   UNL     1       8.663  -1.301  19.265  1.00  0.00     0.198 A 
ATOM     99  F   UNL     1       7.562  -1.856  17.259  1.00  0.00    -0.203 F 
ATOM    100  F   UNL     1      10.678   1.584  20.133  1.00  0.00    -0.200 F 
ATOM    101  C   UNL     1       9.456  -0.432  20.000  1.00  0.00     0.200 A 
ATOM    102  F   UNL     1       8.214  -2.433  19.824  1.00  0.00    -0.200 F 
ATOM    103  F   UNL     1       9.788  -0.733  21.263  1.00  0.00    -0.200 F 
ENDBRANCH  70  93
ENDBRANCH  44  45
ENDBRANCH  36  39
ENDBRANCH  34  35
ENDBRANCH  33  34
ENDBRANCH   1  33
TORSDOF 15
