REMARK SMILES CCOC[C@@H](O)C[C@]1(C(=O)NCCCNC(=O)c2ccc(-c3c4nc(c(-c5c(F)c(F)c(F)c(F)c5F)c5ccc([nH]5)c(-c5c(F)c(F)c(F)c(F)c5F)c5nc(c(-c6c(F)c(F)c(F)c(F)c6F)c6ccc3[nH]6)C=C5)C=C4)cc2)CCc2ccccc21
REMARK SMILES IDX 9 1 10 2 11 3 8 5 81 6 88 7 82 8 83 9 87 10 84 11 86 12
REMARK SMILES IDX 85 13 7 14 5 15 4 16 3 17 2 18 1 19 6 20 12 22 13 23 14 24
REMARK SMILES IDX 15 25 16 26 17 28 18 29 19 30 80 31 20 32 79 33 21 34 22 35
REMARK SMILES IDX 23 36 73 37 24 38 78 39 72 40 74 41 25 42 77 43 71 44 70 45
REMARK SMILES IDX 26 47 58 48 38 49 57 50 39 51 42 52 56 53 75 54 40 55 41 56
REMARK SMILES IDX 55 58 76 59 43 60 27 61 28 62 36 63 29 64 30 65 34 66 37 67
REMARK SMILES IDX 31 68 32 69 35 70 33 71 59 72 60 73 68 74 61 75 62 76 66 77
REMARK SMILES IDX 69 78 63 79 64 80 67 81 65 82 44 83 45 84 53 85 46 86 47 87
REMARK SMILES IDX 51 88 54 89 48 90 49 91 52 92 50 93
REMARK H PARENT 11 4 6 21 15 27 74 46 42 57
REMARK Flexibility Score: inf
ROOT
ATOM      1  C   UNL     1       4.484  -2.281   3.027  1.00  0.00     0.230 C 
ATOM      2  O   UNL     1       4.355  -1.075   2.773  1.00  0.00    -0.274 OA
ATOM      3  N   UNL     1       4.174  -2.620   4.301  1.00  0.00    -0.355 N 
ATOM      4  H   UNL     1       3.459  -2.076   4.702  1.00  0.00     0.163 HD
ENDROOT
BRANCH   1   5
ATOM      5  C   UNL     1       4.952  -3.253   1.933  1.00  0.00     0.077 C 
ATOM      6  C   UNL     1       6.513  -3.142   1.826  1.00  0.00     0.026 C 
ATOM      7  C   UNL     1       4.789  -4.739   2.177  1.00  0.00    -0.029 A 
ATOM      8  C   UNL     1       7.135  -4.355   2.515  1.00  0.00     0.037 C 
ATOM      9  C   UNL     1       6.025  -5.351   2.447  1.00  0.00    -0.044 A 
ATOM     10  C   UNL     1       3.628  -5.501   2.214  1.00  0.00     0.005 A 
ATOM     11  C   UNL     1       6.122  -6.704   2.739  1.00  0.00     0.004 A 
ATOM     12  C   UNL     1       3.719  -6.870   2.486  1.00  0.00     0.000 A 
ATOM     13  C   UNL     1       4.958  -7.468   2.745  1.00  0.00     0.000 A 
BRANCH   5  14
ATOM     14  C   UNL     1       4.367  -2.794   0.558  1.00  0.00     0.056 C 
BRANCH  14  15
ATOM     15  C   UNL     1       2.845  -2.816   0.299  1.00  0.00     0.141 C 
BRANCH  15  16
ATOM     16  C   UNL     1       1.991  -1.966   1.257  1.00  0.00     0.191 C 
BRANCH  16  17
ATOM     17  O   UNL     1       0.582  -2.047   1.022  1.00  0.00    -0.379 OA
BRANCH  17  18
ATOM     18  C   UNL     1       0.034  -1.244  -0.019  1.00  0.00     0.157 C 
ATOM     19  C   UNL     1       0.512   0.198  -0.071  1.00  0.00     0.035 C 
ENDBRANCH  17  18
ENDBRANCH  16  17
ENDBRANCH  15  16
BRANCH  15  20
ATOM     20  O   UNL     1       2.686  -2.339  -1.048  1.00  0.00    -0.391 OA
ATOM     21  H   UNL     1       3.030  -1.435  -1.114  1.00  0.00     0.211 HD
ENDBRANCH  15  20
ENDBRANCH  14  15
ENDBRANCH   5  14
ENDBRANCH   1   5
BRANCH   3  22
ATOM     22  C   UNL     1       4.710  -3.643   5.176  1.00  0.00     0.117 C 
BRANCH  22  23
ATOM     23  C   UNL     1       5.918  -3.100   5.935  1.00  0.00     0.042 C 
BRANCH  23  24
ATOM     24  C   UNL     1       5.546  -2.033   6.958  1.00  0.00     0.118 C 
BRANCH  24  25
ATOM     25  N   UNL     1       4.800  -2.592   8.074  1.00  0.00    -0.352 N 
ATOM     26  C   UNL     1       5.110  -2.607   9.409  1.00  0.00     0.251 C 
ATOM     27  H   UNL     1       3.947  -3.024   7.836  1.00  0.00     0.163 HD
ATOM     28  O   UNL     1       4.486  -3.334  10.175  1.00  0.00    -0.269 OA
BRANCH  26  29
ATOM     29  C   UNL     1       6.195  -1.748   9.930  1.00  0.00     0.039 A 
ATOM     30  C   UNL     1       7.052  -2.264  10.906  1.00  0.00     0.014 A 
ATOM     31  C   UNL     1       6.335  -0.425   9.499  1.00  0.00     0.014 A 
ATOM     32  C   UNL     1       8.068  -1.462  11.428  1.00  0.00     0.010 A 
ATOM     33  C   UNL     1       7.393   0.348   9.965  1.00  0.00     0.010 A 
ATOM     34  C   UNL     1       8.255  -0.155  10.950  1.00  0.00    -0.014 A 
BRANCH  34  35
ATOM     35  C   UNL     1       9.313   0.722  11.506  1.00  0.00     0.031 A 
ATOM     36  C   UNL     1       8.930   1.956  12.276  1.00  0.00     0.074 A 
ATOM     37  C   UNL     1      10.608   0.440  11.274  1.00  0.00     0.049 A 
ATOM     38  N   UNL     1       9.694   2.892  12.777  1.00  0.00    -0.248 NA
ATOM     39  C   UNL     1       7.490   2.181  12.485  1.00  0.00     0.031 C 
ATOM     40  C   UNL     1      11.100  -0.708  10.512  1.00  0.00     0.029 A 
ATOM     41  N   UNL     1      11.747   1.104  11.652  1.00  0.00    -0.354 N 
ATOM     42  C   UNL     1       8.831   3.823  13.340  1.00  0.00     0.074 A 
ATOM     43  C   UNL     1       7.484   3.367  13.073  1.00  0.00     0.031 C 
ATOM     44  C   UNL     1      12.442  -0.681  10.498  1.00  0.00     0.029 A 
ATOM     45  C   UNL     1      12.902   0.501  11.220  1.00  0.00     0.049 A 
ATOM     46  H   UNL     1      11.737   1.933  12.183  1.00  0.00     0.167 HD
ATOM     47  C   UNL     1       9.133   4.944  14.038  1.00  0.00     0.037 A 
ATOM     48  C   UNL     1      14.187   0.866  11.390  1.00  0.00     0.037 A 
ATOM     49  C   UNL     1      10.475   5.376  14.326  1.00  0.00     0.049 A 
ATOM     50  C   UNL     1      14.498   2.111  12.175  1.00  0.00     0.074 A 
ATOM     51  C   UNL     1      10.892   6.473  15.059  1.00  0.00     0.029 A 
ATOM     52  N   UNL     1      11.621   4.723  13.895  1.00  0.00    -0.354 N 
ATOM     53  N   UNL     1      13.675   2.958  12.744  1.00  0.00    -0.248 NA
ATOM     54  C   UNL     1      15.918   2.445  12.347  1.00  0.00     0.031 C 
ATOM     55  C   UNL     1      12.291   6.502  15.045  1.00  0.00     0.029 A 
ATOM     56  C   UNL     1      12.746   5.399  14.340  1.00  0.00     0.049 A 
ATOM     57  H   UNL     1      11.633   3.901  13.353  1.00  0.00     0.167 HD
ATOM     58  C   UNL     1      14.475   3.904  13.371  1.00  0.00     0.074 A 
ATOM     59  C   UNL     1      15.849   3.522  13.117  1.00  0.00     0.031 C 
ATOM     60  C   UNL     1      14.105   4.990  14.092  1.00  0.00     0.037 A 
BRANCH  47  61
ATOM     61  C   UNL     1       7.988   5.775  14.539  1.00  0.00     0.064 A 
ATOM     62  C   UNL     1       7.149   5.324  15.569  1.00  0.00     0.173 A 
ATOM     63  C   UNL     1       7.733   7.042  13.993  1.00  0.00     0.173 A 
ATOM     64  F   UNL     1       7.341   4.114  16.115  1.00  0.00    -0.203 F 
ATOM     65  C   UNL     1       6.076   6.095  16.011  1.00  0.00     0.198 A 
ATOM     66  C   UNL     1       6.678   7.824  14.458  1.00  0.00     0.198 A 
ATOM     67  F   UNL     1       8.507   7.524  13.009  1.00  0.00    -0.203 F 
ATOM     68  F   UNL     1       5.255   5.619  16.957  1.00  0.00    -0.200 F 
ATOM     69  C   UNL     1       5.846   7.346  15.459  1.00  0.00     0.200 A 
ATOM     70  F   UNL     1       6.463   9.037  13.933  1.00  0.00    -0.200 F 
ATOM     71  F   UNL     1       4.814   8.088  15.886  1.00  0.00    -0.200 F 
ENDBRANCH  47  61
BRANCH  48  72
ATOM     72  C   UNL     1      15.276   0.016  10.843  1.00  0.00     0.064 A 
ATOM     73  C   UNL     1      16.097  -0.732  11.699  1.00  0.00     0.173 A 
ATOM     74  C   UNL     1      15.515  -0.072   9.465  1.00  0.00     0.173 A 
ATOM     75  F   UNL     1      15.917  -0.664  13.026  1.00  0.00    -0.203 F 
ATOM     76  C   UNL     1      17.128  -1.522  11.198  1.00  0.00     0.198 A 
ATOM     77  C   UNL     1      16.531  -0.883   8.963  1.00  0.00     0.198 A 
ATOM     78  F   UNL     1      14.753   0.619   8.605  1.00  0.00    -0.203 F 
ATOM     79  F   UNL     1      17.923  -2.196  12.040  1.00  0.00    -0.200 F 
ATOM     80  C   UNL     1      17.341  -1.602   9.830  1.00  0.00     0.200 A 
ATOM     81  F   UNL     1      16.725  -0.969   7.640  1.00  0.00    -0.200 F 
ATOM     82  F   UNL     1      18.330  -2.366   9.347  1.00  0.00    -0.200 F 
ENDBRANCH  48  72
BRANCH  60  83
ATOM     83  C   UNL     1      15.200   5.814  14.702  1.00  0.00     0.064 A 
ATOM     84  C   UNL     1      16.015   6.648  13.924  1.00  0.00     0.173 A 
ATOM     85  C   UNL     1      15.411   5.792  16.089  1.00  0.00     0.173 A 
ATOM     86  F   UNL     1      15.863   6.690  12.592  1.00  0.00    -0.203 F 
ATOM     87  C   UNL     1      17.020   7.413  14.511  1.00  0.00     0.198 A 
ATOM     88  C   UNL     1      16.397   6.580  16.675  1.00  0.00     0.198 A 
ATOM     89  F   UNL     1      14.652   5.015  16.876  1.00  0.00    -0.203 F 
ATOM     90  F   UNL     1      17.818   8.169  13.745  1.00  0.00    -0.200 F 
ATOM     91  C   UNL     1      17.205   7.384  15.886  1.00  0.00     0.200 A 
ATOM     92  F   UNL     1      16.567   6.559  18.004  1.00  0.00    -0.200 F 
ATOM     93  F   UNL     1      18.169   8.125  16.449  1.00  0.00    -0.200 F 
ENDBRANCH  60  83
ENDBRANCH  34  35
ENDBRANCH  26  29
ENDBRANCH  24  25
ENDBRANCH  23  24
ENDBRANCH  22  23
ENDBRANCH   3  22
TORSDOF 16
