REMARK SMILES O=C(NCCCNC(=O)[C@@H]1[C@H](C(=O)Nc2ccccc2OC(F)F)[C@@H]2C=C[C@H]1C2)c1ccc(-c2c3nc(c(-c4c(F)c(F)c(F)c(F)c4F)c4ccc([nH]4)c(-c4c(F)c(F)c(F)c(F)c4F)c4nc(c(-c5c(F)c(F)c(F)c(F)c5F)c5ccc2[nH]5)C=C4)C=C3)cc1
REMARK SMILES IDX 6 1 5 2 4 3 3 4 1 5 2 6 30 8 31 9 92 10 32 11 91 12 33 13
REMARK SMILES IDX 34 14 35 15 85 16 36 17 90 18 84 19 86 20 37 21 89 22 83 23
REMARK SMILES IDX 82 24 38 26 70 27 50 28 69 29 51 30 54 31 68 32 87 33 52 34
REMARK SMILES IDX 53 35 67 37 88 38 55 39 39 40 40 41 48 42 41 43 42 44 46 45
REMARK SMILES IDX 49 46 43 47 44 48 47 49 45 50 71 51 72 52 80 53 73 54 74 55
REMARK SMILES IDX 78 56 81 57 75 58 76 59 79 60 77 61 56 62 57 63 65 64 58 65
REMARK SMILES IDX 59 66 63 67 66 68 60 69 61 70 64 71 62 72 7 73 8 74 9 76
REMARK SMILES IDX 10 77 11 78 28 79 25 80 27 81 29 82 26 83 12 84 13 85 14 86
REMARK SMILES IDX 15 88 16 89 20 90 17 91 19 92 18 93 21 94 22 95 23 96 24 97
REMARK H PARENT 3 7 86 25 54 36 7 75 14 87
REMARK Flexibility Score: inf
ROOT
ATOM      1  C   UNL     1       3.491   1.731  -4.050  1.00  0.00     0.117 C 
ENDROOT
BRANCH   1   2
ATOM      2  C   UNL     1       3.382   1.094  -2.616  1.00  0.00     0.042 C 
BRANCH   2   3
ATOM      3  C   UNL     1       3.472   1.896  -1.309  1.00  0.00     0.118 C 
BRANCH   3   4
ATOM      4  N   UNL     1       2.302   1.604  -0.460  1.00  0.00    -0.352 N 
ATOM      5  O   UNL     1       0.793   0.479   0.722  1.00  0.00    -0.269 OA
ATOM      6  C   UNL     1       2.012   0.681   0.510  1.00  0.00     0.251 C 
ATOM      7  H   UNL     1       1.552   2.218  -0.631  1.00  0.00     0.163 HD
BRANCH   6   8
ATOM      8  C   UNL     1       2.980  -0.052   1.375  1.00  0.00     0.039 A 
ATOM      9  C   UNL     1       4.241   0.444   1.703  1.00  0.00     0.014 A 
ATOM     10  C   UNL     1       2.526  -1.197   2.068  1.00  0.00     0.014 A 
ATOM     11  C   UNL     1       5.029  -0.197   2.679  1.00  0.00     0.010 A 
ATOM     12  C   UNL     1       3.288  -1.802   3.085  1.00  0.00     0.010 A 
ATOM     13  C   UNL     1       4.550  -1.298   3.416  1.00  0.00    -0.014 A 
BRANCH  13  14
ATOM     14  C   UNL     1       5.316  -1.788   4.607  1.00  0.00     0.031 A 
ATOM     15  C   UNL     1       5.929  -3.162   4.668  1.00  0.00     0.074 A 
ATOM     16  C   UNL     1       5.476  -0.956   5.660  1.00  0.00     0.049 A 
ATOM     17  N   UNL     1       6.695  -3.686   5.598  1.00  0.00    -0.248 NA
ATOM     18  C   UNL     1       5.643  -4.072   3.552  1.00  0.00     0.031 C 
ATOM     19  C   UNL     1       4.879   0.376   5.770  1.00  0.00     0.029 A 
ATOM     20  N   UNL     1       6.199  -1.089   6.823  1.00  0.00    -0.354 N 
ATOM     21  C   UNL     1       6.987  -4.978   5.178  1.00  0.00     0.074 A 
ATOM     22  C   UNL     1       6.284  -5.174   3.926  1.00  0.00     0.031 C 
ATOM     23  C   UNL     1       5.308   0.961   6.899  1.00  0.00     0.029 A 
ATOM     24  C   UNL     1       6.172   0.032   7.618  1.00  0.00     0.049 A 
ATOM     25  H   UNL     1       6.689  -1.908   7.062  1.00  0.00     0.167 HD
ATOM     26  C   UNL     1       7.777  -5.909   5.771  1.00  0.00     0.037 A 
ATOM     27  C   UNL     1       6.775   0.294   8.797  1.00  0.00     0.037 A 
ATOM     28  C   UNL     1       8.473  -5.724   7.022  1.00  0.00     0.049 A 
ATOM     29  C   UNL     1       7.657  -0.749   9.422  1.00  0.00     0.074 A 
ATOM     30  C   UNL     1       9.302  -6.610   7.692  1.00  0.00     0.029 A 
ATOM     31  N   UNL     1       8.419  -4.574   7.796  1.00  0.00    -0.354 N 
ATOM     32  N   UNL     1       7.962  -1.946   8.981  1.00  0.00    -0.248 NA
ATOM     33  C   UNL     1       8.278  -0.402  10.708  1.00  0.00     0.031 C 
ATOM     34  C   UNL     1       9.722  -6.010   8.884  1.00  0.00     0.029 A 
ATOM     35  C   UNL     1       9.191  -4.732   8.939  1.00  0.00     0.049 A 
ATOM     36  H   UNL     1       7.908  -3.764   7.569  1.00  0.00     0.167 HD
ATOM     37  C   UNL     1       8.812  -2.492   9.929  1.00  0.00     0.074 A 
ATOM     38  C   UNL     1       9.009  -1.493  10.954  1.00  0.00     0.031 C 
ATOM     39  C   UNL     1       9.375  -3.729   9.954  1.00  0.00     0.037 A 
BRANCH  26  40
ATOM     40  C   UNL     1       7.946  -7.229   5.071  1.00  0.00     0.064 A 
ATOM     41  C   UNL     1       8.724  -7.342   3.908  1.00  0.00     0.173 A 
ATOM     42  C   UNL     1       7.386  -8.402   5.600  1.00  0.00     0.173 A 
ATOM     43  F   UNL     1       9.281  -6.252   3.360  1.00  0.00    -0.203 F 
ATOM     44  C   UNL     1       8.915  -8.576   3.290  1.00  0.00     0.198 A 
ATOM     45  C   UNL     1       7.599  -9.637   4.993  1.00  0.00     0.198 A 
ATOM     46  F   UNL     1       6.646  -8.353   6.718  1.00  0.00    -0.203 F 
ATOM     47  F   UNL     1       9.635  -8.654   2.162  1.00  0.00    -0.200 F 
ATOM     48  C   UNL     1       8.359  -9.723   3.836  1.00  0.00     0.200 A 
ATOM     49  F   UNL     1       7.074 -10.747   5.530  1.00  0.00    -0.200 F 
ATOM     50  F   UNL     1       8.553 -10.910   3.245  1.00  0.00    -0.200 F 
ENDBRANCH  26  40
BRANCH  27  51
ATOM     51  C   UNL     1       6.569   1.611   9.457  1.00  0.00     0.064 A 
ATOM     52  C   UNL     1       7.614   2.539   9.566  1.00  0.00     0.173 A 
ATOM     53  C   UNL     1       5.322   1.967   9.992  1.00  0.00     0.173 A 
ATOM     54  F   UNL     1       8.832   2.237   9.092  1.00  0.00    -0.203 F 
ATOM     55  C   UNL     1       7.423   3.767  10.199  1.00  0.00     0.198 A 
ATOM     56  C   UNL     1       5.124   3.207  10.595  1.00  0.00     0.198 A 
ATOM     57  F   UNL     1       4.290   1.115   9.912  1.00  0.00    -0.203 F 
ATOM     58  F   UNL     1       8.450   4.618  10.329  1.00  0.00    -0.200 F 
ATOM     59  C   UNL     1       6.176   4.103  10.705  1.00  0.00     0.200 A 
ATOM     60  F   UNL     1       3.914   3.533  11.068  1.00  0.00    -0.200 F 
ATOM     61  F   UNL     1       5.991   5.286  11.305  1.00  0.00    -0.200 F 
ENDBRANCH  27  51
BRANCH  39  62
ATOM     62  C   UNL     1      10.259  -4.049  11.122  1.00  0.00     0.064 A 
ATOM     63  C   UNL     1       9.731  -4.273  12.402  1.00  0.00     0.173 A 
ATOM     64  C   UNL     1      11.650  -4.140  10.960  1.00  0.00     0.173 A 
ATOM     65  F   UNL     1       8.409  -4.179  12.613  1.00  0.00    -0.203 F 
ATOM     66  C   UNL     1      10.565  -4.547  13.483  1.00  0.00     0.198 A 
ATOM     67  C   UNL     1      12.478  -4.440  12.038  1.00  0.00     0.198 A 
ATOM     68  F   UNL     1      12.205  -3.937   9.756  1.00  0.00    -0.203 F 
ATOM     69  F   UNL     1      10.042  -4.706  14.707  1.00  0.00    -0.200 F 
ATOM     70  C   UNL     1      11.937  -4.635  13.299  1.00  0.00     0.200 A 
ATOM     71  F   UNL     1      13.803  -4.532  11.857  1.00  0.00    -0.200 F 
ATOM     72  F   UNL     1      12.738  -4.895  14.341  1.00  0.00    -0.200 F 
ENDBRANCH  39  62
ENDBRANCH  13  14
ENDBRANCH   6   8
ENDBRANCH   3   4
ENDBRANCH   2   3
ENDBRANCH   1   2
BRANCH   1  73
ATOM     73  N   UNL     1       4.748   2.065  -4.815  1.00  0.00    -0.356 N 
ATOM     74  C   UNL     1       5.810   1.716  -5.588  1.00  0.00     0.224 C 
ATOM     75  H   UNL     1       4.852   3.036  -4.691  1.00  0.00     0.163 HD
ATOM     76  O   UNL     1       6.254   2.800  -6.045  1.00  0.00    -0.275 OA
BRANCH  74  77
ATOM     77  C   UNL     1       6.540   0.380  -6.185  1.00  0.00     0.098 C 
ATOM     78  C   UNL     1       7.143  -1.121  -5.840  1.00  0.00     0.099 C 
ATOM     79  C   UNL     1       7.859   0.957  -6.885  1.00  0.00     0.025 C 
ATOM     80  C   UNL     1       8.606  -1.073  -6.398  1.00  0.00     0.025 C 
ATOM     81  C   UNL     1       8.937   1.111  -5.828  1.00  0.00    -0.027 C 
ATOM     82  C   UNL     1       8.436  -0.235  -7.646  1.00  0.00     0.017 C 
ATOM     83  C   UNL     1       9.401  -0.113  -5.552  1.00  0.00    -0.027 C 
BRANCH  78  84
ATOM     84  C   UNL     1       7.313  -2.196  -4.713  1.00  0.00     0.229 C 
ATOM     85  O   UNL     1       7.190  -3.392  -5.022  1.00  0.00    -0.274 OA
ATOM     86  N   UNL     1       7.699  -1.968  -3.431  1.00  0.00    -0.323 N 
ATOM     87  H   UNL     1       8.054  -2.739  -2.932  1.00  0.00     0.170 HD
BRANCH  86  88
ATOM     88  C   UNL     1       7.644  -0.763  -2.756  1.00  0.00     0.084 A 
ATOM     89  C   UNL     1       8.692  -0.412  -1.897  1.00  0.00     0.030 A 
ATOM     90  C   UNL     1       6.631   0.123  -3.035  1.00  0.00     0.149 A 
ATOM     91  C   UNL     1       8.858   0.920  -1.513  1.00  0.00     0.002 A 
ATOM     92  C   UNL     1       6.823   1.463  -2.657  1.00  0.00     0.049 A 
ATOM     93  C   UNL     1       7.947   1.873  -1.941  1.00  0.00     0.004 A 
BRANCH  90  94
ATOM     94  O   UNL     1       5.550  -0.206  -3.805  1.00  0.00    -0.433 OA
BRANCH  94  95
ATOM     95  C   UNL     1       4.787  -1.421  -3.737  1.00  0.00     0.542 C 
ATOM     96  F   UNL     1       4.671  -1.842  -2.461  1.00  0.00    -0.167 F 
ATOM     97  F   UNL     1       3.531  -1.113  -4.175  1.00  0.00    -0.167 F 
ENDBRANCH  94  95
ENDBRANCH  90  94
ENDBRANCH  86  88
ENDBRANCH  78  84
ENDBRANCH  74  77
ENDBRANCH   1  73
TORSDOF 14
