REMARK SMILES O=C(C[C@H]1C[C@H]2CC[C@@H](C1)N2C(=O)NCCC1CC1)NCCCNC(=O)c1ccc(-c2c3nc(c(-c4c(F)c(F)c(F)c(F)c4F)c4ccc([nH]4)c(-c4c(F)c(F)c(F)c(F)c4F)c4nc(c(-c5c(F)c(F)c(F)c(F)c5F)c5ccc2[nH]5)C=C4)C=C3)cc1
REMARK SMILES IDX 1 1 2 2 20 3 3 5 4 6 5 7 10 8 6 9 9 10 7 11 11 12 8 13 12 14
REMARK SMILES IDX 13 15 14 16 15 18 16 19 17 20 18 21 19 22 21 23 22 24 23 25
REMARK SMILES IDX 24 26 25 27 26 29 27 30 28 31 89 32 29 33 88 34 30 35 31 36
REMARK SMILES IDX 32 37 82 38 33 39 87 40 81 41 83 42 34 43 86 44 80 45 79 46
REMARK SMILES IDX 35 48 67 49 47 50 66 51 48 52 51 53 65 54 84 55 49 56 50 57
REMARK SMILES IDX 64 59 85 60 52 61 36 62 37 63 45 64 38 65 39 66 43 67 46 68
REMARK SMILES IDX 40 69 41 70 44 71 42 72 68 73 69 74 77 75 70 76 71 77 75 78
REMARK SMILES IDX 78 79 72 80 73 81 76 82 74 83 53 84 54 85 62 86 55 87 56 88
REMARK SMILES IDX 60 89 63 90 57 91 58 92 61 93 59 94
REMARK H PARENT 20 4 14 17 24 28 83 47 51 58
REMARK Flexibility Score: inf
ROOT
ATOM      1  O   UNL     1       0.440  -0.067  -0.294  1.00  0.00    -0.275 OA
ATOM      2  C   UNL     1       1.659   0.080  -0.334  1.00  0.00     0.220 C 
ATOM      3  N   UNL     1       2.252   1.135  -0.987  1.00  0.00    -0.356 N 
ATOM      4  H   UNL     1       3.235   1.178  -0.964  1.00  0.00     0.163 HD
ENDROOT
BRANCH   2   5
ATOM      5  C   UNL     1       2.596  -0.821   0.491  1.00  0.00     0.103 C 
BRANCH   5   6
ATOM      6  C   UNL     1       3.801  -1.546  -0.168  1.00  0.00     0.002 C 
ATOM      7  C   UNL     1       4.564  -0.796  -1.259  1.00  0.00     0.029 C 
ATOM      8  C   UNL     1       4.849  -2.059   0.874  1.00  0.00     0.029 C 
ATOM      9  C   UNL     1       5.591   0.198  -0.691  1.00  0.00     0.087 C 
ATOM     10  C   UNL     1       6.059  -1.107   1.154  1.00  0.00     0.087 C 
ATOM     11  C   UNL     1       5.209   1.053   0.540  1.00  0.00     0.027 C 
ATOM     12  N   UNL     1       6.637  -0.615  -0.099  1.00  0.00    -0.319 N 
ATOM     13  C   UNL     1       5.583   0.206   1.769  1.00  0.00     0.027 C 
BRANCH  12  14
ATOM     14  C   UNL     1       7.889  -0.448  -0.590  1.00  0.00     0.317 C 
ATOM     15  O   UNL     1       8.080   0.064  -1.699  1.00  0.00    -0.249 OA
ATOM     16  N   UNL     1       9.000  -0.758   0.084  1.00  0.00    -0.338 N 
ATOM     17  H   UNL     1       9.813  -0.457  -0.383  1.00  0.00     0.165 HD
BRANCH  16  18
ATOM     18  C   UNL     1       9.304  -1.426   1.328  1.00  0.00     0.118 C 
BRANCH  18  19
ATOM     19  C   UNL     1       9.437  -2.934   1.109  1.00  0.00     0.025 C 
BRANCH  19  20
ATOM     20  C   UNL     1      10.816  -3.287   0.617  1.00  0.00    -0.009 C 
ATOM     21  C   UNL     1      11.025  -4.402  -0.374  1.00  0.00     0.004 C 
ATOM     22  C   UNL     1      11.246  -2.977  -0.795  1.00  0.00     0.004 C 
ENDBRANCH  19  20
ENDBRANCH  18  19
ENDBRANCH  16  18
ENDBRANCH  12  14
ENDBRANCH   5   6
ENDBRANCH   2   5
BRANCH   3  23
ATOM     23  C   UNL     1       1.563   2.187  -1.704  1.00  0.00     0.117 C 
BRANCH  23  24
ATOM     24  C   UNL     1       1.998   3.575  -1.225  1.00  0.00     0.042 C 
BRANCH  24  25
ATOM     25  C   UNL     1       3.491   3.907  -1.318  1.00  0.00     0.118 C 
BRANCH  25  26
ATOM     26  N   UNL     1       4.055   3.838  -2.652  1.00  0.00    -0.352 N 
ATOM     27  C   UNL     1       4.908   4.704  -3.299  1.00  0.00     0.251 C 
ATOM     28  H   UNL     1       3.788   3.049  -3.176  1.00  0.00     0.163 HD
ATOM     29  O   UNL     1       5.222   4.475  -4.462  1.00  0.00    -0.269 OA
BRANCH  27  30
ATOM     30  C   UNL     1       5.414   5.936  -2.641  1.00  0.00     0.039 A 
ATOM     31  C   UNL     1       5.438   7.114  -3.395  1.00  0.00     0.014 A 
ATOM     32  C   UNL     1       5.902   5.950  -1.332  1.00  0.00     0.014 A 
ATOM     33  C   UNL     1       5.894   8.307  -2.826  1.00  0.00     0.010 A 
ATOM     34  C   UNL     1       6.296   7.157  -0.742  1.00  0.00     0.010 A 
ATOM     35  C   UNL     1       6.301   8.351  -1.483  1.00  0.00    -0.014 A 
BRANCH  35  36
ATOM     36  C   UNL     1       6.736   9.639  -0.870  1.00  0.00     0.031 A 
ATOM     37  C   UNL     1       8.156   9.834  -0.410  1.00  0.00     0.074 A 
ATOM     38  C   UNL     1       5.848  10.643  -0.718  1.00  0.00     0.049 A 
ATOM     39  N   UNL     1       8.719  10.893   0.122  1.00  0.00    -0.248 NA
ATOM     40  C   UNL     1       9.061   8.683  -0.546  1.00  0.00     0.031 C 
ATOM     41  C   UNL     1       4.433  10.580  -1.082  1.00  0.00     0.029 A 
ATOM     42  N   UNL     1       6.006  11.915  -0.222  1.00  0.00    -0.354 N 
ATOM     43  C   UNL     1      10.035  10.535   0.383  1.00  0.00     0.074 A 
ATOM     44  C   UNL     1      10.173   9.143   0.008  1.00  0.00     0.031 C 
ATOM     45  C   UNL     1       3.859  11.767  -0.828  1.00  0.00     0.029 A 
ATOM     46  C   UNL     1       4.855  12.666  -0.252  1.00  0.00     0.049 A 
ATOM     47  H   UNL     1       6.862  12.257   0.122  1.00  0.00     0.167 HD
ATOM     48  C   UNL     1      11.045  11.300   0.866  1.00  0.00     0.037 A 
ATOM     49  C   UNL     1       4.625  13.935   0.139  1.00  0.00     0.037 A 
ATOM     50  C   UNL     1      10.917  12.688   1.228  1.00  0.00     0.049 A 
ATOM     51  C   UNL     1       5.761  14.759   0.686  1.00  0.00     0.074 A 
ATOM     52  C   UNL     1      11.895  13.556   1.686  1.00  0.00     0.029 A 
ATOM     53  N   UNL     1       9.735  13.413   1.181  1.00  0.00    -0.354 N 
ATOM     54  N   UNL     1       7.017  14.429   0.861  1.00  0.00    -0.248 NA
ATOM     55  C   UNL     1       5.448  16.142   1.077  1.00  0.00     0.031 C 
ATOM     56  C   UNL     1      11.294  14.787   1.968  1.00  0.00     0.029 A 
ATOM     57  C   UNL     1       9.955  14.709   1.621  1.00  0.00     0.049 A 
ATOM     58  H   UNL     1       8.867  13.059   0.879  1.00  0.00     0.167 HD
ATOM     59  C   UNL     1       7.650  15.569   1.341  1.00  0.00     0.074 A 
ATOM     60  C   UNL     1       6.642  16.604   1.418  1.00  0.00     0.031 C 
ATOM     61  C   UNL     1       8.951  15.741   1.682  1.00  0.00     0.037 A 
BRANCH  48  62
ATOM     62  C   UNL     1      12.390  10.648   1.034  1.00  0.00     0.064 A 
ATOM     63  C   UNL     1      13.161  10.252  -0.070  1.00  0.00     0.173 A 
ATOM     64  C   UNL     1      12.933  10.453   2.313  1.00  0.00     0.173 A 
ATOM     65  F   UNL     1      12.687  10.408  -1.316  1.00  0.00    -0.203 F 
ATOM     66  C   UNL     1      14.407   9.653   0.101  1.00  0.00     0.198 A 
ATOM     67  C   UNL     1      14.195   9.886   2.479  1.00  0.00     0.198 A 
ATOM     68  F   UNL     1      12.246  10.822   3.405  1.00  0.00    -0.203 F 
ATOM     69  F   UNL     1      15.099   9.233  -0.967  1.00  0.00    -0.200 F 
ATOM     70  C   UNL     1      14.926   9.478   1.375  1.00  0.00     0.200 A 
ATOM     71  F   UNL     1      14.702   9.733   3.711  1.00  0.00    -0.200 F 
ATOM     72  F   UNL     1      16.128   8.909   1.538  1.00  0.00    -0.200 F 
ENDBRANCH  48  62
BRANCH  49  73
ATOM     73  C   UNL     1       3.265  14.523   0.001  1.00  0.00     0.064 A 
ATOM     74  C   UNL     1       3.014  15.561  -0.909  1.00  0.00     0.173 A 
ATOM     75  C   UNL     1       2.196  14.078   0.792  1.00  0.00     0.173 A 
ATOM     76  F   UNL     1       4.009  16.038  -1.671  1.00  0.00    -0.203 F 
ATOM     77  C   UNL     1       1.754  16.148  -1.002  1.00  0.00     0.198 A 
ATOM     78  C   UNL     1       0.928  14.644   0.673  1.00  0.00     0.198 A 
ATOM     79  F   UNL     1       2.380  13.087   1.676  1.00  0.00    -0.203 F 
ATOM     80  F   UNL     1       1.557  17.177  -1.839  1.00  0.00    -0.200 F 
ATOM     81  C   UNL     1       0.710  15.686  -0.215  1.00  0.00     0.200 A 
ATOM     82  F   UNL     1      -0.081  14.185   1.426  1.00  0.00    -0.200 F 
ATOM     83  F   UNL     1      -0.501  16.251  -0.305  1.00  0.00    -0.200 F 
ENDBRANCH  49  73
BRANCH  61  84
ATOM     84  C   UNL     1       9.377  17.117   2.116  1.00  0.00     0.064 A 
ATOM     85  C   UNL     1       8.957  17.679   3.330  1.00  0.00     0.173 A 
ATOM     86  C   UNL     1      10.242  17.874   1.310  1.00  0.00     0.173 A 
ATOM     87  F   UNL     1       8.121  17.005   4.134  1.00  0.00    -0.203 F 
ATOM     88  C   UNL     1       9.356  18.961   3.703  1.00  0.00     0.198 A 
ATOM     89  C   UNL     1      10.668  19.140   1.702  1.00  0.00     0.198 A 
ATOM     90  F   UNL     1      10.683  17.382   0.142  1.00  0.00    -0.203 F 
ATOM     91  F   UNL     1       8.892  19.501   4.838  1.00  0.00    -0.200 F 
ATOM     92  C   UNL     1      10.216  19.688   2.892  1.00  0.00     0.200 A 
ATOM     93  F   UNL     1      11.513  19.833   0.925  1.00  0.00    -0.200 F 
ATOM     94  F   UNL     1      10.601  20.919   3.255  1.00  0.00    -0.200 F 
ENDBRANCH  61  84
ENDBRANCH  35  36
ENDBRANCH  27  30
ENDBRANCH  25  26
ENDBRANCH  24  25
ENDBRANCH  23  24
ENDBRANCH   3  23
TORSDOF 15
