REMARK SMILES C[C@@H](C(=O)NCCCNC(=O)c1ccc(-c2c3nc(c(-c4c(F)c(F)c(F)c(F)c4F)c4ccc([nH]4)c(-c4c(F)c(F)c(F)c(F)c4F)c4nc(c(-c5c(F)c(F)c(F)c(F)c5F)c5ccc2[nH]5)C=C4)C=C3)cc1)c1ccc(N[C@H]2CCC[C@@H]2O)cc1F
REMARK SMILES IDX 6 1 5 2 3 3 4 4 2 6 1 7 75 8 76 9 87 10 77 11 86 12 88 13
REMARK SMILES IDX 78 14 79 15 80 17 81 18 84 19 82 20 83 21 85 22 7 24 8 25
REMARK SMILES IDX 9 26 10 27 11 29 12 30 13 31 74 32 14 33 73 34 15 35 16 36
REMARK SMILES IDX 17 37 67 38 18 39 72 40 66 41 68 42 19 43 71 44 65 45 64 46
REMARK SMILES IDX 20 48 52 49 32 50 51 51 33 52 36 53 50 54 69 55 34 56 35 57
REMARK SMILES IDX 49 59 70 60 37 61 21 62 22 63 30 64 23 65 24 66 28 67 31 68
REMARK SMILES IDX 25 69 26 70 29 71 27 72 53 73 54 74 62 75 55 76 56 77 60 78
REMARK SMILES IDX 63 79 57 80 58 81 61 82 59 83 38 84 39 85 47 86 40 87 41 88
REMARK SMILES IDX 45 89 48 90 42 91 43 92 46 93 44 94
REMARK H PARENT 5 5 79 16 85 23 9 28 68 47 36 58
REMARK Flexibility Score: inf
ROOT
ATOM      1  C   UNL     1       3.544   1.870   0.774  1.00  0.00     0.117 C 
ENDROOT
BRANCH   1   2
ATOM      2  N   UNL     1       2.464   2.659   0.211  1.00  0.00    -0.356 N 
ATOM      3  C   UNL     1       1.180   2.303  -0.086  1.00  0.00     0.227 C 
ATOM      4  O   UNL     1       0.574   3.045  -0.862  1.00  0.00    -0.274 OA
ATOM      5  H   UNL     1       2.693   3.596   0.014  1.00  0.00     0.163 HD
BRANCH   3   6
ATOM      6  C   UNL     1       0.563   1.040   0.544  1.00  0.00     0.108 C 
ATOM      7  C   UNL     1       0.999  -0.157  -0.310  1.00  0.00     0.023 C 
BRANCH   6   8
ATOM      8  C   UNL     1      -0.953   1.129   0.746  1.00  0.00     0.000 A 
ATOM      9  C   UNL     1      -1.585   2.360   0.966  1.00  0.00     0.009 A 
ATOM     10  C   UNL     1      -1.780   0.002   0.772  1.00  0.00     0.129 A 
ATOM     11  C   UNL     1      -2.979   2.458   1.079  1.00  0.00     0.026 A 
ATOM     12  C   UNL     1      -3.169   0.101   0.894  1.00  0.00     0.065 A 
ATOM     13  F   UNL     1      -1.265  -1.232   0.683  1.00  0.00    -0.207 F 
ATOM     14  C   UNL     1      -3.805   1.338   1.020  1.00  0.00     0.037 A 
BRANCH  14  15
ATOM     15  N   UNL     1      -5.182   1.375   1.067  1.00  0.00    -0.380 N 
ATOM     16  H   UNL     1      -5.629   0.499   1.061  1.00  0.00     0.160 HD
BRANCH  15  17
ATOM     17  C   UNL     1      -6.070   2.532   1.124  1.00  0.00     0.107 C 
ATOM     18  C   UNL     1      -5.896   3.401   2.372  1.00  0.00     0.027 C 
ATOM     19  C   UNL     1      -5.959   3.475  -0.087  1.00  0.00     0.136 C 
ATOM     20  C   UNL     1      -5.872   4.847   1.873  1.00  0.00     0.005 C 
ATOM     21  C   UNL     1      -6.452   4.803   0.466  1.00  0.00     0.034 C 
BRANCH  19  22
ATOM     22  O   UNL     1      -6.776   3.042  -1.167  1.00  0.00    -0.391 OA
ATOM     23  H   UNL     1      -7.698   2.979  -0.871  1.00  0.00     0.211 HD
ENDBRANCH  19  22
ENDBRANCH  15  17
ENDBRANCH  14  15
ENDBRANCH   6   8
ENDBRANCH   3   6
ENDBRANCH   1   2
BRANCH   1  24
ATOM     24  C   UNL     1       4.477   1.354  -0.323  1.00  0.00     0.042 C 
BRANCH  24  25
ATOM     25  C   UNL     1       5.167   2.452  -1.127  1.00  0.00     0.118 C 
BRANCH  25  26
ATOM     26  N   UNL     1       6.136   3.197  -0.338  1.00  0.00    -0.352 N 
ATOM     27  C   UNL     1       7.496   3.295  -0.486  1.00  0.00     0.251 C 
ATOM     28  H   UNL     1       5.758   3.707   0.415  1.00  0.00     0.163 HD
ATOM     29  O   UNL     1       8.172   3.813   0.402  1.00  0.00    -0.269 OA
BRANCH  27  30
ATOM     30  C   UNL     1       8.160   2.757  -1.692  1.00  0.00     0.039 A 
ATOM     31  C   UNL     1       9.327   2.004  -1.540  1.00  0.00     0.014 A 
ATOM     32  C   UNL     1       7.642   2.994  -2.969  1.00  0.00     0.014 A 
ATOM     33  C   UNL     1       9.926   1.417  -2.658  1.00  0.00     0.010 A 
ATOM     34  C   UNL     1       8.199   2.351  -4.072  1.00  0.00     0.010 A 
ATOM     35  C   UNL     1       9.338   1.545  -3.926  1.00  0.00    -0.014 A 
BRANCH  35  36
ATOM     36  C   UNL     1       9.869   0.808  -5.103  1.00  0.00     0.031 A 
ATOM     37  C   UNL     1      10.408   1.556  -6.290  1.00  0.00     0.074 A 
ATOM     38  C   UNL     1       9.777  -0.537  -5.136  1.00  0.00     0.049 A 
ATOM     39  N   UNL     1      10.806   1.092  -7.448  1.00  0.00    -0.248 NA
ATOM     40  C   UNL     1      10.491   3.020  -6.171  1.00  0.00     0.031 C 
ATOM     41  C   UNL     1       9.236  -1.373  -4.063  1.00  0.00     0.029 A 
ATOM     42  N   UNL     1      10.113  -1.438  -6.118  1.00  0.00    -0.354 N 
ATOM     43  C   UNL     1      11.162   2.204  -8.200  1.00  0.00     0.074 A 
ATOM     44  C   UNL     1      10.906   3.369  -7.381  1.00  0.00     0.031 C 
ATOM     45  C   UNL     1       9.281  -2.661  -4.441  1.00  0.00     0.029 A 
ATOM     46  C   UNL     1       9.805  -2.739  -5.801  1.00  0.00     0.049 A 
ATOM     47  H   UNL     1      10.534  -1.175  -6.968  1.00  0.00     0.167 HD
ATOM     48  C   UNL     1      11.667   2.244  -9.456  1.00  0.00     0.037 A 
ATOM     49  C   UNL     1       9.904  -3.866  -6.533  1.00  0.00     0.037 A 
ATOM     50  C   UNL     1      11.952   1.079 -10.252  1.00  0.00     0.049 A 
ATOM     51  C   UNL     1      10.445  -3.783  -7.936  1.00  0.00     0.074 A 
ATOM     52  C   UNL     1      12.561   1.014 -11.493  1.00  0.00     0.029 A 
ATOM     53  N   UNL     1      11.636  -0.223  -9.893  1.00  0.00    -0.354 N 
ATOM     54  N   UNL     1      10.874  -2.736  -8.597  1.00  0.00    -0.248 NA
ATOM     55  C   UNL     1      10.513  -5.039  -8.698  1.00  0.00     0.031 C 
ATOM     56  C   UNL     1      12.550  -0.318 -11.916  1.00  0.00     0.029 A 
ATOM     57  C   UNL     1      11.992  -1.091 -10.912  1.00  0.00     0.049 A 
ATOM     58  H   UNL     1      11.221  -0.489  -9.041  1.00  0.00     0.167 HD
ATOM     59  C   UNL     1      11.283  -3.208  -9.837  1.00  0.00     0.074 A 
ATOM     60  C   UNL     1      11.072  -4.639  -9.831  1.00  0.00     0.031 C 
ATOM     61  C   UNL     1      11.784  -2.516 -10.889  1.00  0.00     0.037 A 
BRANCH  48  62
ATOM     62  C   UNL     1      11.945   3.586 -10.067  1.00  0.00     0.064 A 
ATOM     63  C   UNL     1      13.012   4.388  -9.637  1.00  0.00     0.173 A 
ATOM     64  C   UNL     1      11.187   4.032 -11.162  1.00  0.00     0.173 A 
ATOM     65  F   UNL     1      13.763   4.011  -8.592  1.00  0.00    -0.203 F 
ATOM     66  C   UNL     1      13.301   5.594 -10.272  1.00  0.00     0.198 A 
ATOM     67  C   UNL     1      11.497   5.223 -11.812  1.00  0.00     0.198 A 
ATOM     68  F   UNL     1      10.161   3.297 -11.618  1.00  0.00    -0.203 F 
ATOM     69  F   UNL     1      14.307   6.359  -9.826  1.00  0.00    -0.200 F 
ATOM     70  C   UNL     1      12.551   6.005 -11.364  1.00  0.00     0.200 A 
ATOM     71  F   UNL     1      10.782   5.609 -12.877  1.00  0.00    -0.200 F 
ATOM     72  F   UNL     1      12.845   7.154 -11.987  1.00  0.00    -0.200 F 
ENDBRANCH  48  62
BRANCH  49  73
ATOM     73  C   UNL     1       9.461  -5.171  -5.971  1.00  0.00     0.064 A 
ATOM     74  C   UNL     1      10.379  -6.203  -5.731  1.00  0.00     0.173 A 
ATOM     75  C   UNL     1       8.108  -5.428  -5.701  1.00  0.00     0.173 A 
ATOM     76  F   UNL     1      11.681  -6.016  -5.993  1.00  0.00    -0.203 F 
ATOM     77  C   UNL     1       9.957  -7.452  -5.277  1.00  0.00     0.198 A 
ATOM     78  C   UNL     1       7.693  -6.665  -5.213  1.00  0.00     0.198 A 
ATOM     79  F   UNL     1       7.188  -4.475  -5.908  1.00  0.00    -0.203 F 
ATOM     80  F   UNL     1      10.848  -8.440  -5.120  1.00  0.00    -0.200 F 
ATOM     81  C   UNL     1       8.615  -7.681  -5.015  1.00  0.00     0.200 A 
ATOM     82  F   UNL     1       6.397  -6.876  -4.946  1.00  0.00    -0.200 F 
ATOM     83  F   UNL     1       8.210  -8.883  -4.584  1.00  0.00    -0.200 F 
ENDBRANCH  49  73
BRANCH  61  84
ATOM     84  C   UNL     1      12.162  -3.295 -12.115  1.00  0.00     0.064 A 
ATOM     85  C   UNL     1      11.191  -3.850 -12.960  1.00  0.00     0.173 A 
ATOM     86  C   UNL     1      13.510  -3.433 -12.482  1.00  0.00     0.173 A 
ATOM     87  F   UNL     1       9.890  -3.760 -12.644  1.00  0.00    -0.203 F 
ATOM     88  C   UNL     1      11.555  -4.529 -14.120  1.00  0.00     0.198 A 
ATOM     89  C   UNL     1      13.868  -4.084 -13.659  1.00  0.00     0.198 A 
ATOM     90  F   UNL     1      14.478  -2.916 -11.711  1.00  0.00    -0.203 F 
ATOM     91  F   UNL     1      10.612  -5.086 -14.892  1.00  0.00    -0.200 F 
ATOM     92  C   UNL     1      12.892  -4.636 -14.474  1.00  0.00     0.200 A 
ATOM     93  F   UNL     1      15.160  -4.172 -14.007  1.00  0.00    -0.200 F 
ATOM     94  F   UNL     1      13.239  -5.274 -15.600  1.00  0.00    -0.200 F 
ENDBRANCH  61  84
ENDBRANCH  35  36
ENDBRANCH  27  30
ENDBRANCH  25  26
ENDBRANCH  24  25
ENDBRANCH   1  24
TORSDOF 14
