REMARK SMILES Cc1n[nH]c(C(=O)NCCCNC(=O)c2ccc(-c3c4nc(c(-c5c(F)c(F)c(F)c(F)c5F)c5ccc([nH]5)c(-c5c(F)c(F)c(F)c(F)c5F)c5nc(c(-c6c(F)c(F)c(F)c(F)c6F)c6ccc3[nH]6)C=C5)C=C4)cc2)c1Br
REMARK SMILES IDX 11 1 10 2 9 3 8 4 6 5 7 6 5 8 1 9 2 10 3 11 78 12 4 13 79 14
REMARK SMILES IDX 12 16 13 17 14 19 15 20 16 21 77 22 17 23 76 24 18 25 19 26
REMARK SMILES IDX 20 27 70 28 21 29 75 30 69 31 71 32 22 33 74 34 68 35 67 36
REMARK SMILES IDX 23 38 55 39 35 40 54 41 36 42 39 43 53 44 72 45 37 46 38 47
REMARK SMILES IDX 52 49 73 50 40 51 24 52 25 53 33 54 26 55 27 56 31 57 34 58
REMARK SMILES IDX 28 59 29 60 32 61 30 62 56 63 57 64 65 65 58 66 59 67 63 68
REMARK SMILES IDX 66 69 60 70 61 71 64 72 62 73 41 74 42 75 50 76 43 77 44 78
REMARK SMILES IDX 48 79 51 80 45 81 46 82 49 83 47 84
REMARK H PARENT 8 7 4 15 12 18 71 37 39 48
REMARK Flexibility Score: inf
ROOT
ATOM      1  C   UNL     1      -1.491  -5.386  -5.736  1.00  0.00     0.118 C 
ENDROOT
BRANCH   1   2
ATOM      2  C   UNL     1      -0.758  -4.847  -4.515  1.00  0.00     0.042 C 
BRANCH   2   3
ATOM      3  C   UNL     1       0.245  -3.748  -4.887  1.00  0.00     0.118 C 
BRANCH   3   4
ATOM      4  N   UNL     1      -0.411  -2.475  -5.143  1.00  0.00    -0.351 N 
ATOM      5  C   UNL     1      -0.570  -1.328  -4.404  1.00  0.00     0.270 C 
ATOM      6  O   UNL     1      -1.121  -0.399  -4.995  1.00  0.00    -0.267 OA
ATOM      7  H   UNL     1      -0.830  -2.425  -6.033  1.00  0.00     0.163 HD
BRANCH   5   8
ATOM      8  C   UNL     1      -0.106  -1.228  -3.045  1.00  0.00     0.137 A 
ATOM      9  C   UNL     1       1.079   0.221   0.150  1.00  0.00     0.070 C 
ATOM     10  C   UNL     1       0.611  -0.552  -1.026  1.00  0.00     0.074 A 
ATOM     11  N   UNL     1       0.629  -1.890  -0.984  1.00  0.00    -0.179 NA
ATOM     12  C   UNL     1       0.132  -0.102  -2.276  1.00  0.00     0.071 A 
ATOM     13  N   UNL     1       0.142  -2.256  -2.178  1.00  0.00    -0.272 N 
ATOM     14  Br  UNL     1      -0.077   1.703  -2.748  1.00  0.00    -0.046 Br
ATOM     15  H   UNL     1      -0.025  -3.197  -2.414  1.00  0.00     0.190 HD
ENDBRANCH   5   8
ENDBRANCH   3   4
ENDBRANCH   2   3
ENDBRANCH   1   2
BRANCH   1  16
ATOM     16  N   UNL     1      -0.623  -6.160  -6.635  1.00  0.00    -0.352 N 
ATOM     17  C   UNL     1      -0.942  -6.784  -7.834  1.00  0.00     0.251 C 
ATOM     18  H   UNL     1       0.315  -6.248  -6.347  1.00  0.00     0.163 HD
ATOM     19  O   UNL     1      -0.224  -7.642  -8.310  1.00  0.00    -0.269 OA
BRANCH  17  20
ATOM     20  C   UNL     1      -2.177  -6.371  -8.524  1.00  0.00     0.039 A 
ATOM     21  C   UNL     1      -3.020  -7.275  -9.177  1.00  0.00     0.014 A 
ATOM     22  C   UNL     1      -2.501  -5.026  -8.452  1.00  0.00     0.014 A 
ATOM     23  C   UNL     1      -4.230  -6.805  -9.688  1.00  0.00     0.010 A 
ATOM     24  C   UNL     1      -3.780  -4.634  -8.700  1.00  0.00     0.010 A 
ATOM     25  C   UNL     1      -4.602  -5.478  -9.428  1.00  0.00    -0.014 A 
BRANCH  25  26
ATOM     26  C   UNL     1      -5.874  -4.916  -9.853  1.00  0.00     0.031 A 
ATOM     27  C   UNL     1      -7.067  -5.617  -9.319  1.00  0.00     0.074 A 
ATOM     28  C   UNL     1      -5.938  -3.703 -10.449  1.00  0.00     0.049 A 
ATOM     29  N   UNL     1      -7.961  -6.271  -9.981  1.00  0.00    -0.248 NA
ATOM     30  C   UNL     1      -7.213  -5.723  -7.857  1.00  0.00     0.031 C 
ATOM     31  C   UNL     1      -4.845  -2.755 -10.721  1.00  0.00     0.029 A 
ATOM     32  N   UNL     1      -7.032  -3.001 -10.843  1.00  0.00    -0.354 N 
ATOM     33  C   UNL     1      -8.894  -6.703  -9.042  1.00  0.00     0.074 A 
ATOM     34  C   UNL     1      -8.287  -6.509  -7.752  1.00  0.00     0.031 C 
ATOM     35  C   UNL     1      -5.352  -1.536 -11.006  1.00  0.00     0.029 A 
ATOM     36  C   UNL     1      -6.789  -1.662 -11.128  1.00  0.00     0.049 A 
ATOM     37  H   UNL     1      -7.925  -3.407 -10.921  1.00  0.00     0.167 HD
ATOM     38  C   UNL     1     -10.185  -6.946  -9.403  1.00  0.00     0.037 A 
ATOM     39  C   UNL     1      -7.714  -0.718 -11.429  1.00  0.00     0.037 A 
ATOM     40  C   UNL     1     -10.303  -7.045 -10.837  1.00  0.00     0.049 A 
ATOM     41  C   UNL     1      -8.943  -1.435 -11.848  1.00  0.00     0.074 A 
ATOM     42  C   UNL     1      -9.803  -7.899 -11.800  1.00  0.00     0.029 A 
ATOM     43  N   UNL     1     -10.719  -5.923 -11.509  1.00  0.00    -0.354 N 
ATOM     44  N   UNL     1      -9.022  -2.160 -12.930  1.00  0.00    -0.248 NA
ATOM     45  C   UNL     1      -9.929  -1.734 -10.822  1.00  0.00     0.031 C 
ATOM     46  C   UNL     1      -9.519  -7.065 -12.923  1.00  0.00     0.029 A 
ATOM     47  C   UNL     1      -9.923  -5.764 -12.614  1.00  0.00     0.049 A 
ATOM     48  H   UNL     1     -11.461  -5.333 -11.243  1.00  0.00     0.167 HD
ATOM     49  C   UNL     1      -9.764  -3.272 -12.557  1.00  0.00     0.074 A 
ATOM     50  C   UNL     1     -10.374  -2.907 -11.280  1.00  0.00     0.031 C 
ATOM     51  C   UNL     1      -9.574  -4.477 -13.173  1.00  0.00     0.037 A 
BRANCH  38  52
ATOM     52  C   UNL     1     -11.390  -6.701  -8.524  1.00  0.00     0.064 A 
ATOM     53  C   UNL     1     -12.663  -7.091  -8.993  1.00  0.00     0.173 A 
ATOM     54  C   UNL     1     -11.397  -5.841  -7.405  1.00  0.00     0.173 A 
ATOM     55  F   UNL     1     -12.781  -7.901 -10.056  1.00  0.00    -0.203 F 
ATOM     56  C   UNL     1     -13.842  -6.582  -8.443  1.00  0.00     0.198 A 
ATOM     57  C   UNL     1     -12.577  -5.378  -6.824  1.00  0.00     0.198 A 
ATOM     58  F   UNL     1     -10.276  -5.320  -6.894  1.00  0.00    -0.203 F 
ATOM     59  F   UNL     1     -15.021  -6.876  -9.008  1.00  0.00    -0.200 F 
ATOM     60  C   UNL     1     -13.798  -5.719  -7.364  1.00  0.00     0.200 A 
ATOM     61  F   UNL     1     -12.512  -4.530  -5.789  1.00  0.00    -0.200 F 
ATOM     62  F   UNL     1     -14.922  -5.177  -6.877  1.00  0.00    -0.200 F 
ENDBRANCH  38  52
BRANCH  39  63
ATOM     63  C   UNL     1      -7.701   0.716 -11.061  1.00  0.00     0.064 A 
ATOM     64  C   UNL     1      -8.476   1.659 -11.751  1.00  0.00     0.173 A 
ATOM     65  C   UNL     1      -7.130   1.141  -9.844  1.00  0.00     0.173 A 
ATOM     66  F   UNL     1      -9.096   1.315 -12.889  1.00  0.00    -0.203 F 
ATOM     67  C   UNL     1      -8.679   2.950 -11.248  1.00  0.00     0.198 A 
ATOM     68  C   UNL     1      -7.331   2.428  -9.344  1.00  0.00     0.198 A 
ATOM     69  F   UNL     1      -6.446   0.282  -9.074  1.00  0.00    -0.203 F 
ATOM     70  F   UNL     1      -9.469   3.808 -11.908  1.00  0.00    -0.200 F 
ATOM     71  C   UNL     1      -8.114   3.330 -10.041  1.00  0.00     0.200 A 
ATOM     72  F   UNL     1      -6.817   2.768  -8.154  1.00  0.00    -0.200 F 
ATOM     73  F   UNL     1      -8.357   4.545  -9.531  1.00  0.00    -0.200 F 
ENDBRANCH  39  63
BRANCH  51  74
ATOM     74  C   UNL     1      -8.749  -4.490 -14.434  1.00  0.00     0.064 A 
ATOM     75  C   UNL     1      -7.379  -4.175 -14.489  1.00  0.00     0.173 A 
ATOM     76  C   UNL     1      -9.339  -4.978 -15.606  1.00  0.00     0.173 A 
ATOM     77  F   UNL     1      -6.714  -3.794 -13.394  1.00  0.00    -0.203 F 
ATOM     78  C   UNL     1      -6.649  -4.305 -15.670  1.00  0.00     0.198 A 
ATOM     79  C   UNL     1      -8.601  -5.142 -16.775  1.00  0.00     0.198 A 
ATOM     80  F   UNL     1     -10.629  -5.348 -15.603  1.00  0.00    -0.203 F 
ATOM     81  F   UNL     1      -5.346  -3.988 -15.695  1.00  0.00    -0.200 F 
ATOM     82  C   UNL     1      -7.260  -4.796 -16.811  1.00  0.00     0.200 A 
ATOM     83  F   UNL     1      -9.185  -5.665 -17.862  1.00  0.00    -0.200 F 
ATOM     84  F   UNL     1      -6.551  -4.961 -17.936  1.00  0.00    -0.200 F 
ENDBRANCH  51  74
ENDBRANCH  25  26
ENDBRANCH  17  20
ENDBRANCH   1  16
TORSDOF 10
