REMARK SMILES CC(C)[NH2+][C@]1(C(=O)NCCCNC(=O)c2ccc(-c3c4nc(c(-c5c(F)c(F)c(F)c(F)c5F)c5ccc([nH]5)c(-c5c(F)c(F)c(F)c(F)c5F)c5nc(c(-c6c(F)c(F)c(F)c(F)c6F)c6ccc3[nH]6)C=C5)C=C4)cc2)CCC[C@@H](Sc2ccc(Cl)cc2)C1
REMARK SMILES IDX 10 1 9 2 8 3 6 4 7 5 5 7 78 8 90 9 79 10 81 11 80 12 4 13
REMARK SMILES IDX 2 16 1 17 3 18 82 19 83 20 84 21 89 22 85 23 88 24 86 25
REMARK SMILES IDX 87 26 11 27 12 28 13 29 14 31 15 32 16 33 77 34 17 35 76 36
REMARK SMILES IDX 18 37 19 38 20 39 70 40 21 41 75 42 69 43 71 44 22 45 74 46
REMARK SMILES IDX 68 47 67 48 23 50 55 51 35 52 54 53 36 54 39 55 53 56 72 57
REMARK SMILES IDX 37 58 38 59 52 61 73 62 40 63 24 64 25 65 33 66 26 67 27 68
REMARK SMILES IDX 31 69 34 70 28 71 29 72 32 73 30 74 56 75 57 76 65 77 58 78
REMARK SMILES IDX 59 79 63 80 66 81 60 82 61 83 64 84 62 85 41 86 42 87 50 88
REMARK SMILES IDX 43 89 44 90 48 91 51 92 45 93 46 94 49 95 47 96
REMARK H PARENT 8 6 4 14 4 15 12 30 71 49 39 60
REMARK Flexibility Score: inf
ROOT
ATOM      1  C   UNL     1      -1.387   0.842  -2.430  1.00  0.00     0.042 C 
ENDROOT
BRANCH   1   2
ATOM      2  C   UNL     1      -0.553  -0.450  -2.344  1.00  0.00     0.118 C 
BRANCH   2   3
ATOM      3  N   UNL     1      -0.205  -0.716  -0.965  1.00  0.00    -0.351 N 
ATOM      4  C   UNL     1      -0.690  -1.528  -0.001  1.00  0.00     0.281 C 
ATOM      5  O   UNL     1      -0.265  -1.212   1.125  1.00  0.00    -0.268 OA
ATOM      6  H   UNL     1       0.563  -0.181  -0.659  1.00  0.00     0.163 HD
BRANCH   4   7
ATOM      7  C   UNL     1      -1.536  -2.844  -0.167  1.00  0.00     0.176 C 
ATOM      8  C   UNL     1      -0.507  -3.980  -0.481  1.00  0.00     0.079 C 
ATOM      9  C   UNL     1      -2.147  -3.158   1.235  1.00  0.00     0.094 C 
ATOM     10  C   UNL     1      -1.036  -5.408  -0.268  1.00  0.00     0.008 C 
ATOM     11  C   UNL     1      -2.685  -4.572   1.431  1.00  0.00     0.058 C 
ATOM     12  C   UNL     1      -1.611  -5.617   1.134  1.00  0.00     0.015 C 
BRANCH   7  13
ATOM     13  N   UNL     1      -2.534  -2.900  -1.259  1.00  0.00    -0.332 N 
ATOM     14  H   UNL     1      -1.999  -3.031  -2.117  1.00  0.00     0.347 HD
ATOM     15  H   UNL     1      -3.158  -3.630  -0.914  1.00  0.00     0.347 HD
BRANCH  13  16
ATOM     16  C   UNL     1      -3.488  -1.836  -1.548  1.00  0.00     0.176 C 
ATOM     17  C   UNL     1      -4.451  -2.353  -2.627  1.00  0.00     0.075 C 
ATOM     18  C   UNL     1      -4.265  -1.232  -0.391  1.00  0.00     0.075 C 
ENDBRANCH  13  16
ENDBRANCH   7  13
BRANCH  11  19
ATOM     19  S   UNL     1      -3.476  -4.795   3.094  1.00  0.00    -0.122 SA
BRANCH  19  20
ATOM     20  C   UNL     1      -2.123  -4.696   4.258  1.00  0.00     0.008 A 
ATOM     21  C   UNL     1      -1.790  -5.835   5.003  1.00  0.00     0.016 A 
ATOM     22  C   UNL     1      -1.464  -3.494   4.540  1.00  0.00     0.016 A 
ATOM     23  C   UNL     1      -0.785  -5.784   5.976  1.00  0.00     0.021 A 
ATOM     24  C   UNL     1      -0.442  -3.444   5.494  1.00  0.00     0.021 A 
ATOM     25  C   UNL     1      -0.107  -4.590   6.209  1.00  0.00     0.041 A 
ATOM     26  Cl  UNL     1       1.132  -4.526   7.401  1.00  0.00    -0.084 Cl
ENDBRANCH  19  20
ENDBRANCH  11  19
ENDBRANCH   4   7
ENDBRANCH   2   3
ENDBRANCH   1   2
BRANCH   1  27
ATOM     27  C   UNL     1      -0.553   2.122  -2.445  1.00  0.00     0.118 C 
BRANCH  27  28
ATOM     28  N   UNL     1       0.166   2.272  -3.702  1.00  0.00    -0.352 N 
ATOM     29  C   UNL     1       0.048   3.218  -4.686  1.00  0.00     0.251 C 
ATOM     30  H   UNL     1       0.848   1.583  -3.872  1.00  0.00     0.163 HD
ATOM     31  O   UNL     1       0.538   2.993  -5.794  1.00  0.00    -0.269 OA
BRANCH  29  32
ATOM     32  C   UNL     1      -0.643   4.504  -4.444  1.00  0.00     0.039 A 
ATOM     33  C   UNL     1      -1.359   5.092  -5.493  1.00  0.00     0.014 A 
ATOM     34  C   UNL     1      -0.519   5.179  -3.228  1.00  0.00     0.014 A 
ATOM     35  C   UNL     1      -1.977   6.332  -5.312  1.00  0.00     0.010 A 
ATOM     36  C   UNL     1      -1.200   6.377  -3.022  1.00  0.00     0.010 A 
ATOM     37  C   UNL     1      -1.921   6.976  -4.066  1.00  0.00    -0.014 A 
BRANCH  37  38
ATOM     38  C   UNL     1      -2.583   8.287  -3.840  1.00  0.00     0.031 A 
ATOM     39  C   UNL     1      -1.758   9.494  -3.480  1.00  0.00     0.074 A 
ATOM     40  C   UNL     1      -3.926   8.374  -3.888  1.00  0.00     0.049 A 
ATOM     41  N   UNL     1      -2.149  10.695  -3.136  1.00  0.00    -0.248 NA
ATOM     42  C   UNL     1      -0.297   9.316  -3.471  1.00  0.00     0.031 C 
ATOM     43  C   UNL     1      -4.835   7.264  -4.179  1.00  0.00     0.029 A 
ATOM     44  N   UNL     1      -4.763   9.441  -3.679  1.00  0.00    -0.354 N 
ATOM     45  C   UNL     1      -0.989  11.401  -2.843  1.00  0.00     0.074 A 
ATOM     46  C   UNL     1       0.117  10.482  -2.998  1.00  0.00     0.031 C 
ATOM     47  C   UNL     1      -6.100   7.712  -4.152  1.00  0.00     0.029 A 
ATOM     48  C   UNL     1      -6.095   9.129  -3.802  1.00  0.00     0.049 A 
ATOM     49  H   UNL     1      -4.439  10.345  -3.461  1.00  0.00     0.167 HD
ATOM     50  C   UNL     1      -0.856  12.705  -2.501  1.00  0.00     0.037 A 
ATOM     51  C   UNL     1      -7.188   9.899  -3.643  1.00  0.00     0.037 A 
ATOM     52  C   UNL     1      -1.958  13.625  -2.393  1.00  0.00     0.049 A 
ATOM     53  C   UNL     1      -7.012  11.349  -3.283  1.00  0.00     0.074 A 
ATOM     54  C   UNL     1      -1.929  14.980  -2.117  1.00  0.00     0.029 A 
ATOM     55  N   UNL     1      -3.291  13.279  -2.564  1.00  0.00    -0.354 N 
ATOM     56  N   UNL     1      -5.906  12.020  -3.066  1.00  0.00    -0.248 NA
ATOM     57  C   UNL     1      -8.236  12.152  -3.152  1.00  0.00     0.031 C 
ATOM     58  C   UNL     1      -3.247  15.447  -2.084  1.00  0.00     0.029 A 
ATOM     59  C   UNL     1      -4.094  14.393  -2.386  1.00  0.00     0.049 A 
ATOM     60  H   UNL     1      -3.617  12.376  -2.780  1.00  0.00     0.167 HD
ATOM     61  C   UNL     1      -6.297  13.326  -2.804  1.00  0.00     0.074 A 
ATOM     62  C   UNL     1      -7.742  13.357  -2.904  1.00  0.00     0.031 C 
ATOM     63  C   UNL     1      -5.530  14.403  -2.504  1.00  0.00     0.037 A 
BRANCH  50  64
ATOM     64  C   UNL     1       0.530  13.218  -2.228  1.00  0.00     0.064 A 
ATOM     65  C   UNL     1       1.480  13.355  -3.252  1.00  0.00     0.173 A 
ATOM     66  C   UNL     1       0.905  13.608  -0.933  1.00  0.00     0.173 A 
ATOM     67  F   UNL     1       1.178  12.987  -4.507  1.00  0.00    -0.203 F 
ATOM     68  C   UNL     1       2.761  13.831  -2.985  1.00  0.00     0.198 A 
ATOM     69  C   UNL     1       2.177  14.114  -0.675  1.00  0.00     0.198 A 
ATOM     70  F   UNL     1       0.035  13.505   0.083  1.00  0.00    -0.203 F 
ATOM     71  F   UNL     1       3.667  13.902  -3.971  1.00  0.00    -0.200 F 
ATOM     72  C   UNL     1       3.106  14.217  -1.699  1.00  0.00     0.200 A 
ATOM     73  F   UNL     1       2.504  14.500   0.566  1.00  0.00    -0.200 F 
ATOM     74  F   UNL     1       4.337  14.681  -1.445  1.00  0.00    -0.200 F 
ENDBRANCH  50  64
BRANCH  51  75
ATOM     75  C   UNL     1      -8.542   9.322  -3.852  1.00  0.00     0.064 A 
ATOM     76  C   UNL     1      -9.323   9.705  -4.952  1.00  0.00     0.173 A 
ATOM     77  C   UNL     1      -9.085   8.384  -2.963  1.00  0.00     0.173 A 
ATOM     78  F   UNL     1      -8.855  10.613  -5.821  1.00  0.00    -0.203 F 
ATOM     79  C   UNL     1     -10.603   9.189  -5.142  1.00  0.00     0.198 A 
ATOM     80  C   UNL     1     -10.354   7.846  -3.170  1.00  0.00     0.198 A 
ATOM     81  F   UNL     1      -8.377   7.978  -1.899  1.00  0.00    -0.203 F 
ATOM     82  F   UNL     1     -11.345   9.608  -6.176  1.00  0.00    -0.200 F 
ATOM     83  C   UNL     1     -11.116   8.256  -4.254  1.00  0.00     0.200 A 
ATOM     84  F   UNL     1     -10.840   6.933  -2.318  1.00  0.00    -0.200 F 
ATOM     85  F   UNL     1     -12.345   7.757  -4.439  1.00  0.00    -0.200 F 
ENDBRANCH  51  75
BRANCH  63  86
ATOM     86  C   UNL     1      -6.235  15.712  -2.304  1.00  0.00     0.064 A 
ATOM     87  C   UNL     1      -7.008  15.965  -1.162  1.00  0.00     0.173 A 
ATOM     88  C   UNL     1      -6.101  16.740  -3.250  1.00  0.00     0.173 A 
ATOM     89  F   UNL     1      -7.178  15.008  -0.237  1.00  0.00    -0.203 F 
ATOM     90  C   UNL     1      -7.642  17.192  -0.986  1.00  0.00     0.198 A 
ATOM     91  C   UNL     1      -6.712  17.975  -3.056  1.00  0.00     0.198 A 
ATOM     92  F   UNL     1      -5.367  16.549  -4.357  1.00  0.00    -0.203 F 
ATOM     93  F   UNL     1      -8.415  17.395   0.090  1.00  0.00    -0.200 F 
ATOM     94  C   UNL     1      -7.487  18.197  -1.928  1.00  0.00     0.200 A 
ATOM     95  F   UNL     1      -6.550  18.950  -3.961  1.00  0.00    -0.200 F 
ATOM     96  F   UNL     1      -8.092  19.380  -1.753  1.00  0.00    -0.200 F 
ENDBRANCH  63  86
ENDBRANCH  37  38
ENDBRANCH  29  32
ENDBRANCH  27  28
ENDBRANCH   1  27
TORSDOF 14
