REMARK SMILES CC[C@@H](Sc1cccc(N)c1)C(=O)NCCCNC(=O)c1ccc(-c2c3nc(c(-c4c(F)c(F)c(F)c(F)c4F)c4ccc([nH]4)c(-c4c(F)c(F)c(F)c(F)c4F)c4nc(c(-c5c(F)c(F)c(F)c(F)c5F)c5ccc2[nH]5)C=C4)C=C3)cc1
REMARK SMILES IDX 15 1 14 2 12 3 13 4 3 6 2 7 1 8 4 9 5 10 6 11 11 12 7 13
REMARK SMILES IDX 9 14 8 15 10 16 16 19 17 20 18 21 19 22 20 24 21 25 22 26
REMARK SMILES IDX 83 27 23 28 82 29 24 30 25 31 26 32 76 33 27 34 81 35 75 36
REMARK SMILES IDX 77 37 28 38 80 39 74 40 73 41 29 43 61 44 41 45 60 46 42 47
REMARK SMILES IDX 45 48 59 49 78 50 43 51 44 52 58 54 79 55 46 56 30 57 31 58
REMARK SMILES IDX 39 59 32 60 33 61 37 62 40 63 34 64 35 65 38 66 36 67 62 68
REMARK SMILES IDX 63 69 71 70 64 71 65 72 69 73 72 74 66 75 67 76 70 77 68 78
REMARK SMILES IDX 47 79 48 80 56 81 49 82 50 83 54 84 57 85 51 86 52 87 55 88
REMARK SMILES IDX 53 89
REMARK H PARENT 14 5 10 17 10 18 18 23 77 42 45 53
REMARK Flexibility Score: inf
ROOT
ATOM      1  C   UNL     1      -1.859   2.869   0.883  1.00  0.00     0.117 C 
ENDROOT
BRANCH   1   2
ATOM      2  N   UNL     1      -0.717   3.444   1.576  1.00  0.00    -0.355 N 
ATOM      3  C   UNL     1       0.623   3.277   1.353  1.00  0.00     0.233 C 
ATOM      4  O   UNL     1       1.401   3.937   2.049  1.00  0.00    -0.274 OA
ATOM      5  H   UNL     1      -0.944   4.047   2.321  1.00  0.00     0.163 HD
BRANCH   3   6
ATOM      6  C   UNL     1       1.147   2.256   0.329  1.00  0.00     0.140 C 
BRANCH   6   7
ATOM      7  C   UNL     1       0.769   0.843   0.804  1.00  0.00     0.021 C 
ATOM      8  C   UNL     1       1.880  -0.178   0.588  1.00  0.00     0.005 C 
ENDBRANCH   6   7
BRANCH   6   9
ATOM      9  S   UNL     1       0.601   2.848  -1.353  1.00  0.00    -0.113 SA
BRANCH   9  10
ATOM     10  C   UNL     1       1.063   1.556  -2.479  1.00  0.00     0.010 A 
ATOM     11  C   UNL     1       1.938   1.867  -3.522  1.00  0.00     0.015 A 
ATOM     12  C   UNL     1       0.476   0.286  -2.447  1.00  0.00     0.040 A 
ATOM     13  C   UNL     1       2.250   0.910  -4.486  1.00  0.00     0.003 A 
ATOM     14  C   UNL     1       0.849  -0.710  -3.352  1.00  0.00     0.032 A 
ATOM     15  C   UNL     1       1.709  -0.373  -4.397  1.00  0.00     0.025 A 
BRANCH  14  16
ATOM     16  N   UNL     1       0.264  -1.967  -3.294  1.00  0.00    -0.399 N 
ATOM     17  H   UNL     1       0.531  -2.664  -3.935  1.00  0.00     0.156 HD
ATOM     18  H   UNL     1      -0.419  -2.160  -2.612  1.00  0.00     0.156 HD
ENDBRANCH  14  16
ENDBRANCH   9  10
ENDBRANCH   6   9
ENDBRANCH   3   6
ENDBRANCH   1   2
BRANCH   1  19
ATOM     19  C   UNL     1      -2.715   1.993   1.783  1.00  0.00     0.042 C 
BRANCH  19  20
ATOM     20  C   UNL     1      -3.449   2.756   2.874  1.00  0.00     0.118 C 
BRANCH  20  21
ATOM     21  N   UNL     1      -4.411   3.710   2.341  1.00  0.00    -0.352 N 
ATOM     22  C   UNL     1      -5.762   3.816   2.534  1.00  0.00     0.251 C 
ATOM     23  H   UNL     1      -4.027   4.391   1.742  1.00  0.00     0.163 HD
ATOM     24  O   UNL     1      -6.410   4.598   1.835  1.00  0.00    -0.269 OA
BRANCH  22  25
ATOM     25  C   UNL     1      -6.461   3.009   3.558  1.00  0.00     0.039 A 
ATOM     26  C   UNL     1      -7.758   2.561   3.286  1.00  0.00     0.014 A 
ATOM     27  C   UNL     1      -5.884   2.745   4.803  1.00  0.00     0.014 A 
ATOM     28  C   UNL     1      -8.459   1.827   4.245  1.00  0.00     0.010 A 
ATOM     29  C   UNL     1      -6.547   1.937   5.723  1.00  0.00     0.010 A 
ATOM     30  C   UNL     1      -7.852   1.495   5.465  1.00  0.00    -0.014 A 
BRANCH  30  31
ATOM     31  C   UNL     1      -8.592   0.746   6.511  1.00  0.00     0.031 A 
ATOM     32  C   UNL     1      -8.906   1.407   7.825  1.00  0.00     0.074 A 
ATOM     33  C   UNL     1      -8.939  -0.537   6.299  1.00  0.00     0.049 A 
ATOM     34  N   UNL     1      -9.493   0.911   8.885  1.00  0.00    -0.248 NA
ATOM     35  C   UNL     1      -8.472   2.805   7.981  1.00  0.00     0.031 C 
ATOM     36  C   UNL     1      -8.642  -1.305   5.090  1.00  0.00     0.029 A 
ATOM     37  N   UNL     1      -9.613  -1.423   7.101  1.00  0.00    -0.354 N 
ATOM     38  C   UNL     1      -9.479   1.926   9.834  1.00  0.00     0.074 A 
ATOM     39  C   UNL     1      -8.774   3.044   9.248  1.00  0.00     0.031 C 
ATOM     40  C   UNL     1      -9.148  -2.542   5.222  1.00  0.00     0.029 A 
ATOM     41  C   UNL     1      -9.784  -2.659   6.531  1.00  0.00     0.049 A 
ATOM     42  H   UNL     1      -9.943  -1.193   8.000  1.00  0.00     0.167 HD
ATOM     43  C   UNL     1     -10.030   1.937  11.071  1.00  0.00     0.037 A 
ATOM     44  C   UNL     1     -10.390  -3.761   7.011  1.00  0.00     0.037 A 
ATOM     45  C   UNL     1     -10.762   0.836  11.638  1.00  0.00     0.049 A 
ATOM     46  C   UNL     1     -11.037  -3.711   8.368  1.00  0.00     0.074 A 
ATOM     47  C   UNL     1     -11.395   0.757  12.866  1.00  0.00     0.029 A 
ATOM     48  N   UNL     1     -10.966  -0.381  11.004  1.00  0.00    -0.354 N 
ATOM     49  N   UNL     1     -11.066  -2.728   9.235  1.00  0.00    -0.248 NA
ATOM     50  C   UNL     1     -11.754  -4.917   8.804  1.00  0.00     0.031 C 
ATOM     51  C   UNL     1     -11.960  -0.517  12.986  1.00  0.00     0.029 A 
ATOM     52  C   UNL     1     -11.715  -1.218  11.816  1.00  0.00     0.049 A 
ATOM     53  H   UNL     1     -10.629  -0.616  10.109  1.00  0.00     0.167 HD
ATOM     54  C   UNL     1     -11.823  -3.184  10.305  1.00  0.00     0.074 A 
ATOM     55  C   UNL     1     -12.248  -4.528   9.972  1.00  0.00     0.031 C 
ATOM     56  C   UNL     1     -12.138  -2.548  11.460  1.00  0.00     0.037 A 
BRANCH  43  57
ATOM     57  C   UNL     1      -9.869   3.188  11.885  1.00  0.00     0.064 A 
ATOM     58  C   UNL     1     -10.533   4.376  11.542  1.00  0.00     0.173 A 
ATOM     59  C   UNL     1      -9.049   3.200  13.023  1.00  0.00     0.173 A 
ATOM     60  F   UNL     1     -11.316   4.422  10.454  1.00  0.00    -0.203 F 
ATOM     61  C   UNL     1     -10.354   5.538  12.287  1.00  0.00     0.198 A 
ATOM     62  C   UNL     1      -8.897   4.356  13.784  1.00  0.00     0.198 A 
ATOM     63  F   UNL     1      -8.394   2.091  13.397  1.00  0.00    -0.203 F 
ATOM     64  F   UNL     1     -10.953   6.675  11.906  1.00  0.00    -0.200 F 
ATOM     65  C   UNL     1      -9.541   5.526  13.410  1.00  0.00     0.200 A 
ATOM     66  F   UNL     1      -8.118   4.341  14.875  1.00  0.00    -0.200 F 
ATOM     67  F   UNL     1      -9.369   6.646  14.127  1.00  0.00    -0.200 F 
ENDBRANCH  43  57
BRANCH  44  68
ATOM     68  C   UNL     1     -10.452  -4.989   6.179  1.00  0.00     0.064 A 
ATOM     69  C   UNL     1     -11.656  -5.398   5.590  1.00  0.00     0.173 A 
ATOM     70  C   UNL     1      -9.310  -5.768   5.943  1.00  0.00     0.173 A 
ATOM     71  F   UNL     1     -12.778  -4.694   5.802  1.00  0.00    -0.203 F 
ATOM     72  C   UNL     1     -11.720  -6.551   4.811  1.00  0.00     0.198 A 
ATOM     73  C   UNL     1      -9.370  -6.907   5.143  1.00  0.00     0.198 A 
ATOM     74  F   UNL     1      -8.133  -5.412   6.477  1.00  0.00    -0.203 F 
ATOM     75  F   UNL     1     -12.892  -6.941   4.291  1.00  0.00    -0.200 F 
ATOM     76  C   UNL     1     -10.576  -7.301   4.583  1.00  0.00     0.200 A 
ATOM     77  F   UNL     1      -8.260  -7.621   4.914  1.00  0.00    -0.200 F 
ATOM     78  F   UNL     1     -10.637  -8.407   3.829  1.00  0.00    -0.200 F 
ENDBRANCH  44  68
BRANCH  56  79
ATOM     79  C   UNL     1     -13.014  -3.283  12.430  1.00  0.00     0.064 A 
ATOM     80  C   UNL     1     -12.531  -4.360  13.187  1.00  0.00     0.173 A 
ATOM     81  C   UNL     1     -14.344  -2.883  12.625  1.00  0.00     0.173 A 
ATOM     82  F   UNL     1     -11.270  -4.788  13.025  1.00  0.00    -0.203 F 
ATOM     83  C   UNL     1     -13.358  -5.027  14.087  1.00  0.00     0.198 A 
ATOM     84  C   UNL     1     -15.160  -3.535  13.544  1.00  0.00     0.198 A 
ATOM     85  F   UNL     1     -14.851  -1.854  11.928  1.00  0.00    -0.203 F 
ATOM     86  F   UNL     1     -12.891  -6.083  14.767  1.00  0.00    -0.200 F 
ATOM     87  C   UNL     1     -14.669  -4.611  14.269  1.00  0.00     0.200 A 
ATOM     88  F   UNL     1     -16.423  -3.126  13.727  1.00  0.00    -0.200 F 
ATOM     89  F   UNL     1     -15.462  -5.253  15.137  1.00  0.00    -0.200 F 
ENDBRANCH  56  79
ENDBRANCH  30  31
ENDBRANCH  22  25
ENDBRANCH  20  21
ENDBRANCH  19  20
ENDBRANCH   1  19
TORSDOF 14
