REMARK SMILES CN(Cc1ccccc1Br)C(=O)N[C@H]1C=C[C@H](C(=O)NCCCNC(=O)c2ccc(-c3c4nc(c(-c5c(F)c(F)c(F)c(F)c5F)c5ccc([nH]5)c(-c5c(F)c(F)c(F)c(F)c5F)c5nc(c(-c6c(F)c(F)c(F)c(F)c6F)c6ccc3[nH]6)C=C5)C=C4)cc2)C1
REMARK SMILES IDX 21 1 20 2 18 3 19 4 17 6 14 7 15 8 90 9 16 10 13 11 11 12
REMARK SMILES IDX 12 13 2 15 1 16 3 17 4 18 5 19 9 20 6 21 8 22 10 23 7 24
REMARK SMILES IDX 22 25 23 26 24 27 25 28 26 30 27 31 28 32 89 33 29 34 88 35
REMARK SMILES IDX 30 36 31 37 32 38 82 39 33 40 87 41 81 42 83 43 34 44 86 45
REMARK SMILES IDX 80 46 79 47 35 49 67 50 47 51 66 52 48 53 51 54 65 55 84 56
REMARK SMILES IDX 49 57 50 58 64 60 85 61 52 62 36 63 37 64 45 65 38 66 39 67
REMARK SMILES IDX 43 68 46 69 40 70 41 71 44 72 42 73 68 74 69 75 77 76 70 77
REMARK SMILES IDX 71 78 75 79 78 80 72 81 73 82 76 83 74 84 53 85 54 86 62 87
REMARK SMILES IDX 55 88 56 89 60 90 63 91 57 92 58 93 61 94 59 95
REMARK H PARENT 20 5 13 14 24 29 83 48 51 59
REMARK Flexibility Score: inf
ROOT
ATOM      1  C   UNL     1      -4.298   5.876   0.250  1.00  0.00     0.117 C 
ENDROOT
BRANCH   1   2
ATOM      2  N   UNL     1      -3.319   6.942   0.198  1.00  0.00    -0.356 N 
ATOM      3  C   UNL     1      -2.039   6.973   0.662  1.00  0.00     0.227 C 
ATOM      4  O   UNL     1      -1.286   7.774   0.093  1.00  0.00    -0.274 OA
ATOM      5  H   UNL     1      -3.625   7.770  -0.239  1.00  0.00     0.163 HD
BRANCH   3   6
ATOM      6  C   UNL     1      -1.530   6.192   1.897  1.00  0.00     0.103 C 
ATOM      7  C   UNL     1      -0.413   4.077   1.369  1.00  0.00     0.107 C 
ATOM      8  C   UNL     1      -1.648   3.861   2.181  1.00  0.00    -0.006 C 
ATOM      9  C   UNL     1      -0.142   5.567   1.627  1.00  0.00     0.047 C 
ATOM     10  C   UNL     1      -2.263   5.017   2.457  1.00  0.00    -0.016 C 
BRANCH   7  11
ATOM     11  N   UNL     1       0.633   3.206   1.849  1.00  0.00    -0.332 N 
ATOM     12  C   UNL     1       1.100   1.980   1.557  1.00  0.00     0.317 C 
ATOM     13  O   UNL     1       1.915   1.532   2.374  1.00  0.00    -0.249 OA
ATOM     14  H   UNL     1       1.139   3.620   2.586  1.00  0.00     0.165 HD
BRANCH  12  15
ATOM     15  N   UNL     1       0.725   1.243   0.467  1.00  0.00    -0.324 N 
ATOM     16  C   UNL     1       1.296  -0.099   0.393  1.00  0.00     0.149 C 
BRANCH  15  17
ATOM     17  C   UNL     1      -0.126   1.633  -0.662  1.00  0.00     0.157 C 
BRANCH  17  18
ATOM     18  C   UNL     1      -1.610   1.522  -0.367  1.00  0.00    -0.014 A 
ATOM     19  C   UNL     1      -2.078   0.531   0.518  1.00  0.00     0.007 A 
ATOM     20  C   UNL     1      -2.561   2.385  -0.937  1.00  0.00     0.022 A 
ATOM     21  C   UNL     1      -3.407   0.503   0.942  1.00  0.00     0.000 A 
ATOM     22  C   UNL     1      -3.893   2.359  -0.504  1.00  0.00     0.016 A 
ATOM     23  Br  UNL     1      -2.116   3.636  -2.301  1.00  0.00    -0.050 Br
ATOM     24  C   UNL     1      -4.305   1.447   0.464  1.00  0.00     0.001 A 
ENDBRANCH  17  18
ENDBRANCH  15  17
ENDBRANCH  12  15
ENDBRANCH   7  11
ENDBRANCH   3   6
ENDBRANCH   1   2
BRANCH   1  25
ATOM     25  C   UNL     1      -5.730   6.325  -0.009  1.00  0.00     0.042 C 
BRANCH  25  26
ATOM     26  C   UNL     1      -6.029   6.701  -1.456  1.00  0.00     0.118 C 
BRANCH  26  27
ATOM     27  N   UNL     1      -6.072   5.564  -2.372  1.00  0.00    -0.352 N 
ATOM     28  C   UNL     1      -7.114   4.917  -3.006  1.00  0.00     0.251 C 
ATOM     29  H   UNL     1      -5.187   5.185  -2.576  1.00  0.00     0.163 HD
ATOM     30  O   UNL     1      -6.880   3.902  -3.647  1.00  0.00    -0.269 OA
BRANCH  28  31
ATOM     31  C   UNL     1      -8.516   5.394  -2.887  1.00  0.00     0.039 A 
ATOM     32  C   UNL     1      -9.550   4.451  -2.814  1.00  0.00     0.014 A 
ATOM     33  C   UNL     1      -8.833   6.748  -2.861  1.00  0.00     0.014 A 
ATOM     34  C   UNL     1     -10.869   4.868  -2.594  1.00  0.00     0.010 A 
ATOM     35  C   UNL     1     -10.117   7.157  -2.514  1.00  0.00     0.010 A 
ATOM     36  C   UNL     1     -11.154   6.224  -2.371  1.00  0.00    -0.014 A 
BRANCH  36  37
ATOM     37  C   UNL     1     -12.512   6.701  -1.988  1.00  0.00     0.031 A 
ATOM     38  C   UNL     1     -13.213   7.743  -2.819  1.00  0.00     0.074 A 
ATOM     39  C   UNL     1     -13.070   6.284  -0.833  1.00  0.00     0.049 A 
ATOM     40  N   UNL     1     -14.325   8.393  -2.577  1.00  0.00    -0.248 NA
ATOM     41  C   UNL     1     -12.549   8.142  -4.069  1.00  0.00     0.031 C 
ATOM     42  C   UNL     1     -12.478   5.321   0.097  1.00  0.00     0.029 A 
ATOM     43  N   UNL     1     -14.259   6.629  -0.237  1.00  0.00    -0.354 N 
ATOM     44  C   UNL     1     -14.465   9.301  -3.619  1.00  0.00     0.074 A 
ATOM     45  C   UNL     1     -13.294   9.165  -4.457  1.00  0.00     0.031 C 
ATOM     46  C   UNL     1     -13.323   5.119   1.120  1.00  0.00     0.029 A 
ATOM     47  C   UNL     1     -14.493   5.973   0.948  1.00  0.00     0.049 A 
ATOM     48  H   UNL     1     -14.884   7.284  -0.623  1.00  0.00     0.167 HD
ATOM     49  C   UNL     1     -15.489  10.152  -3.874  1.00  0.00     0.037 A 
ATOM     50  C   UNL     1     -15.533   6.053   1.800  1.00  0.00     0.037 A 
ATOM     51  C   UNL     1     -16.675  10.251  -3.065  1.00  0.00     0.049 A 
ATOM     52  C   UNL     1     -16.662   6.999   1.495  1.00  0.00     0.074 A 
ATOM     53  C   UNL     1     -17.807  11.018  -3.280  1.00  0.00     0.029 A 
ATOM     54  N   UNL     1     -16.883   9.555  -1.883  1.00  0.00    -0.354 N 
ATOM     55  N   UNL     1     -16.816   7.804   0.473  1.00  0.00    -0.248 NA
ATOM     56  C   UNL     1     -17.763   7.046   2.468  1.00  0.00     0.031 C 
ATOM     57  C   UNL     1     -18.680  10.819  -2.204  1.00  0.00     0.029 A 
ATOM     58  C   UNL     1     -18.115   9.890  -1.344  1.00  0.00     0.049 A 
ATOM     59  H   UNL     1     -16.248   8.916  -1.485  1.00  0.00     0.167 HD
ATOM     60  C   UNL     1     -18.042   8.427   0.659  1.00  0.00     0.074 A 
ATOM     61  C   UNL     1     -18.595   7.900   1.890  1.00  0.00     0.031 C 
ATOM     62  C   UNL     1     -18.655   9.351  -0.122  1.00  0.00     0.037 A 
BRANCH  49  63
ATOM     63  C   UNL     1     -15.361  11.041  -5.080  1.00  0.00     0.064 A 
ATOM     64  C   UNL     1     -15.361  10.522  -6.385  1.00  0.00     0.173 A 
ATOM     65  C   UNL     1     -15.223  12.430  -4.932  1.00  0.00     0.173 A 
ATOM     66  F   UNL     1     -15.481   9.200  -6.586  1.00  0.00    -0.203 F 
ATOM     67  C   UNL     1     -15.170  11.350  -7.489  1.00  0.00     0.198 A 
ATOM     68  C   UNL     1     -15.071  13.259  -6.040  1.00  0.00     0.198 A 
ATOM     69  F   UNL     1     -15.226  12.984  -3.710  1.00  0.00    -0.203 F 
ATOM     70  F   UNL     1     -15.093  10.818  -8.717  1.00  0.00    -0.200 F 
ATOM     71  C   UNL     1     -15.029  12.717  -7.316  1.00  0.00     0.200 A 
ATOM     72  F   UNL     1     -14.949  14.584  -5.873  1.00  0.00    -0.200 F 
ATOM     73  F   UNL     1     -14.838  13.512  -8.378  1.00  0.00    -0.200 F 
ENDBRANCH  49  63
BRANCH  50  74
ATOM     74  C   UNL     1     -15.582   5.167   2.991  1.00  0.00     0.064 A 
ATOM     75  C   UNL     1     -16.495   4.103   3.045  1.00  0.00     0.173 A 
ATOM     76  C   UNL     1     -14.721   5.343   4.083  1.00  0.00     0.173 A 
ATOM     77  F   UNL     1     -17.352   3.907   2.033  1.00  0.00    -0.203 F 
ATOM     78  C   UNL     1     -16.552   3.257   4.150  1.00  0.00     0.198 A 
ATOM     79  C   UNL     1     -14.762   4.480   5.177  1.00  0.00     0.198 A 
ATOM     80  F   UNL     1     -13.826   6.341   4.079  1.00  0.00    -0.203 F 
ATOM     81  F   UNL     1     -17.457   2.269   4.188  1.00  0.00    -0.200 F 
ATOM     82  C   UNL     1     -15.680   3.441   5.212  1.00  0.00     0.200 A 
ATOM     83  F   UNL     1     -13.908   4.652   6.196  1.00  0.00    -0.200 F 
ATOM     84  F   UNL     1     -15.728   2.620   6.270  1.00  0.00    -0.200 F 
ENDBRANCH  50  74
BRANCH  62  85
ATOM     85  C   UNL     1     -20.014   9.821   0.308  1.00  0.00     0.064 A 
ATOM     86  C   UNL     1     -20.187  10.665   1.415  1.00  0.00     0.173 A 
ATOM     87  C   UNL     1     -21.155   9.453  -0.422  1.00  0.00     0.173 A 
ATOM     88  F   UNL     1     -19.130  11.031   2.156  1.00  0.00    -0.203 F 
ATOM     89  C   UNL     1     -21.455  11.103   1.789  1.00  0.00     0.198 A 
ATOM     90  C   UNL     1     -22.417   9.918  -0.064  1.00  0.00     0.198 A 
ATOM     91  F   UNL     1     -21.043   8.652  -1.493  1.00  0.00    -0.203 F 
ATOM     92  F   UNL     1     -21.602  11.870   2.878  1.00  0.00    -0.200 F 
ATOM     93  C   UNL     1     -22.567  10.737   1.045  1.00  0.00     0.200 A 
ATOM     94  F   UNL     1     -23.488   9.574  -0.792  1.00  0.00    -0.200 F 
ATOM     95  F   UNL     1     -23.785  11.167   1.402  1.00  0.00    -0.200 F 
ENDBRANCH  62  85
ENDBRANCH  36  37
ENDBRANCH  28  31
ENDBRANCH  26  27
ENDBRANCH  25  26
ENDBRANCH   1  25
TORSDOF 14
