REMARK SMILES O=C(NCCCNC(=O)[C@]1(CCCCO)CCc2ccccc2C1)c1ccc(-c2c3nc(c(-c4c(F)c(F)c(F)c(F)c4F)c4ccc([nH]4)c(-c4c(F)c(F)c(F)c(F)c4F)c4nc(c(-c5c(F)c(F)c(F)c(F)c5F)c5ccc2[nH]5)C=C4)C=C3)cc1
REMARK SMILES IDX 7 1 8 2 9 3 6 5 5 6 4 7 3 8 1 9 2 10 25 12 26 13 87 14 27 15
REMARK SMILES IDX 86 16 28 17 29 18 30 19 80 20 31 21 85 22 79 23 81 24 32 25
REMARK SMILES IDX 84 26 78 27 77 28 33 30 65 31 45 32 64 33 46 34 49 35 63 36
REMARK SMILES IDX 82 37 47 38 48 39 62 41 83 42 50 43 34 44 35 45 43 46 36 47
REMARK SMILES IDX 37 48 41 49 44 50 38 51 39 52 42 53 40 54 66 55 67 56 75 57
REMARK SMILES IDX 68 58 69 59 73 60 76 61 70 62 71 63 74 64 72 65 51 66 52 67
REMARK SMILES IDX 60 68 53 69 54 70 58 71 61 72 55 73 56 74 59 75 57 76 10 77
REMARK SMILES IDX 16 78 24 79 17 80 23 81 18 82 22 83 19 84 21 85 20 86 11 87
REMARK SMILES IDX 12 88 13 89 14 90 15 91
REMARK H PARENT 7 4 3 11 81 29 49 40 15 92
REMARK Flexibility Score: inf
ROOT
ATOM      1  N   UNL     1       4.906  -4.233  -1.073  1.00  0.00    -0.356 N 
ATOM      2  C   UNL     1       5.414  -5.487  -1.222  1.00  0.00     0.226 C 
ATOM      3  O   UNL     1       5.458  -5.885  -2.393  1.00  0.00    -0.274 OA
ATOM      4  H   UNL     1       5.023  -3.673  -1.875  1.00  0.00     0.163 HD
ENDROOT
BRANCH   1   5
ATOM      5  C   UNL     1       4.224  -3.536   0.013  1.00  0.00     0.117 C 
BRANCH   5   6
ATOM      6  C   UNL     1       4.864  -2.208   0.360  1.00  0.00     0.042 C 
BRANCH   6   7
ATOM      7  C   UNL     1       4.540  -1.146  -0.674  1.00  0.00     0.118 C 
BRANCH   7   8
ATOM      8  N   UNL     1       3.106  -0.862  -0.736  1.00  0.00    -0.352 N 
ATOM      9  O   UNL     1       1.147   0.055  -0.107  1.00  0.00    -0.269 OA
ATOM     10  C   UNL     1       2.366   0.153  -0.178  1.00  0.00     0.251 C 
ATOM     11  H   UNL     1       2.583  -1.506  -1.265  1.00  0.00     0.163 HD
BRANCH  10  12
ATOM     12  C   UNL     1       3.043   1.357   0.339  1.00  0.00     0.039 A 
ATOM     13  C   UNL     1       4.154   1.869  -0.326  1.00  0.00     0.014 A 
ATOM     14  C   UNL     1       2.554   1.999   1.481  1.00  0.00     0.014 A 
ATOM     15  C   UNL     1       4.904   2.874   0.257  1.00  0.00     0.010 A 
ATOM     16  C   UNL     1       3.229   3.112   1.988  1.00  0.00     0.010 A 
ATOM     17  C   UNL     1       4.433   3.532   1.401  1.00  0.00    -0.014 A 
BRANCH  17  18
ATOM     18  C   UNL     1       5.198   4.695   1.911  1.00  0.00     0.031 A 
ATOM     19  C   UNL     1       5.796   4.688   3.287  1.00  0.00     0.074 A 
ATOM     20  C   UNL     1       5.387   5.744   1.088  1.00  0.00     0.049 A 
ATOM     21  N   UNL     1       6.517   5.608   3.876  1.00  0.00    -0.248 NA
ATOM     22  C   UNL     1       5.547   3.500   4.116  1.00  0.00     0.031 C 
ATOM     23  C   UNL     1       4.850   5.854  -0.272  1.00  0.00     0.029 A 
ATOM     24  N   UNL     1       6.102   6.900   1.253  1.00  0.00    -0.354 N 
ATOM     25  C   UNL     1       6.781   5.127   5.151  1.00  0.00     0.074 A 
ATOM     26  C   UNL     1       6.119   3.844   5.261  1.00  0.00     0.031 C 
ATOM     27  C   UNL     1       5.312   6.974  -0.840  1.00  0.00     0.029 A 
ATOM     28  C   UNL     1       6.102   7.705   0.141  1.00  0.00     0.049 A 
ATOM     29  H   UNL     1       6.571   7.131   2.088  1.00  0.00     0.167 HD
ATOM     30  C   UNL     1       7.512   5.705   6.135  1.00  0.00     0.037 A 
ATOM     31  C   UNL     1       6.659   8.912  -0.061  1.00  0.00     0.037 A 
ATOM     32  C   UNL     1       8.175   6.979   6.003  1.00  0.00     0.049 A 
ATOM     33  C   UNL     1       7.431   9.544   1.058  1.00  0.00     0.074 A 
ATOM     34  C   UNL     1       8.969   7.639   6.923  1.00  0.00     0.029 A 
ATOM     35  N   UNL     1       8.111   7.791   4.877  1.00  0.00    -0.354 N 
ATOM     36  N   UNL     1       7.697   9.069   2.251  1.00  0.00    -0.248 NA
ATOM     37  C   UNL     1       7.976  10.882   0.805  1.00  0.00     0.031 C 
ATOM     38  C   UNL     1       9.331   8.877   6.381  1.00  0.00     0.029 A 
ATOM     39  C   UNL     1       8.825   8.960   5.094  1.00  0.00     0.049 A 
ATOM     40  H   UNL     1       7.629   7.570   4.048  1.00  0.00     0.167 HD
ATOM     41  C   UNL     1       8.465  10.036   2.883  1.00  0.00     0.074 A 
ATOM     42  C   UNL     1       8.632  11.118   1.932  1.00  0.00     0.031 C 
ATOM     43  C   UNL     1       8.985  10.026   4.135  1.00  0.00     0.037 A 
BRANCH  30  44
ATOM     44  C   UNL     1       7.597   4.985   7.452  1.00  0.00     0.064 A 
ATOM     45  C   UNL     1       8.281   3.768   7.597  1.00  0.00     0.173 A 
ATOM     46  C   UNL     1       6.988   5.529   8.595  1.00  0.00     0.173 A 
ATOM     47  F   UNL     1       8.872   3.195   6.538  1.00  0.00    -0.203 F 
ATOM     48  C   UNL     1       8.317   3.104   8.822  1.00  0.00     0.198 A 
ATOM     49  C   UNL     1       7.056   4.881   9.826  1.00  0.00     0.198 A 
ATOM     50  F   UNL     1       6.326   6.693   8.519  1.00  0.00    -0.203 F 
ATOM     51  F   UNL     1       8.920   1.911   8.919  1.00  0.00    -0.200 F 
ATOM     52  C   UNL     1       7.709   3.664   9.936  1.00  0.00     0.200 A 
ATOM     53  F   UNL     1       6.481   5.432  10.904  1.00  0.00    -0.200 F 
ATOM     54  F   UNL     1       7.744   3.024  11.113  1.00  0.00    -0.200 F 
ENDBRANCH  30  44
BRANCH  31  55
ATOM     55  C   UNL     1       6.505   9.582  -1.377  1.00  0.00     0.064 A 
ATOM     56  C   UNL     1       7.604   9.763  -2.226  1.00  0.00     0.173 A 
ATOM     57  C   UNL     1       5.252  10.028  -1.827  1.00  0.00     0.173 A 
ATOM     58  F   UNL     1       8.824   9.366  -1.835  1.00  0.00    -0.203 F 
ATOM     59  C   UNL     1       7.460  10.376  -3.469  1.00  0.00     0.198 A 
ATOM     60  C   UNL     1       5.103  10.610  -3.083  1.00  0.00     0.198 A 
ATOM     61  F   UNL     1       4.166   9.869  -1.056  1.00  0.00    -0.203 F 
ATOM     62  F   UNL     1       8.534  10.570  -4.246  1.00  0.00    -0.200 F 
ATOM     63  C   UNL     1       6.209  10.790  -3.900  1.00  0.00     0.200 A 
ATOM     64  F   UNL     1       3.889  10.988  -3.504  1.00  0.00    -0.200 F 
ATOM     65  F   UNL     1       6.069  11.367  -5.101  1.00  0.00    -0.200 F 
ENDBRANCH  31  55
BRANCH  43  66
ATOM     66  C   UNL     1       9.832  11.202   4.528  1.00  0.00     0.064 A 
ATOM     67  C   UNL     1       9.283  12.475   4.741  1.00  0.00     0.173 A 
ATOM     68  C   UNL     1      11.214  11.045   4.712  1.00  0.00     0.173 A 
ATOM     69  F   UNL     1       7.970  12.684   4.560  1.00  0.00    -0.203 F 
ATOM     70  C   UNL     1      10.091  13.554   5.090  1.00  0.00     0.198 A 
ATOM     71  C   UNL     1      12.014  12.117   5.097  1.00  0.00     0.198 A 
ATOM     72  F   UNL     1      11.790   9.847   4.526  1.00  0.00    -0.203 F 
ATOM     73  F   UNL     1       9.554  14.774   5.227  1.00  0.00    -0.200 F 
ATOM     74  C   UNL     1      11.454  13.372   5.275  1.00  0.00     0.200 A 
ATOM     75  F   UNL     1      13.327  11.935   5.291  1.00  0.00    -0.200 F 
ATOM     76  F   UNL     1      12.229  14.410   5.616  1.00  0.00    -0.200 F 
ENDBRANCH  43  66
ENDBRANCH  17  18
ENDBRANCH  10  12
ENDBRANCH   7   8
ENDBRANCH   6   7
ENDBRANCH   5   6
ENDBRANCH   1   5
BRANCH   2  77
ATOM     77  C   UNL     1       6.019  -6.344  -0.084  1.00  0.00     0.054 C 
ATOM     78  C   UNL     1       5.789  -7.839  -0.436  1.00  0.00     0.022 C 
ATOM     79  C   UNL     1       5.266  -6.071   1.224  1.00  0.00     0.052 C 
ATOM     80  C   UNL     1       6.147  -8.817   0.692  1.00  0.00     0.037 C 
ATOM     81  C   UNL     1       5.238  -7.107   2.300  1.00  0.00    -0.044 A 
ATOM     82  C   UNL     1       5.566  -8.434   2.029  1.00  0.00    -0.045 A 
ATOM     83  C   UNL     1       4.709  -6.738   3.549  1.00  0.00     0.004 A 
ATOM     84  C   UNL     1       5.366  -9.387   3.035  1.00  0.00     0.004 A 
ATOM     85  C   UNL     1       4.500  -7.693   4.533  1.00  0.00     0.000 A 
ATOM     86  C   UNL     1       4.825  -9.020   4.273  1.00  0.00     0.000 A 
BRANCH  77  87
ATOM     87  C   UNL     1       7.528  -5.986   0.101  1.00  0.00     0.017 C 
BRANCH  87  88
ATOM     88  C   UNL     1       8.533  -6.325  -1.021  1.00  0.00     0.003 C 
BRANCH  88  89
ATOM     89  C   UNL     1       8.589  -5.412  -2.256  1.00  0.00     0.028 C 
BRANCH  89  90
ATOM     90  C   UNL     1       8.723  -3.919  -1.978  1.00  0.00     0.156 C 
BRANCH  90  91
ATOM     91  O   UNL     1       9.981  -3.609  -1.396  1.00  0.00    -0.396 OA
ATOM     92  H   UNL     1      10.070  -4.075  -0.550  1.00  0.00     0.210 HD
ENDBRANCH  90  91
ENDBRANCH  89  90
ENDBRANCH  88  89
ENDBRANCH  87  88
ENDBRANCH  77  87
ENDBRANCH   2  77
TORSDOF 15
