REMARK SMILES CCCC[C@H](NS(=O)(=O)c1ccc(Br)c(C)c1)C(=O)NCCCNC(=O)c1ccc(-c2c3nc(c(-c4c(F)c(F)c(F)c(F)c4F)c4ccc([nH]4)c(-c4c(F)c(F)c(F)c(F)c4F)c4nc(c(-c5c(F)c(F)c(F)c(F)c5F)c5ccc2[nH]5)C=C4)C=C3)cc1
REMARK SMILES IDX 21 1 20 2 18 3 19 4 5 6 4 7 3 8 2 9 1 10 6 11 7 13 8 14 9 15
REMARK SMILES IDX 10 16 11 17 17 18 12 19 15 20 13 21 16 22 14 23 22 24 23 25
REMARK SMILES IDX 24 26 25 27 26 29 27 30 28 31 89 32 29 33 88 34 30 35 31 36
REMARK SMILES IDX 32 37 82 38 33 39 87 40 81 41 83 42 34 43 86 44 80 45 79 46
REMARK SMILES IDX 35 48 67 49 47 50 66 51 48 52 51 53 65 54 84 55 49 56 50 57
REMARK SMILES IDX 64 59 85 60 52 61 36 62 37 63 45 64 38 65 39 66 43 67 46 68
REMARK SMILES IDX 40 69 41 70 44 71 42 72 68 73 69 74 77 75 70 76 71 77 75 78
REMARK SMILES IDX 78 79 72 80 73 81 76 82 74 83 53 84 54 85 62 86 55 87 56 88
REMARK SMILES IDX 60 89 63 90 57 91 58 92 61 93 59 94
REMARK H PARENT 20 5 6 12 24 28 83 47 51 58
REMARK Flexibility Score: inf
ROOT
ATOM      1  C   UNL     1       0.480   5.280   1.580  1.00  0.00     0.117 C 
ENDROOT
BRANCH   1   2
ATOM      2  N   UNL     1      -0.476   4.856   0.565  1.00  0.00    -0.355 N 
ATOM      3  C   UNL     1      -1.298   3.774   0.498  1.00  0.00     0.238 C 
ATOM      4  O   UNL     1      -2.212   3.827  -0.332  1.00  0.00    -0.273 OA
ATOM      5  H   UNL     1      -0.537   5.460  -0.210  1.00  0.00     0.163 HD
BRANCH   3   6
ATOM      6  C   UNL     1      -1.114   2.533   1.366  1.00  0.00     0.159 C 
BRANCH   6   7
ATOM      7  C   UNL     1      -1.903   2.545   2.685  1.00  0.00     0.030 C 
BRANCH   7   8
ATOM      8  C   UNL     1      -1.579   3.605   3.743  1.00  0.00     0.002 C 
BRANCH   8   9
ATOM      9  C   UNL     1      -2.241   4.973   3.535  1.00  0.00    -0.003 C 
ATOM     10  C   UNL     1      -3.736   5.015   3.796  1.00  0.00     0.004 C 
ENDBRANCH   8   9
ENDBRANCH   7   8
ENDBRANCH   6   7
BRANCH   6  11
ATOM     11  N   UNL     1       0.309   2.156   1.489  1.00  0.00    -0.199 NA
ATOM     12  H   UNL     1       0.663   2.642   2.313  1.00  0.00     0.142 HD
BRANCH  11  13
ATOM     13  S   UNL     1       0.796   0.554   1.643  1.00  0.00     0.241 S 
ATOM     14  O   UNL     1       2.243   0.600   1.598  1.00  0.00    -0.207 OA
ATOM     15  O   UNL     1       0.092  -0.044   2.752  1.00  0.00    -0.207 OA
BRANCH  13  16
ATOM     16  C   UNL     1       0.241  -0.253   0.151  1.00  0.00     0.082 A 
ATOM     17  C   UNL     1      -1.103  -0.608   0.023  1.00  0.00     0.023 A 
ATOM     18  C   UNL     1       1.162  -0.624  -0.838  1.00  0.00     0.026 A 
ATOM     19  C   UNL     1      -1.548  -1.231  -1.142  1.00  0.00     0.017 A 
ATOM     20  C   UNL     1       0.734  -1.316  -1.988  1.00  0.00    -0.036 A 
ATOM     21  C   UNL     1      -0.637  -1.579  -2.144  1.00  0.00     0.020 A 
ATOM     22  C   UNL     1       1.751  -1.780  -2.994  1.00  0.00     0.045 C 
ATOM     23  Br  UNL     1      -1.331  -2.436  -3.692  1.00  0.00    -0.051 Br
ENDBRANCH  13  16
ENDBRANCH  11  13
ENDBRANCH   6  11
ENDBRANCH   3   6
ENDBRANCH   1   2
BRANCH   1  24
ATOM     24  C   UNL     1       1.496   6.266   1.036  1.00  0.00     0.042 C 
BRANCH  24  25
ATOM     25  C   UNL     1       0.876   7.546   0.487  1.00  0.00     0.118 C 
BRANCH  25  26
ATOM     26  N   UNL     1       0.142   8.330   1.478  1.00  0.00    -0.352 N 
ATOM     27  C   UNL     1       0.412   9.572   2.008  1.00  0.00     0.251 C 
ATOM     28  H   UNL     1      -0.676   7.902   1.822  1.00  0.00     0.163 HD
ATOM     29  O   UNL     1      -0.270  10.021   2.924  1.00  0.00    -0.269 OA
BRANCH  27  30
ATOM     30  C   UNL     1       1.562  10.342   1.496  1.00  0.00     0.039 A 
ATOM     31  C   UNL     1       2.463  10.914   2.396  1.00  0.00     0.014 A 
ATOM     32  C   UNL     1       1.791  10.424   0.124  1.00  0.00     0.014 A 
ATOM     33  C   UNL     1       3.660  11.453   1.919  1.00  0.00     0.010 A 
ATOM     34  C   UNL     1       3.035  10.832  -0.334  1.00  0.00     0.010 A 
ATOM     35  C   UNL     1       3.987  11.351   0.557  1.00  0.00    -0.014 A 
BRANCH  35  36
ATOM     36  C   UNL     1       5.305  11.780   0.022  1.00  0.00     0.031 A 
ATOM     37  C   UNL     1       5.357  12.801  -1.084  1.00  0.00     0.074 A 
ATOM     38  C   UNL     1       6.437  11.185   0.450  1.00  0.00     0.049 A 
ATOM     39  N   UNL     1       6.375  13.189  -1.810  1.00  0.00    -0.248 NA
ATOM     40  C   UNL     1       4.081  13.436  -1.458  1.00  0.00     0.031 C 
ATOM     41  C   UNL     1       6.517  10.141   1.475  1.00  0.00     0.029 A 
ATOM     42  N   UNL     1       7.743  11.365   0.064  1.00  0.00    -0.354 N 
ATOM     43  C   UNL     1       5.855  14.086  -2.734  1.00  0.00     0.074 A 
ATOM     44  C   UNL     1       4.425  14.127  -2.532  1.00  0.00     0.031 C 
ATOM     45  C   UNL     1       7.803   9.801   1.661  1.00  0.00     0.029 A 
ATOM     46  C   UNL     1       8.635  10.562   0.736  1.00  0.00     0.049 A 
ATOM     47  H   UNL     1       8.015  12.008  -0.629  1.00  0.00     0.167 HD
ATOM     48  C   UNL     1       6.515  14.842  -3.642  1.00  0.00     0.037 A 
ATOM     49  C   UNL     1       9.971  10.451   0.610  1.00  0.00     0.037 A 
ATOM     50  C   UNL     1       7.943  14.837  -3.805  1.00  0.00     0.049 A 
ATOM     51  C   UNL     1      10.679  11.305  -0.409  1.00  0.00     0.074 A 
ATOM     52  C   UNL     1       8.717  15.592  -4.667  1.00  0.00     0.029 A 
ATOM     53  N   UNL     1       8.814  14.043  -3.074  1.00  0.00    -0.354 N 
ATOM     54  N   UNL     1      10.182  12.186  -1.243  1.00  0.00    -0.248 NA
ATOM     55  C   UNL     1      12.138  11.151  -0.502  1.00  0.00     0.031 C 
ATOM     56  C   UNL     1      10.055  15.236  -4.478  1.00  0.00     0.029 A 
ATOM     57  C   UNL     1      10.118  14.290  -3.467  1.00  0.00     0.049 A 
ATOM     58  H   UNL     1       8.545  13.399  -2.379  1.00  0.00     0.167 HD
ATOM     59  C   UNL     1      11.266  12.720  -1.926  1.00  0.00     0.074 A 
ATOM     60  C   UNL     1      12.450  12.072  -1.402  1.00  0.00     0.031 C 
ATOM     61  C   UNL     1      11.282  13.658  -2.904  1.00  0.00     0.037 A 
BRANCH  48  62
ATOM     62  C   UNL     1       5.700  15.764  -4.501  1.00  0.00     0.064 A 
ATOM     63  C   UNL     1       5.062  16.892  -3.960  1.00  0.00     0.173 A 
ATOM     64  C   UNL     1       5.584  15.544  -5.881  1.00  0.00     0.173 A 
ATOM     65  F   UNL     1       5.129  17.139  -2.643  1.00  0.00    -0.203 F 
ATOM     66  C   UNL     1       4.315  17.748  -4.764  1.00  0.00     0.198 A 
ATOM     67  C   UNL     1       4.862  16.421  -6.688  1.00  0.00     0.198 A 
ATOM     68  F   UNL     1       6.176  14.483  -6.450  1.00  0.00    -0.203 F 
ATOM     69  F   UNL     1       3.672  18.788  -4.215  1.00  0.00    -0.200 F 
ATOM     70  C   UNL     1       4.223  17.517  -6.128  1.00  0.00     0.200 A 
ATOM     71  F   UNL     1       4.785  16.205  -8.008  1.00  0.00    -0.200 F 
ATOM     72  F   UNL     1       3.512  18.348  -6.902  1.00  0.00    -0.200 F 
ENDBRANCH  48  62
BRANCH  49  73
ATOM     73  C   UNL     1      10.741   9.521   1.480  1.00  0.00     0.064 A 
ATOM     74  C   UNL     1      11.646  10.016   2.432  1.00  0.00     0.173 A 
ATOM     75  C   UNL     1      10.629   8.129   1.354  1.00  0.00     0.173 A 
ATOM     76  F   UNL     1      11.805  11.340   2.578  1.00  0.00    -0.203 F 
ATOM     77  C   UNL     1      12.435   9.157   3.194  1.00  0.00     0.198 A 
ATOM     78  C   UNL     1      11.396   7.270   2.140  1.00  0.00     0.198 A 
ATOM     79  F   UNL     1       9.775   7.601   0.465  1.00  0.00    -0.203 F 
ATOM     80  F   UNL     1      13.338   9.661   4.047  1.00  0.00    -0.200 F 
ATOM     81  C   UNL     1      12.308   7.785   3.050  1.00  0.00     0.200 A 
ATOM     82  F   UNL     1      11.260   5.944   2.007  1.00  0.00    -0.200 F 
ATOM     83  F   UNL     1      13.073   6.959   3.776  1.00  0.00    -0.200 F 
ENDBRANCH  49  73
BRANCH  61  84
ATOM     84  C   UNL     1      12.622  14.089  -3.423  1.00  0.00     0.064 A 
ATOM     85  C   UNL     1      13.398  13.256  -4.241  1.00  0.00     0.173 A 
ATOM     86  C   UNL     1      13.109  15.373  -3.136  1.00  0.00     0.173 A 
ATOM     87  F   UNL     1      12.981  12.015  -4.531  1.00  0.00    -0.203 F 
ATOM     88  C   UNL     1      14.627  13.686  -4.734  1.00  0.00     0.198 A 
ATOM     89  C   UNL     1      14.323  15.810  -3.657  1.00  0.00     0.198 A 
ATOM     90  F   UNL     1      12.399  16.210  -2.365  1.00  0.00    -0.203 F 
ATOM     91  F   UNL     1      15.375  12.857  -5.476  1.00  0.00    -0.200 F 
ATOM     92  C   UNL     1      15.084  14.964  -4.449  1.00  0.00     0.200 A 
ATOM     93  F   UNL     1      14.756  17.051  -3.393  1.00  0.00    -0.200 F 
ATOM     94  F   UNL     1      16.262  15.379  -4.934  1.00  0.00    -0.200 F 
ENDBRANCH  61  84
ENDBRANCH  35  36
ENDBRANCH  27  30
ENDBRANCH  25  26
ENDBRANCH  24  25
ENDBRANCH   1  24
TORSDOF 16
