REMARK SMILES Cc1ccc(/C=C/C(=O)N[C@](C)(C(=O)NCCCNC(=O)c2ccc(-c3c4nc(c(-c5c(F)c(F)c(F)c(F)c5F)c5ccc([nH]5)c(-c5c(F)c(F)c(F)c(F)c5F)c5nc(c(-c6c(F)c(F)c(F)c(F)c6F)c6ccc3[nH]6)C=C5)C=C4)cc2)C(F)(F)F)cc1
REMARK SMILES IDX 16 1 15 2 13 3 14 4 11 6 12 7 10 8 8 9 9 10 7 12 6 13 5 14
REMARK SMILES IDX 1 15 2 16 3 17 90 18 4 19 89 20 85 21 86 22 87 23 88 24
REMARK SMILES IDX 17 25 18 26 19 27 20 28 21 30 22 31 23 32 84 33 24 34 83 35
REMARK SMILES IDX 25 36 26 37 27 38 77 39 28 40 82 41 76 42 78 43 29 44 81 45
REMARK SMILES IDX 75 46 74 47 30 49 62 50 42 51 61 52 43 53 46 54 60 55 79 56
REMARK SMILES IDX 44 57 45 58 59 60 80 61 47 62 31 63 32 64 40 65 33 66 34 67
REMARK SMILES IDX 38 68 41 69 35 70 36 71 39 72 37 73 63 74 64 75 72 76 65 77
REMARK SMILES IDX 66 78 70 79 73 80 67 81 68 82 71 83 69 84 48 85 49 86 57 87
REMARK SMILES IDX 50 88 51 89 55 90 58 91 52 92 53 93 56 94 54 95
REMARK H PARENT 15 5 10 11 19 29 78 48 46 59
REMARK Flexibility Score: inf
ROOT
ATOM      1  C   UNL     1      -8.245   2.937  -0.213  1.00  0.00     0.117 C 
ENDROOT
BRANCH   1   2
ATOM      2  N   UNL     1      -7.185   3.163   0.766  1.00  0.00    -0.354 N 
ATOM      3  C   UNL     1      -5.920   2.653   0.910  1.00  0.00     0.254 C 
ATOM      4  O   UNL     1      -5.303   3.069   1.895  1.00  0.00    -0.272 OA
ATOM      5  H   UNL     1      -7.428   3.814   1.463  1.00  0.00     0.163 HD
BRANCH   3   6
ATOM      6  C   UNL     1      -5.381   1.489   0.042  1.00  0.00     0.212 C 
ATOM      7  C   UNL     1      -5.992   0.194   0.590  1.00  0.00     0.056 C 
BRANCH   6   8
ATOM      8  N   UNL     1      -5.654   1.814  -1.395  1.00  0.00    -0.331 N 
ATOM      9  C   UNL     1      -6.041   1.149  -2.508  1.00  0.00     0.245 C 
ATOM     10  O   UNL     1      -6.114   1.763  -3.569  1.00  0.00    -0.270 OA
ATOM     11  H   UNL     1      -5.514   2.771  -1.580  1.00  0.00     0.165 HD
BRANCH   9  12
ATOM     12  C   UNL     1      -6.542  -0.229  -2.441  1.00  0.00     0.072 C 
ATOM     13  C   UNL     1      -5.749  -1.271  -2.166  1.00  0.00     0.014 C 
BRANCH  13  14
ATOM     14  C   UNL     1      -6.293  -2.626  -2.042  1.00  0.00    -0.025 A 
ATOM     15  C   UNL     1      -7.780  -6.652  -1.604  1.00  0.00     0.044 C 
ATOM     16  C   UNL     1      -7.296  -5.239  -1.740  1.00  0.00    -0.051 A 
ATOM     17  C   UNL     1      -7.439  -4.558  -2.955  1.00  0.00     0.004 A 
ATOM     18  C   UNL     1      -6.652  -4.602  -0.676  1.00  0.00     0.004 A 
ATOM     19  C   UNL     1      -6.946  -3.257  -3.104  1.00  0.00     0.008 A 
ATOM     20  C   UNL     1      -6.150  -3.309  -0.829  1.00  0.00     0.008 A 
ENDBRANCH  13  14
ENDBRANCH   9  12
ENDBRANCH   6   8
BRANCH   6  21
ATOM     21  C   UNL     1      -3.853   1.413   0.279  1.00  0.00     0.420 C 
ATOM     22  F   UNL     1      -3.521   1.096   1.549  1.00  0.00    -0.168 F 
ATOM     23  F   UNL     1      -3.312   0.441  -0.507  1.00  0.00    -0.168 F 
ATOM     24  F   UNL     1      -3.229   2.565  -0.057  1.00  0.00    -0.168 F 
ENDBRANCH   6  21
ENDBRANCH   3   6
ENDBRANCH   1   2
BRANCH   1  25
ATOM     25  C   UNL     1      -9.138   1.750   0.129  1.00  0.00     0.042 C 
BRANCH  25  26
ATOM     26  C   UNL     1     -10.274   2.084   1.081  1.00  0.00     0.118 C 
BRANCH  26  27
ATOM     27  N   UNL     1     -11.528   2.432   0.422  1.00  0.00    -0.352 N 
ATOM     28  C   UNL     1     -12.748   2.751   1.000  1.00  0.00     0.251 C 
ATOM     29  H   UNL     1     -11.506   2.442  -0.562  1.00  0.00     0.163 HD
ATOM     30  O   UNL     1     -13.710   3.052   0.315  1.00  0.00    -0.269 OA
BRANCH  28  31
ATOM     31  C   UNL     1     -12.821   2.841   2.477  1.00  0.00     0.039 A 
ATOM     32  C   UNL     1     -13.234   4.051   3.042  1.00  0.00     0.014 A 
ATOM     33  C   UNL     1     -12.248   1.848   3.266  1.00  0.00     0.014 A 
ATOM     34  C   UNL     1     -12.831   4.364   4.337  1.00  0.00     0.010 A 
ATOM     35  C   UNL     1     -11.751   2.199   4.505  1.00  0.00     0.010 A 
ATOM     36  C   UNL     1     -11.980   3.485   5.008  1.00  0.00    -0.014 A 
BRANCH  36  37
ATOM     37  C   UNL     1     -11.171   3.887   6.154  1.00  0.00     0.031 A 
ATOM     38  C   UNL     1     -11.444   3.353   7.504  1.00  0.00     0.074 A 
ATOM     39  C   UNL     1     -10.094   4.681   5.955  1.00  0.00     0.049 A 
ATOM     40  N   UNL     1     -11.059   3.913   8.601  1.00  0.00    -0.248 NA
ATOM     41  C   UNL     1     -12.238   2.153   7.725  1.00  0.00     0.031 C 
ATOM     42  C   UNL     1      -8.998   4.935   6.887  1.00  0.00     0.029 A 
ATOM     43  N   UNL     1      -9.872   5.588   4.902  1.00  0.00    -0.354 N 
ATOM     44  C   UNL     1     -11.287   3.030   9.634  1.00  0.00     0.074 A 
ATOM     45  C   UNL     1     -12.106   1.996   9.046  1.00  0.00     0.031 C 
ATOM     46  C   UNL     1      -8.402   6.089   6.551  1.00  0.00     0.029 A 
ATOM     47  C   UNL     1      -9.188   6.681   5.484  1.00  0.00     0.049 A 
ATOM     48  H   UNL     1     -10.136   5.483   3.959  1.00  0.00     0.167 HD
ATOM     49  C   UNL     1     -10.634   3.219  10.820  1.00  0.00     0.037 A 
ATOM     50  C   UNL     1      -9.722   7.936   5.514  1.00  0.00     0.037 A 
ATOM     51  C   UNL     1      -9.893   4.483  10.813  1.00  0.00     0.049 A 
ATOM     52  C   UNL     1      -9.857   8.515   6.900  1.00  0.00     0.074 A 
ATOM     53  C   UNL     1      -8.553   4.786  10.630  1.00  0.00     0.029 A 
ATOM     54  N   UNL     1     -10.582   5.689  10.735  1.00  0.00    -0.354 N 
ATOM     55  N   UNL     1      -9.871   7.795   7.986  1.00  0.00    -0.248 NA
ATOM     56  C   UNL     1     -10.033   9.939   7.170  1.00  0.00     0.031 C 
ATOM     57  C   UNL     1      -8.441   6.180  10.409  1.00  0.00     0.029 A 
ATOM     58  C   UNL     1      -9.711   6.728  10.468  1.00  0.00     0.049 A 
ATOM     59  H   UNL     1     -11.554   5.789  10.853  1.00  0.00     0.167 HD
ATOM     60  C   UNL     1     -10.078   8.608   9.070  1.00  0.00     0.074 A 
ATOM     61  C   UNL     1     -10.152   9.944   8.509  1.00  0.00     0.031 C 
ATOM     62  C   UNL     1     -10.186   8.097  10.332  1.00  0.00     0.037 A 
BRANCH  49  63
ATOM     63  C   UNL     1     -10.405   2.143  11.875  1.00  0.00     0.064 A 
ATOM     64  C   UNL     1      -9.323   2.245  12.783  1.00  0.00     0.173 A 
ATOM     65  C   UNL     1     -11.145   0.953  12.004  1.00  0.00     0.173 A 
ATOM     66  F   UNL     1      -8.599   3.367  12.891  1.00  0.00    -0.203 F 
ATOM     67  C   UNL     1      -8.939   1.198  13.630  1.00  0.00     0.198 A 
ATOM     68  C   UNL     1     -10.739  -0.111  12.819  1.00  0.00     0.198 A 
ATOM     69  F   UNL     1     -12.327   0.791  11.407  1.00  0.00    -0.203 F 
ATOM     70  F   UNL     1      -7.888   1.355  14.447  1.00  0.00    -0.200 F 
ATOM     71  C   UNL     1      -9.624   0.004  13.619  1.00  0.00     0.200 A 
ATOM     72  F   UNL     1     -11.448  -1.250  12.821  1.00  0.00    -0.200 F 
ATOM     73  F   UNL     1      -9.237  -1.014  14.397  1.00  0.00    -0.200 F 
ENDBRANCH  49  63
BRANCH  50  74
ATOM     74  C   UNL     1     -10.648   8.212   4.388  1.00  0.00     0.064 A 
ATOM     75  C   UNL     1     -10.129   8.214   3.079  1.00  0.00     0.173 A 
ATOM     76  C   UNL     1     -12.035   8.094   4.537  1.00  0.00     0.173 A 
ATOM     77  F   UNL     1      -8.805   8.318   2.885  1.00  0.00    -0.203 F 
ATOM     78  C   UNL     1     -10.948   7.990   1.976  1.00  0.00     0.198 A 
ATOM     79  C   UNL     1     -12.854   7.882   3.426  1.00  0.00     0.198 A 
ATOM     80  F   UNL     1     -12.586   8.061   5.758  1.00  0.00    -0.203 F 
ATOM     81  F   UNL     1     -10.407   7.880   0.754  1.00  0.00    -0.200 F 
ATOM     82  C   UNL     1     -12.307   7.796   2.154  1.00  0.00     0.200 A 
ATOM     83  F   UNL     1     -14.165   7.657   3.599  1.00  0.00    -0.200 F 
ATOM     84  F   UNL     1     -13.082   7.478   1.107  1.00  0.00    -0.200 F 
ENDBRANCH  50  74
BRANCH  62  85
ATOM     85  C   UNL     1     -10.645   8.839  11.566  1.00  0.00     0.064 A 
ATOM     86  C   UNL     1     -11.502   9.952  11.545  1.00  0.00     0.173 A 
ATOM     87  C   UNL     1     -10.335   8.340  12.857  1.00  0.00     0.173 A 
ATOM     88  F   UNL     1     -11.972  10.449  10.394  1.00  0.00    -0.203 F 
ATOM     89  C   UNL     1     -11.960  10.558  12.719  1.00  0.00     0.198 A 
ATOM     90  C   UNL     1     -10.841   8.911  14.024  1.00  0.00     0.198 A 
ATOM     91  F   UNL     1      -9.554   7.263  13.024  1.00  0.00    -0.203 F 
ATOM     92  F   UNL     1     -12.744  11.643  12.642  1.00  0.00    -0.200 F 
ATOM     93  C   UNL     1     -11.641  10.031  13.956  1.00  0.00     0.200 A 
ATOM     94  F   UNL     1     -10.565   8.354  15.212  1.00  0.00    -0.200 F 
ATOM     95  F   UNL     1     -12.122  10.587  15.076  1.00  0.00    -0.200 F 
ENDBRANCH  62  85
ENDBRANCH  36  37
ENDBRANCH  28  31
ENDBRANCH  26  27
ENDBRANCH  25  26
ENDBRANCH   1  25
TORSDOF 14
