REMARK SMILES CN1C(=O)C[C@H](C(=O)NCCCNC(=O)c2ccc(-c3c4nc(c(-c5c(F)c(F)c(F)c(F)c5F)c5ccc([nH]5)c(-c5c(F)c(F)c(F)c(F)c5F)c5nc(c(-c6c(F)c(F)c(F)c(F)c6F)c6ccc3[nH]6)C=C5)C=C4)cc2)c2cccc(Cl)c21
REMARK SMILES IDX 12 1 11 2 10 3 9 4 7 5 8 6 6 8 1 9 2 10 3 11 85 12 4 13 5 14
REMARK SMILES IDX 79 15 83 16 80 17 82 18 84 19 81 20 13 21 14 22 15 24 16 25
REMARK SMILES IDX 17 26 78 27 18 28 77 29 19 30 20 31 21 32 71 33 22 34 76 35
REMARK SMILES IDX 70 36 72 37 23 38 75 39 69 40 68 41 24 43 56 44 36 45 55 46
REMARK SMILES IDX 37 47 40 48 54 49 73 50 38 51 39 52 53 54 74 55 41 56 25 57
REMARK SMILES IDX 26 58 34 59 27 60 28 61 32 62 35 63 29 64 30 65 33 66 31 67
REMARK SMILES IDX 57 68 58 69 66 70 59 71 60 72 64 73 67 74 61 75 62 76 65 77
REMARK SMILES IDX 63 78 42 79 43 80 51 81 44 82 45 83 49 84 52 85 46 86 47 87
REMARK SMILES IDX 50 88 48 89
REMARK H PARENT 9 7 13 23 72 42 40 53
REMARK Flexibility Score: inf
ROOT
ATOM      1  C   UNL     1       2.234  -4.587   4.957  1.00  0.00     0.118 C 
ENDROOT
BRANCH   1   2
ATOM      2  C   UNL     1       1.896  -3.600   3.848  1.00  0.00     0.042 C 
BRANCH   2   3
ATOM      3  C   UNL     1       1.906  -4.226   2.461  1.00  0.00     0.117 C 
BRANCH   3   4
ATOM      4  N   UNL     1       0.862  -5.228   2.299  1.00  0.00    -0.355 N 
ATOM      5  C   UNL     1      -0.201  -5.282   1.446  1.00  0.00     0.228 C 
ATOM      6  O   UNL     1      -0.928  -6.277   1.508  1.00  0.00    -0.274 OA
ATOM      7  H   UNL     1       0.935  -5.996   2.910  1.00  0.00     0.163 HD
BRANCH   5   8
ATOM      8  C   UNL     1      -0.508  -4.152   0.457  1.00  0.00     0.120 C 
ATOM      9  C   UNL     1       0.801  -0.071  -0.272  1.00  0.00     0.153 C 
ATOM     10  N   UNL     1       0.394  -1.456  -0.089  1.00  0.00    -0.314 N 
ATOM     11  C   UNL     1      -0.760  -1.631   0.666  1.00  0.00     0.227 C 
ATOM     12  C   UNL     1       1.115  -2.544  -0.706  1.00  0.00     0.066 A 
ATOM     13  O   UNL     1      -1.502  -0.700   0.992  1.00  0.00    -0.274 OA
ATOM     14  C   UNL     1      -1.038  -2.981   1.244  1.00  0.00     0.119 C 
ATOM     15  C   UNL     1       0.650  -3.858  -0.470  1.00  0.00    -0.010 A 
ATOM     16  C   UNL     1       2.256  -2.419  -1.549  1.00  0.00     0.065 A 
ATOM     17  C   UNL     1       1.264  -4.973  -1.091  1.00  0.00     0.007 A 
ATOM     18  C   UNL     1       2.875  -3.550  -2.115  1.00  0.00     0.023 A 
ATOM     19  Cl  UNL     1       3.037  -0.941  -2.011  1.00  0.00    -0.082 Cl
ATOM     20  C   UNL     1       2.379  -4.823  -1.895  1.00  0.00     0.002 A 
ENDBRANCH   5   8
ENDBRANCH   3   4
ENDBRANCH   2   3
ENDBRANCH   1   2
BRANCH   1  21
ATOM     21  N   UNL     1       3.636  -4.979   4.939  1.00  0.00    -0.352 N 
ATOM     22  C   UNL     1       4.652  -4.620   5.792  1.00  0.00     0.251 C 
ATOM     23  H   UNL     1       3.894  -5.590   4.212  1.00  0.00     0.163 HD
ATOM     24  O   UNL     1       5.818  -4.884   5.514  1.00  0.00    -0.269 OA
BRANCH  22  25
ATOM     25  C   UNL     1       4.337  -3.889   7.035  1.00  0.00     0.039 A 
ATOM     26  C   UNL     1       5.059  -2.735   7.344  1.00  0.00     0.014 A 
ATOM     27  C   UNL     1       3.325  -4.340   7.887  1.00  0.00     0.014 A 
ATOM     28  C   UNL     1       4.716  -1.991   8.474  1.00  0.00     0.010 A 
ATOM     29  C   UNL     1       2.936  -3.561   8.972  1.00  0.00     0.010 A 
ATOM     30  C   UNL     1       3.631  -2.382   9.277  1.00  0.00    -0.014 A 
BRANCH  30  31
ATOM     31  C   UNL     1       3.223  -1.567  10.446  1.00  0.00     0.031 A 
ATOM     32  C   UNL     1       3.408  -2.104  11.836  1.00  0.00     0.074 A 
ATOM     33  C   UNL     1       2.652  -0.363  10.250  1.00  0.00     0.049 A 
ATOM     34  N   UNL     1       3.132  -1.534  12.982  1.00  0.00    -0.248 NA
ATOM     35  C   UNL     1       3.956  -3.465  11.960  1.00  0.00     0.031 C 
ATOM     36  C   UNL     1       2.361   0.232   8.945  1.00  0.00     0.029 A 
ATOM     37  N   UNL     1       2.207   0.575  11.149  1.00  0.00    -0.354 N 
ATOM     38  C   UNL     1       3.474  -2.462  13.955  1.00  0.00     0.074 A 
ATOM     39  C   UNL     1       3.923  -3.654  13.272  1.00  0.00     0.031 C 
ATOM     40  C   UNL     1       1.806   1.442   9.127  1.00  0.00     0.029 A 
ATOM     41  C   UNL     1       1.686   1.701  10.559  1.00  0.00     0.049 A 
ATOM     42  H   UNL     1       2.256   0.451  12.124  1.00  0.00     0.167 HD
ATOM     43  C   UNL     1       3.446  -2.317  15.299  1.00  0.00     0.037 A 
ATOM     44  C   UNL     1       1.177   2.818  11.114  1.00  0.00     0.037 A 
ATOM     45  C   UNL     1       3.037  -1.116  15.974  1.00  0.00     0.049 A 
ATOM     46  C   UNL     1       1.164   2.953  12.613  1.00  0.00     0.074 A 
ATOM     47  C   UNL     1       3.059  -0.843  17.329  1.00  0.00     0.029 A 
ATOM     48  N   UNL     1       2.531   0.009  15.342  1.00  0.00    -0.354 N 
ATOM     49  N   UNL     1       1.592   2.110  13.521  1.00  0.00    -0.248 NA
ATOM     50  C   UNL     1       0.608   4.197  13.167  1.00  0.00     0.031 C 
ATOM     51  C   UNL     1       2.530   0.435  17.523  1.00  0.00     0.029 A 
ATOM     52  C   UNL     1       2.213   0.971  16.285  1.00  0.00     0.049 A 
ATOM     53  H   UNL     1       2.415   0.109  14.370  1.00  0.00     0.167 HD
ATOM     54  C   UNL     1       1.382   2.728  14.745  1.00  0.00     0.074 A 
ATOM     55  C   UNL     1       0.797   4.022  14.469  1.00  0.00     0.031 C 
ATOM     56  C   UNL     1       1.649   2.261  15.988  1.00  0.00     0.037 A 
BRANCH  43  57
ATOM     57  C   UNL     1       3.908  -3.465  16.142  1.00  0.00     0.064 A 
ATOM     58  C   UNL     1       5.270  -3.776  16.259  1.00  0.00     0.173 A 
ATOM     59  C   UNL     1       2.995  -4.193  16.918  1.00  0.00     0.173 A 
ATOM     60  F   UNL     1       6.179  -3.112  15.530  1.00  0.00    -0.203 F 
ATOM     61  C   UNL     1       5.702  -4.778  17.123  1.00  0.00     0.198 A 
ATOM     62  C   UNL     1       3.432  -5.180  17.796  1.00  0.00     0.198 A 
ATOM     63  F   UNL     1       1.682  -3.928  16.844  1.00  0.00    -0.203 F 
ATOM     64  F   UNL     1       7.007  -5.070  17.208  1.00  0.00    -0.200 F 
ATOM     65  C   UNL     1       4.785  -5.471  17.898  1.00  0.00     0.200 A 
ATOM     66  F   UNL     1       2.547  -5.841  18.555  1.00  0.00    -0.200 F 
ATOM     67  F   UNL     1       5.205  -6.420  18.747  1.00  0.00    -0.200 F 
ENDBRANCH  43  57
BRANCH  44  68
ATOM     68  C   UNL     1       0.673   3.914  10.247  1.00  0.00     0.064 A 
ATOM     69  C   UNL     1       1.370   5.126  10.143  1.00  0.00     0.173 A 
ATOM     70  C   UNL     1      -0.513   3.777   9.512  1.00  0.00     0.173 A 
ATOM     71  F   UNL     1       2.499   5.312  10.842  1.00  0.00    -0.203 F 
ATOM     72  C   UNL     1       0.889   6.167   9.350  1.00  0.00     0.198 A 
ATOM     73  C   UNL     1      -0.980   4.809   8.701  1.00  0.00     0.198 A 
ATOM     74  F   UNL     1      -1.213   2.635   9.576  1.00  0.00    -0.203 F 
ATOM     75  F   UNL     1       1.553   7.329   9.299  1.00  0.00    -0.200 F 
ATOM     76  C   UNL     1      -0.283   6.006   8.626  1.00  0.00     0.200 A 
ATOM     77  F   UNL     1      -2.108   4.646   7.995  1.00  0.00    -0.200 F 
ATOM     78  F   UNL     1      -0.745   7.006   7.863  1.00  0.00    -0.200 F 
ENDBRANCH  44  68
BRANCH  56  79
ATOM     79  C   UNL     1       1.335   3.148  17.154  1.00  0.00     0.064 A 
ATOM     80  C   UNL     1       0.019   3.313  17.606  1.00  0.00     0.173 A 
ATOM     81  C   UNL     1       2.370   3.740  17.894  1.00  0.00     0.173 A 
ATOM     82  F   UNL     1      -1.002   2.774  16.922  1.00  0.00    -0.203 F 
ATOM     83  C   UNL     1      -0.251   4.037  18.763  1.00  0.00     0.198 A 
ATOM     84  C   UNL     1       2.098   4.443  19.063  1.00  0.00     0.198 A 
ATOM     85  F   UNL     1       3.646   3.600  17.505  1.00  0.00    -0.203 F 
ATOM     86  F   UNL     1      -1.517   4.194  19.173  1.00  0.00    -0.200 F 
ATOM     87  C   UNL     1       0.789   4.590  19.497  1.00  0.00     0.200 A 
ATOM     88  F   UNL     1       3.104   4.963  19.780  1.00  0.00    -0.200 F 
ATOM     89  F   UNL     1       0.528   5.263  20.627  1.00  0.00    -0.200 F 
ENDBRANCH  56  79
ENDBRANCH  30  31
ENDBRANCH  22  25
ENDBRANCH   1  21
TORSDOF 10
