REMARK SMILES CC[N@@H+](Cc1cccc(C)n1)Cc1csc(C(=O)NCCCNC(=O)c2ccc(-c3c4nc(c(-c5c(F)c(F)c(F)c(F)c5F)c5ccc([nH]5)c(-c5c(F)c(F)c(F)c(F)c5F)c5nc(c(-c6c(F)c(F)c(F)c(F)c6F)c6ccc3[nH]6)C=C5)C=C4)cc2)n1
REMARK SMILES IDX 20 1 19 2 17 3 18 4 16 6 13 7 14 8 89 9 15 10 12 11 3 12
REMARK SMILES IDX 2 14 1 15 4 16 5 17 6 18 11 19 7 20 9 21 8 22 10 23 21 24
REMARK SMILES IDX 22 25 23 26 24 27 25 29 26 30 27 31 88 32 28 33 87 34 29 35
REMARK SMILES IDX 30 36 31 37 81 38 32 39 86 40 80 41 82 42 33 43 85 44 79 45
REMARK SMILES IDX 78 46 34 48 66 49 46 50 65 51 47 52 50 53 64 54 83 55 48 56
REMARK SMILES IDX 49 57 63 59 84 60 51 61 35 62 36 63 44 64 37 65 38 66 42 67
REMARK SMILES IDX 45 68 39 69 40 70 43 71 41 72 67 73 68 74 76 75 69 76 70 77
REMARK SMILES IDX 74 78 77 79 71 80 72 81 75 82 73 83 52 84 53 85 61 86 54 87
REMARK SMILES IDX 55 88 59 89 62 90 56 91 57 92 60 93 58 94
REMARK H PARENT 19 5 3 13 23 28 82 47 50 58
REMARK Flexibility Score: inf
ROOT
ATOM      1  C   UNL     1       1.512   3.075  -1.641  1.00  0.00     0.118 C 
ENDROOT
BRANCH   1   2
ATOM      2  N   UNL     1       2.219   3.545  -2.817  1.00  0.00    -0.350 N 
ATOM      3  C   UNL     1       2.953   2.838  -3.752  1.00  0.00     0.280 C 
ATOM      4  O   UNL     1       3.406   3.514  -4.684  1.00  0.00    -0.267 OA
ATOM      5  H   UNL     1       2.169   4.516  -2.974  1.00  0.00     0.163 HD
BRANCH   3   6
ATOM      6  C   UNL     1       3.131   1.389  -3.632  1.00  0.00     0.181 A 
ATOM      7  C   UNL     1       2.932  -0.686  -2.847  1.00  0.00     0.106 A 
ATOM      8  C   UNL     1       3.473  -0.967  -4.089  1.00  0.00     0.097 A 
ATOM      9  N   UNL     1       2.820   0.669  -2.571  1.00  0.00    -0.230 NA
ATOM     10  S   UNL     1       3.763   0.485  -4.952  1.00  0.00    -0.117 S 
BRANCH   7  11
ATOM     11  C   UNL     1       2.499  -1.688  -1.811  1.00  0.00     0.320 C 
BRANCH  11  12
ATOM     12  N   UNL     1       1.034  -1.822  -1.650  1.00  0.00    -0.325 N 
ATOM     13  H   UNL     1       0.958  -2.513  -0.904  1.00  0.00     0.348 HD
BRANCH  12  14
ATOM     14  C   UNL     1       0.337  -0.623  -1.172  1.00  0.00     0.259 C 
ATOM     15  C   UNL     1       0.808  -0.128   0.190  1.00  0.00     0.071 C 
ENDBRANCH  12  14
BRANCH  12  16
ATOM     16  C   UNL     1       0.363  -2.340  -2.862  1.00  0.00     0.319 C 
BRANCH  16  17
ATOM     17  C   UNL     1       0.575  -3.815  -3.147  1.00  0.00     0.095 A 
ATOM     18  C   UNL     1       0.886  -4.718  -2.132  1.00  0.00     0.030 A 
ATOM     19  N   UNL     1       0.333  -4.220  -4.420  1.00  0.00    -0.252 NA
ATOM     20  C   UNL     1       0.992  -6.068  -2.438  1.00  0.00     0.004 A 
ATOM     21  C   UNL     1       0.403  -5.544  -4.696  1.00  0.00     0.038 A 
ATOM     22  C   UNL     1       0.741  -6.491  -3.737  1.00  0.00     0.023 A 
ATOM     23  C   UNL     1       0.041  -5.955  -6.091  1.00  0.00     0.067 C 
ENDBRANCH  16  17
ENDBRANCH  12  16
ENDBRANCH  11  12
ENDBRANCH   7  11
ENDBRANCH   3   6
ENDBRANCH   1   2
BRANCH   1  24
ATOM     24  C   UNL     1       2.252   3.404  -0.353  1.00  0.00     0.042 C 
BRANCH  24  25
ATOM     25  C   UNL     1       2.112   4.867   0.045  1.00  0.00     0.118 C 
BRANCH  25  26
ATOM     26  N   UNL     1       0.735   5.222   0.374  1.00  0.00    -0.352 N 
ATOM     27  C   UNL     1       0.206   5.785   1.504  1.00  0.00     0.251 C 
ATOM     28  H   UNL     1       0.079   5.024  -0.333  1.00  0.00     0.163 HD
ATOM     29  O   UNL     1      -1.018   5.821   1.646  1.00  0.00    -0.269 OA
BRANCH  27  30
ATOM     30  C   UNL     1       1.080   6.335   2.558  1.00  0.00     0.039 A 
ATOM     31  C   UNL     1       0.705   6.176   3.895  1.00  0.00     0.014 A 
ATOM     32  C   UNL     1       2.244   7.039   2.240  1.00  0.00     0.014 A 
ATOM     33  C   UNL     1       1.522   6.675   4.910  1.00  0.00     0.010 A 
ATOM     34  C   UNL     1       3.103   7.455   3.252  1.00  0.00     0.010 A 
ATOM     35  C   UNL     1       2.744   7.292   4.597  1.00  0.00    -0.014 A 
BRANCH  35  36
ATOM     36  C   UNL     1       3.646   7.798   5.662  1.00  0.00     0.031 A 
ATOM     37  C   UNL     1       3.956   9.267   5.749  1.00  0.00     0.074 A 
ATOM     38  C   UNL     1       4.227   6.930   6.512  1.00  0.00     0.049 A 
ATOM     39  N   UNL     1       4.775   9.895   6.554  1.00  0.00    -0.248 NA
ATOM     40  C   UNL     1       3.277  10.145   4.782  1.00  0.00     0.031 C 
ATOM     41  C   UNL     1       4.044   5.478   6.496  1.00  0.00     0.029 A 
ATOM     42  N   UNL     1       5.099   7.143   7.550  1.00  0.00    -0.354 N 
ATOM     43  C   UNL     1       4.714  11.233   6.186  1.00  0.00     0.074 A 
ATOM     44  C   UNL     1       3.833  11.318   5.042  1.00  0.00     0.031 C 
ATOM     45  C   UNL     1       4.766   4.933   7.488  1.00  0.00     0.029 A 
ATOM     46  C   UNL     1       5.490   5.991   8.186  1.00  0.00     0.049 A 
ATOM     47  H   UNL     1       5.414   8.038   7.813  1.00  0.00     0.167 HD
ATOM     48  C   UNL     1       5.312  12.299   6.769  1.00  0.00     0.037 A 
ATOM     49  C   UNL     1       6.344   5.809   9.211  1.00  0.00     0.037 A 
ATOM     50  C   UNL     1       6.175  12.213   7.917  1.00  0.00     0.049 A 
ATOM     51  C   UNL     1       6.998   7.011   9.838  1.00  0.00     0.074 A 
ATOM     52  C   UNL     1       6.813  13.235   8.599  1.00  0.00     0.029 A 
ATOM     53  N   UNL     1       6.517  11.031   8.558  1.00  0.00    -0.354 N 
ATOM     54  N   UNL     1       6.890   8.277   9.515  1.00  0.00    -0.248 NA
ATOM     55  C   UNL     1       7.882   6.759  10.985  1.00  0.00     0.031 C 
ATOM     56  C   UNL     1       7.569  12.668   9.629  1.00  0.00     0.029 A 
ATOM     57  C   UNL     1       7.362  11.298   9.623  1.00  0.00     0.049 A 
ATOM     58  H   UNL     1       6.206  10.135   8.294  1.00  0.00     0.167 HD
ATOM     59  C   UNL     1       7.662   8.973  10.436  1.00  0.00     0.074 A 
ATOM     60  C   UNL     1       8.218   7.990  11.341  1.00  0.00     0.031 C 
ATOM     61  C   UNL     1       7.891  10.307  10.524  1.00  0.00     0.037 A 
BRANCH  48  62
ATOM     62  C   UNL     1       5.038  13.654   6.181  1.00  0.00     0.064 A 
ATOM     63  C   UNL     1       3.773  14.254   6.284  1.00  0.00     0.173 A 
ATOM     64  C   UNL     1       6.054  14.376   5.537  1.00  0.00     0.173 A 
ATOM     65  F   UNL     1       2.763  13.600   6.878  1.00  0.00    -0.203 F 
ATOM     66  C   UNL     1       3.528  15.511   5.740  1.00  0.00     0.198 A 
ATOM     67  C   UNL     1       5.814  15.648   5.023  1.00  0.00     0.198 A 
ATOM     68  F   UNL     1       7.283  13.853   5.414  1.00  0.00    -0.203 F 
ATOM     69  F   UNL     1       2.298  16.040   5.807  1.00  0.00    -0.200 F 
ATOM     70  C   UNL     1       4.550  16.211   5.118  1.00  0.00     0.200 A 
ATOM     71  F   UNL     1       6.806  16.329   4.433  1.00  0.00    -0.200 F 
ATOM     72  F   UNL     1       4.315  17.425   4.602  1.00  0.00    -0.200 F 
ENDBRANCH  48  62
BRANCH  49  73
ATOM     73  C   UNL     1       6.615   4.441   9.724  1.00  0.00     0.064 A 
ATOM     74  C   UNL     1       6.183   4.048  10.999  1.00  0.00     0.173 A 
ATOM     75  C   UNL     1       7.330   3.505   8.962  1.00  0.00     0.173 A 
ATOM     76  F   UNL     1       5.511   4.913  11.773  1.00  0.00    -0.203 F 
ATOM     77  C   UNL     1       6.484   2.786  11.505  1.00  0.00     0.198 A 
ATOM     78  C   UNL     1       7.603   2.232   9.457  1.00  0.00     0.198 A 
ATOM     79  F   UNL     1       7.759   3.826   7.733  1.00  0.00    -0.203 F 
ATOM     80  F   UNL     1       6.111   2.459  12.750  1.00  0.00    -0.200 F 
ATOM     81  C   UNL     1       7.191   1.877  10.732  1.00  0.00     0.200 A 
ATOM     82  F   UNL     1       8.272   1.351   8.700  1.00  0.00    -0.200 F 
ATOM     83  F   UNL     1       7.483   0.664  11.220  1.00  0.00    -0.200 F 
ENDBRANCH  49  73
BRANCH  61  84
ATOM     84  C   UNL     1       8.736  10.783  11.670  1.00  0.00     0.064 A 
ATOM     85  C   UNL     1      10.116  10.536  11.725  1.00  0.00     0.173 A 
ATOM     86  C   UNL     1       8.158  11.520  12.715  1.00  0.00     0.173 A 
ATOM     87  F   UNL     1      10.713   9.824  10.758  1.00  0.00    -0.203 F 
ATOM     88  C   UNL     1      10.879  10.980  12.802  1.00  0.00     0.198 A 
ATOM     89  C   UNL     1       8.931  11.991  13.773  1.00  0.00     0.198 A 
ATOM     90  F   UNL     1       6.845  11.791  12.707  1.00  0.00    -0.203 F 
ATOM     91  F   UNL     1      12.185  10.682  12.862  1.00  0.00    -0.200 F 
ATOM     92  C   UNL     1      10.288  11.711  13.821  1.00  0.00     0.200 A 
ATOM     93  F   UNL     1       8.360  12.710  14.749  1.00  0.00    -0.200 F 
ATOM     94  F   UNL     1      11.025  12.140  14.854  1.00  0.00    -0.200 F 
ENDBRANCH  61  84
ENDBRANCH  35  36
ENDBRANCH  27  30
ENDBRANCH  25  26
ENDBRANCH  24  25
ENDBRANCH   1  24
TORSDOF 15
