REMARK SMILES O=C(CSc1nc2cccnc2n1C1CCCCCC1)NCCCNC(=O)c1ccc(-c2c3nc(c(-c4c(F)c(F)c(F)c(F)c4F)c4ccc([nH]4)c(-c4c(F)c(F)c(F)c(F)c4F)c4nc(c(-c5c(F)c(F)c(F)c(F)c5F)c5ccc2[nH]5)C=C4)C=C3)cc1
REMARK SMILES IDX 1 1 2 2 21 3 3 5 4 6 5 7 6 8 13 9 7 10 12 11 8 12 11 13 9 14
REMARK SMILES IDX 10 15 14 16 15 17 16 18 17 19 20 21 19 22 18 23 22 25 23 26
REMARK SMILES IDX 24 27 25 28 26 29 27 31 28 32 29 33 90 34 30 35 89 36 31 37
REMARK SMILES IDX 32 38 33 39 83 40 34 41 88 42 82 43 84 44 35 45 87 46 81 47
REMARK SMILES IDX 80 48 36 50 68 51 48 52 67 53 49 54 52 55 66 56 85 57 50 58
REMARK SMILES IDX 51 59 65 61 86 62 53 63 37 64 38 65 46 66 39 67 40 68 44 69
REMARK SMILES IDX 47 70 41 71 42 72 45 73 43 74 69 75 70 76 78 77 71 78 72 79
REMARK SMILES IDX 76 80 79 81 73 82 74 83 77 84 75 85 54 86 55 87 63 88 56 89
REMARK SMILES IDX 57 90 61 91 64 92 58 93 59 94 62 95 60 96
REMARK H PARENT 21 4 25 30 84 49 52 60
REMARK Flexibility Score: 90.00
ROOT
ATOM      1  O   UNL     1       0.838  -0.184  -0.092  1.00  0.00    -0.274 OA
ATOM      2  C   UNL     1       2.051  -0.004  -0.170  1.00  0.00     0.230 C 
ATOM      3  N   UNL     1       2.727   0.855   0.678  1.00  0.00    -0.355 N 
ATOM      4  H   UNL     1       3.711   0.874   0.653  1.00  0.00     0.163 HD
ENDROOT
BRANCH   2   5
ATOM      5  C   UNL     1       2.917  -0.805  -1.133  1.00  0.00     0.178 C 
BRANCH   5   6
ATOM      6  S   UNL     1       4.172   0.212  -1.959  1.00  0.00    -0.078 SA
BRANCH   6   7
ATOM      7  C   UNL     1       3.172   1.281  -2.893  1.00  0.00     0.171 A 
ATOM      8  N   UNL     1       2.189   0.883  -3.670  1.00  0.00    -0.221 NA
ATOM      9  N   UNL     1       3.356   2.645  -2.929  1.00  0.00    -0.301 N 
ATOM     10  C   UNL     1       1.713   2.033  -4.250  1.00  0.00     0.109 A 
ATOM     11  C   UNL     1       2.412   3.144  -3.794  1.00  0.00     0.160 A 
ATOM     12  C   UNL     1       0.693   2.247  -5.186  1.00  0.00     0.034 A 
ATOM     13  N   UNL     1       2.211   4.431  -4.137  1.00  0.00    -0.237 NA
ATOM     14  C   UNL     1       0.451   3.564  -5.585  1.00  0.00     0.022 A 
ATOM     15  C   UNL     1       1.217   4.588  -5.039  1.00  0.00     0.113 A 
BRANCH   9  16
ATOM     16  C   UNL     1       4.355   3.441  -2.210  1.00  0.00     0.091 C 
BRANCH  16  17
ATOM     17  C   UNL     1       5.402   4.052  -3.159  1.00  0.00     0.025 C 
BRANCH  17  18
ATOM     18  C   UNL     1       5.255   5.537  -3.485  1.00  0.00     0.002 C 
BRANCH  18  19
ATOM     19  C   UNL     1       5.815   6.458  -2.404  1.00  0.00     0.000 CG0
ATOM     20  G   UNL     1       4.971   6.571  -1.139  1.00  0.00     0.000 G0
ENDBRANCH  18  19
ENDBRANCH  17  18
ENDBRANCH  16  17
BRANCH  16  21
ATOM     21  C   UNL     1       3.694   4.380  -1.193  1.00  0.00     0.025 C 
BRANCH  21  22
ATOM     22  C   UNL     1       4.686   5.251  -0.429  1.00  0.00     0.002 C 
BRANCH  22  23
ATOM     23  C   UNL     1       4.971   6.571  -1.139  1.00  0.00     0.000 CG0
ATOM     24  G   UNL     1       5.815   6.458  -2.404  1.00  0.00     0.000 G0
ENDBRANCH  22  23
ENDBRANCH  21  22
ENDBRANCH  16  21
ENDBRANCH   9  16
ENDBRANCH   6   7
ENDBRANCH   5   6
ENDBRANCH   2   5
BRANCH   3  25
ATOM     25  C   UNL     1       2.028   1.731   1.606  1.00  0.00     0.117 C 
BRANCH  25  26
ATOM     26  C   UNL     1       2.258   1.378   3.075  1.00  0.00     0.042 C 
BRANCH  26  27
ATOM     27  C   UNL     1       3.673   1.685   3.537  1.00  0.00     0.118 C 
BRANCH  27  28
ATOM     28  N   UNL     1       3.966   3.116   3.598  1.00  0.00    -0.352 N 
ATOM     29  C   UNL     1       5.048   3.744   4.186  1.00  0.00     0.251 C 
ATOM     30  H   UNL     1       3.309   3.708   3.166  1.00  0.00     0.163 HD
ATOM     31  O   UNL     1       5.035   4.944   4.402  1.00  0.00    -0.269 OA
BRANCH  29  32
ATOM     32  C   UNL     1       6.235   2.942   4.537  1.00  0.00     0.039 A 
ATOM     33  C   UNL     1       6.955   3.203   5.709  1.00  0.00     0.014 A 
ATOM     34  C   UNL     1       6.646   1.942   3.658  1.00  0.00     0.014 A 
ATOM     35  C   UNL     1       8.065   2.418   6.009  1.00  0.00     0.010 A 
ATOM     36  C   UNL     1       7.659   1.090   4.010  1.00  0.00     0.010 A 
ATOM     37  C   UNL     1       8.405   1.366   5.151  1.00  0.00    -0.014 A 
BRANCH  37  38
ATOM     38  C   UNL     1       9.522   0.484   5.442  1.00  0.00     0.031 A 
ATOM     39  C   UNL     1       9.347  -0.396   6.631  1.00  0.00     0.074 A 
ATOM     40  C   UNL     1      10.509   0.297   4.541  1.00  0.00     0.049 A 
ATOM     41  N   UNL     1      10.089  -0.465   7.686  1.00  0.00    -0.248 NA
ATOM     42  C   UNL     1       8.142  -1.241   6.697  1.00  0.00     0.031 C 
ATOM     43  C   UNL     1      10.627   0.846   3.184  1.00  0.00     0.029 A 
ATOM     44  N   UNL     1      11.581  -0.532   4.619  1.00  0.00    -0.354 N 
ATOM     45  C   UNL     1       9.541  -1.467   8.485  1.00  0.00     0.074 A 
ATOM     46  C   UNL     1       8.271  -1.805   7.899  1.00  0.00     0.031 C 
ATOM     47  C   UNL     1      11.574   0.165   2.502  1.00  0.00     0.029 A 
ATOM     48  C   UNL     1      12.231  -0.753   3.413  1.00  0.00     0.049 A 
ATOM     49  H   UNL     1      11.874  -0.943   5.464  1.00  0.00     0.167 HD
ATOM     50  C   UNL     1      10.269  -2.080   9.461  1.00  0.00     0.037 A 
ATOM     51  C   UNL     1      13.209  -1.666   3.186  1.00  0.00     0.037 A 
ATOM     52  C   UNL     1      11.443  -1.316   9.791  1.00  0.00     0.049 A 
ATOM     53  C   UNL     1      13.768  -2.045   4.511  1.00  0.00     0.074 A 
ATOM     54  C   UNL     1      11.648  -0.050  10.304  1.00  0.00     0.029 A 
ATOM     55  N   UNL     1      12.641  -1.687   9.230  1.00  0.00    -0.354 N 
ATOM     56  N   UNL     1      14.444  -1.225   5.269  1.00  0.00    -0.248 NA
ATOM     57  C   UNL     1      13.150  -3.170   5.200  1.00  0.00     0.031 C 
ATOM     58  C   UNL     1      12.760   0.463   9.574  1.00  0.00     0.029 A 
ATOM     59  C   UNL     1      13.214  -0.547   8.723  1.00  0.00     0.049 A 
ATOM     60  H   UNL     1      13.017  -2.596   9.198  1.00  0.00     0.167 HD
ATOM     61  C   UNL     1      13.997  -1.482   6.557  1.00  0.00     0.074 A 
ATOM     62  C   UNL     1      13.251  -2.736   6.460  1.00  0.00     0.031 C 
ATOM     63  C   UNL     1      14.016  -0.516   7.522  1.00  0.00     0.037 A 
BRANCH  50  64
ATOM     64  C   UNL     1      10.088  -3.509   9.902  1.00  0.00     0.064 A 
ATOM     65  C   UNL     1      10.762  -3.974  11.050  1.00  0.00     0.173 A 
ATOM     66  C   UNL     1       9.507  -4.508   9.092  1.00  0.00     0.173 A 
ATOM     67  F   UNL     1      11.375  -3.115  11.878  1.00  0.00    -0.203 F 
ATOM     68  C   UNL     1      10.892  -5.338  11.329  1.00  0.00     0.198 A 
ATOM     69  C   UNL     1       9.591  -5.864   9.403  1.00  0.00     0.198 A 
ATOM     70  F   UNL     1       8.935  -4.224   7.916  1.00  0.00    -0.203 F 
ATOM     71  F   UNL     1      11.640  -5.736  12.367  1.00  0.00    -0.200 F 
ATOM     72  C   UNL     1      10.308  -6.282  10.505  1.00  0.00     0.200 A 
ATOM     73  F   UNL     1       9.036  -6.764   8.579  1.00  0.00    -0.200 F 
ATOM     74  F   UNL     1      10.477  -7.589  10.739  1.00  0.00    -0.200 F 
ENDBRANCH  50  64
BRANCH  51  75
ATOM     75  C   UNL     1      13.464  -2.444   1.951  1.00  0.00     0.064 A 
ATOM     76  C   UNL     1      14.695  -3.079   1.726  1.00  0.00     0.173 A 
ATOM     77  C   UNL     1      12.410  -2.799   1.085  1.00  0.00     0.173 A 
ATOM     78  F   UNL     1      15.736  -2.834   2.536  1.00  0.00    -0.203 F 
ATOM     79  C   UNL     1      14.859  -4.023   0.706  1.00  0.00     0.198 A 
ATOM     80  C   UNL     1      12.575  -3.737   0.065  1.00  0.00     0.198 A 
ATOM     81  F   UNL     1      11.174  -2.312   1.271  1.00  0.00    -0.203 F 
ATOM     82  F   UNL     1      16.035  -4.648   0.554  1.00  0.00    -0.200 F 
ATOM     83  C   UNL     1      13.796  -4.358  -0.118  1.00  0.00     0.200 A 
ATOM     84  F   UNL     1      11.528  -4.080  -0.699  1.00  0.00    -0.200 F 
ATOM     85  F   UNL     1      13.937  -5.303  -1.058  1.00  0.00    -0.200 F 
ENDBRANCH  51  75
BRANCH  63  86
ATOM     86  C   UNL     1      14.712   0.784   7.218  1.00  0.00     0.064 A 
ATOM     87  C   UNL     1      14.298   1.678   6.213  1.00  0.00     0.173 A 
ATOM     88  C   UNL     1      15.706   1.231   8.098  1.00  0.00     0.173 A 
ATOM     89  F   UNL     1      13.288   1.374   5.392  1.00  0.00    -0.203 F 
ATOM     90  C   UNL     1      14.869   2.943   6.082  1.00  0.00     0.198 A 
ATOM     91  C   UNL     1      16.250   2.508   7.989  1.00  0.00     0.198 A 
ATOM     92  F   UNL     1      16.104   0.447   9.113  1.00  0.00    -0.203 F 
ATOM     93  F   UNL     1      14.449   3.774   5.116  1.00  0.00    -0.200 F 
ATOM     94  C   UNL     1      15.837   3.361   6.978  1.00  0.00     0.200 A 
ATOM     95  F   UNL     1      17.148   2.928   8.891  1.00  0.00    -0.200 F 
ATOM     96  F   UNL     1      16.348   4.597   6.888  1.00  0.00    -0.200 F 
ENDBRANCH  63  86
ENDBRANCH  37  38
ENDBRANCH  29  32
ENDBRANCH  27  28
ENDBRANCH  26  27
ENDBRANCH  25  26
ENDBRANCH   3  25
TORSDOF 13
