REMARK SMILES Cc1ccc2oc(-c3ccc4c(c3)OCO4)c/c(=N\[C@H](C)C(=O)NCCCNC(=O)c3ccc(-c4c5nc(c(-c6c(F)c(F)c(F)c(F)c6F)c6ccc([nH]6)c(-c6c(F)c(F)c(F)c(F)c6F)c6nc(c(-c7c(F)c(F)c(F)c(F)c7F)c7ccc4[nH]7)C=C6)C=C5)cc3)c2c1
REMARK SMILES IDX 26 1 25 2 24 3 22 4 23 5 20 7 21 8 19 9 1 10 2 11 3 12 95 13
REMARK SMILES IDX 4 14 94 15 5 16 18 17 6 18 17 19 7 20 8 21 9 22 13 23 10 24
REMARK SMILES IDX 12 25 11 26 14 27 16 28 15 29 27 30 28 31 29 32 30 34 31 35
REMARK SMILES IDX 32 36 93 37 33 38 92 39 34 40 35 41 36 42 86 43 37 44 91 45
REMARK SMILES IDX 85 46 87 47 38 48 90 49 84 50 83 51 39 53 71 54 51 55 70 56
REMARK SMILES IDX 52 57 55 58 69 59 88 60 53 61 54 62 68 64 89 65 56 66 40 67
REMARK SMILES IDX 41 68 49 69 42 70 43 71 47 72 50 73 44 74 45 75 48 76 46 77
REMARK SMILES IDX 72 78 73 79 81 80 74 81 75 82 79 83 82 84 76 85 77 86 80 87
REMARK SMILES IDX 78 88 57 89 58 90 66 91 59 92 60 93 64 94 67 95 61 96 62 97
REMARK SMILES IDX 65 98 63 99
REMARK H PARENT 24 6 28 33 87 52 55 63
REMARK Flexibility Score: inf
ROOT
ATOM      1  C   UNL     1      -0.280   2.992  -0.943  1.00  0.00     0.042 C 
ENDROOT
BRANCH   1   2
ATOM      2  C   UNL     1       0.706   1.846  -0.762  1.00  0.00     0.117 C 
BRANCH   2   3
ATOM      3  N   UNL     1       1.693   1.774  -1.819  1.00  0.00    -0.354 N 
ATOM      4  C   UNL     1       2.990   2.187  -1.881  1.00  0.00     0.244 C 
ATOM      5  O   UNL     1       3.611   1.851  -2.898  1.00  0.00    -0.273 OA
ATOM      6  H   UNL     1       1.367   1.347  -2.644  1.00  0.00     0.163 HD
BRANCH   4   7
ATOM      7  C   UNL     1       3.651   3.134  -0.860  1.00  0.00     0.191 C 
ATOM      8  C   UNL     1       3.402   4.574  -1.263  1.00  0.00     0.044 C 
BRANCH   7   9
ATOM      9  N   UNL     1       3.409   2.730   0.528  1.00  0.00    -0.271 NA
ATOM     10  C   UNL     1       4.147  -0.497   4.536  1.00  0.00     0.044 C 
ATOM     11  C   UNL     1       3.271   0.683   4.227  1.00  0.00    -0.050 A 
ATOM     12  C   UNL     1       2.250   1.044   5.117  1.00  0.00     0.007 A 
ATOM     13  C   UNL     1       3.434   1.411   3.039  1.00  0.00     0.017 A 
ATOM     14  C   UNL     1       1.408   2.120   4.830  1.00  0.00     0.048 A 
ATOM     15  C   UNL     1       2.595   2.497   2.753  1.00  0.00     0.043 A 
ATOM     16  C   UNL     1       1.583   2.846   3.652  1.00  0.00     0.136 A 
ATOM     17  C   UNL     1       2.718   3.249   1.468  1.00  0.00     0.073 A 
ATOM     18  O   UNL     1       0.713   3.886   3.431  1.00  0.00    -0.456 OA
ATOM     19  C   UNL     1       1.925   4.492   1.435  1.00  0.00     0.076 A 
ATOM     20  C   UNL     1       0.990   4.711   2.367  1.00  0.00     0.136 A 
BRANCH  20  21
ATOM     21  C   UNL     1       0.210   5.946   2.291  1.00  0.00     0.021 A 
ATOM     22  C   UNL     1      -1.022   5.990   1.600  1.00  0.00     0.016 A 
ATOM     23  C   UNL     1       0.766   7.120   2.817  1.00  0.00     0.062 A 
ATOM     24  C   UNL     1      -1.695   7.203   1.419  1.00  0.00     0.051 A 
ATOM     25  C   UNL     1       0.070   8.292   2.641  1.00  0.00     0.166 A 
ATOM     26  C   UNL     1      -1.125   8.334   1.959  1.00  0.00     0.165 A 
ATOM     27  O   UNL     1       0.457   9.515   3.088  1.00  0.00    -0.454 OA
ATOM     28  O   UNL     1      -1.639   9.591   1.901  1.00  0.00    -0.454 OA
ATOM     29  C   UNL     1      -0.699  10.303   2.735  1.00  0.00     0.468 C 
ENDBRANCH  20  21
ENDBRANCH   7   9
ENDBRANCH   4   7
ENDBRANCH   2   3
ENDBRANCH   1   2
BRANCH   1  30
ATOM     30  C   UNL     1      -1.431   2.642  -1.876  1.00  0.00     0.118 C 
BRANCH  30  31
ATOM     31  N   UNL     1      -2.360   1.689  -1.271  1.00  0.00    -0.352 N 
ATOM     32  C   UNL     1      -3.716   1.757  -1.074  1.00  0.00     0.251 C 
ATOM     33  H   UNL     1      -1.941   0.858  -0.951  1.00  0.00     0.163 HD
ATOM     34  O   UNL     1      -4.265   0.918  -0.358  1.00  0.00    -0.269 OA
BRANCH  32  35
ATOM     35  C   UNL     1      -4.524   2.837  -1.683  1.00  0.00     0.039 A 
ATOM     36  C   UNL     1      -4.220   3.338  -2.946  1.00  0.00     0.014 A 
ATOM     37  C   UNL     1      -5.620   3.352  -0.981  1.00  0.00     0.014 A 
ATOM     38  C   UNL     1      -4.864   4.478  -3.410  1.00  0.00     0.010 A 
ATOM     39  C   UNL     1      -6.348   4.425  -1.507  1.00  0.00     0.010 A 
ATOM     40  C   UNL     1      -5.935   5.041  -2.697  1.00  0.00    -0.014 A 
BRANCH  40  41
ATOM     41  C   UNL     1      -6.570   6.283  -3.216  1.00  0.00     0.031 A 
ATOM     42  C   UNL     1      -6.522   7.562  -2.423  1.00  0.00     0.074 A 
ATOM     43  C   UNL     1      -7.100   6.283  -4.455  1.00  0.00     0.049 A 
ATOM     44  N   UNL     1      -6.916   8.763  -2.768  1.00  0.00    -0.248 NA
ATOM     45  C   UNL     1      -5.966   7.487  -1.063  1.00  0.00     0.031 C 
ATOM     46  C   UNL     1      -7.201   5.109  -5.322  1.00  0.00     0.029 A 
ATOM     47  N   UNL     1      -7.603   7.305  -5.221  1.00  0.00    -0.354 N 
ATOM     48  C   UNL     1      -6.660   9.578  -1.673  1.00  0.00     0.074 A 
ATOM     49  C   UNL     1      -6.132   8.728  -0.630  1.00  0.00     0.031 C 
ATOM     50  C   UNL     1      -7.645   5.490  -6.528  1.00  0.00     0.029 A 
ATOM     51  C   UNL     1      -7.927   6.921  -6.500  1.00  0.00     0.049 A 
ATOM     52  H   UNL     1      -7.719   8.224  -4.887  1.00  0.00     0.167 HD
ATOM     53  C   UNL     1      -6.822  10.918  -1.556  1.00  0.00     0.037 A 
ATOM     54  C   UNL     1      -8.398   7.639  -7.538  1.00  0.00     0.037 A 
ATOM     55  C   UNL     1      -7.334  11.765  -2.601  1.00  0.00     0.049 A 
ATOM     56  C   UNL     1      -8.641   9.111  -7.361  1.00  0.00     0.074 A 
ATOM     57  C   UNL     1      -7.516  13.136  -2.588  1.00  0.00     0.029 A 
ATOM     58  N   UNL     1      -7.751  11.318  -3.848  1.00  0.00    -0.354 N 
ATOM     59  N   UNL     1      -8.365   9.873  -6.331  1.00  0.00    -0.248 NA
ATOM     60  C   UNL     1      -9.279   9.818  -8.480  1.00  0.00     0.031 C 
ATOM     61  C   UNL     1      -8.091  13.512  -3.805  1.00  0.00     0.029 A 
ATOM     62  C   UNL     1      -8.225  12.382  -4.597  1.00  0.00     0.049 A 
ATOM     63  H   UNL     1      -7.715  10.383  -4.154  1.00  0.00     0.167 HD
ATOM     64  C   UNL     1      -8.794  11.147  -6.674  1.00  0.00     0.074 A 
ATOM     65  C   UNL     1      -9.324  11.062  -8.020  1.00  0.00     0.031 C 
ATOM     66  C   UNL     1      -8.760  12.281  -5.933  1.00  0.00     0.037 A 
BRANCH  53  67
ATOM     67  C   UNL     1      -6.446  11.550  -0.245  1.00  0.00     0.064 A 
ATOM     68  C   UNL     1      -5.108  11.641   0.172  1.00  0.00     0.173 A 
ATOM     69  C   UNL     1      -7.431  12.094   0.594  1.00  0.00     0.173 A 
ATOM     70  F   UNL     1      -4.128  11.131  -0.590  1.00  0.00    -0.203 F 
ATOM     71  C   UNL     1      -4.774  12.219   1.394  1.00  0.00     0.198 A 
ATOM     72  C   UNL     1      -7.090  12.700   1.801  1.00  0.00     0.198 A 
ATOM     73  F   UNL     1      -8.724  12.044   0.241  1.00  0.00    -0.203 F 
ATOM     74  F   UNL     1      -3.495  12.247   1.796  1.00  0.00    -0.200 F 
ATOM     75  C   UNL     1      -5.765  12.753   2.204  1.00  0.00     0.200 A 
ATOM     76  F   UNL     1      -8.047  13.232   2.575  1.00  0.00    -0.200 F 
ATOM     77  F   UNL     1      -5.442  13.313   3.378  1.00  0.00    -0.200 F 
ENDBRANCH  53  67
BRANCH  54  78
ATOM     78  C   UNL     1      -8.643   6.964  -8.839  1.00  0.00     0.064 A 
ATOM     79  C   UNL     1      -7.828   7.226  -9.948  1.00  0.00     0.173 A 
ATOM     80  C   UNL     1      -9.652   6.000  -8.984  1.00  0.00     0.173 A 
ATOM     81  F   UNL     1      -6.862   8.153  -9.865  1.00  0.00    -0.203 F 
ATOM     82  C   UNL     1      -8.007   6.543 -11.150  1.00  0.00     0.198 A 
ATOM     83  C   UNL     1      -9.812   5.298 -10.176  1.00  0.00     0.198 A 
ATOM     84  F   UNL     1     -10.457   5.711  -7.951  1.00  0.00    -0.203 F 
ATOM     85  F   UNL     1      -7.225   6.824 -12.201  1.00  0.00    -0.200 F 
ATOM     86  C   UNL     1      -8.991   5.571 -11.259  1.00  0.00     0.200 A 
ATOM     87  F   UNL     1     -10.751   4.346 -10.270  1.00  0.00    -0.200 F 
ATOM     88  F   UNL     1      -9.145   4.896 -12.406  1.00  0.00    -0.200 F 
ENDBRANCH  54  78
BRANCH  66  89
ATOM     89  C   UNL     1      -9.330  13.530  -6.539  1.00  0.00     0.064 A 
ATOM     90  C   UNL     1     -10.715  13.708  -6.659  1.00  0.00     0.173 A 
ATOM     91  C   UNL     1      -8.495  14.598  -6.898  1.00  0.00     0.173 A 
ATOM     92  F   UNL     1     -11.554  12.709  -6.343  1.00  0.00    -0.203 F 
ATOM     93  C   UNL     1     -11.245  14.912  -7.113  1.00  0.00     0.198 A 
ATOM     94  C   UNL     1      -9.028  15.811  -7.326  1.00  0.00     0.198 A 
ATOM     95  F   UNL     1      -7.162  14.479  -6.796  1.00  0.00    -0.203 F 
ATOM     96  F   UNL     1     -12.572  15.055  -7.236  1.00  0.00    -0.200 F 
ATOM     97  C   UNL     1     -10.402  15.967  -7.432  1.00  0.00     0.200 A 
ATOM     98  F   UNL     1      -8.214  16.834  -7.617  1.00  0.00    -0.200 F 
ATOM     99  F   UNL     1     -10.915  17.136  -7.840  1.00  0.00    -0.200 F 
ENDBRANCH  66  89
ENDBRANCH  40  41
ENDBRANCH  32  35
ENDBRANCH  30  31
ENDBRANCH   1  30
TORSDOF 12
