REMARK SMILES O=C(NCCCNC(=O)c1cccc(OS(=O)(=O)c2cccc([N+](=O)[O-])c2)c1)c1ccc(-c2c3nc(c(-c4c(F)c(F)c(F)c(F)c4F)c4ccc([nH]4)c(-c4c(F)c(F)c(F)c(F)c4F)c4nc(c(-c5c(F)c(F)c(F)c(F)c5F)c5ccc2[nH]5)C=C4)C=C3)cc1
REMARK SMILES IDX 6 1 5 2 4 3 3 4 1 5 2 6 29 8 30 9 91 10 31 11 90 12 32 13
REMARK SMILES IDX 33 14 34 15 84 16 35 17 89 18 83 19 85 20 36 21 88 22 82 23
REMARK SMILES IDX 81 24 37 26 69 27 49 28 68 29 50 30 53 31 67 32 86 33 51 34
REMARK SMILES IDX 52 35 66 37 87 38 54 39 38 40 39 41 47 42 40 43 41 44 45 45
REMARK SMILES IDX 48 46 42 47 43 48 46 49 44 50 70 51 71 52 79 53 72 54 73 55
REMARK SMILES IDX 77 56 80 57 74 58 75 59 78 60 76 61 55 62 56 63 64 64 57 65
REMARK SMILES IDX 58 66 62 67 65 68 59 69 60 70 63 71 61 72 7 73 8 74 9 76
REMARK SMILES IDX 10 77 11 78 28 79 12 80 14 81 13 82 15 83 16 84 17 85 18 86
REMARK SMILES IDX 19 87 20 88 27 89 21 90 23 91 22 92 24 93 25 94 26 95
REMARK H PARENT 3 7 85 25 53 36 7 75
REMARK Flexibility Score: inf
ROOT
ATOM      1  C   UNL     1       4.447   3.031  -2.225  1.00  0.00     0.118 C 
ENDROOT
BRANCH   1   2
ATOM      2  C   UNL     1       4.906   1.639  -1.824  1.00  0.00     0.042 C 
BRANCH   2   3
ATOM      3  C   UNL     1       4.532   1.257  -0.403  1.00  0.00     0.118 C 
BRANCH   3   4
ATOM      4  N   UNL     1       3.100   1.053  -0.224  1.00  0.00    -0.352 N 
ATOM      5  O   UNL     1       1.177  -0.084   0.070  1.00  0.00    -0.269 OA
ATOM      6  C   UNL     1       2.403  -0.081   0.119  1.00  0.00     0.251 C 
ATOM      7  H   UNL     1       2.546   1.853  -0.373  1.00  0.00     0.163 HD
BRANCH   6   8
ATOM      8  C   UNL     1       3.123  -1.307   0.528  1.00  0.00     0.039 A 
ATOM      9  C   UNL     1       4.238  -1.237   1.363  1.00  0.00     0.014 A 
ATOM     10  C   UNL     1       2.661  -2.552   0.088  1.00  0.00     0.014 A 
ATOM     11  C   UNL     1       4.988  -2.379   1.614  1.00  0.00     0.010 A 
ATOM     12  C   UNL     1       3.353  -3.717   0.436  1.00  0.00     0.010 A 
ATOM     13  C   UNL     1       4.541  -3.636   1.176  1.00  0.00    -0.014 A 
BRANCH  13  14
ATOM     14  C   UNL     1       5.302  -4.844   1.586  1.00  0.00     0.031 A 
ATOM     15  C   UNL     1       5.988  -5.721   0.579  1.00  0.00     0.074 A 
ATOM     16  C   UNL     1       5.412  -5.108   2.903  1.00  0.00     0.049 A 
ATOM     17  N   UNL     1       6.735  -6.778   0.783  1.00  0.00    -0.248 NA
ATOM     18  C   UNL     1       5.811  -5.380  -0.841  1.00  0.00     0.031 C 
ATOM     19  C   UNL     1       4.770  -4.336   3.971  1.00  0.00     0.029 A 
ATOM     20  N   UNL     1       6.121  -6.071   3.573  1.00  0.00    -0.354 N 
ATOM     21  C   UNL     1       7.103  -7.236  -0.475  1.00  0.00     0.074 A 
ATOM     22  C   UNL     1       6.479  -6.357  -1.441  1.00  0.00     0.031 C 
ATOM     23  C   UNL     1       5.164  -4.813   5.159  1.00  0.00     0.029 A 
ATOM     24  C   UNL     1       6.031  -5.964   4.940  1.00  0.00     0.049 A 
ATOM     25  H   UNL     1       6.643  -6.771   3.119  1.00  0.00     0.167 HD
ATOM     26  C   UNL     1       7.897  -8.288  -0.789  1.00  0.00     0.037 A 
ATOM     27  C   UNL     1       6.576  -6.717   5.912  1.00  0.00     0.037 A 
ATOM     28  C   UNL     1       8.531  -9.148   0.178  1.00  0.00     0.049 A 
ATOM     29  C   UNL     1       7.448  -7.876   5.529  1.00  0.00     0.074 A 
ATOM     30  C   UNL     1       9.373 -10.224  -0.043  1.00  0.00     0.029 A 
ATOM     31  N   UNL     1       8.392  -9.027   1.554  1.00  0.00    -0.354 N 
ATOM     32  N   UNL     1       7.806  -8.281   4.336  1.00  0.00    -0.248 NA
ATOM     33  C   UNL     1       7.986  -8.687   6.629  1.00  0.00     0.031 C 
ATOM     34  C   UNL     1       9.714 -10.777   1.196  1.00  0.00     0.029 A 
ATOM     35  C   UNL     1       9.118 -10.021   2.192  1.00  0.00     0.049 A 
ATOM     36  H   UNL     1       7.856  -8.338   2.009  1.00  0.00     0.167 HD
ATOM     37  C   UNL     1       8.614  -9.389   4.538  1.00  0.00     0.074 A 
ATOM     38  C   UNL     1       8.720  -9.573   5.971  1.00  0.00     0.031 C 
ATOM     39  C   UNL     1       9.205 -10.191   3.619  1.00  0.00     0.037 A 
BRANCH  26  40
ATOM     40  C   UNL     1       8.127  -8.583  -2.243  1.00  0.00     0.064 A 
ATOM     41  C   UNL     1       8.967  -7.782  -3.031  1.00  0.00     0.173 A 
ATOM     42  C   UNL     1       7.559  -9.721  -2.836  1.00  0.00     0.173 A 
ATOM     43  F   UNL     1       9.526  -6.678  -2.514  1.00  0.00    -0.203 F 
ATOM     44  C   UNL     1       9.220  -8.103  -4.363  1.00  0.00     0.198 A 
ATOM     45  C   UNL     1       7.833 -10.052  -4.161  1.00  0.00     0.198 A 
ATOM     46  F   UNL     1       6.755 -10.524  -2.124  1.00  0.00    -0.203 F 
ATOM     47  F   UNL     1      10.004  -7.309  -5.105  1.00  0.00    -0.200 F 
ATOM     48  C   UNL     1       8.660  -9.242  -4.924  1.00  0.00     0.200 A 
ATOM     49  F   UNL     1       7.301 -11.159  -4.698  1.00  0.00    -0.200 F 
ATOM     50  F   UNL     1       8.917  -9.557  -6.201  1.00  0.00    -0.200 F 
ENDBRANCH  26  40
BRANCH  27  51
ATOM     51  C   UNL     1       6.302  -6.396   7.336  1.00  0.00     0.064 A 
ATOM     52  C   UNL     1       7.313  -5.912   8.176  1.00  0.00     0.173 A 
ATOM     53  C   UNL     1       5.019  -6.559   7.881  1.00  0.00     0.173 A 
ATOM     54  F   UNL     1       8.559  -5.758   7.705  1.00  0.00    -0.203 F 
ATOM     55  C   UNL     1       7.056  -5.620   9.514  1.00  0.00     0.198 A 
ATOM     56  C   UNL     1       4.756  -6.237   9.210  1.00  0.00     0.198 A 
ATOM     57  F   UNL     1       4.016  -7.013   7.116  1.00  0.00    -0.203 F 
ATOM     58  F   UNL     1       8.050  -5.200  10.308  1.00  0.00    -0.200 F 
ATOM     59  C   UNL     1       5.776  -5.775  10.027  1.00  0.00     0.200 A 
ATOM     60  F   UNL     1       3.515  -6.372   9.696  1.00  0.00    -0.200 F 
ATOM     61  F   UNL     1       5.529  -5.487  11.312  1.00  0.00    -0.200 F 
ENDBRANCH  27  51
BRANCH  39  62
ATOM     62  C   UNL     1      10.024 -11.330   4.147  1.00  0.00     0.064 A 
ATOM     63  C   UNL     1       9.419 -12.457   4.725  1.00  0.00     0.173 A 
ATOM     64  C   UNL     1      11.423 -11.299   4.068  1.00  0.00     0.173 A 
ATOM     65  F   UNL     1       8.084 -12.522   4.839  1.00  0.00    -0.203 F 
ATOM     66  C   UNL     1      10.190 -13.498   5.233  1.00  0.00     0.198 A 
ATOM     67  C   UNL     1      12.189 -12.355   4.553  1.00  0.00     0.198 A 
ATOM     68  F   UNL     1      12.047 -10.245   3.521  1.00  0.00    -0.203 F 
ATOM     69  F   UNL     1       9.594 -14.540   5.830  1.00  0.00    -0.200 F 
ATOM     70  C   UNL     1      11.573 -13.449   5.143  1.00  0.00     0.200 A 
ATOM     71  F   UNL     1      13.525 -12.310   4.458  1.00  0.00    -0.200 F 
ATOM     72  F   UNL     1      12.313 -14.451   5.636  1.00  0.00    -0.200 F 
ENDBRANCH  39  62
ENDBRANCH  13  14
ENDBRANCH   6   8
ENDBRANCH   3   4
ENDBRANCH   2   3
ENDBRANCH   1   2
BRANCH   1  73
ATOM     73  N   UNL     1       5.112   4.080  -1.457  1.00  0.00    -0.352 N 
ATOM     74  C   UNL     1       5.982   5.058  -1.881  1.00  0.00     0.251 C 
ATOM     75  H   UNL     1       4.907   4.090  -0.494  1.00  0.00     0.163 HD
ATOM     76  O   UNL     1       6.603   5.733  -1.068  1.00  0.00    -0.269 OA
BRANCH  74  77
ATOM     77  C   UNL     1       6.170   5.285  -3.329  1.00  0.00     0.043 A 
ATOM     78  C   UNL     1       7.454   5.380  -3.861  1.00  0.00     0.014 A 
ATOM     79  C   UNL     1       5.051   5.378  -4.161  1.00  0.00     0.062 A 
ATOM     80  C   UNL     1       7.612   5.487  -5.244  1.00  0.00     0.005 A 
ATOM     81  C   UNL     1       5.205   5.385  -5.544  1.00  0.00     0.143 A 
ATOM     82  C   UNL     1       6.491   5.466  -6.085  1.00  0.00     0.048 A 
BRANCH  81  83
ATOM     83  O   UNL     1       4.150   5.281  -6.423  1.00  0.00    -0.379 OA
BRANCH  83  84
ATOM     84  S   UNL     1       2.747   4.590  -5.933  1.00  0.00     0.339 S 
ATOM     85  O   UNL     1       3.030   3.254  -5.440  1.00  0.00    -0.181 OA
ATOM     86  O   UNL     1       2.018   5.537  -5.110  1.00  0.00    -0.181 OA
BRANCH  84  87
ATOM     87  C   UNL     1       1.781   4.399  -7.414  1.00  0.00     0.112 A 
ATOM     88  C   UNL     1       1.262   5.543  -8.029  1.00  0.00     0.024 A 
ATOM     89  C   UNL     1       1.431   3.119  -7.858  1.00  0.00     0.109 A 
ATOM     90  C   UNL     1       0.382   5.411  -9.103  1.00  0.00     0.009 A 
ATOM     91  C   UNL     1       0.540   2.999  -8.932  1.00  0.00     0.270 A 
ATOM     92  C   UNL     1       0.014   4.141  -9.555  1.00  0.00     0.086 A 
BRANCH  91  93
ATOM     93  N   UNL     1       0.127   1.666  -9.390  1.00  0.00     0.062 N 
ATOM     94  O   UNL     1      -0.743   1.603 -10.270  1.00  0.00    -0.258 OA
ATOM     95  O   UNL     1       0.676   0.685  -8.869  1.00  0.00    -0.258 OA
ENDBRANCH  91  93
ENDBRANCH  84  87
ENDBRANCH  83  84
ENDBRANCH  81  83
ENDBRANCH  74  77
ENDBRANCH   1  73
TORSDOF 14
