REMARK SMILES Cc1cccc(CS[C@@H]2CC[C@]([NH3+])(C(=O)NCCCNC(=O)c3ccc(-c4c5nc(c(-c6c(F)c(F)c(F)c(F)c6F)c6ccc([nH]6)c(-c6c(F)c(F)c(F)c(F)c6F)c6nc(c(-c7c(F)c(F)c(F)c(F)c7F)c7ccc4[nH]7)C=C6)C=C5)cc3)C2)c1
REMARK SMILES IDX 17 1 16 2 14 3 15 4 12 6 9 7 10 8 86 9 11 10 8 11 7 12 6 13
REMARK SMILES IDX 1 14 2 15 3 16 87 17 4 18 5 19 13 20 18 24 19 25 20 26 21 27
REMARK SMILES IDX 22 29 23 30 24 31 85 32 25 33 84 34 26 35 27 36 28 37 78 38
REMARK SMILES IDX 29 39 83 40 77 41 79 42 30 43 82 44 76 45 75 46 31 48 63 49
REMARK SMILES IDX 43 50 62 51 44 52 47 53 61 54 80 55 45 56 46 57 60 59 81 60
REMARK SMILES IDX 48 61 32 62 33 63 41 64 34 65 35 66 39 67 42 68 36 69 37 70
REMARK SMILES IDX 40 71 38 72 64 73 65 74 73 75 66 76 67 77 71 78 74 79 68 80
REMARK SMILES IDX 69 81 72 82 70 83 49 84 50 85 58 86 51 87 52 88 56 89 59 90
REMARK SMILES IDX 53 91 54 92 57 93 55 94
REMARK H PARENT 16 5 13 21 13 22 13 23 20 28 79 47 47 58
REMARK Flexibility Score: inf
ROOT
ATOM      1  C   UNL     1       2.472   0.975  -4.262  1.00  0.00     0.118 C 
ENDROOT
BRANCH   1   2
ATOM      2  N   UNL     1       2.433   2.324  -3.725  1.00  0.00    -0.351 N 
ATOM      3  C   UNL     1       1.398   3.154  -3.422  1.00  0.00     0.281 C 
ATOM      4  O   UNL     1       1.713   4.272  -2.992  1.00  0.00    -0.268 OA
ATOM      5  H   UNL     1       3.321   2.710  -3.546  1.00  0.00     0.163 HD
BRANCH   3   6
ATOM      6  C   UNL     1      -0.097   2.813  -3.697  1.00  0.00     0.175 C 
ATOM      7  C   UNL     1      -2.288   2.833  -2.581  1.00  0.00     0.054 C 
ATOM      8  C   UNL     1      -2.023   1.422  -3.105  1.00  0.00     0.022 C 
ATOM      9  C   UNL     1      -0.969   3.597  -2.684  1.00  0.00     0.093 C 
ATOM     10  C   UNL     1      -0.536   1.373  -3.439  1.00  0.00     0.080 C 
BRANCH   7  11
ATOM     11  S   UNL     1      -3.178   2.886  -0.980  1.00  0.00    -0.154 SA
BRANCH  11  12
ATOM     12  C   UNL     1      -1.880   2.629   0.279  1.00  0.00     0.105 C 
BRANCH  12  13
ATOM     13  C   UNL     1      -1.145   1.315   0.221  1.00  0.00    -0.038 A 
ATOM     14  C   UNL     1       2.457   0.054  -0.010  1.00  0.00     0.044 C 
ATOM     15  C   UNL     1       0.961   0.078   0.101  1.00  0.00    -0.051 A 
ATOM     16  C   UNL     1       0.247  -1.124   0.153  1.00  0.00     0.003 A 
ATOM     17  C   UNL     1       0.258   1.291   0.143  1.00  0.00     0.008 A 
ATOM     18  C   UNL     1      -1.143  -1.115   0.261  1.00  0.00     0.001 A 
ATOM     19  C   UNL     1      -1.834   0.096   0.305  1.00  0.00     0.004 A 
ENDBRANCH  12  13
ENDBRANCH  11  12
ENDBRANCH   7  11
BRANCH   6  20
ATOM     20  N   UNL     1      -0.422   3.209  -5.087  1.00  0.00    -0.345 N 
ATOM     21  H   UNL     1      -1.399   2.992  -5.283  1.00  0.00     0.345 HD
ATOM     22  H   UNL     1       0.177   2.697  -5.735  1.00  0.00     0.345 HD
ATOM     23  H   UNL     1      -0.267   4.211  -5.199  1.00  0.00     0.345 HD
ENDBRANCH   6  20
ENDBRANCH   3   6
ENDBRANCH   1   2
BRANCH   1  24
ATOM     24  C   UNL     1       2.269   0.942  -5.773  1.00  0.00     0.042 C 
BRANCH  24  25
ATOM     25  C   UNL     1       3.547   0.576  -6.517  1.00  0.00     0.118 C 
BRANCH  25  26
ATOM     26  N   UNL     1       3.808  -0.860  -6.615  1.00  0.00    -0.352 N 
ATOM     27  C   UNL     1       4.958  -1.494  -7.069  1.00  0.00     0.251 C 
ATOM     28  H   UNL     1       3.076  -1.451  -6.324  1.00  0.00     0.163 HD
ATOM     29  O   UNL     1       5.048  -2.707  -7.096  1.00  0.00    -0.269 OA
BRANCH  27  30
ATOM     30  C   UNL     1       6.122  -0.642  -7.408  1.00  0.00     0.039 A 
ATOM     31  C   UNL     1       7.290  -0.804  -6.657  1.00  0.00     0.014 A 
ATOM     32  C   UNL     1       5.934   0.478  -8.211  1.00  0.00     0.014 A 
ATOM     33  C   UNL     1       8.138   0.287  -6.498  1.00  0.00     0.010 A 
ATOM     34  C   UNL     1       6.717   1.590  -7.969  1.00  0.00     0.010 A 
ATOM     35  C   UNL     1       7.766   1.517  -7.043  1.00  0.00    -0.014 A 
BRANCH  35  36
ATOM     36  C   UNL     1       8.312   2.789  -6.571  1.00  0.00     0.031 A 
ATOM     37  C   UNL     1       9.176   3.611  -7.442  1.00  0.00     0.074 A 
ATOM     38  C   UNL     1       7.954   3.257  -5.354  1.00  0.00     0.049 A 
ATOM     39  N   UNL     1       9.952   4.557  -7.027  1.00  0.00    -0.248 NA
ATOM     40  C   UNL     1       9.279   3.373  -8.873  1.00  0.00     0.031 C 
ATOM     41  C   UNL     1       8.165   4.601  -4.820  1.00  0.00     0.029 A 
ATOM     42  N   UNL     1       7.514   2.511  -4.245  1.00  0.00    -0.354 N 
ATOM     43  C   UNL     1      10.443   5.221  -8.129  1.00  0.00     0.074 A 
ATOM     44  C   UNL     1      10.063   4.388  -9.245  1.00  0.00     0.031 C 
ATOM     45  C   UNL     1       8.184   4.532  -3.481  1.00  0.00     0.029 A 
ATOM     46  C   UNL     1       8.120   3.128  -3.122  1.00  0.00     0.049 A 
ATOM     47  H   UNL     1       6.915   1.730  -4.249  1.00  0.00     0.167 HD
ATOM     48  C   UNL     1      11.006   6.455  -7.959  1.00  0.00     0.037 A 
ATOM     49  C   UNL     1       9.042   2.461  -2.369  1.00  0.00     0.037 A 
ATOM     50  C   UNL     1      11.223   6.746  -6.537  1.00  0.00     0.049 A 
ATOM     51  C   UNL     1      10.415   3.101  -2.330  1.00  0.00     0.074 A 
ATOM     52  C   UNL     1      10.581   7.524  -5.587  1.00  0.00     0.029 A 
ATOM     53  N   UNL     1      12.119   5.956  -5.835  1.00  0.00    -0.354 N 
ATOM     54  N   UNL     1      10.760   4.151  -3.020  1.00  0.00    -0.248 NA
ATOM     55  C   UNL     1      11.542   2.525  -1.591  1.00  0.00     0.031 C 
ATOM     56  C   UNL     1      11.075   7.154  -4.301  1.00  0.00     0.029 A 
ATOM     57  C   UNL     1      12.016   6.157  -4.472  1.00  0.00     0.049 A 
ATOM     58  H   UNL     1      12.750   5.328  -6.255  1.00  0.00     0.167 HD
ATOM     59  C   UNL     1      12.107   4.350  -2.891  1.00  0.00     0.074 A 
ATOM     60  C   UNL     1      12.556   3.313  -1.982  1.00  0.00     0.031 C 
ATOM     61  C   UNL     1      12.784   5.315  -3.572  1.00  0.00     0.037 A 
BRANCH  48  62
ATOM     62  C   UNL     1      11.152   7.503  -9.054  1.00  0.00     0.064 A 
ATOM     63  C   UNL     1      11.266   8.873  -8.721  1.00  0.00     0.173 A 
ATOM     64  C   UNL     1      11.102   7.257 -10.440  1.00  0.00     0.173 A 
ATOM     65  F   UNL     1      11.436   9.275  -7.455  1.00  0.00    -0.203 F 
ATOM     66  C   UNL     1      11.210   9.894  -9.677  1.00  0.00     0.198 A 
ATOM     67  C   UNL     1      11.002   8.276 -11.394  1.00  0.00     0.198 A 
ATOM     68  F   UNL     1      11.215   6.030 -10.947  1.00  0.00    -0.203 F 
ATOM     69  F   UNL     1      11.307  11.174  -9.290  1.00  0.00    -0.200 F 
ATOM     70  C   UNL     1      11.041   9.597 -11.012  1.00  0.00     0.200 A 
ATOM     71  F   UNL     1      10.875   7.956 -12.690  1.00  0.00    -0.200 F 
ATOM     72  F   UNL     1      10.949  10.571 -11.926  1.00  0.00    -0.200 F 
ENDBRANCH  48  62
BRANCH  49  73
ATOM     73  C   UNL     1       8.793   0.996  -2.305  1.00  0.00     0.064 A 
ATOM     74  C   UNL     1       7.566   0.542  -1.781  1.00  0.00     0.173 A 
ATOM     75  C   UNL     1       9.557   0.085  -3.041  1.00  0.00     0.173 A 
ATOM     76  F   UNL     1       6.788   1.376  -1.071  1.00  0.00    -0.203 F 
ATOM     77  C   UNL     1       7.074  -0.725  -2.082  1.00  0.00     0.198 A 
ATOM     78  C   UNL     1       9.072  -1.193  -3.321  1.00  0.00     0.198 A 
ATOM     79  F   UNL     1      10.720   0.460  -3.592  1.00  0.00    -0.203 F 
ATOM     80  F   UNL     1       5.848  -1.080  -1.672  1.00  0.00    -0.200 F 
ATOM     81  C   UNL     1       7.818  -1.583  -2.872  1.00  0.00     0.200 A 
ATOM     82  F   UNL     1       9.778  -2.011  -4.114  1.00  0.00    -0.200 F 
ATOM     83  F   UNL     1       7.311  -2.767  -3.242  1.00  0.00    -0.200 F 
ENDBRANCH  49  73
BRANCH  61  84
ATOM     84  C   UNL     1      14.255   5.519  -3.417  1.00  0.00     0.064 A 
ATOM     85  C   UNL     1      14.847   5.695  -2.157  1.00  0.00     0.173 A 
ATOM     86  C   UNL     1      15.097   5.651  -4.537  1.00  0.00     0.173 A 
ATOM     87  F   UNL     1      14.110   5.609  -1.039  1.00  0.00    -0.203 F 
ATOM     88  C   UNL     1      16.209   5.968  -2.025  1.00  0.00     0.198 A 
ATOM     89  C   UNL     1      16.447   5.967  -4.404  1.00  0.00     0.198 A 
ATOM     90  F   UNL     1      14.630   5.454  -5.780  1.00  0.00    -0.203 F 
ATOM     91  F   UNL     1      16.748   6.090  -0.804  1.00  0.00    -0.200 F 
ATOM     92  C   UNL     1      17.004   6.119  -3.148  1.00  0.00     0.200 A 
ATOM     93  F   UNL     1      17.205   6.120  -5.499  1.00  0.00    -0.200 F 
ATOM     94  F   UNL     1      18.307   6.405  -3.020  1.00  0.00    -0.200 F 
ENDBRANCH  61  84
ENDBRANCH  35  36
ENDBRANCH  27  30
ENDBRANCH  25  26
ENDBRANCH  24  25
ENDBRANCH   1  24
TORSDOF 14
