REMARK SMILES CC(C)[NH2+][C@@]1(C(=O)NCCCNC(=O)c2ccc(-c3c4nc(c(-c5c(F)c(F)c(F)c(F)c5F)c5ccc([nH]5)c(-c5c(F)c(F)c(F)c(F)c5F)c5nc(c(-c6c(F)c(F)c(F)c(F)c6F)c6ccc3[nH]6)C=C5)C=C4)cc2)CCC[C@@H]1CCOC1CCOCC1
REMARK SMILES IDX 9 1 8 2 6 3 7 4 5 6 78 7 81 8 79 9 80 10 4 11 2 14 1 15 3 16
REMARK SMILES IDX 82 17 83 18 84 19 85 20 86 21 90 22 87 23 89 24 88 25 10 26
REMARK SMILES IDX 11 27 12 28 13 29 14 31 15 32 16 33 77 34 17 35 76 36 18 37
REMARK SMILES IDX 19 38 20 39 70 40 21 41 75 42 69 43 71 44 22 45 74 46 68 47
REMARK SMILES IDX 67 48 23 50 55 51 35 52 54 53 36 54 39 55 53 56 72 57 37 58
REMARK SMILES IDX 38 59 52 61 73 62 40 63 24 64 25 65 33 66 26 67 27 68 31 69
REMARK SMILES IDX 34 70 28 71 29 72 32 73 30 74 56 75 57 76 65 77 58 78 59 79
REMARK SMILES IDX 63 80 66 81 60 82 61 83 64 84 62 85 41 86 42 87 50 88 43 89
REMARK SMILES IDX 44 90 48 91 51 92 45 93 46 94 49 95 47 96
REMARK H PARENT 8 5 4 12 4 13 12 30 71 49 39 60
REMARK Flexibility Score: inf
ROOT
ATOM      1  C   UNL     1      -3.780  -3.623   3.521  1.00  0.00     0.118 C 
ENDROOT
BRANCH   1   2
ATOM      2  N   UNL     1      -2.658  -2.666   3.024  1.00  0.00    -0.351 N 
ATOM      3  C   UNL     1      -1.875  -2.237   1.955  1.00  0.00     0.281 C 
ATOM      4  O   UNL     1      -1.401  -1.125   2.313  1.00  0.00    -0.268 OA
ATOM      5  H   UNL     1      -2.382  -2.131   3.803  1.00  0.00     0.163 HD
BRANCH   3   6
ATOM      6  C   UNL     1      -1.404  -2.787   0.175  1.00  0.00     0.178 C 
ATOM      7  C   UNL     1      -2.771  -3.437  -1.403  1.00  0.00     0.079 C 
ATOM      8  C   UNL     1       0.126  -4.021  -0.046  1.00  0.00     0.063 C 
ATOM      9  C   UNL     1      -1.799  -4.804  -2.511  1.00  0.00     0.008 C 
ATOM     10  C   UNL     1      -0.075  -5.043  -1.691  1.00  0.00     0.011 C 
BRANCH   6  11
ATOM     11  N   UNL     1      -0.495  -1.379   0.068  1.00  0.00    -0.331 N 
ATOM     12  H   UNL     1      -0.718  -1.012  -0.858  1.00  0.00     0.347 HD
ATOM     13  H   UNL     1      -0.764  -0.984   0.969  1.00  0.00     0.347 HD
BRANCH  11  14
ATOM     14  C   UNL     1       0.944  -1.165   0.195  1.00  0.00     0.176 C 
ATOM     15  C   UNL     1       1.173   0.309  -0.194  1.00  0.00     0.075 C 
ATOM     16  C   UNL     1       1.551  -1.397   1.575  1.00  0.00     0.075 C 
ENDBRANCH  11  14
ENDBRANCH   6  11
BRANCH   8  17
ATOM     17  C   UNL     1       0.377  -4.910   1.180  1.00  0.00     0.039 C 
BRANCH  17  18
ATOM     18  C   UNL     1      -0.676  -4.680   2.232  1.00  0.00     0.161 C 
BRANCH  18  19
ATOM     19  O   UNL     1      -2.063  -4.792   1.858  1.00  0.00    -0.378 OA
BRANCH  19  20
ATOM     20  C   UNL     1      -2.838  -4.282   0.748  1.00  0.00     0.122 C 
ATOM     21  C   UNL     1      -1.792  -4.657  -0.437  1.00  0.00     0.060 C 
ATOM     22  C   UNL     1      -3.762  -2.662   0.485  1.00  0.00     0.060 C 
ATOM     23  C   UNL     1      -0.990  -3.068  -1.678  1.00  0.00     0.163 C 
ATOM     24  C   UNL     1      -3.148  -1.355  -0.579  1.00  0.00     0.163 C 
ATOM     25  O   UNL     1      -1.943  -1.551  -1.651  1.00  0.00    -0.381 OA
ENDBRANCH  19  20
ENDBRANCH  18  19
ENDBRANCH  17  18
ENDBRANCH   8  17
ENDBRANCH   3   6
ENDBRANCH   1   2
BRANCH   1  26
ATOM     26  C   UNL     1      -3.395  -5.081   3.845  1.00  0.00     0.042 C 
BRANCH  26  27
ATOM     27  C   UNL     1      -4.011  -5.903   4.957  1.00  0.00     0.118 C 
BRANCH  27  28
ATOM     28  N   UNL     1      -5.161  -6.715   4.584  1.00  0.00    -0.352 N 
ATOM     29  C   UNL     1      -5.399  -8.071   4.728  1.00  0.00     0.251 C 
ATOM     30  H   UNL     1      -5.894  -6.214   4.158  1.00  0.00     0.163 HD
ATOM     31  O   UNL     1      -6.433  -8.532   4.244  1.00  0.00    -0.269 OA
BRANCH  29  32
ATOM     32  C   UNL     1      -4.454  -9.004   5.420  1.00  0.00     0.039 A 
ATOM     33  C   UNL     1      -4.509 -10.373   5.112  1.00  0.00     0.014 A 
ATOM     34  C   UNL     1      -3.548  -8.592   6.397  1.00  0.00     0.014 A 
ATOM     35  C   UNL     1      -3.659 -11.287   5.753  1.00  0.00     0.010 A 
ATOM     36  C   UNL     1      -2.603  -9.471   6.922  1.00  0.00     0.010 A 
ATOM     37  C   UNL     1      -2.681 -10.839   6.654  1.00  0.00    -0.014 A 
BRANCH  37  38
ATOM     38  C   UNL     1      -1.794 -11.786   7.382  1.00  0.00     0.031 A 
ATOM     39  C   UNL     1      -1.837 -11.858   8.890  1.00  0.00     0.074 A 
ATOM     40  C   UNL     1      -0.927 -12.554   6.695  1.00  0.00     0.049 A 
ATOM     41  N   UNL     1      -1.166 -12.631   9.707  1.00  0.00    -0.248 NA
ATOM     42  C   UNL     1      -2.725 -10.905   9.576  1.00  0.00     0.031 C 
ATOM     43  C   UNL     1      -0.733 -12.515   5.246  1.00  0.00     0.029 A 
ATOM     44  N   UNL     1      -0.055 -13.524   7.121  1.00  0.00    -0.354 N 
ATOM     45  C   UNL     1      -1.540 -12.244  10.990  1.00  0.00     0.074 A 
ATOM     46  C   UNL     1      -2.428 -11.115  10.848  1.00  0.00     0.031 C 
ATOM     47  C   UNL     1       0.153 -13.461   4.895  1.00  0.00     0.029 A 
ATOM     48  C   UNL     1       0.610 -14.153   6.096  1.00  0.00     0.049 A 
ATOM     49  H   UNL     1       0.081 -13.749   8.070  1.00  0.00     0.167 HD
ATOM     50  C   UNL     1      -1.207 -12.803  12.179  1.00  0.00     0.037 A 
ATOM     51  C   UNL     1       1.471 -15.187   6.124  1.00  0.00     0.037 A 
ATOM     52  C   UNL     1      -0.345 -13.948  12.307  1.00  0.00     0.049 A 
ATOM     53  C   UNL     1       1.800 -15.819   7.449  1.00  0.00     0.074 A 
ATOM     54  C   UNL     1       0.013 -14.643  13.448  1.00  0.00     0.029 A 
ATOM     55  N   UNL     1       0.298 -14.567  11.243  1.00  0.00    -0.354 N 
ATOM     56  N   UNL     1       1.372 -15.501   8.648  1.00  0.00    -0.248 NA
ATOM     57  C   UNL     1       2.720 -16.962   7.423  1.00  0.00     0.031 C 
ATOM     58  C   UNL     1       0.910 -15.652  13.079  1.00  0.00     0.029 A 
ATOM     59  C   UNL     1       1.070 -15.622  11.703  1.00  0.00     0.049 A 
ATOM     60  H   UNL     1       0.217 -14.296  10.300  1.00  0.00     0.167 HD
ATOM     61  C   UNL     1       1.957 -16.411   9.517  1.00  0.00     0.074 A 
ATOM     62  C   UNL     1       2.745 -17.314   8.700  1.00  0.00     0.031 C 
ATOM     63  C   UNL     1       1.859 -16.493  10.868  1.00  0.00     0.037 A 
BRANCH  50  64
ATOM     64  C   UNL     1      -1.784 -12.181  13.423  1.00  0.00     0.064 A 
ATOM     65  C   UNL     1      -3.163 -12.214  13.696  1.00  0.00     0.173 A 
ATOM     66  C   UNL     1      -0.954 -11.535  14.351  1.00  0.00     0.173 A 
ATOM     67  F   UNL     1      -4.007 -12.807  12.838  1.00  0.00    -0.203 F 
ATOM     68  C   UNL     1      -3.691 -11.580  14.819  1.00  0.00     0.198 A 
ATOM     69  C   UNL     1      -1.482 -10.934  15.493  1.00  0.00     0.198 A 
ATOM     70  F   UNL     1       0.371 -11.476  14.149  1.00  0.00    -0.203 F 
ATOM     71  F   UNL     1      -5.016 -11.561  15.014  1.00  0.00    -0.200 F 
ATOM     72  C   UNL     1      -2.850 -10.945  15.719  1.00  0.00     0.200 A 
ATOM     73  F   UNL     1      -0.666 -10.331  16.369  1.00  0.00    -0.200 F 
ATOM     74  F   UNL     1      -3.359 -10.332  16.796  1.00  0.00    -0.200 F 
ENDBRANCH  50  64
BRANCH  51  75
ATOM     75  C   UNL     1       2.017 -15.728   4.851  1.00  0.00     0.064 A 
ATOM     76  C   UNL     1       1.609 -16.981   4.370  1.00  0.00     0.173 A 
ATOM     77  C   UNL     1       2.925 -14.997   4.072  1.00  0.00     0.173 A 
ATOM     78  F   UNL     1       0.756 -17.727   5.087  1.00  0.00    -0.203 F 
ATOM     79  C   UNL     1       2.095 -17.485   3.166  1.00  0.00     0.198 A 
ATOM     80  C   UNL     1       3.389 -15.490   2.853  1.00  0.00     0.198 A 
ATOM     81  F   UNL     1       3.342 -13.790   4.481  1.00  0.00    -0.203 F 
ATOM     82  F   UNL     1       1.713 -18.699   2.747  1.00  0.00    -0.200 F 
ATOM     83  C   UNL     1       2.978 -16.735   2.404  1.00  0.00     0.200 A 
ATOM     84  F   UNL     1       4.228 -14.754   2.111  1.00  0.00    -0.200 F 
ATOM     85  F   UNL     1       3.433 -17.214   1.238  1.00  0.00    -0.200 F 
ENDBRANCH  51  75
BRANCH  63  86
ATOM     86  C   UNL     1       2.623 -17.600  11.534  1.00  0.00     0.064 A 
ATOM     87  C   UNL     1       4.025 -17.589  11.599  1.00  0.00     0.173 A 
ATOM     88  C   UNL     1       1.946 -18.681  12.119  1.00  0.00     0.173 A 
ATOM     89  F   UNL     1       4.718 -16.584  11.042  1.00  0.00    -0.203 F 
ATOM     90  C   UNL     1       4.722 -18.640  12.186  1.00  0.00     0.198 A 
ATOM     91  C   UNL     1       2.646 -19.713  12.737  1.00  0.00     0.198 A 
ATOM     92  F   UNL     1       0.606 -18.735  12.094  1.00  0.00    -0.203 F 
ATOM     93  F   UNL     1       6.062 -18.640  12.177  1.00  0.00    -0.200 F 
ATOM     94  C   UNL     1       4.032 -19.699  12.759  1.00  0.00     0.200 A 
ATOM     95  F   UNL     1       1.978 -20.728  13.303  1.00  0.00    -0.200 F 
ATOM     96  F   UNL     1       4.705 -20.712  13.321  1.00  0.00    -0.200 F 
ENDBRANCH  63  86
ENDBRANCH  37  38
ENDBRANCH  29  32
ENDBRANCH  27  28
ENDBRANCH  26  27
ENDBRANCH   1  26
TORSDOF 16
