REMARK SMILES Cc1cc(C(=O)NCCCNC(=O)c2ccc(-c3c4nc(c(-c5c(F)c(F)c(F)c(F)c5F)c5ccc([nH]5)c(-c5c(F)c(F)c(F)c(F)c5F)c5nc(c(-c6c(F)c(F)c(F)c(F)c6F)c6ccc3[nH]6)C=C5)C=C4)cc2)c(NC(=O)c2nc(C(C)(C)C)n[nH]2)s1
REMARK SMILES IDX 8 1 7 2 5 3 6 4 4 6 1 7 2 8 3 9 90 10 77 11 78 12 79 13
REMARK SMILES IDX 80 15 81 16 82 17 89 18 83 19 88 20 84 22 85 23 86 24 87 25
REMARK SMILES IDX 9 26 10 27 11 28 12 29 13 31 14 32 15 33 76 34 16 35 75 36
REMARK SMILES IDX 17 37 18 38 19 39 69 40 20 41 74 42 68 43 70 44 21 45 73 46
REMARK SMILES IDX 67 47 66 48 22 50 54 51 34 52 53 53 35 54 38 55 52 56 71 57
REMARK SMILES IDX 36 58 37 59 51 61 72 62 39 63 23 64 24 65 32 66 25 67 26 68
REMARK SMILES IDX 30 69 33 70 27 71 28 72 31 73 29 74 55 75 56 76 64 77 57 78
REMARK SMILES IDX 58 79 62 80 65 81 59 82 60 83 63 84 61 85 40 86 41 87 49 88
REMARK SMILES IDX 42 89 43 90 47 91 50 92 44 93 45 94 48 95 46 96
REMARK H PARENT 7 5 78 14 89 21 11 30 70 49 38 60
REMARK Flexibility Score: inf
ROOT
ATOM      1  C   UNL     1      -0.831  -4.150  -0.667  1.00  0.00     0.118 C 
ENDROOT
BRANCH   1   2
ATOM      2  N   UNL     1      -2.005  -3.374  -0.330  1.00  0.00    -0.352 N 
ATOM      3  C   UNL     1      -2.178  -2.056   0.000  1.00  0.00     0.254 C 
ATOM      4  O   UNL     1      -3.346  -1.684   0.135  1.00  0.00    -0.269 OA
ATOM      5  H   UNL     1      -2.840  -3.894  -0.340  1.00  0.00     0.163 HD
BRANCH   3   6
ATOM      6  C   UNL     1      -1.062  -1.109   0.159  1.00  0.00     0.074 A 
ATOM      7  C   UNL     1       2.593  -0.063   0.379  1.00  0.00     0.056 C 
ATOM      8  C   UNL     1       1.111  -0.211   0.357  1.00  0.00     0.004 A 
ATOM      9  C   UNL     1       0.353  -1.358   0.276  1.00  0.00     0.031 A 
ATOM     10  S   UNL     1       0.122   1.158   0.464  1.00  0.00    -0.122 S 
ATOM     11  C   UNL     1      -1.299   0.266   0.233  1.00  0.00     0.108 A 
BRANCH  11  12
ATOM     12  N   UNL     1      -2.545   0.875   0.174  1.00  0.00    -0.310 N 
ATOM     13  C   UNL     1      -2.968   2.189   0.163  1.00  0.00     0.293 C 
ATOM     14  H   UNL     1      -3.288   0.230   0.130  1.00  0.00     0.171 HD
ATOM     15  O   UNL     1      -4.185   2.382   0.209  1.00  0.00    -0.265 OA
BRANCH  13  16
ATOM     16  C   UNL     1      -2.036   3.275   0.022  1.00  0.00     0.214 A 
ATOM     17  N   UNL     1      -1.742   4.160   0.953  1.00  0.00    -0.207 NA
ATOM     18  N   UNL     1      -1.338   3.580  -1.108  1.00  0.00    -0.255 N 
ATOM     19  C   UNL     1      -0.786   4.947   0.360  1.00  0.00     0.156 A 
ATOM     20  N   UNL     1      -0.521   4.629  -0.916  1.00  0.00    -0.158 NA
ATOM     21  H   UNL     1      -1.422   3.092  -1.959  1.00  0.00     0.192 HD
BRANCH  19  22
ATOM     22  C   UNL     1      -0.129   6.091   1.092  1.00  0.00     0.024 C 
ATOM     23  C   UNL     1      -0.999   7.352   0.947  1.00  0.00     0.019 C 
ATOM     24  C   UNL     1       0.016   5.755   2.591  1.00  0.00     0.019 C 
ATOM     25  C   UNL     1       1.280   6.386   0.539  1.00  0.00     0.019 C 
ENDBRANCH  19  22
ENDBRANCH  13  16
ENDBRANCH  11  12
ENDBRANCH   3   6
ENDBRANCH   1   2
BRANCH   1  26
ATOM     26  C   UNL     1      -0.243  -4.853   0.556  1.00  0.00     0.042 C 
BRANCH  26  27
ATOM     27  C   UNL     1      -1.030  -6.092   0.984  1.00  0.00     0.118 C 
BRANCH  27  28
ATOM     28  N   UNL     1      -0.951  -7.154  -0.008  1.00  0.00    -0.352 N 
ATOM     29  C   UNL     1      -0.537  -8.456   0.101  1.00  0.00     0.251 C 
ATOM     30  H   UNL     1      -1.244  -6.893  -0.911  1.00  0.00     0.163 HD
ATOM     31  O   UNL     1      -0.343  -9.103  -0.925  1.00  0.00    -0.269 OA
BRANCH  29  32
ATOM     32  C   UNL     1      -0.324  -9.097   1.418  1.00  0.00     0.039 A 
ATOM     33  C   UNL     1       0.702 -10.041   1.534  1.00  0.00     0.014 A 
ATOM     34  C   UNL     1      -1.171  -8.857   2.504  1.00  0.00     0.014 A 
ATOM     35  C   UNL     1       0.896 -10.721   2.738  1.00  0.00     0.010 A 
ATOM     36  C   UNL     1      -0.937  -9.489   3.726  1.00  0.00     0.010 A 
ATOM     37  C   UNL     1       0.087 -10.439   3.850  1.00  0.00    -0.014 A 
BRANCH  37  38
ATOM     38  C   UNL     1       0.293 -11.149   5.137  1.00  0.00     0.031 A 
ATOM     39  C   UNL     1      -0.755 -12.090   5.663  1.00  0.00     0.074 A 
ATOM     40  C   UNL     1       1.411 -10.916   5.851  1.00  0.00     0.049 A 
ATOM     41  N   UNL     1      -0.769 -12.776   6.779  1.00  0.00    -0.248 NA
ATOM     42  C   UNL     1      -1.960 -12.266   4.837  1.00  0.00     0.031 C 
ATOM     43  C   UNL     1       2.479  -9.992   5.468  1.00  0.00     0.029 A 
ATOM     44  N   UNL     1       1.833 -11.435   7.049  1.00  0.00    -0.354 N 
ATOM     45  C   UNL     1      -1.985 -13.448   6.796  1.00  0.00     0.074 A 
ATOM     46  C   UNL     1      -2.702 -13.052   5.603  1.00  0.00     0.031 C 
ATOM     47  C   UNL     1       3.443 -10.025   6.401  1.00  0.00     0.029 A 
ATOM     48  C   UNL     1       3.050 -10.950   7.460  1.00  0.00     0.049 A 
ATOM     49  H   UNL     1       1.312 -12.092   7.565  1.00  0.00     0.167 HD
ATOM     50  C   UNL     1      -2.451 -14.330   7.713  1.00  0.00     0.037 A 
ATOM     51  C   UNL     1       3.768 -11.225   8.564  1.00  0.00     0.037 A 
ATOM     52  C   UNL     1      -1.722 -14.743   8.884  1.00  0.00     0.049 A 
ATOM     53  C   UNL     1       3.241 -12.230   9.551  1.00  0.00     0.074 A 
ATOM     54  C   UNL     1      -2.086 -15.667   9.848  1.00  0.00     0.029 A 
ATOM     55  N   UNL     1      -0.474 -14.257   9.246  1.00  0.00    -0.354 N 
ATOM     56  N   UNL     1       2.117 -12.903   9.526  1.00  0.00    -0.248 NA
ATOM     57  C   UNL     1       4.091 -12.523  10.713  1.00  0.00     0.031 C 
ATOM     58  C   UNL     1      -1.073 -15.715  10.812  1.00  0.00     0.029 A 
ATOM     59  C   UNL     1      -0.058 -14.856  10.425  1.00  0.00     0.049 A 
ATOM     60  H   UNL     1       0.040 -13.587   8.741  1.00  0.00     0.167 HD
ATOM     61  C   UNL     1       2.137 -13.721  10.647  1.00  0.00     0.074 A 
ATOM     62  C   UNL     1       3.393 -13.469  11.324  1.00  0.00     0.031 C 
ATOM     63  C   UNL     1       1.201 -14.602  11.078  1.00  0.00     0.037 A 
BRANCH  50  64
ATOM     64  C   UNL     1      -3.816 -14.913   7.483  1.00  0.00     0.064 A 
ATOM     65  C   UNL     1      -4.058 -15.834   6.452  1.00  0.00     0.173 A 
ATOM     66  C   UNL     1      -4.888 -14.572   8.321  1.00  0.00     0.173 A 
ATOM     67  F   UNL     1      -3.070 -16.185   5.615  1.00  0.00    -0.203 F 
ATOM     68  C   UNL     1      -5.328 -16.369   6.252  1.00  0.00     0.198 A 
ATOM     69  C   UNL     1      -6.150 -15.132   8.136  1.00  0.00     0.198 A 
ATOM     70  F   UNL     1      -4.711 -13.700   9.326  1.00  0.00    -0.203 F 
ATOM     71  F   UNL     1      -5.545 -17.210   5.230  1.00  0.00    -0.200 F 
ATOM     72  C   UNL     1      -6.371 -16.023   7.097  1.00  0.00     0.200 A 
ATOM     73  F   UNL     1      -7.154 -14.805   8.961  1.00  0.00    -0.200 F 
ATOM     74  F   UNL     1      -7.591 -16.543   6.906  1.00  0.00    -0.200 F 
ENDBRANCH  50  64
BRANCH  51  75
ATOM     75  C   UNL     1       5.085 -10.570   8.771  1.00  0.00     0.064 A 
ATOM     76  C   UNL     1       6.276 -11.301   8.658  1.00  0.00     0.173 A 
ATOM     77  C   UNL     1       5.182  -9.206   9.079  1.00  0.00     0.173 A 
ATOM     78  F   UNL     1       6.232 -12.613   8.383  1.00  0.00    -0.203 F 
ATOM     79  C   UNL     1       7.514 -10.696   8.865  1.00  0.00     0.198 A 
ATOM     80  C   UNL     1       6.422  -8.596   9.259  1.00  0.00     0.198 A 
ATOM     81  F   UNL     1       4.072  -8.461   9.190  1.00  0.00    -0.203 F 
ATOM     82  F   UNL     1       8.634 -11.427   8.792  1.00  0.00    -0.200 F 
ATOM     83  C   UNL     1       7.586  -9.343   9.160  1.00  0.00     0.200 A 
ATOM     84  F   UNL     1       6.488  -7.285   9.529  1.00  0.00    -0.200 F 
ATOM     85  F   UNL     1       8.777  -8.760   9.354  1.00  0.00    -0.200 F 
ENDBRANCH  51  75
BRANCH  63  86
ATOM     86  C   UNL     1       1.520 -15.388  12.315  1.00  0.00     0.064 A 
ATOM     87  C   UNL     1       1.525 -14.793  13.586  1.00  0.00     0.173 A 
ATOM     88  C   UNL     1       1.804 -16.759  12.229  1.00  0.00     0.173 A 
ATOM     89  F   UNL     1       1.275 -13.482  13.718  1.00  0.00    -0.203 F 
ATOM     90  C   UNL     1       1.833 -15.537  14.721  1.00  0.00     0.198 A 
ATOM     91  C   UNL     1       2.083 -17.506  13.370  1.00  0.00     0.198 A 
ATOM     92  F   UNL     1       1.806 -17.376  11.037  1.00  0.00    -0.203 F 
ATOM     93  F   UNL     1       1.883 -14.938  15.919  1.00  0.00    -0.200 F 
ATOM     94  C   UNL     1       2.106 -16.893  14.613  1.00  0.00     0.200 A 
ATOM     95  F   UNL     1       2.336 -18.818  13.265  1.00  0.00    -0.200 F 
ATOM     96  F   UNL     1       2.402 -17.607  15.708  1.00  0.00    -0.200 F 
ENDBRANCH  63  86
ENDBRANCH  37  38
ENDBRANCH  29  32
ENDBRANCH  27  28
ENDBRANCH  26  27
ENDBRANCH   1  26
TORSDOF 13
