REMARK SMILES CC(C)(C[NH+]1CCC(C(N)=S)CC1)C(=O)NCCCNC(=O)c1ccc(-c2c3nc(c(-c4c(F)c(F)c(F)c(F)c4F)c4ccc([nH]4)c(-c4c(F)c(F)c(F)c(F)c4F)c4nc(c(-c5c(F)c(F)c(F)c(F)c5F)c5ccc2[nH]5)C=C4)C=C3)cc1
REMARK SMILES IDX 17 1 16 2 14 3 15 4 2 6 1 7 3 8 4 9 5 10 6 11 13 12 7 14
REMARK SMILES IDX 12 15 8 16 9 17 11 18 10 19 18 22 19 23 20 24 21 25 22 27
REMARK SMILES IDX 23 28 24 29 85 30 25 31 84 32 26 33 27 34 28 35 78 36 29 37
REMARK SMILES IDX 83 38 77 39 79 40 30 41 82 42 76 43 75 44 31 46 63 47 43 48
REMARK SMILES IDX 62 49 44 50 47 51 61 52 80 53 45 54 46 55 60 57 81 58 48 59
REMARK SMILES IDX 32 60 33 61 41 62 34 63 35 64 39 65 42 66 36 67 37 68 40 69
REMARK SMILES IDX 38 70 64 71 65 72 73 73 66 74 67 75 71 76 74 77 68 78 69 79
REMARK SMILES IDX 72 80 70 81 49 82 50 83 58 84 51 85 52 86 56 87 59 88 53 89
REMARK SMILES IDX 54 90 57 91 55 92
REMARK H PARENT 16 5 5 13 10 20 10 21 20 26 79 45 47 56
REMARK Flexibility Score: inf
ROOT
ATOM      1  C   UNL     1      -0.069   3.110  -3.262  1.00  0.00     0.117 C 
ENDROOT
BRANCH   1   2
ATOM      2  N   UNL     1       0.774   3.116  -2.081  1.00  0.00    -0.355 N 
ATOM      3  C   UNL     1       1.050   2.207  -1.109  1.00  0.00     0.231 C 
ATOM      4  O   UNL     1       1.873   2.587  -0.268  1.00  0.00    -0.274 OA
ATOM      5  H   UNL     1       1.253   3.967  -1.956  1.00  0.00     0.163 HD
BRANCH   3   6
ATOM      6  C   UNL     1       0.427   0.800  -1.047  1.00  0.00     0.092 C 
ATOM      7  C   UNL     1       1.014   0.055   0.183  1.00  0.00     0.027 C 
ATOM      8  C   UNL     1       0.885  -0.011  -2.278  1.00  0.00     0.027 C 
BRANCH   6   9
ATOM      9  C   UNL     1      -1.125   0.804  -0.938  1.00  0.00     0.278 C 
BRANCH   9  10
ATOM     10  N   UNL     1      -1.654   1.255   0.365  1.00  0.00    -0.334 N 
ATOM     11  C   UNL     1      -1.838   2.708   0.449  1.00  0.00     0.262 C 
ATOM     12  C   UNL     1      -2.890   0.554   0.737  1.00  0.00     0.262 C 
ATOM     13  H   UNL     1      -0.933   1.009   1.044  1.00  0.00     0.348 HD
ATOM     14  C   UNL     1      -2.191   3.136   1.873  1.00  0.00     0.072 C 
ATOM     15  C   UNL     1      -3.292   0.892   2.175  1.00  0.00     0.072 C 
ATOM     16  C   UNL     1      -3.440   2.404   2.376  1.00  0.00     0.058 C 
BRANCH  16  17
ATOM     17  C   UNL     1      -3.773   2.794   3.813  1.00  0.00     0.076 C 
ATOM     18  S   UNL     1      -2.872   2.398   5.161  1.00  0.00    -0.066 S 
BRANCH  17  19
ATOM     19  N   UNL     1      -4.892   3.560   3.975  1.00  0.00    -0.393 N 
ATOM     20  H   UNL     1      -5.438   3.804   3.193  1.00  0.00     0.157 HD
ATOM     21  H   UNL     1      -5.153   3.867   4.873  1.00  0.00     0.157 HD
ENDBRANCH  17  19
ENDBRANCH  16  17
ENDBRANCH   9  10
ENDBRANCH   6   9
ENDBRANCH   3   6
ENDBRANCH   1   2
BRANCH   1  22
ATOM     22  C   UNL     1      -1.313   3.982  -3.119  1.00  0.00     0.042 C 
BRANCH  22  23
ATOM     23  C   UNL     1      -1.040   5.439  -2.765  1.00  0.00     0.118 C 
BRANCH  23  24
ATOM     24  N   UNL     1      -0.382   6.163  -3.842  1.00  0.00    -0.352 N 
ATOM     25  C   UNL     1      -0.840   7.177  -4.644  1.00  0.00     0.251 C 
ATOM     26  H   UNL     1       0.543   5.878  -4.025  1.00  0.00     0.163 HD
ATOM     27  O   UNL     1      -0.183   7.508  -5.631  1.00  0.00    -0.269 OA
BRANCH  25  28
ATOM     28  C   UNL     1      -2.117   7.869  -4.358  1.00  0.00     0.039 A 
ATOM     29  C   UNL     1      -2.950   8.207  -5.430  1.00  0.00     0.014 A 
ATOM     30  C   UNL     1      -2.475   8.242  -3.060  1.00  0.00     0.014 A 
ATOM     31  C   UNL     1      -4.164   8.861  -5.195  1.00  0.00     0.010 A 
ATOM     32  C   UNL     1      -3.717   8.829  -2.819  1.00  0.00     0.010 A 
ATOM     33  C   UNL     1      -4.572   9.150  -3.884  1.00  0.00    -0.014 A 
BRANCH  33  34
ATOM     34  C   UNL     1      -5.884   9.790  -3.610  1.00  0.00     0.031 A 
ATOM     35  C   UNL     1      -5.948  11.161  -2.995  1.00  0.00     0.074 A 
ATOM     36  C   UNL     1      -7.021   9.108  -3.844  1.00  0.00     0.049 A 
ATOM     37  N   UNL     1      -6.994  11.848  -2.607  1.00  0.00    -0.248 NA
ATOM     38  C   UNL     1      -4.665  11.838  -2.756  1.00  0.00     0.031 C 
ATOM     39  C   UNL     1      -7.095   7.750  -4.385  1.00  0.00     0.029 A 
ATOM     40  N   UNL     1      -8.334   9.457  -3.641  1.00  0.00    -0.354 N 
ATOM     41  C   UNL     1      -6.495  13.020  -2.056  1.00  0.00     0.074 A 
ATOM     42  C   UNL     1      -5.052  12.937  -2.124  1.00  0.00     0.031 C 
ATOM     43  C   UNL     1      -8.383   7.384  -4.479  1.00  0.00     0.029 A 
ATOM     44  C   UNL     1      -9.224   8.468  -3.979  1.00  0.00     0.049 A 
ATOM     45  H   UNL     1      -8.610  10.332  -3.287  1.00  0.00     0.167 HD
ATOM     46  C   UNL     1      -7.178  14.078  -1.556  1.00  0.00     0.037 A 
ATOM     47  C   UNL     1     -10.567   8.434  -3.889  1.00  0.00     0.037 A 
ATOM     48  C   UNL     1      -8.613  14.181  -1.531  1.00  0.00     0.049 A 
ATOM     49  C   UNL     1     -11.304   9.636  -3.368  1.00  0.00     0.074 A 
ATOM     50  C   UNL     1      -9.395  15.251  -1.131  1.00  0.00     0.029 A 
ATOM     51  N   UNL     1      -9.483  13.175  -1.924  1.00  0.00    -0.354 N 
ATOM     52  N   UNL     1     -10.823  10.769  -2.920  1.00  0.00    -0.248 NA
ATOM     53  C   UNL     1     -12.772   9.556  -3.347  1.00  0.00     0.031 C 
ATOM     54  C   UNL     1     -10.739  14.878  -1.245  1.00  0.00     0.029 A 
ATOM     55  C   UNL     1     -10.794  13.590  -1.754  1.00  0.00     0.049 A 
ATOM     56  H   UNL     1      -9.210  12.295  -2.271  1.00  0.00     0.167 HD
ATOM     57  C   UNL     1     -11.923  11.544  -2.583  1.00  0.00     0.074 A 
ATOM     58  C   UNL     1     -13.100  10.758  -2.891  1.00  0.00     0.031 C 
ATOM     59  C   UNL     1     -11.955  12.795  -2.063  1.00  0.00     0.037 A 
BRANCH  46  60
ATOM     60  C   UNL     1      -6.378  15.216  -0.993  1.00  0.00     0.064 A 
ATOM     61  C   UNL     1      -5.647  16.083  -1.819  1.00  0.00     0.173 A 
ATOM     62  C   UNL     1      -6.369  15.462   0.388  1.00  0.00     0.173 A 
ATOM     63  F   UNL     1      -5.615  15.884  -3.145  1.00  0.00    -0.203 F 
ATOM     64  C   UNL     1      -4.912  17.135  -1.280  1.00  0.00     0.198 A 
ATOM     65  C   UNL     1      -5.655  16.532   0.921  1.00  0.00     0.198 A 
ATOM     66  F   UNL     1      -7.057  14.666   1.221  1.00  0.00    -0.203 F 
ATOM     67  F   UNL     1      -4.182  17.921  -2.084  1.00  0.00    -0.200 F 
ATOM     68  C   UNL     1      -4.921  17.363   0.088  1.00  0.00     0.200 A 
ATOM     69  F   UNL     1      -5.674  16.757   2.242  1.00  0.00    -0.200 F 
ATOM     70  F   UNL     1      -4.216  18.378   0.605  1.00  0.00    -0.200 F 
ENDBRANCH  46  60
BRANCH  47  71
ATOM     71  C   UNL     1     -11.300   7.219  -4.327  1.00  0.00     0.064 A 
ATOM     72  C   UNL     1     -12.044   7.216  -5.514  1.00  0.00     0.173 A 
ATOM     73  C   UNL     1     -11.256   6.034  -3.578  1.00  0.00     0.173 A 
ATOM     74  F   UNL     1     -12.131   8.333  -6.251  1.00  0.00    -0.203 F 
ATOM     75  C   UNL     1     -12.727   6.076  -5.931  1.00  0.00     0.198 A 
ATOM     76  C   UNL     1     -11.920   4.888  -4.009  1.00  0.00     0.198 A 
ATOM     77  F   UNL     1     -10.552   5.985  -2.438  1.00  0.00    -0.203 F 
ATOM     78  F   UNL     1     -13.458   6.109  -7.054  1.00  0.00    -0.200 F 
ATOM     79  C   UNL     1     -12.659   4.911  -5.182  1.00  0.00     0.200 A 
ATOM     80  F   UNL     1     -11.840   3.760  -3.289  1.00  0.00    -0.200 F 
ATOM     81  F   UNL     1     -13.308   3.812  -5.589  1.00  0.00    -0.200 F 
ENDBRANCH  47  71
BRANCH  59  82
ATOM     82  C   UNL     1     -13.304  13.399  -1.808  1.00  0.00     0.064 A 
ATOM     83  C   UNL     1     -14.103  12.978  -0.735  1.00  0.00     0.173 A 
ATOM     84  C   UNL     1     -13.786  14.434  -2.623  1.00  0.00     0.173 A 
ATOM     85  F   UNL     1     -13.692  11.980   0.061  1.00  0.00    -0.203 F 
ATOM     86  C   UNL     1     -15.345  13.560  -0.498  1.00  0.00     0.198 A 
ATOM     87  C   UNL     1     -15.018  15.031  -2.368  1.00  0.00     0.198 A 
ATOM     88  F   UNL     1     -13.057  14.874  -3.659  1.00  0.00    -0.203 F 
ATOM     89  F   UNL     1     -16.110  13.116   0.509  1.00  0.00    -0.200 F 
ATOM     90  C   UNL     1     -15.798  14.590  -1.310  1.00  0.00     0.200 A 
ATOM     91  F   UNL     1     -15.450  16.031  -3.148  1.00  0.00    -0.200 F 
ATOM     92  F   UNL     1     -16.992  15.152  -1.077  1.00  0.00    -0.200 F 
ENDBRANCH  59  82
ENDBRANCH  33  34
ENDBRANCH  25  28
ENDBRANCH  23  24
ENDBRANCH  22  23
ENDBRANCH   1  22
TORSDOF 14
