REMARK SMILES Cn1ccc(C(=O)N[C@H]2CCCCC[C@H]2C(=O)NCCCNC(=O)c2ccc(-c3c4nc(c(-c5c(F)c(F)c(F)c(F)c5F)c5ccc([nH]5)c(-c5c(F)c(F)c(F)c(F)c5F)c5nc(c(-c6c(F)c(F)c(F)c(F)c6F)c6ccc3[nH]6)C=C5)C=C4)cc2)cc1=O
REMARK SMILES IDX 19 1 18 2 16 3 17 4 15 6 9 7 8 8 6 9 7 10 5 12 1 13 2 14
REMARK SMILES IDX 3 15 89 16 4 17 88 18 90 19 10 20 11 21 14 23 13 24 12 25
REMARK SMILES IDX 20 27 21 28 22 29 23 30 24 32 25 33 26 34 87 35 27 36 86 37
REMARK SMILES IDX 28 38 29 39 30 40 80 41 31 42 85 43 79 44 81 45 32 46 84 47
REMARK SMILES IDX 78 48 77 49 33 51 65 52 45 53 64 54 46 55 49 56 63 57 82 58
REMARK SMILES IDX 47 59 48 60 62 62 83 63 50 64 34 65 35 66 43 67 36 68 37 69
REMARK SMILES IDX 41 70 44 71 38 72 39 73 42 74 40 75 66 76 67 77 75 78 68 79
REMARK SMILES IDX 69 80 73 81 76 82 70 83 71 84 74 85 72 86 51 87 52 88 60 89
REMARK SMILES IDX 53 90 54 91 58 92 61 93 55 94 56 95 59 96 57 97
REMARK H PARENT 18 5 8 11 22 31 81 50 49 61
REMARK Flexibility Score: 90.00
ROOT
ATOM      1  C   UNL     1      -1.826   4.730   0.501  1.00  0.00     0.117 C 
ENDROOT
BRANCH   1   2
ATOM      2  N   UNL     1      -1.683   3.616  -0.398  1.00  0.00    -0.356 N 
ATOM      3  C   UNL     1      -0.719   2.668  -0.481  1.00  0.00     0.225 C 
ATOM      4  O   UNL     1      -0.864   1.827  -1.375  1.00  0.00    -0.275 OA
ATOM      5  H   UNL     1      -2.405   3.527  -1.061  1.00  0.00     0.163 HD
BRANCH   3   6
ATOM      6  C   UNL     1       0.517   2.596   0.430  1.00  0.00     0.101 C 
BRANCH   6   7
ATOM      7  C   UNL     1       1.679   3.611   0.182  1.00  0.00     0.094 C 
BRANCH   7   8
ATOM      8  N   UNL     1       1.462   4.471  -1.007  1.00  0.00    -0.349 N 
ATOM      9  C   UNL     1       1.852   5.672  -1.514  1.00  0.00     0.251 C 
ATOM     10  O   UNL     1       1.572   5.912  -2.691  1.00  0.00    -0.269 OA
ATOM     11  H   UNL     1       0.837   4.033  -1.627  1.00  0.00     0.164 HD
BRANCH   9  12
ATOM     12  C   UNL     1       2.424   6.756  -0.682  1.00  0.00     0.046 A 
ATOM     13  C   UNL     1       3.452   9.707   2.132  1.00  0.00     0.153 C 
ATOM     14  N   UNL     1       3.175   8.749   1.077  1.00  0.00    -0.319 N 
ATOM     15  C   UNL     1       2.157   8.998   0.178  1.00  0.00     0.089 A 
ATOM     16  C   UNL     1       3.961   7.601   1.005  1.00  0.00     0.251 A 
ATOM     17  C   UNL     1       1.774   8.053  -0.687  1.00  0.00     0.032 A 
ATOM     18  C   UNL     1       3.586   6.607  -0.036  1.00  0.00     0.085 A 
ATOM     19  O   UNL     1       4.887   7.341   1.769  1.00  0.00    -0.269 OA
ENDBRANCH   9  12
ENDBRANCH   7   8
BRANCH   7  20
ATOM     20  C   UNL     1       2.235   4.191   1.485  1.00  0.00     0.026 C 
BRANCH  20  21
ATOM     21  C   UNL     1       1.294   5.115   2.223  1.00  0.00     0.002 CG0
ATOM     22  G   UNL     1       0.461   4.409   3.287  1.00  0.00     0.000 G0
ENDBRANCH  20  21
ENDBRANCH   7  20
ENDBRANCH   6   7
BRANCH   6  23
ATOM     23  C   UNL     1       0.236   2.150   1.884  1.00  0.00     0.015 C 
BRANCH  23  24
ATOM     24  C   UNL     1      -0.291   3.113   2.950  1.00  0.00     0.001 C 
BRANCH  24  25
ATOM     25  C   UNL     1       0.461   4.409   3.287  1.00  0.00     0.000 CG0
ATOM     26  G   UNL     1       1.294   5.115   2.223  1.00  0.00     0.000 G0
ENDBRANCH  24  25
ENDBRANCH  23  24
ENDBRANCH   6  23
ENDBRANCH   3   6
ENDBRANCH   1   2
BRANCH   1  27
ATOM     27  C   UNL     1      -1.542   6.068  -0.148  1.00  0.00     0.042 C 
BRANCH  27  28
ATOM     28  C   UNL     1      -2.807   6.830  -0.469  1.00  0.00     0.118 C 
BRANCH  28  29
ATOM     29  N   UNL     1      -3.481   7.327   0.731  1.00  0.00    -0.352 N 
ATOM     30  C   UNL     1      -3.729   8.617   1.141  1.00  0.00     0.251 C 
ATOM     31  H   UNL     1      -3.809   6.628   1.342  1.00  0.00     0.163 HD
ATOM     32  O   UNL     1      -4.154   8.834   2.272  1.00  0.00    -0.269 OA
BRANCH  30  33
ATOM     33  C   UNL     1      -3.451   9.745   0.227  1.00  0.00     0.039 A 
ATOM     34  C   UNL     1      -2.901  10.929   0.727  1.00  0.00     0.014 A 
ATOM     35  C   UNL     1      -3.704   9.617  -1.137  1.00  0.00     0.014 A 
ATOM     36  C   UNL     1      -2.520  11.942  -0.159  1.00  0.00     0.010 A 
ATOM     37  C   UNL     1      -3.189  10.549  -2.019  1.00  0.00     0.010 A 
ATOM     38  C   UNL     1      -2.615  11.736  -1.543  1.00  0.00    -0.014 A 
BRANCH  38  39
ATOM     39  C   UNL     1      -2.194  12.744  -2.548  1.00  0.00     0.031 A 
ATOM     40  C   UNL     1      -3.204  13.219  -3.560  1.00  0.00     0.074 A 
ATOM     41  C   UNL     1      -0.905  13.123  -2.639  1.00  0.00     0.049 A 
ATOM     42  N   UNL     1      -3.021  13.882  -4.671  1.00  0.00    -0.248 NA
ATOM     43  C   UNL     1      -4.606  12.838  -3.314  1.00  0.00     0.031 C 
ATOM     44  C   UNL     1       0.172  12.708  -1.740  1.00  0.00     0.029 A 
ATOM     45  N   UNL     1      -0.277  13.925  -3.560  1.00  0.00    -0.354 N 
ATOM     46  C   UNL     1      -4.270  13.951  -5.274  1.00  0.00     0.074 A 
ATOM     47  C   UNL     1      -5.189  13.208  -4.443  1.00  0.00     0.031 C 
ATOM     48  C   UNL     1       1.324  13.268  -2.144  1.00  0.00     0.029 A 
ATOM     49  C   UNL     1       1.079  14.034  -3.362  1.00  0.00     0.049 A 
ATOM     50  H   UNL     1      -0.752  14.380  -4.292  1.00  0.00     0.167 HD
ATOM     51  C   UNL     1      -4.625  14.600  -6.408  1.00  0.00     0.037 A 
ATOM     52  C   UNL     1       2.017  14.661  -4.098  1.00  0.00     0.037 A 
ATOM     53  C   UNL     1      -3.712  15.383  -7.194  1.00  0.00     0.049 A 
ATOM     54  C   UNL     1       1.599  15.381  -5.354  1.00  0.00     0.074 A 
ATOM     55  C   UNL     1      -3.976  16.142  -8.319  1.00  0.00     0.029 A 
ATOM     56  N   UNL     1      -2.357  15.511  -6.929  1.00  0.00    -0.354 N 
ATOM     57  N   UNL     1       0.407  15.486  -5.890  1.00  0.00    -0.248 NA
ATOM     58  C   UNL     1       2.655  16.071  -6.108  1.00  0.00     0.031 C 
ATOM     59  C   UNL     1      -2.771  16.691  -8.763  1.00  0.00     0.029 A 
ATOM     60  C   UNL     1      -1.768  16.326  -7.879  1.00  0.00     0.049 A 
ATOM     61  H   UNL     1      -1.885  15.086  -6.177  1.00  0.00     0.167 HD
ATOM     62  C   UNL     1       0.561  16.285  -7.015  1.00  0.00     0.074 A 
ATOM     63  C   UNL     1       1.963  16.639  -7.087  1.00  0.00     0.031 C 
ATOM     64  C   UNL     1      -0.375  16.693  -7.907  1.00  0.00     0.037 A 
BRANCH  51  65
ATOM     65  C   UNL     1      -6.055  14.497  -6.855  1.00  0.00     0.064 A 
ATOM     66  C   UNL     1      -7.104  15.073  -6.121  1.00  0.00     0.173 A 
ATOM     67  C   UNL     1      -6.380  13.834  -8.049  1.00  0.00     0.173 A 
ATOM     68  F   UNL     1      -6.851  15.707  -4.966  1.00  0.00    -0.203 F 
ATOM     69  C   UNL     1      -8.425  14.957  -6.545  1.00  0.00     0.198 A 
ATOM     70  C   UNL     1      -7.698  13.753  -8.489  1.00  0.00     0.198 A 
ATOM     71  F   UNL     1      -5.418  13.269  -8.793  1.00  0.00    -0.203 F 
ATOM     72  F   UNL     1      -9.413  15.461  -5.793  1.00  0.00    -0.200 F 
ATOM     73  C   UNL     1      -8.720  14.305  -7.732  1.00  0.00     0.200 A 
ATOM     74  F   UNL     1      -7.981  13.136  -9.645  1.00  0.00    -0.200 F 
ATOM     75  F   UNL     1      -9.992  14.201  -8.142  1.00  0.00    -0.200 F 
ENDBRANCH  51  65
BRANCH  52  76
ATOM     76  C   UNL     1       3.438  14.654  -3.658  1.00  0.00     0.064 A 
ATOM     77  C   UNL     1       4.057  15.833  -3.218  1.00  0.00     0.173 A 
ATOM     78  C   UNL     1       4.207  13.481  -3.669  1.00  0.00     0.173 A 
ATOM     79  F   UNL     1       3.369  16.984  -3.203  1.00  0.00    -0.203 F 
ATOM     80  C   UNL     1       5.395  15.844  -2.829  1.00  0.00     0.198 A 
ATOM     81  C   UNL     1       5.537  13.487  -3.250  1.00  0.00     0.198 A 
ATOM     82  F   UNL     1       3.662  12.324  -4.070  1.00  0.00    -0.203 F 
ATOM     83  F   UNL     1       5.973  16.995  -2.457  1.00  0.00    -0.200 F 
ATOM     84  C   UNL     1       6.133  14.670  -2.840  1.00  0.00     0.200 A 
ATOM     85  F   UNL     1       6.240  12.347  -3.244  1.00  0.00    -0.200 F 
ATOM     86  F   UNL     1       7.418  14.680  -2.460  1.00  0.00    -0.200 F 
ENDBRANCH  52  76
BRANCH  64  87
ATOM     87  C   UNL     1       0.058  17.627  -8.998  1.00  0.00     0.064 A 
ATOM     88  C   UNL     1       0.817  17.188 -10.091  1.00  0.00     0.173 A 
ATOM     89  C   UNL     1      -0.385  18.960  -8.994  1.00  0.00     0.173 A 
ATOM     90  F   UNL     1       1.273  15.927 -10.133  1.00  0.00    -0.203 F 
ATOM     91  C   UNL     1       1.123  18.052 -11.139  1.00  0.00     0.198 A 
ATOM     92  C   UNL     1      -0.103  19.811 -10.057  1.00  0.00     0.198 A 
ATOM     93  F   UNL     1      -1.122  19.424  -7.973  1.00  0.00    -0.203 F 
ATOM     94  F   UNL     1       1.873  17.621 -12.162  1.00  0.00    -0.200 F 
ATOM     95  C   UNL     1       0.652  19.357 -11.127  1.00  0.00     0.200 A 
ATOM     96  F   UNL     1      -0.576  21.065 -10.052  1.00  0.00    -0.200 F 
ATOM     97  F   UNL     1       0.926  20.179 -12.150  1.00  0.00    -0.200 F 
ENDBRANCH  64  87
ENDBRANCH  38  39
ENDBRANCH  30  33
ENDBRANCH  28  29
ENDBRANCH  27  28
ENDBRANCH   1  27
TORSDOF 12
