REMARK SMILES Cc1cc(C(=O)N[C@@H](C)C(=O)NCCCNC(=O)c2ccc(-c3c4nc(c(-c5c(F)c(F)c(F)c(F)c5F)c5ccc([nH]5)c(-c5c(F)c(F)c(F)c(F)c5F)c5nc(c(-c6c(F)c(F)c(F)c(F)c6F)c6ccc3[nH]6)C=C5)C=C4)cc2)cc(C)c1OC(F)F
REMARK SMILES IDX 13 1 12 2 10 3 11 4 8 6 9 7 7 8 5 9 6 10 4 12 1 13 2 14 3 15
REMARK SMILES IDX 85 16 83 17 82 18 84 19 86 20 87 21 88 22 89 23 14 24 15 25
REMARK SMILES IDX 16 26 17 27 18 29 19 30 20 31 81 32 21 33 80 34 22 35 23 36
REMARK SMILES IDX 24 37 74 38 25 39 79 40 73 41 75 42 26 43 78 44 72 45 71 46
REMARK SMILES IDX 27 48 59 49 39 50 58 51 40 52 43 53 57 54 76 55 41 56 42 57
REMARK SMILES IDX 56 59 77 60 44 61 28 62 29 63 37 64 30 65 31 66 35 67 38 68
REMARK SMILES IDX 32 69 33 70 36 71 34 72 60 73 61 74 69 75 62 76 63 77 67 78
REMARK SMILES IDX 70 79 64 80 65 81 68 82 66 83 45 84 46 85 54 86 47 87 48 88
REMARK SMILES IDX 52 89 55 90 49 91 50 92 53 93 51 94
REMARK H PARENT 12 5 7 11 16 28 75 47 43 58
REMARK Flexibility Score: inf
ROOT
ATOM      1  C   UNL     1      -6.771  -0.595  -0.338  1.00  0.00     0.117 C 
ENDROOT
BRANCH   1   2
ATOM      2  N   UNL     1      -5.854  -1.482  -1.030  1.00  0.00    -0.354 N 
ATOM      3  C   UNL     1      -4.592  -1.888  -0.708  1.00  0.00     0.242 C 
ATOM      4  O   UNL     1      -4.042  -2.686  -1.473  1.00  0.00    -0.273 OA
ATOM      5  H   UNL     1      -6.202  -1.854  -1.873  1.00  0.00     0.163 HD
BRANCH   3   6
ATOM      6  C   UNL     1      -3.852  -1.344   0.530  1.00  0.00     0.168 C 
ATOM      7  C   UNL     1      -4.536  -1.658   1.854  1.00  0.00     0.041 C 
BRANCH   6   8
ATOM      8  N   UNL     1      -3.563   0.074   0.310  1.00  0.00    -0.341 N 
ATOM      9  C   UNL     1      -2.443   0.736  -0.141  1.00  0.00     0.251 C 
ATOM     10  O   UNL     1      -2.559   1.941  -0.372  1.00  0.00    -0.269 OA
ATOM     11  H   UNL     1      -4.316   0.671   0.525  1.00  0.00     0.164 HD
BRANCH   9  12
ATOM     12  C   UNL     1      -1.095   0.104  -0.254  1.00  0.00     0.040 A 
ATOM     13  C   UNL     1       2.407   1.442   0.203  1.00  0.00     0.048 C 
ATOM     14  C   UNL     1       1.351   0.387   0.022  1.00  0.00    -0.008 A 
ATOM     15  C   UNL     1       0.030   0.908  -0.041  1.00  0.00     0.021 A 
ATOM     16  C   UNL     1       1.515  -1.008  -0.028  1.00  0.00     0.131 A 
ATOM     17  C   UNL     1       0.386  -1.812  -0.323  1.00  0.00    -0.008 A 
ATOM     18  C   UNL     1      -0.877  -1.234  -0.528  1.00  0.00     0.021 A 
ATOM     19  C   UNL     1       0.433  -3.322  -0.325  1.00  0.00     0.048 C 
BRANCH  16  20
ATOM     20  O   UNL     1       2.615  -1.762   0.246  1.00  0.00    -0.434 OA
BRANCH  20  21
ATOM     21  C   UNL     1       3.942  -1.317   0.074  1.00  0.00     0.542 C 
ATOM     22  F   UNL     1       4.074  -0.623  -1.079  1.00  0.00    -0.167 F 
ATOM     23  F   UNL     1       4.299  -0.537   1.120  1.00  0.00    -0.167 F 
ENDBRANCH  20  21
ENDBRANCH  16  20
ENDBRANCH   9  12
ENDBRANCH   6   8
ENDBRANCH   3   6
ENDBRANCH   1   2
BRANCH   1  24
ATOM     24  C   UNL     1      -7.268   0.548  -1.210  1.00  0.00     0.042 C 
BRANCH  24  25
ATOM     25  C   UNL     1      -8.078   0.112  -2.422  1.00  0.00     0.118 C 
BRANCH  25  26
ATOM     26  N   UNL     1      -9.293  -0.609  -2.063  1.00  0.00    -0.352 N 
ATOM     27  C   UNL     1     -10.613  -0.235  -2.141  1.00  0.00     0.251 C 
ATOM     28  H   UNL     1      -9.142  -1.514  -1.705  1.00  0.00     0.163 HD
ATOM     29  O   UNL     1     -11.472  -0.921  -1.600  1.00  0.00    -0.269 OA
BRANCH  27  30
ATOM     30  C   UNL     1     -11.000   1.006  -2.846  1.00  0.00     0.039 A 
ATOM     31  C   UNL     1     -11.957   1.843  -2.265  1.00  0.00     0.014 A 
ATOM     32  C   UNL     1     -10.431   1.346  -4.075  1.00  0.00     0.014 A 
ATOM     33  C   UNL     1     -12.264   3.066  -2.866  1.00  0.00     0.010 A 
ATOM     34  C   UNL     1     -10.670   2.601  -4.626  1.00  0.00     0.010 A 
ATOM     35  C   UNL     1     -11.579   3.481  -4.019  1.00  0.00    -0.014 A 
BRANCH  35  36
ATOM     36  C   UNL     1     -11.763   4.843  -4.583  1.00  0.00     0.031 A 
ATOM     37  C   UNL     1     -12.296   5.023  -5.978  1.00  0.00     0.074 A 
ATOM     38  C   UNL     1     -11.360   5.913  -3.868  1.00  0.00     0.049 A 
ATOM     39  N   UNL     1     -12.417   6.121  -6.681  1.00  0.00    -0.248 NA
ATOM     40  C   UNL     1     -12.727   3.808  -6.686  1.00  0.00     0.031 C 
ATOM     41  C   UNL     1     -10.782   5.863  -2.523  1.00  0.00     0.029 A 
ATOM     42  N   UNL     1     -11.353   7.250  -4.180  1.00  0.00    -0.354 N 
ATOM     43  C   UNL     1     -12.921   5.728  -7.913  1.00  0.00     0.074 A 
ATOM     44  C   UNL     1     -13.044   4.287  -7.881  1.00  0.00     0.031 C 
ATOM     45  C   UNL     1     -10.488   7.109  -2.122  1.00  0.00     0.029 A 
ATOM     46  C   UNL     1     -10.806   8.042  -3.198  1.00  0.00     0.049 A 
ATOM     47  H   UNL     1     -11.706   7.609  -5.026  1.00  0.00     0.167 HD
ATOM     48  C   UNL     1     -13.264   6.503  -8.969  1.00  0.00     0.037 A 
ATOM     49  C   UNL     1     -10.562   9.367  -3.177  1.00  0.00     0.037 A 
ATOM     50  C   UNL     1     -13.162   7.940  -8.986  1.00  0.00     0.049 A 
ATOM     51  C   UNL     1     -10.935  10.197  -4.377  1.00  0.00     0.074 A 
ATOM     52  C   UNL     1     -13.556   8.818  -9.981  1.00  0.00     0.029 A 
ATOM     53  N   UNL     1     -12.619   8.707  -7.967  1.00  0.00    -0.354 N 
ATOM     54  N   UNL     1     -11.490   9.823  -5.504  1.00  0.00    -0.248 NA
ATOM     55  C   UNL     1     -10.649  11.637  -4.300  1.00  0.00     0.031 C 
ATOM     56  C   UNL     1     -13.195  10.111  -9.591  1.00  0.00     0.029 A 
ATOM     57  C   UNL     1     -12.635  10.046  -8.326  1.00  0.00     0.049 A 
ATOM     58  H   UNL     1     -12.275   8.354  -7.115  1.00  0.00     0.167 HD
ATOM     59  C   UNL     1     -11.643  10.980  -6.256  1.00  0.00     0.074 A 
ATOM     60  C   UNL     1     -11.146  12.073  -5.448  1.00  0.00     0.031 C 
ATOM     61  C   UNL     1     -12.143  11.124  -7.507  1.00  0.00     0.037 A 
BRANCH  48  62
ATOM     62  C   UNL     1     -13.786   5.826 -10.203  1.00  0.00     0.064 A 
ATOM     63  C   UNL     1     -15.056   5.232 -10.236  1.00  0.00     0.173 A 
ATOM     64  C   UNL     1     -13.041   5.848 -11.392  1.00  0.00     0.173 A 
ATOM     65  F   UNL     1     -15.805   5.176  -9.125  1.00  0.00    -0.203 F 
ATOM     66  C   UNL     1     -15.555   4.674 -11.411  1.00  0.00     0.198 A 
ATOM     67  C   UNL     1     -13.555   5.316 -12.571  1.00  0.00     0.198 A 
ATOM     68  F   UNL     1     -11.822   6.410 -11.416  1.00  0.00    -0.203 F 
ATOM     69  F   UNL     1     -16.758   4.084 -11.411  1.00  0.00    -0.200 F 
ATOM     70  C   UNL     1     -14.810   4.727 -12.579  1.00  0.00     0.200 A 
ATOM     71  F   UNL     1     -12.840   5.383 -13.703  1.00  0.00    -0.200 F 
ATOM     72  F   UNL     1     -15.301   4.209 -13.713  1.00  0.00    -0.200 F 
ENDBRANCH  48  62
BRANCH  49  73
ATOM     73  C   UNL     1      -9.920   9.996  -1.991  1.00  0.00     0.064 A 
ATOM     74  C   UNL     1     -10.612  10.924  -1.200  1.00  0.00     0.173 A 
ATOM     75  C   UNL     1      -8.588   9.717  -1.649  1.00  0.00     0.173 A 
ATOM     76  F   UNL     1     -11.881  11.242  -1.497  1.00  0.00    -0.203 F 
ATOM     77  C   UNL     1      -9.987  11.576  -0.139  1.00  0.00     0.198 A 
ATOM     78  C   UNL     1      -7.975  10.341  -0.565  1.00  0.00     0.198 A 
ATOM     79  F   UNL     1      -7.880   8.833  -2.368  1.00  0.00    -0.203 F 
ATOM     80  F   UNL     1     -10.652  12.508   0.556  1.00  0.00    -0.200 F 
ATOM     81  C   UNL     1      -8.671  11.281   0.180  1.00  0.00     0.200 A 
ATOM     82  F   UNL     1      -6.708  10.041  -0.249  1.00  0.00    -0.200 F 
ATOM     83  F   UNL     1      -8.068  11.912   1.198  1.00  0.00    -0.200 F 
ENDBRANCH  49  73
BRANCH  61  84
ATOM     84  C   UNL     1     -12.209  12.516  -8.067  1.00  0.00     0.064 A 
ATOM     85  C   UNL     1     -11.051  13.220  -8.430  1.00  0.00     0.173 A 
ATOM     86  C   UNL     1     -13.448  13.141  -8.275  1.00  0.00     0.173 A 
ATOM     87  F   UNL     1      -9.841  12.674  -8.237  1.00  0.00    -0.203 F 
ATOM     88  C   UNL     1     -11.130  14.508  -8.954  1.00  0.00     0.198 A 
ATOM     89  C   UNL     1     -13.525  14.414  -8.832  1.00  0.00     0.198 A 
ATOM     90  F   UNL     1     -14.587  12.509  -7.952  1.00  0.00    -0.203 F 
ATOM     91  F   UNL     1     -10.008  15.181  -9.242  1.00  0.00    -0.200 F 
ATOM     92  C   UNL     1     -12.367  15.100  -9.162  1.00  0.00     0.200 A 
ATOM     93  F   UNL     1     -14.722  14.977  -9.049  1.00  0.00    -0.200 F 
ATOM     94  F   UNL     1     -12.441  16.336  -9.675  1.00  0.00    -0.200 F 
ENDBRANCH  61  84
ENDBRANCH  35  36
ENDBRANCH  27  30
ENDBRANCH  25  26
ENDBRANCH  24  25
ENDBRANCH   1  24
TORSDOF 14
