REMARK SMILES Cc1cc(C)cc(C2(C(=O)NCCCNC(=O)c3ccc(-c4c5nc(c(-c6c(F)c(F)c(F)c(F)c6F)c6ccc([nH]6)c(-c6c(F)c(F)c(F)c(F)c6F)c6nc(c(-c7c(F)c(F)c(F)c(F)c7F)c7ccc4[nH]7)C=C6)C=C5)cc3)CCOCC2)c1
REMARK SMILES IDX 13 1 12 2 11 3 9 4 10 5 8 7 81 8 85 9 82 10 84 11 83 12 7 13
REMARK SMILES IDX 1 14 2 15 3 16 86 17 4 18 5 19 6 20 14 21 15 22 16 23 17 25
REMARK SMILES IDX 18 26 19 27 80 28 20 29 79 30 21 31 22 32 23 33 73 34 24 35
REMARK SMILES IDX 78 36 72 37 74 38 25 39 77 40 71 41 70 42 26 44 58 45 38 46
REMARK SMILES IDX 57 47 39 48 42 49 56 50 75 51 40 52 41 53 55 55 76 56 43 57
REMARK SMILES IDX 27 58 28 59 36 60 29 61 30 62 34 63 37 64 31 65 32 66 35 67
REMARK SMILES IDX 33 68 59 69 60 70 68 71 61 72 62 73 66 74 69 75 63 76 64 77
REMARK SMILES IDX 67 78 65 79 44 80 45 81 53 82 46 83 47 84 51 85 54 86 48 87
REMARK SMILES IDX 49 88 52 89 50 90
REMARK H PARENT 11 6 15 24 74 43 42 54
REMARK Flexibility Score: inf
ROOT
ATOM      1  C   UNL     1      -1.965  -7.009   1.203  1.00  0.00     0.042 C 
ENDROOT
BRANCH   1   2
ATOM      2  C   UNL     1      -1.582  -6.113   0.049  1.00  0.00     0.117 C 
BRANCH   2   3
ATOM      3  N   UNL     1      -2.034  -4.751   0.223  1.00  0.00    -0.355 N 
ATOM      4  C   UNL     1      -1.494  -3.688  -0.441  1.00  0.00     0.230 C 
ATOM      5  O   UNL     1      -2.252  -3.165  -1.266  1.00  0.00    -0.274 OA
ATOM      6  H   UNL     1      -2.770  -4.582   0.854  1.00  0.00     0.163 HD
BRANCH   4   7
ATOM      7  C   UNL     1      -0.033  -3.174  -0.183  1.00  0.00     0.078 C 
ATOM      8  C   UNL     1       0.588  -3.646   1.157  1.00  0.00     0.050 C 
ATOM      9  C   UNL     1       0.800  -3.625  -1.411  1.00  0.00     0.050 C 
ATOM     10  C   UNL     1       1.365  -4.954   1.129  1.00  0.00     0.161 C 
ATOM     11  C   UNL     1       1.419  -5.003  -1.279  1.00  0.00     0.161 C 
ATOM     12  O   UNL     1       2.123  -5.149  -0.055  1.00  0.00    -0.381 OA
BRANCH   7  13
ATOM     13  C   UNL     1      -0.023  -1.598  -0.107  1.00  0.00    -0.032 A 
ATOM     14  C   UNL     1       2.597   1.201  -0.107  1.00  0.00     0.044 C 
ATOM     15  C   UNL     1       1.274   0.497  -0.078  1.00  0.00    -0.051 A 
ATOM     16  C   UNL     1       0.090   1.232   0.003  1.00  0.00     0.006 A 
ATOM     17  C   UNL     1       1.205  -0.901  -0.140  1.00  0.00     0.008 A 
ATOM     18  C   UNL     1      -1.144   0.581   0.067  1.00  0.00    -0.051 A 
ATOM     19  C   UNL     1      -2.409   1.389   0.131  1.00  0.00     0.044 C 
ATOM     20  C   UNL     1      -1.187  -0.823   0.047  1.00  0.00     0.008 A 
ENDBRANCH   7  13
ENDBRANCH   4   7
ENDBRANCH   2   3
ENDBRANCH   1   2
BRANCH   1  21
ATOM     21  C   UNL     1      -3.427  -7.396   1.141  1.00  0.00     0.118 C 
BRANCH  21  22
ATOM     22  N   UNL     1      -3.719  -8.245  -0.013  1.00  0.00    -0.352 N 
ATOM     23  C   UNL     1      -3.994  -9.587  -0.074  1.00  0.00     0.251 C 
ATOM     24  H   UNL     1      -3.716  -7.782  -0.882  1.00  0.00     0.163 HD
ATOM     25  O   UNL     1      -3.949 -10.179  -1.152  1.00  0.00    -0.269 OA
BRANCH  23  26
ATOM     26  C   UNL     1      -4.340 -10.319   1.158  1.00  0.00     0.039 A 
ATOM     27  C   UNL     1      -3.909 -11.635   1.331  1.00  0.00     0.014 A 
ATOM     28  C   UNL     1      -5.099  -9.694   2.148  1.00  0.00     0.014 A 
ATOM     29  C   UNL     1      -4.205 -12.299   2.522  1.00  0.00     0.010 A 
ATOM     30  C   UNL     1      -5.243 -10.290   3.387  1.00  0.00     0.010 A 
ATOM     31  C   UNL     1      -4.850 -11.620   3.570  1.00  0.00    -0.014 A 
BRANCH  31  32
ATOM     32  C   UNL     1      -5.203 -12.300   4.838  1.00  0.00     0.031 A 
ATOM     33  C   UNL     1      -6.647 -12.373   5.264  1.00  0.00     0.074 A 
ATOM     34  C   UNL     1      -4.229 -12.804   5.618  1.00  0.00     0.049 A 
ATOM     35  N   UNL     1      -7.167 -12.891   6.347  1.00  0.00    -0.248 NA
ATOM     36  C   UNL     1      -7.639 -11.736   4.379  1.00  0.00     0.031 C 
ATOM     37  C   UNL     1      -2.793 -12.722   5.344  1.00  0.00     0.029 A 
ATOM     38  N   UNL     1      -4.302 -13.492   6.801  1.00  0.00    -0.354 N 
ATOM     39  C   UNL     1      -8.529 -12.622   6.277  1.00  0.00     0.074 A 
ATOM     40  C   UNL     1      -8.745 -11.815   5.100  1.00  0.00     0.031 C 
ATOM     41  C   UNL     1      -2.124 -13.382   6.302  1.00  0.00     0.029 A 
ATOM     42  C   UNL     1      -3.079 -13.900   7.275  1.00  0.00     0.049 A 
ATOM     43  H   UNL     1      -5.150 -13.676   7.267  1.00  0.00     0.167 HD
ATOM     44  C   UNL     1      -9.520 -13.049   7.093  1.00  0.00     0.037 A 
ATOM     45  C   UNL     1      -2.774 -14.622   8.368  1.00  0.00     0.037 A 
ATOM     46  C   UNL     1      -9.297 -13.889   8.238  1.00  0.00     0.049 A 
ATOM     47  C   UNL     1      -3.896 -15.112   9.244  1.00  0.00     0.074 A 
ATOM     48  C   UNL     1     -10.226 -14.431   9.107  1.00  0.00     0.029 A 
ATOM     49  N   UNL     1      -8.047 -14.312   8.668  1.00  0.00    -0.354 N 
ATOM     50  N   UNL     1      -5.188 -14.917   9.127  1.00  0.00    -0.248 NA
ATOM     51  C   UNL     1      -3.516 -15.940  10.395  1.00  0.00     0.031 C 
ATOM     52  C   UNL     1      -9.533 -15.142  10.093  1.00  0.00     0.029 A 
ATOM     53  C   UNL     1      -8.179 -15.098   9.800  1.00  0.00     0.049 A 
ATOM     54  H   UNL     1      -7.194 -14.087   8.232  1.00  0.00     0.167 HD
ATOM     55  C   UNL     1      -5.777 -15.627  10.164  1.00  0.00     0.074 A 
ATOM     56  C   UNL     1      -4.700 -16.273  10.887  1.00  0.00     0.031 C 
ATOM     57  C   UNL     1      -7.089 -15.736  10.494  1.00  0.00     0.037 A 
BRANCH  44  58
ATOM     58  C   UNL     1     -10.924 -12.624   6.763  1.00  0.00     0.064 A 
ATOM     59  C   UNL     1     -11.579 -13.071   5.604  1.00  0.00     0.173 A 
ATOM     60  C   UNL     1     -11.629 -11.767   7.620  1.00  0.00     0.173 A 
ATOM     61  F   UNL     1     -10.947 -13.878   4.738  1.00  0.00    -0.203 F 
ATOM     62  C   UNL     1     -12.869 -12.645   5.296  1.00  0.00     0.198 A 
ATOM     63  C   UNL     1     -12.933 -11.373   7.329  1.00  0.00     0.198 A 
ATOM     64  F   UNL     1     -11.054 -11.308   8.742  1.00  0.00    -0.203 F 
ATOM     65  F   UNL     1     -13.445 -13.032   4.150  1.00  0.00    -0.200 F 
ATOM     66  C   UNL     1     -13.548 -11.803   6.163  1.00  0.00     0.200 A 
ATOM     67  F   UNL     1     -13.593 -10.569   8.175  1.00  0.00    -0.200 F 
ATOM     68  F   UNL     1     -14.791 -11.398   5.870  1.00  0.00    -0.200 F 
ENDBRANCH  44  58
BRANCH  45  69
ATOM     69  C   UNL     1      -1.358 -14.970   8.662  1.00  0.00     0.064 A 
ATOM     70  C   UNL     1      -0.908 -16.296   8.576  1.00  0.00     0.173 A 
ATOM     71  C   UNL     1      -0.428 -13.992   9.041  1.00  0.00     0.173 A 
ATOM     72  F   UNL     1      -1.761 -17.271   8.230  1.00  0.00    -0.203 F 
ATOM     73  C   UNL     1       0.407 -16.633   8.888  1.00  0.00     0.198 A 
ATOM     74  C   UNL     1       0.896 -14.325   9.320  1.00  0.00     0.198 A 
ATOM     75  F   UNL     1      -0.802 -12.707   9.126  1.00  0.00    -0.203 F 
ATOM     76  F   UNL     1       0.794 -17.916   8.851  1.00  0.00    -0.200 F 
ATOM     77  C   UNL     1       1.310 -15.647   9.256  1.00  0.00     0.200 A 
ATOM     78  F   UNL     1       1.769 -13.366   9.656  1.00  0.00    -0.200 F 
ATOM     79  F   UNL     1       2.575 -15.971   9.554  1.00  0.00    -0.200 F 
ENDBRANCH  45  69
BRANCH  57  80
ATOM     80  C   UNL     1      -7.428 -16.628  11.653  1.00  0.00     0.064 A 
ATOM     81  C   UNL     1      -7.077 -16.297  12.971  1.00  0.00     0.173 A 
ATOM     82  C   UNL     1      -8.123 -17.828  11.440  1.00  0.00     0.173 A 
ATOM     83  F   UNL     1      -6.403 -15.166  13.227  1.00  0.00    -0.203 F 
ATOM     84  C   UNL     1      -7.367 -17.160  14.024  1.00  0.00     0.198 A 
ATOM     85  C   UNL     1      -8.447 -18.667  12.501  1.00  0.00     0.198 A 
ATOM     86  F   UNL     1      -8.494 -18.185  10.200  1.00  0.00    -0.203 F 
ATOM     87  F   UNL     1      -6.956 -16.859  15.264  1.00  0.00    -0.200 F 
ATOM     88  C   UNL     1      -8.055 -18.340  13.790  1.00  0.00     0.200 A 
ATOM     89  F   UNL     1      -9.130 -19.798  12.274  1.00  0.00    -0.200 F 
ATOM     90  F   UNL     1      -8.331 -19.169  14.805  1.00  0.00    -0.200 F 
ENDBRANCH  57  80
ENDBRANCH  31  32
ENDBRANCH  23  26
ENDBRANCH  21  22
ENDBRANCH   1  21
TORSDOF 11
