REMARK SMILES CCCCCCCCNC(=O)Oc1cccc(-c2ccc([C@@H](C)C(=O)NCCCNC(=O)c3ccc(-c4c5nc(c(-c6c(F)c(F)c(F)c(F)c6F)c6ccc([nH]6)c(-c6c(F)c(F)c(F)c(F)c6F)c6nc(c(-c7c(F)c(F)c(F)c(F)c7F)c7ccc4[nH]7)C=C6)C=C5)cc3)cc2F)c1
REMARK SMILES IDX 13 1 14 2 15 3 16 4 17 5 99 6 12 7 10 8 9 9 11 11 8 12 7 13
REMARK SMILES IDX 6 14 5 15 4 16 3 17 2 18 1 19 18 20 19 21 97 22 20 23 96 24
REMARK SMILES IDX 98 25 21 26 22 27 23 28 24 29 25 30 26 31 27 33 28 34 29 35
REMARK SMILES IDX 30 36 31 37 32 39 33 40 34 41 95 42 35 43 94 44 36 45 37 46
REMARK SMILES IDX 38 47 88 48 39 49 93 50 87 51 89 52 40 53 92 54 86 55 85 56
REMARK SMILES IDX 41 58 73 59 53 60 72 61 54 62 57 63 71 64 90 65 55 66 56 67
REMARK SMILES IDX 70 69 91 70 58 71 42 72 43 73 51 74 44 75 45 76 49 77 52 78
REMARK SMILES IDX 46 79 47 80 50 81 48 82 74 83 75 84 83 85 76 86 77 87 81 88
REMARK SMILES IDX 84 89 78 90 79 91 82 92 80 93 59 94 60 95 68 96 61 97 62 98
REMARK SMILES IDX 66 99 69 100 63 101 64 102 67 103 65 104
REMARK H PARENT 9 10 26 32 30 38 89 57 57 68
REMARK Flexibility Score: inf
ROOT
ATOM      1  C   UNL     1      -3.649   8.526  -4.040  1.00  0.00     0.133 A 
ATOM      2  C   UNL     1      -3.157   8.990  -5.255  1.00  0.00     0.047 A 
ATOM      3  C   UNL     1      -3.655  10.176  -5.774  1.00  0.00     0.004 A 
ATOM      4  C   UNL     1      -4.628  10.890  -5.067  1.00  0.00     0.009 A 
ATOM      5  C   UNL     1      -5.148  10.430  -3.837  1.00  0.00    -0.012 A 
ATOM      6  C   UNL     1      -4.627   9.228  -3.331  1.00  0.00     0.056 A 
ENDROOT
BRANCH   1   7
ATOM      7  O   UNL     1      -3.015   7.401  -3.495  1.00  0.00    -0.410 OA
BRANCH   7   8
ATOM      8  C   UNL     1      -3.792   6.312  -3.139  1.00  0.00     0.412 C 
ATOM      9  N   UNL     1      -3.051   5.300  -2.590  1.00  0.00    -0.321 N 
ATOM     10  H   UNL     1      -3.538   4.486  -2.325  1.00  0.00     0.167 HD
ATOM     11  O   UNL     1      -5.002   6.205  -3.288  1.00  0.00    -0.224 OA
BRANCH   9  12
ATOM     12  C   UNL     1      -1.620   5.311  -2.360  1.00  0.00     0.119 C 
BRANCH  12  13
ATOM     13  C   UNL     1      -1.276   5.081  -0.889  1.00  0.00     0.021 C 
BRANCH  13  14
ATOM     14  C   UNL     1      -1.678   3.704  -0.346  1.00  0.00     0.002 C 
BRANCH  14  15
ATOM     15  C   UNL     1      -1.092   2.508  -1.105  1.00  0.00     0.000 C 
BRANCH  15  16
ATOM     16  C   UNL     1       0.439   2.446  -1.131  1.00  0.00    -0.000 C 
BRANCH  16  17
ATOM     17  C   UNL     1       1.105   2.280   0.239  1.00  0.00    -0.000 C 
BRANCH  17  18
ATOM     18  C   UNL     1       0.686   1.031   1.021  1.00  0.00    -0.003 C 
ATOM     19  C   UNL     1       1.001  -0.269   0.297  1.00  0.00     0.004 C 
ENDBRANCH  17  18
ENDBRANCH  16  17
ENDBRANCH  15  16
ENDBRANCH  14  15
ENDBRANCH  13  14
ENDBRANCH  12  13
ENDBRANCH   9  12
ENDBRANCH   7   8
ENDBRANCH   1   7
BRANCH   5  20
ATOM     20  C   UNL     1      -6.215  11.179  -3.132  1.00  0.00     0.018 A 
ATOM     21  C   UNL     1      -7.198  11.873  -3.859  1.00  0.00     0.012 A 
ATOM     22  C   UNL     1      -6.324  11.234  -1.734  1.00  0.00     0.131 A 
ATOM     23  C   UNL     1      -8.225  12.583  -3.225  1.00  0.00     0.005 A 
ATOM     24  C   UNL     1      -7.380  11.895  -1.097  1.00  0.00     0.044 A 
ATOM     25  F   UNL     1      -5.401  10.651  -0.953  1.00  0.00    -0.206 F 
ATOM     26  C   UNL     1      -8.360  12.571  -1.836  1.00  0.00    -0.033 A 
BRANCH  26  27
ATOM     27  C   UNL     1      -9.528  13.226  -1.118  1.00  0.00     0.105 C 
ATOM     28  C   UNL     1      -9.888  14.634  -1.591  1.00  0.00     0.023 C 
BRANCH  27  29
ATOM     29  C   UNL     1     -10.732  12.291  -0.926  1.00  0.00     0.227 C 
ATOM     30  O   UNL     1     -10.954  11.796   0.186  1.00  0.00    -0.274 OA
ATOM     31  N   UNL     1     -11.606  11.955  -1.913  1.00  0.00    -0.356 N 
ATOM     32  H   UNL     1     -12.350  11.387  -1.609  1.00  0.00     0.163 HD
BRANCH  31  33
ATOM     33  C   UNL     1     -11.652  12.272  -3.328  1.00  0.00     0.117 C 
BRANCH  33  34
ATOM     34  C   UNL     1     -11.108  11.140  -4.198  1.00  0.00     0.042 C 
BRANCH  34  35
ATOM     35  C   UNL     1     -12.102  10.010  -4.444  1.00  0.00     0.118 C 
BRANCH  35  36
ATOM     36  N   UNL     1     -13.199  10.416  -5.314  1.00  0.00    -0.352 N 
ATOM     37  C   UNL     1     -13.545  10.013  -6.580  1.00  0.00     0.251 C 
ATOM     38  H   UNL     1     -13.794  11.098  -4.927  1.00  0.00     0.163 HD
ATOM     39  O   UNL     1     -14.390  10.655  -7.199  1.00  0.00    -0.269 OA
BRANCH  37  40
ATOM     40  C   UNL     1     -12.913   8.836  -7.222  1.00  0.00     0.039 A 
ATOM     41  C   UNL     1     -12.646   8.887  -8.595  1.00  0.00     0.014 A 
ATOM     42  C   UNL     1     -12.635   7.667  -6.509  1.00  0.00     0.014 A 
ATOM     43  C   UNL     1     -12.035   7.804  -9.232  1.00  0.00     0.010 A 
ATOM     44  C   UNL     1     -11.961   6.614  -7.129  1.00  0.00     0.010 A 
ATOM     45  C   UNL     1     -11.648   6.674  -8.495  1.00  0.00    -0.014 A 
BRANCH  45  46
ATOM     46  C   UNL     1     -10.884   5.566  -9.126  1.00  0.00     0.031 A 
ATOM     47  C   UNL     1     -11.475   4.189  -9.231  1.00  0.00     0.074 A 
ATOM     48  C   UNL     1      -9.620   5.790  -9.534  1.00  0.00     0.049 A 
ATOM     49  N   UNL     1     -10.925   3.083  -9.668  1.00  0.00    -0.248 NA
ATOM     50  C   UNL     1     -12.860   4.026  -8.765  1.00  0.00     0.031 C 
ATOM     51  C   UNL     1      -8.918   7.071  -9.442  1.00  0.00     0.029 A 
ATOM     52  N   UNL     1      -8.693   4.943 -10.089  1.00  0.00    -0.354 N 
ATOM     53  C   UNL     1     -11.888   2.094  -9.516  1.00  0.00     0.074 A 
ATOM     54  C   UNL     1     -13.043   2.721  -8.909  1.00  0.00     0.031 C 
ATOM     55  C   UNL     1      -7.677   6.929  -9.933  1.00  0.00     0.029 A 
ATOM     56  C   UNL     1      -7.481   5.540 -10.335  1.00  0.00     0.049 A 
ATOM     57  H   UNL     1      -8.879   3.997 -10.292  1.00  0.00     0.167 HD
ATOM     58  C   UNL     1     -11.819   0.787  -9.867  1.00  0.00     0.037 A 
ATOM     59  C   UNL     1      -6.333   5.024 -10.814  1.00  0.00     0.037 A 
ATOM     60  C   UNL     1     -10.674   0.172 -10.489  1.00  0.00     0.049 A 
ATOM     61  C   UNL     1      -6.278   3.566 -11.179  1.00  0.00     0.074 A 
ATOM     62  C   UNL     1     -10.536  -1.126 -10.950  1.00  0.00     0.029 A 
ATOM     63  N   UNL     1      -9.466   0.811 -10.728  1.00  0.00    -0.354 N 
ATOM     64  N   UNL     1      -7.220   2.658 -11.100  1.00  0.00    -0.248 NA
ATOM     65  C   UNL     1      -5.000   3.062 -11.700  1.00  0.00     0.031 C 
ATOM     66  C   UNL     1      -9.230  -1.286 -11.425  1.00  0.00     0.029 A 
ATOM     67  C   UNL     1      -8.568  -0.075 -11.302  1.00  0.00     0.049 A 
ATOM     68  H   UNL     1      -9.275   1.754 -10.520  1.00  0.00     0.167 HD
ATOM     69  C   UNL     1      -6.656   1.482 -11.573  1.00  0.00     0.074 A 
ATOM     70  C   UNL     1      -5.296   1.796 -11.959  1.00  0.00     0.031 C 
ATOM     71  C   UNL     1      -7.214   0.251 -11.674  1.00  0.00     0.037 A 
BRANCH  58  72
ATOM     72  C   UNL     1     -13.017  -0.073  -9.588  1.00  0.00     0.064 A 
ATOM     73  C   UNL     1     -14.206   0.065 -10.320  1.00  0.00     0.173 A 
ATOM     74  C   UNL     1     -12.961  -1.079  -8.611  1.00  0.00     0.173 A 
ATOM     75  F   UNL     1     -14.315   1.016 -11.260  1.00  0.00    -0.203 F 
ATOM     76  C   UNL     1     -15.303  -0.755 -10.066  1.00  0.00     0.198 A 
ATOM     77  C   UNL     1     -14.050  -1.915  -8.380  1.00  0.00     0.198 A 
ATOM     78  F   UNL     1     -11.845  -1.259  -7.889  1.00  0.00    -0.203 F 
ATOM     79  F   UNL     1     -16.443  -0.578 -10.749  1.00  0.00    -0.200 F 
ATOM     80  C   UNL     1     -15.222  -1.749  -9.102  1.00  0.00     0.200 A 
ATOM     81  F   UNL     1     -13.966  -2.883  -7.457  1.00  0.00    -0.200 F 
ATOM     82  F   UNL     1     -16.275  -2.543  -8.866  1.00  0.00    -0.200 F 
ENDBRANCH  58  72
BRANCH  59  83
ATOM     83  C   UNL     1      -5.144   5.899 -10.983  1.00  0.00     0.064 A 
ATOM     84  C   UNL     1      -4.687   6.249 -12.261  1.00  0.00     0.173 A 
ATOM     85  C   UNL     1      -4.447   6.408  -9.878  1.00  0.00     0.173 A 
ATOM     86  F   UNL     1      -5.308   5.768 -13.348  1.00  0.00    -0.203 F 
ATOM     87  C   UNL     1      -3.569   7.063 -12.427  1.00  0.00     0.198 A 
ATOM     88  C   UNL     1      -3.346   7.246 -10.044  1.00  0.00     0.198 A 
ATOM     89  F   UNL     1      -4.844   6.103  -8.634  1.00  0.00    -0.203 F 
ATOM     90  F   UNL     1      -3.129   7.350 -13.660  1.00  0.00    -0.200 F 
ATOM     91  C   UNL     1      -2.904   7.567 -11.319  1.00  0.00     0.200 A 
ATOM     92  F   UNL     1      -2.714   7.742  -8.972  1.00  0.00    -0.200 F 
ATOM     93  F   UNL     1      -1.834   8.357 -11.479  1.00  0.00    -0.200 F 
ENDBRANCH  59  83
BRANCH  71  94
ATOM     94  C   UNL     1      -6.356  -0.846 -12.232  1.00  0.00     0.064 A 
ATOM     95  C   UNL     1      -5.304  -1.402 -11.488  1.00  0.00     0.173 A 
ATOM     96  C   UNL     1      -6.608  -1.370 -13.509  1.00  0.00     0.173 A 
ATOM     97  F   UNL     1      -5.012  -0.923 -10.270  1.00  0.00    -0.203 F 
ATOM     98  C   UNL     1      -4.522  -2.428 -12.012  1.00  0.00     0.198 A 
ATOM     99  C   UNL     1      -5.842  -2.415 -14.018  1.00  0.00     0.198 A 
ATOM    100  F   UNL     1      -7.604  -0.876 -14.258  1.00  0.00    -0.203 F 
ATOM    101  F   UNL     1      -3.494  -2.913 -11.303  1.00  0.00    -0.200 F 
ATOM    102  C   UNL     1      -4.796  -2.938 -13.273  1.00  0.00     0.200 A 
ATOM    103  F   UNL     1      -6.114  -2.914 -15.231  1.00  0.00    -0.200 F 
ATOM    104  F   UNL     1      -4.046  -3.929 -13.773  1.00  0.00    -0.200 F 
ENDBRANCH  71  94
ENDBRANCH  45  46
ENDBRANCH  37  40
ENDBRANCH  35  36
ENDBRANCH  34  35
ENDBRANCH  33  34
ENDBRANCH  31  33
ENDBRANCH  27  29
ENDBRANCH  26  27
ENDBRANCH   5  20
TORSDOF 21
