REMARK SMILES CC[C@@H](NC(=O)c1cscc1C)C(=O)NCCCNC(=O)c1ccc(-c2c3nc(c(-c4c(F)c(F)c(F)c(F)c4F)c4ccc([nH]4)c(-c4c(F)c(F)c(F)c(F)c4F)c4nc(c(-c5c(F)c(F)c(F)c(F)c5F)c5ccc2[nH]5)C=C4)C=C3)cc1
REMARK SMILES IDX 17 1 16 2 15 3 13 4 14 5 3 7 2 8 1 9 4 10 5 11 6 13 7 14
REMARK SMILES IDX 8 15 11 16 9 17 10 18 12 19 18 20 19 21 20 22 21 24 22 25
REMARK SMILES IDX 23 26 84 27 24 28 83 29 25 30 26 31 27 32 77 33 28 34 82 35
REMARK SMILES IDX 76 36 78 37 29 38 81 39 75 40 74 41 30 43 62 44 42 45 61 46
REMARK SMILES IDX 43 47 46 48 60 49 79 50 44 51 45 52 59 54 80 55 47 56 31 57
REMARK SMILES IDX 32 58 40 59 33 60 34 61 38 62 41 63 35 64 36 65 39 66 37 67
REMARK SMILES IDX 63 68 64 69 72 70 65 71 66 72 70 73 73 74 67 75 68 76 71 77
REMARK SMILES IDX 69 78 48 79 49 80 57 81 50 82 51 83 55 84 58 85 52 86 53 87
REMARK SMILES IDX 56 88 54 89
REMARK H PARENT 15 6 4 12 19 23 78 42 46 53
REMARK Flexibility Score: inf
ROOT
ATOM      1  C   UNL     1      -2.959   1.341  -2.297  1.00  0.00     0.042 C 
ENDROOT
BRANCH   1   2
ATOM      2  C   UNL     1      -1.986   0.423  -3.019  1.00  0.00     0.117 C 
BRANCH   2   3
ATOM      3  N   UNL     1      -0.896   1.170  -3.620  1.00  0.00    -0.354 N 
ATOM      4  C   UNL     1       0.447   1.083  -3.412  1.00  0.00     0.242 C 
ATOM      5  O   UNL     1       1.158   1.970  -3.895  1.00  0.00    -0.273 OA
ATOM      6  H   UNL     1      -1.171   1.845  -4.282  1.00  0.00     0.163 HD
BRANCH   4   7
ATOM      7  C   UNL     1       1.050   0.024  -2.464  1.00  0.00     0.171 C 
BRANCH   7   8
ATOM      8  C   UNL     1       0.888   0.589  -1.035  1.00  0.00     0.032 C 
ATOM      9  C   UNL     1       1.528  -0.251   0.059  1.00  0.00     0.006 C 
ENDBRANCH   7   8
BRANCH   7  10
ATOM     10  N   UNL     1       0.462  -1.314  -2.591  1.00  0.00    -0.340 N 
ATOM     11  C   UNL     1       0.275  -2.112  -3.691  1.00  0.00     0.253 C 
ATOM     12  H   UNL     1       0.149  -1.706  -1.744  1.00  0.00     0.164 HD
ATOM     13  O   UNL     1      -0.170  -3.246  -3.503  1.00  0.00    -0.269 OA
BRANCH  11  14
ATOM     14  C   UNL     1       0.471  -1.582  -5.037  1.00  0.00     0.053 A 
ATOM     15  C   UNL     1       1.642  -0.992  -5.478  1.00  0.00     0.079 A 
ATOM     16  C   UNL     1      -0.504  -1.658  -6.113  1.00  0.00    -0.028 A 
ATOM     17  S   UNL     1       1.559  -0.467  -7.101  1.00  0.00    -0.151 S 
ATOM     18  C   UNL     1      -0.025  -1.072  -7.271  1.00  0.00     0.069 A 
ATOM     19  C   UNL     1      -1.863  -2.278  -6.017  1.00  0.00     0.046 C 
ENDBRANCH  11  14
ENDBRANCH   7  10
ENDBRANCH   4   7
ENDBRANCH   2   3
ENDBRANCH   1   2
BRANCH   1  20
ATOM     20  C   UNL     1      -3.701   2.296  -3.220  1.00  0.00     0.118 C 
BRANCH  20  21
ATOM     21  N   UNL     1      -4.546   1.602  -4.180  1.00  0.00    -0.352 N 
ATOM     22  C   UNL     1      -5.888   1.737  -4.427  1.00  0.00     0.251 C 
ATOM     23  H   UNL     1      -4.084   0.934  -4.736  1.00  0.00     0.163 HD
ATOM     24  O   UNL     1      -6.459   0.928  -5.152  1.00  0.00    -0.269 OA
BRANCH  22  25
ATOM     25  C   UNL     1      -6.653   2.840  -3.808  1.00  0.00     0.039 A 
ATOM     26  C   UNL     1      -7.933   2.572  -3.316  1.00  0.00     0.014 A 
ATOM     27  C   UNL     1      -6.127   4.132  -3.726  1.00  0.00     0.014 A 
ATOM     28  C   UNL     1      -8.659   3.586  -2.691  1.00  0.00     0.010 A 
ATOM     29  C   UNL     1      -6.816   5.120  -3.029  1.00  0.00     0.010 A 
ATOM     30  C   UNL     1      -8.093   4.859  -2.512  1.00  0.00    -0.014 A 
BRANCH  30  31
ATOM     31  C   UNL     1      -8.830   5.920  -1.786  1.00  0.00     0.031 A 
ATOM     32  C   UNL     1      -9.266   7.170  -2.498  1.00  0.00     0.074 A 
ATOM     33  C   UNL     1      -9.071   5.772  -0.469  1.00  0.00     0.049 A 
ATOM     34  N   UNL     1      -9.915   8.205  -2.029  1.00  0.00    -0.248 NA
ATOM     35  C   UNL     1      -8.902   7.285  -3.919  1.00  0.00     0.031 C 
ATOM     36  C   UNL     1      -8.636   4.636   0.346  1.00  0.00     0.029 A 
ATOM     37  N   UNL     1      -9.737   6.581   0.416  1.00  0.00    -0.354 N 
ATOM     38  C   UNL     1     -10.032   9.091  -3.091  1.00  0.00     0.074 A 
ATOM     39  C   UNL     1      -9.335   8.502  -4.213  1.00  0.00     0.031 C 
ATOM     40  C   UNL     1      -9.072   4.806   1.605  1.00  0.00     0.029 A 
ATOM     41  C   UNL     1      -9.793   6.072   1.690  1.00  0.00     0.049 A 
ATOM     42  H   UNL     1     -10.137   7.444   0.162  1.00  0.00     0.167 HD
ATOM     43  C   UNL     1     -10.687  10.276  -3.135  1.00  0.00     0.037 A 
ATOM     44  C   UNL     1     -10.367   6.570   2.801  1.00  0.00     0.037 A 
ATOM     45  C   UNL     1     -11.397  10.850  -2.022  1.00  0.00     0.049 A 
ATOM     46  C   UNL     1     -11.110   7.874   2.719  1.00  0.00     0.074 A 
ATOM     47  C   UNL     1     -12.136  12.020  -1.978  1.00  0.00     0.029 A 
ATOM     48  N   UNL     1     -11.456  10.292  -0.753  1.00  0.00    -0.354 N 
ATOM     49  N   UNL     1     -11.276   8.668   1.689  1.00  0.00    -0.248 NA
ATOM     50  C   UNL     1     -11.758   8.344   3.951  1.00  0.00     0.031 C 
ATOM     51  C   UNL     1     -12.612  12.188  -0.673  1.00  0.00     0.029 A 
ATOM     52  C   UNL     1     -12.206  11.101   0.085  1.00  0.00     0.049 A 
ATOM     53  H   UNL     1     -11.028   9.447  -0.487  1.00  0.00     0.167 HD
ATOM     54  C   UNL     1     -12.057   9.722   2.142  1.00  0.00     0.074 A 
ATOM     55  C   UNL     1     -12.355   9.451   3.534  1.00  0.00     0.031 C 
ATOM     56  C   UNL     1     -12.485  10.818   1.470  1.00  0.00     0.037 A 
BRANCH  43  57
ATOM     57  C   UNL     1     -10.679  11.023  -4.437  1.00  0.00     0.064 A 
ATOM     58  C   UNL     1     -11.400  10.562  -5.549  1.00  0.00     0.173 A 
ATOM     59  C   UNL     1      -9.973  12.228  -4.566  1.00  0.00     0.173 A 
ATOM     60  F   UNL     1     -12.080   9.408  -5.481  1.00  0.00    -0.203 F 
ATOM     61  C   UNL     1     -11.393  11.267  -6.750  1.00  0.00     0.198 A 
ATOM     62  C   UNL     1      -9.992  12.945  -5.760  1.00  0.00     0.198 A 
ATOM     63  F   UNL     1      -9.270  12.715  -3.533  1.00  0.00    -0.203 F 
ATOM     64  F   UNL     1     -12.052  10.782  -7.812  1.00  0.00    -0.200 F 
ATOM     65  C   UNL     1     -10.696  12.460  -6.853  1.00  0.00     0.200 A 
ATOM     66  F   UNL     1      -9.326  14.104  -5.855  1.00  0.00    -0.200 F 
ATOM     67  F   UNL     1     -10.696  13.141  -8.007  1.00  0.00    -0.200 F 
ENDBRANCH  43  57
BRANCH  44  68
ATOM     68  C   UNL     1     -10.290   5.812   4.076  1.00  0.00     0.064 A 
ATOM     69  C   UNL     1     -11.426   5.191   4.614  1.00  0.00     0.173 A 
ATOM     70  C   UNL     1      -9.083   5.690   4.779  1.00  0.00     0.173 A 
ATOM     71  F   UNL     1     -12.607   5.296   3.987  1.00  0.00    -0.203 F 
ATOM     72  C   UNL     1     -11.362   4.494   5.819  1.00  0.00     0.198 A 
ATOM     73  C   UNL     1      -9.014   4.969   5.969  1.00  0.00     0.198 A 
ATOM     74  F   UNL     1      -7.967   6.259   4.301  1.00  0.00    -0.203 F 
ATOM     75  F   UNL     1     -12.471   3.946   6.333  1.00  0.00    -0.200 F 
ATOM     76  C   UNL     1     -10.155   4.378   6.492  1.00  0.00     0.200 A 
ATOM     77  F   UNL     1      -7.844   4.847   6.609  1.00  0.00    -0.200 F 
ATOM     78  F   UNL     1     -10.093   3.704   7.648  1.00  0.00    -0.200 F 
ENDBRANCH  44  68
BRANCH  56  79
ATOM     79  C   UNL     1     -13.327  11.797   2.233  1.00  0.00     0.064 A 
ATOM     80  C   UNL     1     -12.775  12.620   3.225  1.00  0.00     0.173 A 
ATOM     81  C   UNL     1     -14.697  11.924   1.958  1.00  0.00     0.173 A 
ATOM     82  F   UNL     1     -11.473  12.524   3.535  1.00  0.00    -0.203 F 
ATOM     83  C   UNL     1     -13.571  13.512   3.939  1.00  0.00     0.198 A 
ATOM     84  C   UNL     1     -15.484  12.838   2.654  1.00  0.00     0.198 A 
ATOM     85  F   UNL     1     -15.271  11.165   1.014  1.00  0.00    -0.203 F 
ATOM     86  F   UNL     1     -13.033  14.249   4.920  1.00  0.00    -0.200 F 
ATOM     87  C   UNL     1     -14.922  13.624   3.649  1.00  0.00     0.200 A 
ATOM     88  F   UNL     1     -16.788  12.953   2.366  1.00  0.00    -0.200 F 
ATOM     89  F   UNL     1     -15.687  14.482   4.338  1.00  0.00    -0.200 F 
ENDBRANCH  56  79
ENDBRANCH  30  31
ENDBRANCH  22  25
ENDBRANCH  20  21
ENDBRANCH   1  20
TORSDOF 13
