REMARK SMILES [NH3+]CCOCC(=O)N[C@H](C(=O)NCCCNC(=O)c1ccc(-c2c3nc(c(-c4c(F)c(F)c(F)c(F)c4F)c4ccc([nH]4)c(-c4c(F)c(F)c(F)c(F)c4F)c4nc(c(-c5c(F)c(F)c(F)c(F)c5F)c5ccc2[nH]5)C=C4)C=C3)cc1)c1ccccc1
REMARK SMILES IDX 10 1 11 2 12 3 9 5 8 6 6 7 7 8 5 10 4 11 3 12 2 13 1 14
REMARK SMILES IDX 82 18 83 19 87 20 84 21 86 22 85 23 13 24 14 25 15 26 16 27
REMARK SMILES IDX 17 28 18 30 19 31 20 32 81 33 21 34 80 35 22 36 23 37 24 38
REMARK SMILES IDX 74 39 25 40 79 41 73 42 75 43 26 44 78 45 72 46 71 47 27 49
REMARK SMILES IDX 59 50 39 51 58 52 40 53 43 54 57 55 76 56 41 57 42 58 56 60
REMARK SMILES IDX 77 61 44 62 28 63 29 64 37 65 30 66 31 67 35 68 38 69 32 70
REMARK SMILES IDX 33 71 36 72 34 73 60 74 61 75 69 76 62 77 63 78 67 79 70 80
REMARK SMILES IDX 64 81 65 82 68 83 66 84 45 85 46 86 54 87 47 88 48 89 52 90
REMARK SMILES IDX 55 91 49 92 50 93 53 94 51 95
REMARK H PARENT 12 4 8 9 1 15 1 16 1 17 16 29 75 48 43 59
REMARK Flexibility Score: inf
ROOT
ATOM      1  C   UNL     1       3.652   3.826  -1.055  1.00  0.00     0.247 C 
ATOM      2  O   UNL     1       3.659   2.684  -1.523  1.00  0.00    -0.272 OA
ATOM      3  N   UNL     1       4.861   4.415  -0.795  1.00  0.00    -0.354 N 
ATOM      4  H   UNL     1       5.645   3.823  -0.854  1.00  0.00     0.163 HD
ENDROOT
BRANCH   1   5
ATOM      5  C   UNL     1       2.329   4.626  -0.866  1.00  0.00     0.202 C 
BRANCH   5   6
ATOM      6  N   UNL     1       2.313   5.160   0.509  1.00  0.00    -0.339 N 
ATOM      7  C   UNL     1       2.304   4.502   1.700  1.00  0.00     0.246 C 
ATOM      8  O   UNL     1       2.178   5.173   2.730  1.00  0.00    -0.272 OA
ATOM      9  H   UNL     1       2.309   6.142   0.575  1.00  0.00     0.164 HD
BRANCH   7  10
ATOM     10  C   UNL     1       2.482   2.982   1.780  1.00  0.00     0.260 C 
BRANCH  10  11
ATOM     11  O   UNL     1       1.313   2.206   1.625  1.00  0.00    -0.366 OA
BRANCH  11  12
ATOM     12  C   UNL     1       0.273   2.481   2.565  1.00  0.00     0.222 C 
BRANCH  12  13
ATOM     13  C   UNL     1       0.518   1.926   3.980  1.00  0.00     0.287 C 
BRANCH  13  14
ATOM     14  N   UNL     1       1.440   2.701   4.815  1.00  0.00    -0.356 N 
ATOM     15  H   UNL     1       1.533   2.252   5.726  1.00  0.00     0.344 HD
ATOM     16  H   UNL     1       1.075   3.646   4.937  1.00  0.00     0.344 HD
ATOM     17  H   UNL     1       2.353   2.745   4.362  1.00  0.00     0.344 HD
ENDBRANCH  13  14
ENDBRANCH  12  13
ENDBRANCH  11  12
ENDBRANCH  10  11
ENDBRANCH   7  10
ENDBRANCH   5   6
BRANCH   5  18
ATOM     18  C   UNL     1       2.257   5.735  -1.938  1.00  0.00    -0.016 A 
ATOM     19  C   UNL     1       2.872   5.532  -3.193  1.00  0.00     0.006 A 
ATOM     20  C   UNL     1       1.709   7.004  -1.683  1.00  0.00     0.006 A 
ATOM     21  C   UNL     1       3.084   6.592  -4.076  1.00  0.00     0.000 A 
ATOM     22  C   UNL     1       1.923   8.064  -2.571  1.00  0.00     0.000 A 
ATOM     23  C   UNL     1       2.637   7.865  -3.750  1.00  0.00     0.000 A 
ENDBRANCH   5  18
ENDBRANCH   1   5
BRANCH   3  24
ATOM     24  C   UNL     1       5.142   5.798  -0.445  1.00  0.00     0.117 C 
BRANCH  24  25
ATOM     25  C   UNL     1       5.638   5.934   0.984  1.00  0.00     0.042 C 
BRANCH  25  26
ATOM     26  C   UNL     1       6.978   5.251   1.194  1.00  0.00     0.118 C 
BRANCH  26  27
ATOM     27  N   UNL     1       8.032   5.888   0.417  1.00  0.00    -0.352 N 
ATOM     28  C   UNL     1       9.029   6.736   0.827  1.00  0.00     0.251 C 
ATOM     29  H   UNL     1       8.028   5.679  -0.545  1.00  0.00     0.163 HD
ATOM     30  O   UNL     1       9.635   7.413   0.004  1.00  0.00    -0.269 OA
BRANCH  28  31
ATOM     31  C   UNL     1       9.372   6.828   2.260  1.00  0.00     0.039 A 
ATOM     32  C   UNL     1       9.706   8.070   2.805  1.00  0.00     0.014 A 
ATOM     33  C   UNL     1       9.399   5.681   3.055  1.00  0.00     0.014 A 
ATOM     34  C   UNL     1      10.024   8.163   4.160  1.00  0.00     0.010 A 
ATOM     35  C   UNL     1       9.608   5.790   4.422  1.00  0.00     0.010 A 
ATOM     36  C   UNL     1       9.955   7.027   4.982  1.00  0.00    -0.014 A 
BRANCH  36  37
ATOM     37  C   UNL     1      10.288   7.092   6.423  1.00  0.00     0.031 A 
ATOM     38  C   UNL     1      11.447   6.297   6.958  1.00  0.00     0.074 A 
ATOM     39  C   UNL     1       9.501   7.795   7.258  1.00  0.00     0.049 A 
ATOM     40  N   UNL     1      11.855   6.155   8.193  1.00  0.00    -0.248 NA
ATOM     41  C   UNL     1      12.223   5.521   5.978  1.00  0.00     0.031 C 
ATOM     42  C   UNL     1       8.303   8.537   6.865  1.00  0.00     0.029 A 
ATOM     43  N   UNL     1       9.584   7.986   8.612  1.00  0.00    -0.354 N 
ATOM     44  C   UNL     1      12.909   5.252   8.138  1.00  0.00     0.074 A 
ATOM     45  C   UNL     1      13.037   4.831   6.761  1.00  0.00     0.031 C 
ATOM     46  C   UNL     1       7.773   9.120   7.951  1.00  0.00     0.029 A 
ATOM     47  C   UNL     1       8.578   8.771   9.117  1.00  0.00     0.049 A 
ATOM     48  H   UNL     1      10.296   7.597   9.169  1.00  0.00     0.167 HD
ATOM     49  C   UNL     1      13.716   4.833   9.142  1.00  0.00     0.037 A 
ATOM     50  C   UNL     1       8.336   9.164  10.381  1.00  0.00     0.037 A 
ATOM     51  C   UNL     1      13.611   5.296  10.499  1.00  0.00     0.049 A 
ATOM     52  C   UNL     1       9.280   8.740  11.471  1.00  0.00     0.074 A 
ATOM     53  C   UNL     1      14.436   5.018  11.574  1.00  0.00     0.029 A 
ATOM     54  N   UNL     1      12.612   6.139  10.966  1.00  0.00    -0.354 N 
ATOM     55  N   UNL     1      10.331   7.959  11.395  1.00  0.00    -0.248 NA
ATOM     56  C   UNL     1       9.014   9.263  12.817  1.00  0.00     0.031 C 
ATOM     57  C   UNL     1      13.914   5.664  12.701  1.00  0.00     0.029 A 
ATOM     58  C   UNL     1      12.787   6.376  12.320  1.00  0.00     0.049 A 
ATOM     59  H   UNL     1      11.886   6.513  10.417  1.00  0.00     0.167 HD
ATOM     60  C   UNL     1      10.859   7.903  12.677  1.00  0.00     0.074 A 
ATOM     61  C   UNL     1      10.024   8.749  13.507  1.00  0.00     0.031 C 
ATOM     62  C   UNL     1      11.935   7.213  13.127  1.00  0.00     0.037 A 
BRANCH  49  63
ATOM     63  C   UNL     1      14.780   3.832   8.796  1.00  0.00     0.064 A 
ATOM     64  C   UNL     1      15.873   4.166   7.981  1.00  0.00     0.173 A 
ATOM     65  C   UNL     1      14.702   2.516   9.277  1.00  0.00     0.173 A 
ATOM     66  F   UNL     1      15.989   5.406   7.482  1.00  0.00    -0.203 F 
ATOM     67  C   UNL     1      16.820   3.211   7.622  1.00  0.00     0.198 A 
ATOM     68  C   UNL     1      15.669   1.571   8.943  1.00  0.00     0.198 A 
ATOM     69  F   UNL     1      13.681   2.142  10.064  1.00  0.00    -0.203 F 
ATOM     70  F   UNL     1      17.815   3.538   6.785  1.00  0.00    -0.200 F 
ATOM     71  C   UNL     1      16.720   1.916   8.107  1.00  0.00     0.200 A 
ATOM     72  F   UNL     1      15.577   0.322   9.421  1.00  0.00    -0.200 F 
ATOM     73  F   UNL     1      17.629   0.996   7.756  1.00  0.00    -0.200 F 
ENDBRANCH  49  63
BRANCH  50  74
ATOM     74  C   UNL     1       7.173  10.042  10.659  1.00  0.00     0.064 A 
ATOM     75  C   UNL     1       7.352  11.403  10.936  1.00  0.00     0.173 A 
ATOM     76  C   UNL     1       5.860   9.553  10.599  1.00  0.00     0.173 A 
ATOM     77  F   UNL     1       8.591  11.912  11.018  1.00  0.00    -0.203 F 
ATOM     78  C   UNL     1       6.261  12.243  11.149  1.00  0.00     0.198 A 
ATOM     79  C   UNL     1       4.769  10.398  10.790  1.00  0.00     0.198 A 
ATOM     80  F   UNL     1       5.638   8.258  10.327  1.00  0.00    -0.203 F 
ATOM     81  F   UNL     1       6.461  13.537  11.434  1.00  0.00    -0.200 F 
ATOM     82  C   UNL     1       4.971  11.742  11.067  1.00  0.00     0.200 A 
ATOM     83  F   UNL     1       3.524   9.914  10.694  1.00  0.00    -0.200 F 
ATOM     84  F   UNL     1       3.922  12.554  11.254  1.00  0.00    -0.200 F 
ENDBRANCH  50  74
BRANCH  62  85
ATOM     85  C   UNL     1      12.271   7.347  14.583  1.00  0.00     0.064 A 
ATOM     86  C   UNL     1      11.492   6.729  15.572  1.00  0.00     0.173 A 
ATOM     87  C   UNL     1      13.403   8.069  14.989  1.00  0.00     0.173 A 
ATOM     88  F   UNL     1      10.392   6.041  15.232  1.00  0.00    -0.203 F 
ATOM     89  C   UNL     1      11.824   6.847  16.918  1.00  0.00     0.198 A 
ATOM     90  C   UNL     1      13.746   8.162  16.334  1.00  0.00     0.198 A 
ATOM     91  F   UNL     1      14.182   8.673  14.079  1.00  0.00    -0.203 F 
ATOM     92  F   UNL     1      11.042   6.284  17.850  1.00  0.00    -0.200 F 
ATOM     93  C   UNL     1      12.953   7.557  17.298  1.00  0.00     0.200 A 
ATOM     94  F   UNL     1      14.844   8.839  16.699  1.00  0.00    -0.200 F 
ATOM     95  F   UNL     1      13.274   7.665  18.595  1.00  0.00    -0.200 F 
ENDBRANCH  62  85
ENDBRANCH  36  37
ENDBRANCH  28  31
ENDBRANCH  26  27
ENDBRANCH  25  26
ENDBRANCH  24  25
ENDBRANCH   3  24
TORSDOF 17
