REMARK SMILES O=C(NCCCNC(=O)[C@@H](Cc1ccncc1)c1ccc(Cl)cc1)c1ccc(-c2c3nc(c(-c4c(F)c(F)c(F)c(F)c4F)c4ccc([nH]4)c(-c4c(F)c(F)c(F)c(F)c4F)c4nc(c(-c5c(F)c(F)c(F)c(F)c5F)c5ccc2[nH]5)C=C4)C=C3)cc1
REMARK SMILES IDX 5 1 4 2 3 3 1 4 2 5 25 7 26 8 87 9 27 10 86 11 28 12 29 13
REMARK SMILES IDX 30 14 80 15 31 16 85 17 79 18 81 19 32 20 84 21 78 22 77 23
REMARK SMILES IDX 33 25 65 26 45 27 64 28 46 29 49 30 63 31 82 32 47 33 48 34
REMARK SMILES IDX 62 36 83 37 50 38 34 39 35 40 43 41 36 42 37 43 41 44 44 45
REMARK SMILES IDX 38 46 39 47 42 48 40 49 66 50 67 51 75 52 68 53 69 54 73 55
REMARK SMILES IDX 76 56 70 57 71 58 74 59 72 60 51 61 52 62 60 63 53 64 54 65
REMARK SMILES IDX 58 66 61 67 55 68 56 69 59 70 57 71 6 72 7 73 8 74 9 76
REMARK SMILES IDX 10 77 11 78 12 79 13 80 17 81 14 82 16 83 15 84 18 85 19 86
REMARK SMILES IDX 24 87 20 88 23 89 21 90 22 91
REMARK H PARENT 3 6 81 24 49 35 7 75
REMARK Flexibility Score: inf
ROOT
ATOM      1  C   UNL     1       4.567   1.896   1.014  1.00  0.00     0.042 C 
ENDROOT
BRANCH   1   2
ATOM      2  C   UNL     1       4.005   0.701   1.768  1.00  0.00     0.118 C 
BRANCH   2   3
ATOM      3  N   UNL     1       2.651   0.381   1.345  1.00  0.00    -0.352 N 
ATOM      4  O   UNL     1       0.986  -0.237  -0.023  1.00  0.00    -0.269 OA
ATOM      5  C   UNL     1       2.188  -0.330   0.268  1.00  0.00     0.251 C 
ATOM      6  H   UNL     1       1.945   0.737   1.932  1.00  0.00     0.163 HD
BRANCH   5   7
ATOM      7  C   UNL     1       3.061  -1.204  -0.550  1.00  0.00     0.039 A 
ATOM      8  C   UNL     1       4.120  -1.917   0.010  1.00  0.00     0.014 A 
ATOM      9  C   UNL     1       2.728  -1.433  -1.894  1.00  0.00     0.014 A 
ATOM     10  C   UNL     1       4.904  -2.757  -0.773  1.00  0.00     0.010 A 
ATOM     11  C   UNL     1       3.434  -2.378  -2.650  1.00  0.00     0.010 A 
ATOM     12  C   UNL     1       4.524  -3.057  -2.089  1.00  0.00    -0.014 A 
BRANCH  12  13
ATOM     13  C   UNL     1       5.168  -4.214  -2.762  1.00  0.00     0.031 A 
ATOM     14  C   UNL     1       5.965  -4.056  -4.022  1.00  0.00     0.074 A 
ATOM     15  C   UNL     1       5.030  -5.430  -2.192  1.00  0.00     0.049 A 
ATOM     16  N   UNL     1       6.597  -4.973  -4.710  1.00  0.00    -0.248 NA
ATOM     17  C   UNL     1       6.060  -2.705  -4.593  1.00  0.00     0.031 C 
ATOM     18  C   UNL     1       4.242  -5.708  -0.986  1.00  0.00     0.029 A 
ATOM     19  N   UNL     1       5.554  -6.653  -2.526  1.00  0.00    -0.354 N 
ATOM     20  C   UNL     1       7.142  -4.320  -5.806  1.00  0.00     0.074 A 
ATOM     21  C   UNL     1       6.760  -2.927  -5.699  1.00  0.00     0.031 C 
ATOM     22  C   UNL     1       4.383  -6.996  -0.648  1.00  0.00     0.029 A 
ATOM     23  C   UNL     1       5.203  -7.657  -1.655  1.00  0.00     0.049 A 
ATOM     24  H   UNL     1       6.127  -6.798  -3.313  1.00  0.00     0.167 HD
ATOM     25  C   UNL     1       7.891  -4.843  -6.805  1.00  0.00     0.037 A 
ATOM     26  C   UNL     1       5.481  -8.973  -1.675  1.00  0.00     0.037 A 
ATOM     27  C   UNL     1       8.293  -6.225  -6.883  1.00  0.00     0.049 A 
ATOM     28  C   UNL     1       6.313  -9.516  -2.799  1.00  0.00     0.074 A 
ATOM     29  C   UNL     1       9.121  -6.830  -7.813  1.00  0.00     0.029 A 
ATOM     30  N   UNL     1       7.888  -7.219  -6.004  1.00  0.00    -0.354 N 
ATOM     31  N   UNL     1       6.869  -8.874  -3.796  1.00  0.00    -0.248 NA
ATOM     32  C   UNL     1       6.541 -10.967  -2.812  1.00  0.00     0.031 C 
ATOM     33  C   UNL     1       9.180  -8.197  -7.525  1.00  0.00     0.029 A 
ATOM     34  C   UNL     1       8.421  -8.439  -6.392  1.00  0.00     0.049 A 
ATOM     35  H   UNL     1       7.309  -7.078  -5.221  1.00  0.00     0.167 HD
ATOM     36  C   UNL     1       7.507  -9.839  -4.559  1.00  0.00     0.074 A 
ATOM     37  C   UNL     1       7.302 -11.106  -3.888  1.00  0.00     0.031 C 
ATOM     38  C   UNL     1       8.190  -9.690  -5.719  1.00  0.00     0.037 A 
BRANCH  25  39
ATOM     39  C   UNL     1       8.327  -3.933  -7.914  1.00  0.00     0.064 A 
ATOM     40  C   UNL     1       9.365  -3.007  -7.742  1.00  0.00     0.173 A 
ATOM     41  C   UNL     1       7.760  -4.058  -9.192  1.00  0.00     0.173 A 
ATOM     42  F   UNL     1       9.935  -2.846  -6.539  1.00  0.00    -0.203 F 
ATOM     43  C   UNL     1       9.818  -2.235  -8.810  1.00  0.00     0.198 A 
ATOM     44  C   UNL     1       8.228  -3.299 -10.261  1.00  0.00     0.198 A 
ATOM     45  F   UNL     1       6.769  -4.936  -9.408  1.00  0.00    -0.203 F 
ATOM     46  F   UNL     1      10.802  -1.345  -8.622  1.00  0.00    -0.200 F 
ATOM     47  C   UNL     1       9.256  -2.388 -10.070  1.00  0.00     0.200 A 
ATOM     48  F   UNL     1       7.693  -3.458 -11.480  1.00  0.00    -0.200 F 
ATOM     49  F   UNL     1       9.707  -1.659 -11.100  1.00  0.00    -0.200 F 
ENDBRANCH  25  39
BRANCH  26  50
ATOM     50  C   UNL     1       4.932  -9.866  -0.622  1.00  0.00     0.064 A 
ATOM     51  C   UNL     1       5.770 -10.493   0.309  1.00  0.00     0.173 A 
ATOM     52  C   UNL     1       3.553 -10.109  -0.526  1.00  0.00     0.173 A 
ATOM     53  F   UNL     1       7.097 -10.309   0.246  1.00  0.00    -0.203 F 
ATOM     54  C   UNL     1       5.252 -11.342   1.285  1.00  0.00     0.198 A 
ATOM     55  C   UNL     1       3.033 -10.931   0.470  1.00  0.00     0.198 A 
ATOM     56  F   UNL     1       2.707  -9.530  -1.391  1.00  0.00    -0.203 F 
ATOM     57  F   UNL     1       6.079 -11.966   2.135  1.00  0.00    -0.200 F 
ATOM     58  C   UNL     1       3.883 -11.555   1.369  1.00  0.00     0.200 A 
ATOM     59  F   UNL     1       1.709 -11.118   0.558  1.00  0.00    -0.200 F 
ATOM     60  F   UNL     1       3.385 -12.366   2.312  1.00  0.00    -0.200 F 
ENDBRANCH  26  50
BRANCH  38  61
ATOM     61  C   UNL     1       8.751 -10.935  -6.334  1.00  0.00     0.064 A 
ATOM     62  C   UNL     1       7.920 -11.869  -6.971  1.00  0.00     0.173 A 
ATOM     63  C   UNL     1      10.130 -11.190  -6.305  1.00  0.00     0.173 A 
ATOM     64  F   UNL     1       6.592 -11.678  -7.004  1.00  0.00    -0.203 F 
ATOM     65  C   UNL     1       8.448 -13.025  -7.537  1.00  0.00     0.198 A 
ATOM     66  C   UNL     1      10.657 -12.334  -6.895  1.00  0.00     0.198 A 
ATOM     67  F   UNL     1      10.964 -10.325  -5.708  1.00  0.00    -0.203 F 
ATOM     68  F   UNL     1       7.631 -13.927  -8.099  1.00  0.00    -0.200 F 
ATOM     69  C   UNL     1       9.816 -13.253  -7.505  1.00  0.00     0.200 A 
ATOM     70  F   UNL     1      11.979 -12.550  -6.871  1.00  0.00    -0.200 F 
ATOM     71  F   UNL     1      10.323 -14.366  -8.053  1.00  0.00    -0.200 F 
ENDBRANCH  38  61
ENDBRANCH  12  13
ENDBRANCH   5   7
ENDBRANCH   2   3
ENDBRANCH   1   2
BRANCH   1  72
ATOM     72  C   UNL     1       4.154   3.205   1.665  1.00  0.00     0.117 C 
BRANCH  72  73
ATOM     73  N   UNL     1       4.973   3.488   2.832  1.00  0.00    -0.355 N 
ATOM     74  C   UNL     1       5.735   4.560   3.164  1.00  0.00     0.227 C 
ATOM     75  H   UNL     1       4.976   2.769   3.504  1.00  0.00     0.163 HD
ATOM     76  O   UNL     1       6.316   4.484   4.255  1.00  0.00    -0.274 OA
BRANCH  74  77
ATOM     77  C   UNL     1       5.941   5.790   2.277  1.00  0.00     0.113 C 
BRANCH  77  78
ATOM     78  C   UNL     1       6.944   5.541   1.116  1.00  0.00     0.054 C 
BRANCH  78  79
ATOM     79  C   UNL     1       6.519   4.782  -0.120  1.00  0.00    -0.044 A 
ATOM     80  C   UNL     1       5.504   5.239  -0.965  1.00  0.00     0.024 A 
ATOM     81  C   UNL     1       7.195   3.612  -0.489  1.00  0.00     0.024 A 
ATOM     82  C   UNL     1       5.163   4.481  -2.078  1.00  0.00     0.111 A 
ATOM     83  C   UNL     1       6.792   2.931  -1.629  1.00  0.00     0.111 A 
ATOM     84  N   UNL     1       5.777   3.329  -2.421  1.00  0.00    -0.265 NA
ENDBRANCH  78  79
ENDBRANCH  77  78
BRANCH  77  85
ATOM     85  C   UNL     1       4.740   6.690   1.991  1.00  0.00    -0.035 A 
ATOM     86  C   UNL     1       4.976   7.982   1.481  1.00  0.00     0.006 A 
ATOM     87  C   UNL     1       3.409   6.333   2.252  1.00  0.00     0.006 A 
ATOM     88  C   UNL     1       3.922   8.849   1.176  1.00  0.00     0.021 A 
ATOM     89  C   UNL     1       2.350   7.184   1.920  1.00  0.00     0.021 A 
ATOM     90  C   UNL     1       2.611   8.437   1.377  1.00  0.00     0.041 A 
ATOM     91  Cl  UNL     1       1.309   9.482   0.969  1.00  0.00    -0.084 Cl
ENDBRANCH  77  85
ENDBRANCH  74  77
ENDBRANCH  72  73
ENDBRANCH   1  72
TORSDOF 13
