REMARK SMILES C[C@H](Cc1ccco1)[NH2+]Cc1cc(C(=O)NCCCNC(=O)c2ccc(-c3c4nc(c(-c5c(F)c(F)c(F)c(F)c5F)c5ccc([nH]5)c(-c5c(F)c(F)c(F)c(F)c5F)c5nc(c(-c6c(F)c(F)c(F)c(F)c6F)c6ccc3[nH]6)C=C5)C=C4)cc2)cs1
REMARK SMILES IDX 14 1 15 2 16 3 13 5 11 6 12 7 87 8 86 9 10 10 9 11 2 14 1 15
REMARK SMILES IDX 3 16 4 17 5 18 8 19 6 20 7 21 17 22 18 23 19 24 20 25 21 26
REMARK SMILES IDX 22 28 23 29 24 30 85 31 25 32 84 33 26 34 27 35 28 36 78 37
REMARK SMILES IDX 29 38 83 39 77 40 79 41 30 42 82 43 76 44 75 45 31 47 63 48
REMARK SMILES IDX 43 49 62 50 44 51 47 52 61 53 80 54 45 55 46 56 60 58 81 59
REMARK SMILES IDX 48 60 32 61 33 62 41 63 34 64 35 65 39 66 42 67 36 68 37 69
REMARK SMILES IDX 40 70 38 71 64 72 65 73 73 74 66 75 67 76 71 77 74 78 68 79
REMARK SMILES IDX 69 80 72 81 70 82 49 83 50 84 58 85 51 86 52 87 56 88 59 89
REMARK SMILES IDX 53 90 54 91 57 92 55 93
REMARK H PARENT 16 4 9 12 9 13 20 27 79 46 47 57
REMARK Flexibility Score: inf
ROOT
ATOM      1  C   UNL     1      -0.460  -4.847   4.029  1.00  0.00     0.252 C 
ATOM      2  O   UNL     1      -0.640  -5.858   4.704  1.00  0.00    -0.269 OA
ATOM      3  N   UNL     1       0.154  -3.770   4.625  1.00  0.00    -0.352 N 
ATOM      4  H   UNL     1       0.237  -3.830   5.605  1.00  0.00     0.163 HD
ENDROOT
BRANCH   1   5
ATOM      5  C   UNL     1      -0.822  -4.783   2.618  1.00  0.00     0.051 A 
ATOM      6  C   UNL     1      -1.343  -3.869   0.521  1.00  0.00     0.059 A 
ATOM      7  C   UNL     1      -1.343  -3.666   1.888  1.00  0.00     0.035 A 
ATOM      8  S   UNL     1      -1.079  -5.520   0.154  1.00  0.00    -0.142 S 
ATOM      9  C   UNL     1      -0.731  -5.886   1.787  1.00  0.00     0.079 A 
BRANCH   6  10
ATOM     10  C   UNL     1      -1.542  -2.860  -0.577  1.00  0.00     0.308 C 
BRANCH  10  11
ATOM     11  N   UNL     1      -0.865  -1.589  -0.295  1.00  0.00    -0.339 N 
ATOM     12  H   UNL     1      -1.382  -0.853  -0.776  1.00  0.00     0.346 HD
ATOM     13  H   UNL     1      -0.855  -1.515   0.722  1.00  0.00     0.346 HD
BRANCH  11  14
ATOM     14  C   UNL     1       0.551  -1.477  -0.702  1.00  0.00     0.187 C 
ATOM     15  C   UNL     1       1.460  -2.629  -0.255  1.00  0.00     0.075 C 
BRANCH  14  16
ATOM     16  C   UNL     1       1.064  -0.062  -0.297  1.00  0.00     0.140 C 
BRANCH  16  17
ATOM     17  C   UNL     1       2.260  -0.016   0.588  1.00  0.00     0.109 A 
ATOM     18  C   UNL     1       3.598   0.226   0.351  1.00  0.00     0.046 A 
ATOM     19  O   UNL     1       2.052  -0.212   1.922  1.00  0.00    -0.469 OA
ATOM     20  C   UNL     1       4.244   0.172   1.607  1.00  0.00     0.042 A 
ATOM     21  C   UNL     1       3.260  -0.087   2.531  1.00  0.00     0.195 A 
ENDBRANCH  16  17
ENDBRANCH  14  16
ENDBRANCH  11  14
ENDBRANCH  10  11
ENDBRANCH   6  10
ENDBRANCH   1   5
BRANCH   3  22
ATOM     22  C   UNL     1       0.699  -2.555   4.038  1.00  0.00     0.118 C 
BRANCH  22  23
ATOM     23  C   UNL     1      -0.058  -1.313   4.499  1.00  0.00     0.042 C 
BRANCH  23  24
ATOM     24  C   UNL     1       0.294  -0.888   5.922  1.00  0.00     0.118 C 
BRANCH  24  25
ATOM     25  N   UNL     1       1.648  -0.359   6.021  1.00  0.00    -0.352 N 
ATOM     26  C   UNL     1       2.090   0.894   6.368  1.00  0.00     0.251 C 
ATOM     27  H   UNL     1       2.361  -1.003   5.805  1.00  0.00     0.163 HD
ATOM     28  O   UNL     1       3.255   1.206   6.139  1.00  0.00    -0.269 OA
BRANCH  26  29
ATOM     29  C   UNL     1       1.183   1.866   7.021  1.00  0.00     0.039 A 
ATOM     30  C   UNL     1       1.293   3.224   6.700  1.00  0.00     0.014 A 
ATOM     31  C   UNL     1       0.269   1.456   7.994  1.00  0.00     0.014 A 
ATOM     32  C   UNL     1       0.451   4.157   7.314  1.00  0.00     0.010 A 
ATOM     33  C   UNL     1      -0.620   2.373   8.548  1.00  0.00     0.010 A 
ATOM     34  C   UNL     1      -0.533   3.734   8.222  1.00  0.00    -0.014 A 
BRANCH  34  35
ATOM     35  C   UNL     1      -1.477   4.692   8.852  1.00  0.00     0.031 A 
ATOM     36  C   UNL     1      -1.472   4.890  10.344  1.00  0.00     0.074 A 
ATOM     37  C   UNL     1      -2.398   5.318   8.095  1.00  0.00     0.049 A 
ATOM     38  N   UNL     1      -2.289   5.589  11.092  1.00  0.00    -0.248 NA
ATOM     39  C   UNL     1      -0.429   4.179  11.099  1.00  0.00     0.031 C 
ATOM     40  C   UNL     1      -2.544   5.169   6.647  1.00  0.00     0.029 A 
ATOM     41  N   UNL     1      -3.397   6.192   8.443  1.00  0.00    -0.354 N 
ATOM     42  C   UNL     1      -1.880   5.375  12.401  1.00  0.00     0.074 A 
ATOM     43  C   UNL     1      -0.769   4.450  12.351  1.00  0.00     0.031 C 
ATOM     44  C   UNL     1      -3.559   5.942   6.227  1.00  0.00     0.029 A 
ATOM     45  C   UNL     1      -4.155   6.612   7.378  1.00  0.00     0.049 A 
ATOM     46  H   UNL     1      -3.556   6.489   9.368  1.00  0.00     0.167 HD
ATOM     47  C   UNL     1      -2.374   5.915  13.542  1.00  0.00     0.037 A 
ATOM     48  C   UNL     1      -5.214   7.442   7.336  1.00  0.00     0.037 A 
ATOM     49  C   UNL     1      -3.450   6.871  13.587  1.00  0.00     0.049 A 
ATOM     50  C   UNL     1      -5.718   8.060   8.610  1.00  0.00     0.074 A 
ATOM     51  C   UNL     1      -3.971   7.535  14.684  1.00  0.00     0.029 A 
ATOM     52  N   UNL     1      -4.166   7.304  12.481  1.00  0.00    -0.354 N 
ATOM     53  N   UNL     1      -5.288   7.894   9.836  1.00  0.00    -0.248 NA
ATOM     54  C   UNL     1      -6.852   8.987   8.490  1.00  0.00     0.031 C 
ATOM     55  C   UNL     1      -5.023   8.347  14.246  1.00  0.00     0.029 A 
ATOM     56  C   UNL     1      -5.134   8.216  12.871  1.00  0.00     0.049 A 
ATOM     57  H   UNL     1      -4.011   7.006  11.556  1.00  0.00     0.167 HD
ATOM     58  C   UNL     1      -6.084   8.704  10.633  1.00  0.00     0.074 A 
ATOM     59  C   UNL     1      -7.012   9.377   9.747  1.00  0.00     0.031 C 
ATOM     60  C   UNL     1      -6.051   8.874  11.977  1.00  0.00     0.037 A 
BRANCH  47  61
ATOM     61  C   UNL     1      -1.748   5.486  14.837  1.00  0.00     0.064 A 
ATOM     62  C   UNL     1      -0.453   5.888  15.196  1.00  0.00     0.173 A 
ATOM     63  C   UNL     1      -2.460   4.682  15.740  1.00  0.00     0.173 A 
ATOM     64  F   UNL     1       0.274   6.647  14.362  1.00  0.00    -0.203 F 
ATOM     65  C   UNL     1       0.119   5.473  16.396  1.00  0.00     0.198 A 
ATOM     66  C   UNL     1      -1.895   4.293  16.952  1.00  0.00     0.198 A 
ATOM     67  F   UNL     1      -3.704   4.275  15.448  1.00  0.00    -0.203 F 
ATOM     68  F   UNL     1       1.378   5.827  16.693  1.00  0.00    -0.200 F 
ATOM     69  C   UNL     1      -0.603   4.681  17.275  1.00  0.00     0.200 A 
ATOM     70  F   UNL     1      -2.598   3.536  17.805  1.00  0.00    -0.200 F 
ATOM     71  F   UNL     1      -0.051   4.284  18.430  1.00  0.00    -0.200 F 
ENDBRANCH  47  61
BRANCH  48  72
ATOM     72  C   UNL     1      -5.841   7.766   6.031  1.00  0.00     0.064 A 
ATOM     73  C   UNL     1      -5.655   9.026   5.444  1.00  0.00     0.173 A 
ATOM     74  C   UNL     1      -6.618   6.829   5.337  1.00  0.00     0.173 A 
ATOM     75  F   UNL     1      -4.936   9.961   6.082  1.00  0.00    -0.203 F 
ATOM     76  C   UNL     1      -6.233   9.339   4.217  1.00  0.00     0.198 A 
ATOM     77  C   UNL     1      -7.177   7.136   4.098  1.00  0.00     0.198 A 
ATOM     78  F   UNL     1      -6.820   5.609   5.856  1.00  0.00    -0.203 F 
ATOM     79  F   UNL     1      -6.066  10.562   3.693  1.00  0.00    -0.200 F 
ATOM     80  C   UNL     1      -6.988   8.392   3.542  1.00  0.00     0.200 A 
ATOM     81  F   UNL     1      -7.896   6.215   3.443  1.00  0.00    -0.200 F 
ATOM     82  F   UNL     1      -7.537   8.692   2.357  1.00  0.00    -0.200 F 
ENDBRANCH  48  72
BRANCH  60  83
ATOM     83  C   UNL     1      -7.037   9.838  12.565  1.00  0.00     0.064 A 
ATOM     84  C   UNL     1      -8.398   9.518  12.675  1.00  0.00     0.173 A 
ATOM     85  C   UNL     1      -6.612  11.087  13.044  1.00  0.00     0.173 A 
ATOM     86  F   UNL     1      -8.853   8.342  12.215  1.00  0.00    -0.203 F 
ATOM     87  C   UNL     1      -9.303  10.424  13.220  1.00  0.00     0.198 A 
ATOM     88  C   UNL     1      -7.517  11.980  13.611  1.00  0.00     0.198 A 
ATOM     89  F   UNL     1      -5.320  11.438  12.965  1.00  0.00    -0.203 F 
ATOM     90  F   UNL     1     -10.606  10.116  13.273  1.00  0.00    -0.200 F 
ATOM     91  C   UNL     1      -8.862  11.651  13.691  1.00  0.00     0.200 A 
ATOM     92  F   UNL     1      -7.088  13.162  14.073  1.00  0.00    -0.200 F 
ATOM     93  F   UNL     1      -9.735  12.522  14.215  1.00  0.00    -0.200 F 
ENDBRANCH  60  83
ENDBRANCH  34  35
ENDBRANCH  26  29
ENDBRANCH  24  25
ENDBRANCH  23  24
ENDBRANCH  22  23
ENDBRANCH   3  22
TORSDOF 15
