REMARK SMILES COc1ccc(-c2cc(=O)oc3cc(OCC(=O)N[C@@H](C)C(=O)NCCCNC(=O)c4ccc(-c5c6nc(c(-c7c(F)c(F)c(F)c(F)c7F)c7ccc([nH]7)c(-c7c(F)c(F)c(F)c(F)c7F)c7nc(c(-c8c(F)c(F)c(F)c(F)c8F)c8ccc5[nH]8)C=C7)C=C6)cc4)ccc23)cc1
REMARK SMILES IDX 22 1 23 2 24 3 20 5 21 6 19 7 17 8 18 9 16 11 15 12 14 13
REMARK SMILES IDX 7 14 8 15 96 16 9 17 12 18 95 19 10 20 11 21 13 22 94 23
REMARK SMILES IDX 6 24 3 25 4 26 98 27 5 28 97 29 2 30 1 31 25 32 26 33 27 34
REMARK SMILES IDX 28 35 29 36 30 38 31 39 32 40 93 41 33 42 92 43 34 44 35 45
REMARK SMILES IDX 36 46 86 47 37 48 91 49 85 50 87 51 38 52 90 53 84 54 83 55
REMARK SMILES IDX 39 57 71 58 51 59 70 60 52 61 55 62 69 63 88 64 53 65 54 66
REMARK SMILES IDX 68 68 89 69 56 70 40 71 41 72 49 73 42 74 43 75 47 76 50 77
REMARK SMILES IDX 44 78 45 79 48 80 46 81 72 82 73 83 81 84 74 85 75 86 79 87
REMARK SMILES IDX 82 88 76 89 77 90 80 91 78 92 57 93 58 94 66 95 59 96 60 97
REMARK SMILES IDX 64 98 67 99 61 100 62 101 65 102 63 103
REMARK H PARENT 24 4 19 10 28 37 87 56 55 67
REMARK Flexibility Score: inf
ROOT
ATOM      1  C   UNL     1       7.561  -4.836  -1.921  1.00  0.00     0.242 C 
ATOM      2  O   UNL     1       6.799  -5.774  -1.679  1.00  0.00    -0.273 OA
ATOM      3  N   UNL     1       8.819  -5.133  -2.365  1.00  0.00    -0.354 N 
ATOM      4  H   UNL     1       9.040  -6.093  -2.351  1.00  0.00     0.163 HD
ENDROOT
BRANCH   1   5
ATOM      5  C   UNL     1       7.085  -3.378  -1.814  1.00  0.00     0.168 C 
ATOM      6  C   UNL     1       6.908  -2.803  -3.221  1.00  0.00     0.041 C 
BRANCH   5   7
ATOM      7  N   UNL     1       8.017  -2.650  -0.946  1.00  0.00    -0.342 N 
ATOM      8  C   UNL     1       7.758  -1.686  -0.011  1.00  0.00     0.258 C 
ATOM      9  O   UNL     1       8.663  -1.356   0.757  1.00  0.00    -0.271 OA
ATOM     10  H   UNL     1       8.966  -2.890  -1.051  1.00  0.00     0.164 HD
BRANCH   8  11
ATOM     11  C   UNL     1       6.385  -1.050   0.053  1.00  0.00     0.329 C 
BRANCH  11  12
ATOM     12  O   UNL     1       6.183  -0.587  -1.270  1.00  0.00    -0.484 OA
BRANCH  12  13
ATOM     13  C   UNL     1       5.883   0.719  -1.481  1.00  0.00     0.123 A 
ATOM     14  C   UNL     1       3.523   3.257  -3.462  1.00  0.00    -0.000 A 
ATOM     15  C   UNL     1       3.828   3.694  -4.693  1.00  0.00     0.103 A 
ATOM     16  C   UNL     1       4.648   2.905  -2.565  1.00  0.00     0.026 A 
ATOM     17  C   UNL     1       5.237   3.717  -5.140  1.00  0.00     0.336 A 
ATOM     18  C   UNL     1       5.732   2.351  -3.227  1.00  0.00     0.142 A 
ATOM     19  C   UNL     1       4.386   2.569  -1.229  1.00  0.00     0.016 A 
ATOM     20  O   UNL     1       5.585   4.369  -6.118  1.00  0.00    -0.246 OA
ATOM     21  O   UNL     1       6.084   2.809  -4.504  1.00  0.00    -0.423 OA
ATOM     22  C   UNL     1       6.339   1.225  -2.704  1.00  0.00     0.094 A 
ATOM     23  C   UNL     1       4.994   1.441  -0.689  1.00  0.00     0.047 A 
BRANCH  14  24
ATOM     24  C   UNL     1       2.220   2.574  -3.261  1.00  0.00    -0.017 A 
ATOM     25  C   UNL     1       0.230   1.016  -2.116  1.00  0.00     0.118 A 
ATOM     26  C   UNL     1       0.097   2.407  -2.143  1.00  0.00     0.047 A 
ATOM     27  C   UNL     1       1.271   0.382  -2.779  1.00  0.00     0.047 A 
ATOM     28  C   UNL     1       1.105   3.197  -2.707  1.00  0.00     0.012 A 
ATOM     29  C   UNL     1       2.261   1.163  -3.358  1.00  0.00     0.012 A 
BRANCH  25  30
ATOM     30  O   UNL     1      -0.659   0.267  -1.393  1.00  0.00    -0.497 OA
ATOM     31  C   UNL     1      -0.080  -0.045  -0.119  1.00  0.00     0.278 C 
ENDBRANCH  25  30
ENDBRANCH  14  24
ENDBRANCH  12  13
ENDBRANCH  11  12
ENDBRANCH   8  11
ENDBRANCH   5   7
ENDBRANCH   1   5
BRANCH   3  32
ATOM     32  C   UNL     1       9.890  -4.276  -2.856  1.00  0.00     0.117 C 
BRANCH  32  33
ATOM     33  C   UNL     1      11.102  -4.274  -1.935  1.00  0.00     0.042 C 
BRANCH  33  34
ATOM     34  C   UNL     1      11.734  -5.643  -1.748  1.00  0.00     0.118 C 
BRANCH  34  35
ATOM     35  N   UNL     1      12.260  -6.192  -2.989  1.00  0.00    -0.352 N 
ATOM     36  C   UNL     1      13.544  -6.546  -3.318  1.00  0.00     0.251 C 
ATOM     37  H   UNL     1      11.593  -6.331  -3.700  1.00  0.00     0.163 HD
ATOM     38  O   UNL     1      13.824  -6.820  -4.481  1.00  0.00    -0.269 OA
BRANCH  36  39
ATOM     39  C   UNL     1      14.595  -6.575  -2.280  1.00  0.00     0.039 A 
ATOM     40  C   UNL     1      15.855  -6.051  -2.580  1.00  0.00     0.014 A 
ATOM     41  C   UNL     1      14.346  -7.124  -1.020  1.00  0.00     0.014 A 
ATOM     42  C   UNL     1      16.843  -6.018  -1.595  1.00  0.00     0.010 A 
ATOM     43  C   UNL     1      15.300  -7.014  -0.015  1.00  0.00     0.010 A 
ATOM     44  C   UNL     1      16.561  -6.466  -0.295  1.00  0.00    -0.014 A 
BRANCH  44  45
ATOM     45  C   UNL     1      17.573  -6.390   0.787  1.00  0.00     0.031 A 
ATOM     46  C   UNL     1      18.089  -7.652   1.419  1.00  0.00     0.074 A 
ATOM     47  C   UNL     1      17.966  -5.189   1.250  1.00  0.00     0.049 A 
ATOM     48  N   UNL     1      18.890  -7.798   2.444  1.00  0.00    -0.248 NA
ATOM     49  C   UNL     1      17.615  -8.921   0.843  1.00  0.00     0.031 C 
ATOM     50  C   UNL     1      17.498  -3.894   0.752  1.00  0.00     0.029 A 
ATOM     51  N   UNL     1      18.840  -4.862   2.255  1.00  0.00    -0.354 N 
ATOM     52  C   UNL     1      18.994  -9.167   2.648  1.00  0.00     0.074 A 
ATOM     53  C   UNL     1      18.140  -9.809   1.673  1.00  0.00     0.031 C 
ATOM     54  C   UNL     1      18.104  -2.914   1.441  1.00  0.00     0.029 A 
ATOM     55  C   UNL     1      18.975  -3.510   2.449  1.00  0.00     0.049 A 
ATOM     56  H   UNL     1      19.325  -5.534   2.788  1.00  0.00     0.167 HD
ATOM     57  C   UNL     1      19.752  -9.830   3.553  1.00  0.00     0.037 A 
ATOM     58  C   UNL     1      19.715  -2.829   3.344  1.00  0.00     0.037 A 
ATOM     59  C   UNL     1      20.633  -9.191   4.494  1.00  0.00     0.049 A 
ATOM     60  C   UNL     1      20.569  -3.589   4.321  1.00  0.00     0.074 A 
ATOM     61  C   UNL     1      21.489  -9.774   5.411  1.00  0.00     0.029 A 
ATOM     62  N   UNL     1      20.773  -7.817   4.632  1.00  0.00    -0.354 N 
ATOM     63  N   UNL     1      20.701  -4.884   4.470  1.00  0.00    -0.248 NA
ATOM     64  C   UNL     1      21.381  -2.791   5.250  1.00  0.00     0.031 C 
ATOM     65  C   UNL     1      22.127  -8.754   6.124  1.00  0.00     0.029 A 
ATOM     66  C   UNL     1      21.695  -7.535   5.626  1.00  0.00     0.049 A 
ATOM     67  H   UNL     1      20.289  -7.144   4.103  1.00  0.00     0.167 HD
ATOM     68  C   UNL     1      21.625  -5.058   5.490  1.00  0.00     0.074 A 
ATOM     69  C   UNL     1      22.032  -3.735   5.916  1.00  0.00     0.031 C 
ATOM     70  C   UNL     1      22.093  -6.211   6.027  1.00  0.00     0.037 A 
BRANCH  57  71
ATOM     71  C   UNL     1      19.669 -11.327   3.559  1.00  0.00     0.064 A 
ATOM     72  C   UNL     1      20.227 -12.096   2.526  1.00  0.00     0.173 A 
ATOM     73  C   UNL     1      19.051 -12.003   4.621  1.00  0.00     0.173 A 
ATOM     74  F   UNL     1      20.816 -11.496   1.481  1.00  0.00    -0.203 F 
ATOM     75  C   UNL     1      20.143 -13.486   2.542  1.00  0.00     0.198 A 
ATOM     76  C   UNL     1      18.993 -13.394   4.648  1.00  0.00     0.198 A 
ATOM     77  F   UNL     1      18.505 -11.315   5.635  1.00  0.00    -0.203 F 
ATOM     78  F   UNL     1      20.640 -14.197   1.521  1.00  0.00    -0.200 F 
ATOM     79  C   UNL     1      19.533 -14.133   3.606  1.00  0.00     0.200 A 
ATOM     80  F   UNL     1      18.411 -14.020   5.680  1.00  0.00    -0.200 F 
ATOM     81  F   UNL     1      19.457 -15.471   3.622  1.00  0.00    -0.200 F 
ENDBRANCH  57  71
BRANCH  58  82
ATOM     82  C   UNL     1      19.704  -1.344   3.335  1.00  0.00     0.064 A 
ATOM     83  C   UNL     1      20.817  -0.624   2.879  1.00  0.00     0.173 A 
ATOM     84  C   UNL     1      18.588  -0.618   3.774  1.00  0.00     0.173 A 
ATOM     85  F   UNL     1      21.914  -1.276   2.469  1.00  0.00    -0.203 F 
ATOM     86  C   UNL     1      20.820   0.769   2.878  1.00  0.00     0.198 A 
ATOM     87  C   UNL     1      18.584   0.775   3.750  1.00  0.00     0.198 A 
ATOM     88  F   UNL     1      17.498  -1.263   4.214  1.00  0.00    -0.203 F 
ATOM     89  F   UNL     1      21.910   1.434   2.473  1.00  0.00    -0.200 F 
ATOM     90  C   UNL     1      19.701   1.468   3.308  1.00  0.00     0.200 A 
ATOM     91  F   UNL     1      17.497   1.446   4.156  1.00  0.00    -0.200 F 
ATOM     92  F   UNL     1      19.703   2.807   3.304  1.00  0.00    -0.200 F 
ENDBRANCH  58  82
BRANCH  70  93
ATOM     93  C   UNL     1      23.121  -6.092   7.112  1.00  0.00     0.064 A 
ATOM     94  C   UNL     1      22.773  -5.691   8.409  1.00  0.00     0.173 A 
ATOM     95  C   UNL     1      24.460  -6.424   6.859  1.00  0.00     0.173 A 
ATOM     96  F   UNL     1      21.508  -5.349   8.694  1.00  0.00    -0.203 F 
ATOM     97  C   UNL     1      23.736  -5.607   9.412  1.00  0.00     0.198 A 
ATOM     98  C   UNL     1      25.415  -6.362   7.870  1.00  0.00     0.198 A 
ATOM     99  F   UNL     1      24.840  -6.818   5.634  1.00  0.00    -0.203 F 
ATOM    100  F   UNL     1      23.390  -5.184  10.636  1.00  0.00    -0.200 F 
ATOM    101  C   UNL     1      25.053  -5.949   9.143  1.00  0.00     0.200 A 
ATOM    102  F   UNL     1      26.685  -6.702   7.611  1.00  0.00    -0.200 F 
ATOM    103  F   UNL     1      25.977  -5.873  10.111  1.00  0.00    -0.200 F 
ENDBRANCH  70  93
ENDBRANCH  44  45
ENDBRANCH  36  39
ENDBRANCH  34  35
ENDBRANCH  33  34
ENDBRANCH  32  33
ENDBRANCH   3  32
TORSDOF 16
