REMARK SMILES O=C(NCCCNC(=O)[C@H](NC(=O)[C@H]1CC[C@@H](CNC(=O)[C@@H]2Cc3ccccc3C[NH2+]2)CC1)c1ccccc1)c1ccc(-c2c3nc(c(-c4c(F)c(F)c(F)c(F)c4F)c4ccc([nH]4)c(-c4c(F)c(F)c(F)c(F)c4F)c4nc(c(-c5c(F)c(F)c(F)c(F)c5F)c5ccc2[nH]5)C=C4)C=C3)cc1
REMARK SMILES IDX 7 1 8 2 9 3 6 5 5 6 4 7 3 8 1 9 2 10 40 12 41 13 102 14
REMARK SMILES IDX 42 15 101 16 43 17 44 18 45 19 95 20 46 21 100 22 94 23
REMARK SMILES IDX 96 24 47 25 99 26 93 27 92 28 48 30 80 31 60 32 79 33 61 34
REMARK SMILES IDX 64 35 78 36 97 37 62 38 63 39 77 41 98 42 65 43 49 44 50 45
REMARK SMILES IDX 58 46 51 47 52 48 56 49 59 50 53 51 54 52 57 53 55 54 81 55
REMARK SMILES IDX 82 56 90 57 83 58 84 59 88 60 91 61 85 62 86 63 89 64 87 65
REMARK SMILES IDX 66 66 67 67 75 68 68 69 69 70 73 71 76 72 70 73 71 74 74 75
REMARK SMILES IDX 72 76 10 77 34 78 35 79 39 80 36 81 38 82 37 83 11 84 12 85
REMARK SMILES IDX 13 87 14 88 33 89 15 90 32 91 16 92 17 93 18 94 19 95 20 96
REMARK SMILES IDX 21 98 22 99 23 100 31 101 24 102 30 103 25 106 29 107 26 108
REMARK SMILES IDX 28 109 27 110
REMARK H PARENT 7 4 3 11 96 29 64 40 11 86 19 97 31 104 31 105
REMARK Flexibility Score: inf
ROOT
ATOM      1  N   UNL     1      -2.812  -8.333  -7.224  1.00  0.00    -0.354 N 
ATOM      2  C   UNL     1      -1.680  -9.084  -7.274  1.00  0.00     0.247 C 
ATOM      3  O   UNL     1      -1.616  -9.829  -8.266  1.00  0.00    -0.272 OA
ATOM      4  H   UNL     1      -3.446  -8.533  -7.951  1.00  0.00     0.163 HD
ENDROOT
BRANCH   1   5
ATOM      5  C   UNL     1      -3.277  -7.300  -6.324  1.00  0.00     0.117 C 
BRANCH   5   6
ATOM      6  C   UNL     1      -2.834  -5.916  -6.781  1.00  0.00     0.042 C 
BRANCH   6   7
ATOM      7  C   UNL     1      -3.876  -5.080  -7.494  1.00  0.00     0.118 C 
BRANCH   7   8
ATOM      8  N   UNL     1      -4.758  -4.393  -6.556  1.00  0.00    -0.352 N 
ATOM      9  O   UNL     1      -5.546  -2.783  -5.211  1.00  0.00    -0.269 OA
ATOM     10  C   UNL     1      -4.869  -3.066  -6.196  1.00  0.00     0.251 C 
ATOM     11  H   UNL     1      -5.393  -4.987  -6.094  1.00  0.00     0.163 HD
BRANCH  10  12
ATOM     12  C   UNL     1      -4.196  -1.973  -6.950  1.00  0.00     0.039 A 
ATOM     13  C   UNL     1      -3.905  -2.090  -8.305  1.00  0.00     0.014 A 
ATOM     14  C   UNL     1      -3.919  -0.755  -6.310  1.00  0.00     0.014 A 
ATOM     15  C   UNL     1      -3.184  -1.103  -8.962  1.00  0.00     0.010 A 
ATOM     16  C   UNL     1      -3.339   0.310  -7.019  1.00  0.00     0.010 A 
ATOM     17  C   UNL     1      -2.949   0.138  -8.353  1.00  0.00    -0.014 A 
BRANCH  17  18
ATOM     18  C   UNL     1      -2.419   1.238  -9.206  1.00  0.00     0.031 A 
ATOM     19  C   UNL     1      -1.111   1.915  -8.916  1.00  0.00     0.074 A 
ATOM     20  C   UNL     1      -3.116   1.565 -10.316  1.00  0.00     0.049 A 
ATOM     21  N   UNL     1      -0.480   2.819  -9.625  1.00  0.00    -0.248 NA
ATOM     22  C   UNL     1      -0.423   1.544  -7.671  1.00  0.00     0.031 C 
ATOM     23  C   UNL     1      -4.419   1.001 -10.685  1.00  0.00     0.029 A 
ATOM     24  N   UNL     1      -2.819   2.405 -11.360  1.00  0.00    -0.354 N 
ATOM     25  C   UNL     1       0.673   3.127  -8.915  1.00  0.00     0.074 A 
ATOM     26  C   UNL     1       0.636   2.343  -7.697  1.00  0.00     0.031 C 
ATOM     27  C   UNL     1      -4.766   1.441 -11.901  1.00  0.00     0.029 A 
ATOM     28  C   UNL     1      -3.761   2.390 -12.361  1.00  0.00     0.049 A 
ATOM     29  H   UNL     1      -2.009   2.964 -11.389  1.00  0.00     0.167 HD
ATOM     30  C   UNL     1       1.675   3.974  -9.257  1.00  0.00     0.037 A 
ATOM     31  C   UNL     1      -3.828   3.078 -13.515  1.00  0.00     0.037 A 
ATOM     32  C   UNL     1       1.702   4.753 -10.472  1.00  0.00     0.049 A 
ATOM     33  C   UNL     1      -2.713   4.023 -13.853  1.00  0.00     0.074 A 
ATOM     34  C   UNL     1       2.672   5.638 -10.909  1.00  0.00     0.029 A 
ATOM     35  N   UNL     1       0.710   4.741 -11.444  1.00  0.00    -0.354 N 
ATOM     36  N   UNL     1      -1.617   4.282 -13.182  1.00  0.00    -0.248 NA
ATOM     37  C   UNL     1      -2.843   4.774 -15.107  1.00  0.00     0.031 C 
ATOM     38  C   UNL     1       2.246   6.197 -12.119  1.00  0.00     0.029 A 
ATOM     39  C   UNL     1       1.039   5.616 -12.469  1.00  0.00     0.049 A 
ATOM     40  H   UNL     1      -0.107   4.192 -11.410  1.00  0.00     0.167 HD
ATOM     41  C   UNL     1      -0.923   5.217 -13.934  1.00  0.00     0.074 A 
ATOM     42  C   UNL     1      -1.703   5.448 -15.133  1.00  0.00     0.031 C 
ATOM     43  C   UNL     1       0.248   5.839 -13.653  1.00  0.00     0.037 A 
BRANCH  30  44
ATOM     44  C   UNL     1       2.829   4.115  -8.303  1.00  0.00     0.064 A 
ATOM     45  C   UNL     1       3.756   3.078  -8.113  1.00  0.00     0.173 A 
ATOM     46  C   UNL     1       3.047   5.320  -7.617  1.00  0.00     0.173 A 
ATOM     47  F   UNL     1       3.590   1.902  -8.736  1.00  0.00    -0.203 F 
ATOM     48  C   UNL     1       4.844   3.236  -7.257  1.00  0.00     0.198 A 
ATOM     49  C   UNL     1       4.153   5.485  -6.786  1.00  0.00     0.198 A 
ATOM     50  F   UNL     1       2.197   6.347  -7.767  1.00  0.00    -0.203 F 
ATOM     51  F   UNL     1       5.694   2.218  -7.061  1.00  0.00    -0.200 F 
ATOM     52  C   UNL     1       5.047   4.441  -6.602  1.00  0.00     0.200 A 
ATOM     53  F   UNL     1       4.355   6.656  -6.167  1.00  0.00    -0.200 F 
ATOM     54  F   UNL     1       6.102   4.596  -5.791  1.00  0.00    -0.200 F 
ENDBRANCH  30  44
BRANCH  31  55
ATOM     55  C   UNL     1      -5.006   2.921 -14.410  1.00  0.00     0.064 A 
ATOM     56  C   UNL     1      -4.882   2.379 -15.697  1.00  0.00     0.173 A 
ATOM     57  C   UNL     1      -6.286   3.322 -13.995  1.00  0.00     0.173 A 
ATOM     58  F   UNL     1      -3.679   1.993 -16.148  1.00  0.00    -0.203 F 
ATOM     59  C   UNL     1      -5.984   2.274 -16.543  1.00  0.00     0.198 A 
ATOM     60  C   UNL     1      -7.394   3.178 -14.826  1.00  0.00     0.198 A 
ATOM     61  F   UNL     1      -6.464   3.839 -12.770  1.00  0.00    -0.203 F 
ATOM     62  F   UNL     1      -5.827   1.808 -17.789  1.00  0.00    -0.200 F 
ATOM     63  C   UNL     1      -7.240   2.667 -16.104  1.00  0.00     0.200 A 
ATOM     64  F   UNL     1      -8.608   3.536 -14.387  1.00  0.00    -0.200 F 
ATOM     65  F   UNL     1      -8.300   2.560 -16.916  1.00  0.00    -0.200 F 
ENDBRANCH  31  55
BRANCH  43  66
ATOM     66  C   UNL     1       0.759   6.810 -14.679  1.00  0.00     0.064 A 
ATOM     67  C   UNL     1       0.111   8.031 -14.926  1.00  0.00     0.173 A 
ATOM     68  C   UNL     1       1.907   6.513 -15.429  1.00  0.00     0.173 A 
ATOM     69  F   UNL     1      -1.001   8.355 -14.248  1.00  0.00    -0.203 F 
ATOM     70  C   UNL     1       0.568   8.896 -15.916  1.00  0.00     0.198 A 
ATOM     71  C   UNL     1       2.382   7.398 -16.393  1.00  0.00     0.198 A 
ATOM     72  F   UNL     1       2.567   5.363 -15.229  1.00  0.00    -0.203 F 
ATOM     73  F   UNL     1      -0.110  10.021 -16.184  1.00  0.00    -0.200 F 
ATOM     74  C   UNL     1       1.705   8.581 -16.645  1.00  0.00     0.200 A 
ATOM     75  F   UNL     1       3.489   7.099 -17.087  1.00  0.00    -0.200 F 
ATOM     76  F   UNL     1       2.141   9.413 -17.601  1.00  0.00    -0.200 F 
ENDBRANCH  43  66
ENDBRANCH  17  18
ENDBRANCH  10  12
ENDBRANCH   7   8
ENDBRANCH   6   7
ENDBRANCH   5   6
ENDBRANCH   1   5
BRANCH   2  77
ATOM     77  C   UNL     1      -0.437  -8.969  -6.324  1.00  0.00     0.202 C 
BRANCH  77  78
ATOM     78  C   UNL     1       0.793  -8.288  -6.947  1.00  0.00    -0.016 A 
ATOM     79  C   UNL     1       2.042  -8.350  -6.299  1.00  0.00     0.006 A 
ATOM     80  C   UNL     1       0.700  -7.505  -8.117  1.00  0.00     0.006 A 
ATOM     81  C   UNL     1       3.110  -7.549  -6.723  1.00  0.00     0.000 A 
ATOM     82  C   UNL     1       1.766  -6.701  -8.533  1.00  0.00     0.000 A 
ATOM     83  C   UNL     1       2.961  -6.704  -7.820  1.00  0.00     0.000 A 
ENDBRANCH  77  78
BRANCH  77  84
ATOM     84  N   UNL     1      -0.596  -8.782  -4.852  1.00  0.00    -0.340 N 
ATOM     85  C   UNL     1      -0.638  -7.817  -3.899  1.00  0.00     0.224 C 
ATOM     86  H   UNL     1      -0.709  -9.662  -4.425  1.00  0.00     0.164 HD
ATOM     87  O   UNL     1      -0.698  -8.243  -2.738  1.00  0.00    -0.275 OA
BRANCH  85  88
ATOM     88  C   UNL     1      -0.734  -6.307  -4.149  1.00  0.00     0.078 C 
ATOM     89  C   UNL     1      -0.417  -5.467  -2.897  1.00  0.00     0.014 C 
ATOM     90  C   UNL     1       0.088  -5.857  -5.338  1.00  0.00     0.014 C 
ATOM     91  C   UNL     1      -0.335  -3.963  -3.213  1.00  0.00     0.006 C 
ATOM     92  C   UNL     1       0.171  -4.369  -5.603  1.00  0.00     0.006 C 
ATOM     93  C   UNL     1       0.646  -3.649  -4.361  1.00  0.00     0.008 C 
BRANCH  93  94
ATOM     94  C   UNL     1       2.062  -4.051  -3.942  1.00  0.00     0.119 C 
BRANCH  94  95
ATOM     95  N   UNL     1       3.095  -3.867  -4.942  1.00  0.00    -0.351 N 
ATOM     96  C   UNL     1       4.374  -3.416  -4.698  1.00  0.00     0.278 C 
ATOM     97  H   UNL     1       2.864  -4.082  -5.875  1.00  0.00     0.163 HD
ATOM     98  O   UNL     1       5.232  -3.549  -5.570  1.00  0.00    -0.268 OA
BRANCH  96  99
ATOM     99  C   UNL     1       4.615  -2.648  -3.393  1.00  0.00     0.277 C 
ATOM    100  C   UNL     1       6.048  -2.138  -3.217  1.00  0.00     0.111 C 
ATOM    101  N   UNL     1       4.301  -3.475  -2.192  1.00  0.00    -0.332 N 
ATOM    102  C   UNL     1       6.074  -1.265  -1.978  1.00  0.00    -0.033 A 
ATOM    103  C   UNL     1       4.078  -2.564  -1.063  1.00  0.00     0.298 C 
ATOM    104  H   UNL     1       5.082  -4.098  -1.986  1.00  0.00     0.347 HD
ATOM    105  H   UNL     1       3.471  -4.043  -2.360  1.00  0.00     0.347 HD
ATOM    106  C   UNL     1       7.027  -0.255  -1.842  1.00  0.00     0.004 A 
ATOM    107  C   UNL     1       5.091  -1.444  -0.978  1.00  0.00     0.010 A 
ATOM    108  C   UNL     1       6.949   0.634  -0.771  1.00  0.00     0.000 A 
ATOM    109  C   UNL     1       5.005  -0.525   0.074  1.00  0.00     0.010 A 
ATOM    110  C   UNL     1       5.923   0.518   0.168  1.00  0.00     0.001 A 
ENDBRANCH  96  99
ENDBRANCH  94  95
ENDBRANCH  93  94
ENDBRANCH  85  88
ENDBRANCH  77  84
ENDBRANCH   2  77
TORSDOF 16
