REMARK SMILES Cc1nc(N[C@@H](C(=O)NCCCNC(=O)c2ccc(-c3c4nc(c(-c5c(F)c(F)c(F)c(F)c5F)c5ccc([nH]5)c(-c5c(F)c(F)c(F)c(F)c5F)c5nc(c(-c6c(F)c(F)c(F)c(F)c6F)c6ccc3[nH]6)C=C5)C=C4)cc2)C(C)C)c2c3c(sc2n1)CCCC3
REMARK SMILES IDX 11 1 10 2 9 3 7 4 8 5 6 7 5 8 4 10 1 11 2 12 3 13 87 14
REMARK SMILES IDX 86 15 82 16 85 17 83 18 84 19 91 20 88 21 90 22 89 23 79 24
REMARK SMILES IDX 80 25 81 26 12 27 13 28 14 29 15 31 16 32 17 33 78 34 18 35
REMARK SMILES IDX 77 36 19 37 20 38 21 39 71 40 22 41 76 42 70 43 72 44 23 45
REMARK SMILES IDX 75 46 69 47 68 48 24 50 56 51 36 52 55 53 37 54 40 55 54 56
REMARK SMILES IDX 73 57 38 58 39 59 53 61 74 62 41 63 25 64 26 65 34 66 27 67
REMARK SMILES IDX 28 68 32 69 35 70 29 71 30 72 33 73 31 74 57 75 58 76 66 77
REMARK SMILES IDX 59 78 60 79 64 80 67 81 61 82 62 83 65 84 63 85 42 86 43 87
REMARK SMILES IDX 51 88 44 89 45 90 49 91 52 92 46 93 47 94 50 95 48 96
REMARK H PARENT 9 6 5 9 13 30 72 49 40 60
REMARK Flexibility Score: inf
ROOT
ATOM      1  C   UNL     1       4.237   3.508   3.058  1.00  0.00     0.042 C 
ENDROOT
BRANCH   1   2
ATOM      2  C   UNL     1       3.389   4.654   3.620  1.00  0.00     0.117 C 
BRANCH   2   3
ATOM      3  N   UNL     1       3.560   5.869   2.846  1.00  0.00    -0.354 N 
ATOM      4  C   UNL     1       2.664   6.522   2.040  1.00  0.00     0.242 C 
ATOM      5  O   UNL     1       3.085   7.491   1.405  1.00  0.00    -0.273 OA
ATOM      6  H   UNL     1       4.449   6.286   2.909  1.00  0.00     0.163 HD
BRANCH   4   7
ATOM      7  C   UNL     1       1.172   6.070   2.006  1.00  0.00     0.172 C 
BRANCH   7   8
ATOM      8  N   UNL     1       1.069   4.754   1.409  1.00  0.00    -0.358 N 
ATOM      9  H   UNL     1       1.475   4.702   0.513  1.00  0.00     0.162 HD
BRANCH   8  10
ATOM     10  C   UNL     1       0.527   3.568   1.826  1.00  0.00     0.139 A 
ATOM     11  C   UNL     1       0.898   0.318   0.103  1.00  0.00     0.090 C 
ATOM     12  C   UNL     1       0.478   1.320   1.134  1.00  0.00     0.129 A 
ATOM     13  N   UNL     1       0.833   2.595   0.928  1.00  0.00    -0.216 NA
ATOM     14  N   UNL     1      -0.173   0.870   2.196  1.00  0.00    -0.222 NA
ATOM     15  C   UNL     1      -0.483   1.830   3.077  1.00  0.00     0.129 A 
ATOM     16  C   UNL     1      -0.204   3.197   2.995  1.00  0.00     0.057 A 
ATOM     17  S   UNL     1      -1.287   1.353   4.496  1.00  0.00    -0.120 S 
ATOM     18  C   UNL     1      -0.759   3.851   4.191  1.00  0.00    -0.021 A 
ATOM     19  C   UNL     1      -1.306   2.936   5.081  1.00  0.00     0.011 A 
ATOM     20  C   UNL     1      -0.762   5.307   4.567  1.00  0.00     0.037 C 
ATOM     21  C   UNL     1      -1.912   3.245   6.420  1.00  0.00     0.047 C 
ATOM     22  C   UNL     1      -1.683   5.651   5.746  1.00  0.00     0.005 C 
ATOM     23  C   UNL     1      -1.509   4.647   6.884  1.00  0.00     0.006 C 
ENDBRANCH   8  10
ENDBRANCH   7   8
BRANCH   7  24
ATOM     24  C   UNL     1       0.294   7.093   1.230  1.00  0.00     0.015 C 
ATOM     25  C   UNL     1      -1.046   6.528   0.736  1.00  0.00     0.010 C 
ATOM     26  C   UNL     1       0.020   8.329   2.099  1.00  0.00     0.010 C 
ENDBRANCH   7  24
ENDBRANCH   4   7
ENDBRANCH   2   3
ENDBRANCH   1   2
BRANCH   1  27
ATOM     27  C   UNL     1       5.661   3.490   3.628  1.00  0.00     0.118 C 
BRANCH  27  28
ATOM     28  N   UNL     1       5.645   3.097   5.029  1.00  0.00    -0.352 N 
ATOM     29  C   UNL     1       6.542   2.394   5.778  1.00  0.00     0.251 C 
ATOM     30  H   UNL     1       4.846   3.389   5.523  1.00  0.00     0.163 HD
ATOM     31  O   UNL     1       6.186   2.001   6.894  1.00  0.00    -0.269 OA
BRANCH  29  32
ATOM     32  C   UNL     1       7.910   2.080   5.314  1.00  0.00     0.039 A 
ATOM     33  C   UNL     1       8.453   0.854   5.719  1.00  0.00     0.014 A 
ATOM     34  C   UNL     1       8.710   3.001   4.632  1.00  0.00     0.014 A 
ATOM     35  C   UNL     1       9.783   0.546   5.440  1.00  0.00     0.010 A 
ATOM     36  C   UNL     1      10.046   2.689   4.348  1.00  0.00     0.010 A 
ATOM     37  C   UNL     1      10.590   1.463   4.755  1.00  0.00    -0.014 A 
BRANCH  37  38
ATOM     38  C   UNL     1      11.983   1.083   4.463  1.00  0.00     0.031 A 
ATOM     39  C   UNL     1      12.459   1.252   3.064  1.00  0.00     0.074 A 
ATOM     40  C   UNL     1      12.922   0.986   5.428  1.00  0.00     0.049 A 
ATOM     41  N   UNL     1      12.902   2.385   2.604  1.00  0.00    -0.248 NA
ATOM     42  C   UNL     1      12.323   0.209   2.050  1.00  0.00     0.031 C 
ATOM     43  C   UNL     1      12.855   1.661   6.728  1.00  0.00     0.029 A 
ATOM     44  N   UNL     1      14.191   0.459   5.383  1.00  0.00    -0.354 N 
ATOM     45  C   UNL     1      13.061   2.236   1.242  1.00  0.00     0.074 A 
ATOM     46  C   UNL     1      12.711   0.864   0.944  1.00  0.00     0.031 C 
ATOM     47  C   UNL     1      14.086   1.658   7.279  1.00  0.00     0.029 A 
ATOM     48  C   UNL     1      14.982   0.848   6.458  1.00  0.00     0.049 A 
ATOM     49  H   UNL     1      14.507  -0.134   4.664  1.00  0.00     0.167 HD
ATOM     50  C   UNL     1      13.461   3.250   0.431  1.00  0.00     0.037 A 
ATOM     51  C   UNL     1      16.334   0.999   6.441  1.00  0.00     0.037 A 
ATOM     52  C   UNL     1      13.717   4.504   1.072  1.00  0.00     0.049 A 
ATOM     53  C   UNL     1      16.515   2.043   5.368  1.00  0.00     0.074 A 
ATOM     54  C   UNL     1      12.985   5.620   1.416  1.00  0.00     0.029 A 
ATOM     55  N   UNL     1      14.960   4.720   1.619  1.00  0.00    -0.354 N 
ATOM     56  N   UNL     1      16.349   3.330   5.517  1.00  0.00    -0.248 NA
ATOM     57  C   UNL     1      16.583   1.593   3.975  1.00  0.00     0.031 C 
ATOM     58  C   UNL     1      13.675   6.201   2.526  1.00  0.00     0.029 A 
ATOM     59  C   UNL     1      14.747   5.359   2.815  1.00  0.00     0.049 A 
ATOM     60  H   UNL     1      15.829   4.467   1.231  1.00  0.00     0.167 HD
ATOM     61  C   UNL     1      16.038   3.813   4.244  1.00  0.00     0.074 A 
ATOM     62  C   UNL     1      16.229   2.700   3.338  1.00  0.00     0.031 C 
ATOM     63  C   UNL     1      15.469   5.031   4.022  1.00  0.00     0.037 A 
BRANCH  50  64
ATOM     64  C   UNL     1      13.741   3.100  -1.004  1.00  0.00     0.064 A 
ATOM     65  C   UNL     1      15.069   2.943  -1.420  1.00  0.00     0.173 A 
ATOM     66  C   UNL     1      12.757   3.309  -1.974  1.00  0.00     0.173 A 
ATOM     67  F   UNL     1      16.039   2.763  -0.508  1.00  0.00    -0.203 F 
ATOM     68  C   UNL     1      15.411   3.027  -2.764  1.00  0.00     0.198 A 
ATOM     69  C   UNL     1      13.101   3.390  -3.321  1.00  0.00     0.198 A 
ATOM     70  F   UNL     1      11.477   3.477  -1.613  1.00  0.00    -0.203 F 
ATOM     71  F   UNL     1      16.694   2.915  -3.133  1.00  0.00    -0.200 F 
ATOM     72  C   UNL     1      14.428   3.262  -3.714  1.00  0.00     0.200 A 
ATOM     73  F   UNL     1      12.154   3.624  -4.240  1.00  0.00    -0.200 F 
ATOM     74  F   UNL     1      14.762   3.379  -5.006  1.00  0.00    -0.200 F 
ENDBRANCH  50  64
BRANCH  51  75
ATOM     75  C   UNL     1      17.123  -0.278   6.475  1.00  0.00     0.064 A 
ATOM     76  C   UNL     1      16.765  -1.290   7.391  1.00  0.00     0.173 A 
ATOM     77  C   UNL     1      18.234  -0.557   5.662  1.00  0.00     0.173 A 
ATOM     78  F   UNL     1      15.796  -1.073   8.295  1.00  0.00    -0.203 F 
ATOM     79  C   UNL     1      17.389  -2.539   7.400  1.00  0.00     0.198 A 
ATOM     80  C   UNL     1      18.840  -1.816   5.651  1.00  0.00     0.198 A 
ATOM     81  F   UNL     1      18.750   0.377   4.852  1.00  0.00    -0.203 F 
ATOM     82  F   UNL     1      16.989  -3.481   8.266  1.00  0.00    -0.200 F 
ATOM     83  C   UNL     1      18.407  -2.812   6.506  1.00  0.00     0.200 A 
ATOM     84  F   UNL     1      19.837  -2.064   4.789  1.00  0.00    -0.200 F 
ATOM     85  F   UNL     1      18.974  -4.026   6.475  1.00  0.00    -0.200 F 
ENDBRANCH  51  75
BRANCH  63  86
ATOM     86  C   UNL     1      15.369   5.922   5.210  1.00  0.00     0.064 A 
ATOM     87  C   UNL     1      16.504   6.585   5.690  1.00  0.00     0.173 A 
ATOM     88  C   UNL     1      14.143   6.158   5.850  1.00  0.00     0.173 A 
ATOM     89  F   UNL     1      17.697   6.397   5.104  1.00  0.00    -0.203 F 
ATOM     90  C   UNL     1      16.411   7.475   6.756  1.00  0.00     0.198 A 
ATOM     91  C   UNL     1      14.050   7.065   6.900  1.00  0.00     0.198 A 
ATOM     92  F   UNL     1      13.024   5.540   5.440  1.00  0.00    -0.203 F 
ATOM     93  F   UNL     1      17.506   8.114   7.192  1.00  0.00    -0.200 F 
ATOM     94  C   UNL     1      15.183   7.725   7.351  1.00  0.00     0.200 A 
ATOM     95  F   UNL     1      12.859   7.321   7.461  1.00  0.00    -0.200 F 
ATOM     96  F   UNL     1      15.088   8.614   8.350  1.00  0.00    -0.200 F 
ENDBRANCH  63  86
ENDBRANCH  37  38
ENDBRANCH  29  32
ENDBRANCH  27  28
ENDBRANCH   1  27
TORSDOF 13
