REMARK SMILES Cc1nc(Nc2ccc(F)cc2)nc(OCC(=O)NCCCNC(=O)c2ccc(-c3c4nc(c(-c5c(F)c(F)c(F)c(F)c5F)c5ccc([nH]5)c(-c5c(F)c(F)c(F)c(F)c5F)c5nc(c(-c6c(F)c(F)c(F)c(F)c6F)c6ccc3[nH]6)C=C5)C=C4)cc2)c1CCO
REMARK SMILES IDX 17 1 18 2 19 3 16 5 15 6 14 7 1 8 2 9 3 10 89 11 4 12 13 13
REMARK SMILES IDX 90 14 91 15 92 16 5 18 6 20 7 21 12 22 8 23 11 24 9 25 10 26
REMARK SMILES IDX 20 27 21 28 22 29 23 30 24 31 25 33 26 34 27 35 88 36 28 37
REMARK SMILES IDX 87 38 29 39 30 40 31 41 81 42 32 43 86 44 80 45 82 46 33 47
REMARK SMILES IDX 85 48 79 49 78 50 34 52 66 53 46 54 65 55 47 56 50 57 64 58
REMARK SMILES IDX 83 59 48 60 49 61 63 63 84 64 51 65 35 66 36 67 44 68 37 69
REMARK SMILES IDX 38 70 42 71 45 72 39 73 40 74 43 75 41 76 67 77 68 78 76 79
REMARK SMILES IDX 69 80 70 81 74 82 77 83 71 84 72 85 75 86 73 87 52 88 53 89
REMARK SMILES IDX 61 90 54 91 55 92 59 93 62 94 56 95 57 96 60 97 58 98
REMARK H PARENT 19 4 92 17 5 19 23 32 82 51 50 62
REMARK Flexibility Score: inf
ROOT
ATOM      1  C   UNL     1       0.925  -4.107   1.569  1.00  0.00     0.258 C 
ATOM      2  O   UNL     1      -0.194  -4.612   1.675  1.00  0.00    -0.271 OA
ATOM      3  N   UNL     1       1.671  -3.999   2.698  1.00  0.00    -0.353 N 
ATOM      4  H   UNL     1       1.251  -4.341   3.520  1.00  0.00     0.163 HD
ENDROOT
BRANCH   1   5
ATOM      5  C   UNL     1       1.513  -3.677   0.218  1.00  0.00     0.331 C 
BRANCH   5   6
ATOM      6  O   UNL     1       1.790  -2.322  -0.061  1.00  0.00    -0.467 OA
BRANCH   6   7
ATOM      7  C   UNL     1       0.866  -1.328  -0.023  1.00  0.00     0.222 A 
ATOM      8  C   UNL     1      -2.680  -0.048  -0.066  1.00  0.00     0.067 C 
ATOM      9  C   UNL     1      -1.190  -0.213   0.003  1.00  0.00     0.050 A 
ATOM     10  N   UNL     1      -0.554   0.953   0.207  1.00  0.00    -0.218 NA
ATOM     11  C   UNL     1      -0.511  -1.412  -0.214  1.00  0.00     0.038 A 
ATOM     12  C   UNL     1       0.776   0.976   0.181  1.00  0.00     0.230 A 
ATOM     13  N   UNL     1       1.504  -0.140   0.117  1.00  0.00    -0.177 NA
BRANCH  11  14
ATOM     14  C   UNL     1      -1.250  -2.620  -0.726  1.00  0.00     0.071 C 
BRANCH  14  15
ATOM     15  C   UNL     1      -1.056  -2.912  -2.219  1.00  0.00     0.161 C 
BRANCH  15  16
ATOM     16  O   UNL     1       0.303  -3.068  -2.598  1.00  0.00    -0.396 OA
ATOM     17  H   UNL     1       0.783  -2.242  -2.427  1.00  0.00     0.210 HD
ENDBRANCH  15  16
ENDBRANCH  14  15
ENDBRANCH  11  14
BRANCH  12  18
ATOM     18  N   UNL     1       1.428   2.208   0.081  1.00  0.00    -0.324 N 
ATOM     19  H   UNL     1       2.410   2.180   0.016  1.00  0.00     0.170 HD
BRANCH  18  20
ATOM     20  C   UNL     1       0.836   3.480   0.062  1.00  0.00     0.041 A 
ATOM     21  C   UNL     1      -0.126   3.844   1.019  1.00  0.00     0.029 A 
ATOM     22  C   UNL     1       1.084   4.363  -0.999  1.00  0.00     0.029 A 
ATOM     23  C   UNL     1      -0.816   5.054   0.929  1.00  0.00     0.041 A 
ATOM     24  C   UNL     1       0.379   5.569  -1.103  1.00  0.00     0.041 A 
ATOM     25  C   UNL     1      -0.564   5.902  -0.139  1.00  0.00     0.123 A 
ATOM     26  F   UNL     1      -1.250   7.047  -0.249  1.00  0.00    -0.207 F 
ENDBRANCH  18  20
ENDBRANCH  12  18
ENDBRANCH   6   7
ENDBRANCH   5   6
ENDBRANCH   1   5
BRANCH   3  27
ATOM     27  C   UNL     1       3.000  -3.451   2.857  1.00  0.00     0.117 C 
BRANCH  27  28
ATOM     28  C   UNL     1       2.970  -2.091   3.538  1.00  0.00     0.042 C 
BRANCH  28  29
ATOM     29  C   UNL     1       2.193  -2.071   4.851  1.00  0.00     0.118 C 
BRANCH  29  30
ATOM     30  N   UNL     1       2.636  -3.095   5.792  1.00  0.00    -0.352 N 
ATOM     31  C   UNL     1       3.245  -2.980   7.012  1.00  0.00     0.251 C 
ATOM     32  H   UNL     1       2.470  -4.021   5.500  1.00  0.00     0.163 HD
ATOM     33  O   UNL     1       3.719  -3.979   7.554  1.00  0.00    -0.269 OA
BRANCH  31  34
ATOM     34  C   UNL     1       3.354  -1.667   7.672  1.00  0.00     0.039 A 
ATOM     35  C   UNL     1       4.548  -1.331   8.315  1.00  0.00     0.014 A 
ATOM     36  C   UNL     1       2.279  -0.774   7.676  1.00  0.00     0.014 A 
ATOM     37  C   UNL     1       4.683  -0.075   8.905  1.00  0.00     0.010 A 
ATOM     38  C   UNL     1       2.448   0.511   8.178  1.00  0.00     0.010 A 
ATOM     39  C   UNL     1       3.648   0.870   8.808  1.00  0.00    -0.014 A 
BRANCH  39  40
ATOM     40  C   UNL     1       3.804   2.235   9.368  1.00  0.00     0.031 A 
ATOM     41  C   UNL     1       2.907   2.705  10.479  1.00  0.00     0.074 A 
ATOM     42  C   UNL     1       4.726   3.064   8.843  1.00  0.00     0.049 A 
ATOM     43  N   UNL     1       2.874   3.869  11.077  1.00  0.00    -0.248 NA
ATOM     44  C   UNL     1       1.896   1.753  10.967  1.00  0.00     0.031 C 
ATOM     45  C   UNL     1       5.617   2.737   7.728  1.00  0.00     0.029 A 
ATOM     46  N   UNL     1       5.069   4.350   9.176  1.00  0.00    -0.354 N 
ATOM     47  C   UNL     1       1.839   3.789  11.999  1.00  0.00     0.074 A 
ATOM     48  C   UNL     1       1.227   2.489  11.841  1.00  0.00     0.031 C 
ATOM     49  C   UNL     1       6.431   3.778   7.497  1.00  0.00     0.029 A 
ATOM     50  C   UNL     1       6.094   4.860   8.417  1.00  0.00     0.049 A 
ATOM     51  H   UNL     1       4.623   4.859   9.891  1.00  0.00     0.167 HD
ATOM     52  C   UNL     1       1.456   4.708  12.916  1.00  0.00     0.037 A 
ATOM     53  C   UNL     1       6.697   6.063   8.461  1.00  0.00     0.037 A 
ATOM     54  C   UNL     1       2.087   5.990  13.085  1.00  0.00     0.049 A 
ATOM     55  C   UNL     1       6.253   7.067   9.490  1.00  0.00     0.074 A 
ATOM     56  C   UNL     1       1.804   6.972  14.017  1.00  0.00     0.029 A 
ATOM     57  N   UNL     1       3.128   6.468  12.302  1.00  0.00    -0.354 N 
ATOM     58  N   UNL     1       5.313   6.959  10.396  1.00  0.00    -0.248 NA
ATOM     59  C   UNL     1       6.960   8.355   9.509  1.00  0.00     0.031 C 
ATOM     60  C   UNL     1       2.638   8.065  13.765  1.00  0.00     0.029 A 
ATOM     61  C   UNL     1       3.486   7.740  12.719  1.00  0.00     0.049 A 
ATOM     62  H   UNL     1       3.550   5.976  11.560  1.00  0.00     0.167 HD
ATOM     63  C   UNL     1       5.332   8.149  11.111  1.00  0.00     0.074 A 
ATOM     64  C   UNL     1       6.388   8.960  10.541  1.00  0.00     0.031 C 
ATOM     65  C   UNL     1       4.547   8.532  12.148  1.00  0.00     0.037 A 
BRANCH  52  66
ATOM     66  C   UNL     1       0.312   4.358  13.824  1.00  0.00     0.064 A 
ATOM     67  C   UNL     1      -0.902   5.058  13.745  1.00  0.00     0.173 A 
ATOM     68  C   UNL     1       0.438   3.376  14.819  1.00  0.00     0.173 A 
ATOM     69  F   UNL     1      -1.075   6.009  12.815  1.00  0.00    -0.203 F 
ATOM     70  C   UNL     1      -1.939   4.798  14.636  1.00  0.00     0.198 A 
ATOM     71  C   UNL     1      -0.614   3.096  15.688  1.00  0.00     0.198 A 
ATOM     72  F   UNL     1       1.572   2.669  14.930  1.00  0.00    -0.203 F 
ATOM     73  F   UNL     1      -3.076   5.504  14.563  1.00  0.00    -0.200 F 
ATOM     74  C   UNL     1      -1.796   3.815  15.603  1.00  0.00     0.200 A 
ATOM     75  F   UNL     1      -0.483   2.127  16.604  1.00  0.00    -0.200 F 
ATOM     76  F   UNL     1      -2.800   3.558  16.453  1.00  0.00    -0.200 F 
ENDBRANCH  52  66
BRANCH  53  77
ATOM     77  C   UNL     1       7.820   6.354   7.532  1.00  0.00     0.064 A 
ATOM     78  C   UNL     1       7.609   6.497   6.152  1.00  0.00     0.173 A 
ATOM     79  C   UNL     1       9.136   6.455   8.004  1.00  0.00     0.173 A 
ATOM     80  F   UNL     1       6.370   6.402   5.648  1.00  0.00    -0.203 F 
ATOM     81  C   UNL     1       8.675   6.708   5.279  1.00  0.00     0.198 A 
ATOM     82  C   UNL     1      10.197   6.694   7.133  1.00  0.00     0.198 A 
ATOM     83  F   UNL     1       9.386   6.343   9.317  1.00  0.00    -0.203 F 
ATOM     84  F   UNL     1       8.451   6.801   3.961  1.00  0.00    -0.200 F 
ATOM     85  C   UNL     1       9.967   6.811   5.771  1.00  0.00     0.200 A 
ATOM     86  F   UNL     1      11.441   6.816   7.615  1.00  0.00    -0.200 F 
ATOM     87  F   UNL     1      10.991   7.023   4.932  1.00  0.00    -0.200 F 
ENDBRANCH  53  77
BRANCH  65  88
ATOM     88  C   UNL     1       4.814   9.874  12.766  1.00  0.00     0.064 A 
ATOM     89  C   UNL     1       5.318   9.962  14.073  1.00  0.00     0.173 A 
ATOM     90  C   UNL     1       4.503  11.068  12.100  1.00  0.00     0.173 A 
ATOM     91  F   UNL     1       5.622   8.849  14.758  1.00  0.00    -0.203 F 
ATOM     92  C   UNL     1       5.488  11.195  14.695  1.00  0.00     0.198 A 
ATOM     93  C   UNL     1       4.706  12.302  12.713  1.00  0.00     0.198 A 
ATOM     94  F   UNL     1       4.028  11.039  10.846  1.00  0.00    -0.203 F 
ATOM     95  F   UNL     1       5.934  11.252  15.957  1.00  0.00    -0.200 F 
ATOM     96  C   UNL     1       5.188  12.364  14.013  1.00  0.00     0.200 A 
ATOM     97  F   UNL     1       4.440  13.432  12.044  1.00  0.00    -0.200 F 
ATOM     98  F   UNL     1       5.364  13.552  14.607  1.00  0.00    -0.200 F 
ENDBRANCH  65  88
ENDBRANCH  39  40
ENDBRANCH  31  34
ENDBRANCH  29  30
ENDBRANCH  28  29
ENDBRANCH  27  28
ENDBRANCH   3  27
TORSDOF 17
