REMARK SMILES Cc1oc(-c2cccs2)nc1C[N@@H+](C)CC(=O)NCCCNC(=O)c1ccc(-c2c3nc(c(-c4c(F)c(F)c(F)c(F)c4F)c4ccc([nH]4)c(-c4c(F)c(F)c(F)c(F)c4F)c4nc(c(-c5c(F)c(F)c(F)c(F)c5F)c5ccc2[nH]5)C=C4)C=C3)cc1
REMARK SMILES IDX 19 1 18 2 16 3 17 4 15 6 13 7 14 8 12 10 11 11 1 12 2 13
REMARK SMILES IDX 3 14 4 15 10 16 5 17 6 18 9 19 7 20 8 21 20 22 21 23 22 24
REMARK SMILES IDX 23 25 24 27 25 28 26 29 87 30 27 31 86 32 28 33 29 34 30 35
REMARK SMILES IDX 80 36 31 37 85 38 79 39 81 40 32 41 84 42 78 43 77 44 33 46
REMARK SMILES IDX 65 47 45 48 64 49 46 50 49 51 63 52 82 53 47 54 48 55 62 57
REMARK SMILES IDX 83 58 50 59 34 60 35 61 43 62 36 63 37 64 41 65 44 66 38 67
REMARK SMILES IDX 39 68 42 69 40 70 66 71 67 72 75 73 68 74 69 75 73 76 76 77
REMARK SMILES IDX 70 78 71 79 74 80 72 81 51 82 52 83 60 84 53 85 54 86 58 87
REMARK SMILES IDX 61 88 55 89 56 90 59 91 57 92
REMARK H PARENT 18 5 13 9 22 26 81 45 49 56
REMARK Flexibility Score: inf
ROOT
ATOM      1  C   UNL     1       1.400   5.500  -2.841  1.00  0.00     0.118 C 
ENDROOT
BRANCH   1   2
ATOM      2  N   UNL     1       2.029   4.214  -2.623  1.00  0.00    -0.351 N 
ATOM      3  C   UNL     1       1.478   3.002  -2.339  1.00  0.00     0.275 C 
ATOM      4  O   UNL     1       2.257   2.087  -2.056  1.00  0.00    -0.269 OA
ATOM      5  H   UNL     1       3.011   4.216  -2.691  1.00  0.00     0.163 HD
BRANCH   3   6
ATOM      6  C   UNL     1      -0.036   2.780  -2.385  1.00  0.00     0.363 C 
BRANCH   6   7
ATOM      7  N   UNL     1      -0.741   2.952  -1.108  1.00  0.00    -0.324 N 
ATOM      8  C   UNL     1      -1.280   4.269  -0.848  1.00  0.00     0.333 C 
ATOM      9  H   UNL     1      -1.563   2.372  -1.276  1.00  0.00     0.348 HD
BRANCH   7  10
ATOM     10  C   UNL     1      -0.102   2.352   0.067  1.00  0.00     0.323 C 
BRANCH  10  11
ATOM     11  C   UNL     1      -0.241   0.868   0.043  1.00  0.00     0.137 A 
ATOM     12  C   UNL     1       2.188  -0.148   0.222  1.00  0.00     0.090 C 
ATOM     13  C   UNL     1       0.717  -0.119   0.137  1.00  0.00     0.130 A 
ATOM     14  O   UNL     1       0.076  -1.327   0.145  1.00  0.00    -0.440 OA
ATOM     15  C   UNL     1      -1.256  -1.017   0.017  1.00  0.00     0.236 A 
ATOM     16  N   UNL     1      -1.487   0.280  -0.045  1.00  0.00    -0.207 NA
BRANCH  15  17
ATOM     17  C   UNL     1      -2.307  -1.986  -0.066  1.00  0.00     0.090 A 
ATOM     18  C   UNL     1      -3.429  -1.909  -0.867  1.00  0.00     0.025 A 
ATOM     19  S   UNL     1      -2.311  -3.402   0.891  1.00  0.00    -0.139 S 
ATOM     20  C   UNL     1      -4.303  -3.019  -0.686  1.00  0.00     0.012 A 
ATOM     21  C   UNL     1      -3.828  -3.894   0.266  1.00  0.00     0.065 A 
ENDBRANCH  15  17
ENDBRANCH  10  11
ENDBRANCH   7  10
ENDBRANCH   6   7
ENDBRANCH   3   6
ENDBRANCH   1   2
BRANCH   1  22
ATOM     22  C   UNL     1       1.569   6.411  -1.628  1.00  0.00     0.042 C 
BRANCH  22  23
ATOM     23  C   UNL     1       3.005   6.836  -1.348  1.00  0.00     0.118 C 
BRANCH  23  24
ATOM     24  N   UNL     1       3.503   7.799  -2.313  1.00  0.00    -0.352 N 
ATOM     25  C   UNL     1       3.883   9.108  -2.154  1.00  0.00     0.251 C 
ATOM     26  H   UNL     1       3.580   7.457  -3.233  1.00  0.00     0.163 HD
ATOM     27  O   UNL     1       4.098   9.788  -3.154  1.00  0.00    -0.269 OA
BRANCH  25  28
ATOM     28  C   UNL     1       4.026   9.723  -0.811  1.00  0.00     0.039 A 
ATOM     29  C   UNL     1       3.671  11.069  -0.661  1.00  0.00     0.014 A 
ATOM     30  C   UNL     1       4.572   9.034   0.275  1.00  0.00     0.014 A 
ATOM     31  C   UNL     1       3.831  11.706   0.573  1.00  0.00     0.010 A 
ATOM     32  C   UNL     1       4.653   9.644   1.528  1.00  0.00     0.010 A 
ATOM     33  C   UNL     1       4.308  10.994   1.685  1.00  0.00    -0.014 A 
BRANCH  33  34
ATOM     34  C   UNL     1       4.496  11.670   2.995  1.00  0.00     0.031 A 
ATOM     35  C   UNL     1       5.877  11.833   3.575  1.00  0.00     0.074 A 
ATOM     36  C   UNL     1       3.426  12.118   3.680  1.00  0.00     0.049 A 
ATOM     37  N   UNL     1       6.242  12.389   4.704  1.00  0.00    -0.248 NA
ATOM     38  C   UNL     1       6.993  11.275   2.796  1.00  0.00     0.031 C 
ATOM     39  C   UNL     1       2.032  11.976   3.258  1.00  0.00     0.029 A 
ATOM     40  N   UNL     1       3.345  12.787   4.876  1.00  0.00    -0.354 N 
ATOM     41  C   UNL     1       7.620  12.229   4.777  1.00  0.00     0.074 A 
ATOM     42  C   UNL     1       8.021  11.482   3.605  1.00  0.00     0.031 C 
ATOM     43  C   UNL     1       1.237  12.566   4.165  1.00  0.00     0.029 A 
ATOM     44  C   UNL     1       2.061  13.109   5.241  1.00  0.00     0.049 A 
ATOM     45  H   UNL     1       4.133  13.014   5.421  1.00  0.00     0.167 HD
ATOM     46  C   UNL     1       8.479  12.686   5.720  1.00  0.00     0.037 A 
ATOM     47  C   UNL     1       1.602  13.776   6.317  1.00  0.00     0.037 A 
ATOM     48  C   UNL     1       8.090  13.465   6.865  1.00  0.00     0.049 A 
ATOM     49  C   UNL     1       2.580  14.313   7.325  1.00  0.00     0.074 A 
ATOM     50  C   UNL     1       8.892  14.023   7.845  1.00  0.00     0.029 A 
ATOM     51  N   UNL     1       6.782  13.804   7.178  1.00  0.00    -0.354 N 
ATOM     52  N   UNL     1       3.886  14.211   7.348  1.00  0.00    -0.248 NA
ATOM     53  C   UNL     1       2.018  15.073   8.451  1.00  0.00     0.031 C 
ATOM     54  C   UNL     1       8.067  14.676   8.768  1.00  0.00     0.029 A 
ATOM     55  C   UNL     1       6.754  14.557   8.341  1.00  0.00     0.049 A 
ATOM     56  H   UNL     1       5.990  13.548   6.652  1.00  0.00     0.167 HD
ATOM     57  C   UNL     1       4.304  14.912   8.471  1.00  0.00     0.074 A 
ATOM     58  C   UNL     1       3.114  15.450   9.095  1.00  0.00     0.031 C 
ATOM     59  C   UNL     1       5.562  15.091   8.945  1.00  0.00     0.037 A 
BRANCH  46  60
ATOM     60  C   UNL     1       9.934  12.361   5.543  1.00  0.00     0.064 A 
ATOM     61  C   UNL     1      10.705  12.970   4.542  1.00  0.00     0.173 A 
ATOM     62  C   UNL     1      10.571  11.452   6.401  1.00  0.00     0.173 A 
ATOM     63  F   UNL     1      10.140  13.836   3.688  1.00  0.00    -0.203 F 
ATOM     64  C   UNL     1      12.053  12.658   4.386  1.00  0.00     0.198 A 
ATOM     65  C   UNL     1      11.926  11.163   6.260  1.00  0.00     0.198 A 
ATOM     66  F   UNL     1       9.880  10.846   7.378  1.00  0.00    -0.203 F 
ATOM     67  F   UNL     1      12.758  13.214   3.391  1.00  0.00    -0.200 F 
ATOM     68  C   UNL     1      12.664  11.759   5.249  1.00  0.00     0.200 A 
ATOM     69  F   UNL     1      12.517  10.302   7.100  1.00  0.00    -0.200 F 
ATOM     70  F   UNL     1      13.962  11.462   5.099  1.00  0.00    -0.200 F 
ENDBRANCH  46  60
BRANCH  47  71
ATOM     71  C   UNL     1       0.145  14.018   6.470  1.00  0.00     0.064 A 
ATOM     72  C   UNL     1      -0.391  15.301   6.290  1.00  0.00     0.173 A 
ATOM     73  C   UNL     1      -0.736  12.980   6.801  1.00  0.00     0.173 A 
ATOM     74  F   UNL     1       0.417  16.328   5.992  1.00  0.00    -0.203 F 
ATOM     75  C   UNL     1      -1.754  15.540   6.453  1.00  0.00     0.198 A 
ATOM     76  C   UNL     1      -2.102  13.216   6.941  1.00  0.00     0.198 A 
ATOM     77  F   UNL     1      -0.271  11.735   6.979  1.00  0.00    -0.203 F 
ATOM     78  F   UNL     1      -2.235  16.783   6.316  1.00  0.00    -0.200 F 
ATOM     79  C   UNL     1      -2.609  14.496   6.774  1.00  0.00     0.200 A 
ATOM     80  F   UNL     1      -2.928  12.203   7.239  1.00  0.00    -0.200 F 
ATOM     81  F   UNL     1      -3.920  14.726   6.929  1.00  0.00    -0.200 F 
ENDBRANCH  47  71
BRANCH  59  82
ATOM     82  C   UNL     1       5.713  15.928  10.180  1.00  0.00     0.064 A 
ATOM     83  C   UNL     1       5.332  15.450  11.442  1.00  0.00     0.173 A 
ATOM     84  C   UNL     1       6.263  17.216  10.102  1.00  0.00     0.173 A 
ATOM     85  F   UNL     1       4.787  14.230  11.565  1.00  0.00    -0.203 F 
ATOM     86  C   UNL     1       5.470  16.242  12.578  1.00  0.00     0.198 A 
ATOM     87  C   UNL     1       6.424  17.996  11.243  1.00  0.00     0.198 A 
ATOM     88  F   UNL     1       6.648  17.717   8.918  1.00  0.00    -0.203 F 
ATOM     89  F   UNL     1       5.053  15.784  13.767  1.00  0.00    -0.200 F 
ATOM     90  C   UNL     1       6.019  17.512  12.479  1.00  0.00     0.200 A 
ATOM     91  F   UNL     1       6.963  19.219  11.148  1.00  0.00    -0.200 F 
ATOM     92  F   UNL     1       6.150  18.274  13.573  1.00  0.00    -0.200 F 
ENDBRANCH  59  82
ENDBRANCH  33  34
ENDBRANCH  25  28
ENDBRANCH  23  24
ENDBRANCH  22  23
ENDBRANCH   1  22
TORSDOF 14
