REMARK SMILES COC[C@H](C)n1c(SCC(=O)NCCCNC(=O)c2ccc(-c3c4nc(c(-c5c(F)c(F)c(F)c(F)c5F)c5ccc([nH]5)c(-c5c(F)c(F)c(F)c(F)c5F)c5nc(c(-c6c(F)c(F)c(F)c(F)c6F)c6ccc3[nH]6)C=C5)C=C4)cc2)nc2cc(C)cnc21
REMARK SMILES IDX 10 1 11 2 12 3 9 5 8 6 7 7 6 8 89 9 82 10 83 11 88 12 84 13
REMARK SMILES IDX 87 14 85 15 86 16 4 17 5 18 3 19 2 20 1 21 13 22 14 23 15 24
REMARK SMILES IDX 16 25 17 26 18 28 19 29 20 30 81 31 21 32 80 33 22 34 23 35
REMARK SMILES IDX 24 36 74 37 25 38 79 39 73 40 75 41 26 42 78 43 72 44 71 45
REMARK SMILES IDX 27 47 59 48 39 49 58 50 40 51 43 52 57 53 76 54 41 55 42 56
REMARK SMILES IDX 56 58 77 59 44 60 28 61 29 62 37 63 30 64 31 65 35 66 38 67
REMARK SMILES IDX 32 68 33 69 36 70 34 71 60 72 61 73 69 74 62 75 63 76 67 77
REMARK SMILES IDX 70 78 64 79 65 80 68 81 66 82 45 83 46 84 54 85 47 86 48 87
REMARK SMILES IDX 52 88 55 89 49 90 50 91 53 92 51 93
REMARK H PARENT 12 4 16 27 75 46 43 57
REMARK Flexibility Score: inf
ROOT
ATOM      1  C   UNL     1       3.158  -0.677   1.719  1.00  0.00     0.230 C 
ATOM      2  O   UNL     1       2.499  -0.195   0.797  1.00  0.00    -0.274 OA
ATOM      3  N   UNL     1       4.486  -0.865   1.498  1.00  0.00    -0.355 N 
ATOM      4  H   UNL     1       4.778  -0.759   0.564  1.00  0.00     0.163 HD
ENDROOT
BRANCH   1   5
ATOM      5  C   UNL     1       2.542  -0.946   3.067  1.00  0.00     0.178 C 
BRANCH   5   6
ATOM      6  S   UNL     1       2.424  -2.643   3.578  1.00  0.00    -0.078 SA
BRANCH   6   7
ATOM      7  C   UNL     1       1.700  -3.767   2.481  1.00  0.00     0.171 A 
ATOM      8  N   UNL     1       0.717  -3.659   1.519  1.00  0.00    -0.298 N 
ATOM      9  C   UNL     1       0.410  -4.959   1.125  1.00  0.00     0.161 A 
ATOM     10  N   UNL     1       2.000  -5.041   2.704  1.00  0.00    -0.221 NA
ATOM     11  C   UNL     1       1.179  -5.788   1.915  1.00  0.00     0.109 A 
ATOM     12  N   UNL     1      -0.494  -5.329   0.193  1.00  0.00    -0.236 NA
ATOM     13  C   UNL     1       0.984  -7.171   1.801  1.00  0.00     0.037 A 
ATOM     14  C   UNL     1      -0.645  -6.671   0.109  1.00  0.00     0.117 A 
ATOM     15  C   UNL     1       0.030  -7.622   0.875  1.00  0.00    -0.030 A 
ATOM     16  C   UNL     1      -0.282  -9.080   0.739  1.00  0.00     0.046 C 
BRANCH   8  17
ATOM     17  C   UNL     1      -0.029  -2.572   0.896  1.00  0.00     0.114 C 
ATOM     18  C   UNL     1      -0.408  -1.377   1.759  1.00  0.00     0.034 C 
BRANCH  17  19
ATOM     19  C   UNL     1       0.559  -2.239  -0.491  1.00  0.00     0.185 C 
BRANCH  19  20
ATOM     20  O   UNL     1      -0.071  -1.135  -1.143  1.00  0.00    -0.383 OA
ATOM     21  C   UNL     1      -1.396  -1.415  -1.571  1.00  0.00     0.194 C 
ENDBRANCH  19  20
ENDBRANCH  17  19
ENDBRANCH   8  17
ENDBRANCH   6   7
ENDBRANCH   5   6
ENDBRANCH   1   5
BRANCH   3  22
ATOM     22  C   UNL     1       5.533  -1.198   2.445  1.00  0.00     0.117 C 
BRANCH  22  23
ATOM     23  C   UNL     1       6.057  -2.622   2.281  1.00  0.00     0.042 C 
BRANCH  23  24
ATOM     24  C   UNL     1       6.735  -2.840   0.943  1.00  0.00     0.118 C 
BRANCH  24  25
ATOM     25  N   UNL     1       7.944  -2.032   0.747  1.00  0.00    -0.352 N 
ATOM     26  C   UNL     1       8.851  -2.104  -0.300  1.00  0.00     0.251 C 
ATOM     27  H   UNL     1       8.135  -1.360   1.441  1.00  0.00     0.163 HD
ATOM     28  O   UNL     1       9.948  -1.580  -0.238  1.00  0.00    -0.269 OA
BRANCH  26  29
ATOM     29  C   UNL     1       8.436  -2.846  -1.503  1.00  0.00     0.039 A 
ATOM     30  C   UNL     1       9.268  -3.776  -2.126  1.00  0.00     0.014 A 
ATOM     31  C   UNL     1       7.126  -2.661  -1.925  1.00  0.00     0.014 A 
ATOM     32  C   UNL     1       8.727  -4.576  -3.130  1.00  0.00     0.010 A 
ATOM     33  C   UNL     1       6.544  -3.604  -2.722  1.00  0.00     0.010 A 
ATOM     34  C   UNL     1       7.350  -4.501  -3.405  1.00  0.00    -0.014 A 
BRANCH  34  35
ATOM     35  C   UNL     1       6.717  -5.369  -4.388  1.00  0.00     0.031 A 
ATOM     36  C   UNL     1       7.054  -6.813  -4.277  1.00  0.00     0.074 A 
ATOM     37  C   UNL     1       5.786  -4.928  -5.264  1.00  0.00     0.049 A 
ATOM     38  N   UNL     1       7.738  -7.519  -5.115  1.00  0.00    -0.248 NA
ATOM     39  C   UNL     1       6.694  -7.531  -3.046  1.00  0.00     0.031 C 
ATOM     40  C   UNL     1       5.132  -3.614  -5.359  1.00  0.00     0.029 A 
ATOM     41  N   UNL     1       5.173  -5.628  -6.254  1.00  0.00    -0.354 N 
ATOM     42  C   UNL     1       7.780  -8.811  -4.600  1.00  0.00     0.074 A 
ATOM     43  C   UNL     1       7.227  -8.734  -3.271  1.00  0.00     0.031 C 
ATOM     44  C   UNL     1       4.071  -3.685  -6.193  1.00  0.00     0.029 A 
ATOM     45  C   UNL     1       4.097  -4.979  -6.842  1.00  0.00     0.049 A 
ATOM     46  H   UNL     1       5.469  -6.525  -6.532  1.00  0.00     0.167 HD
ATOM     47  C   UNL     1       8.113  -9.871  -5.388  1.00  0.00     0.037 A 
ATOM     48  C   UNL     1       3.292  -5.468  -7.814  1.00  0.00     0.037 A 
ATOM     49  C   UNL     1       8.750  -9.434  -6.604  1.00  0.00     0.049 A 
ATOM     50  C   UNL     1       4.049  -6.546  -8.494  1.00  0.00     0.074 A 
ATOM     51  C   UNL     1       9.941  -8.799  -6.899  1.00  0.00     0.029 A 
ATOM     52  N   UNL     1       7.969  -9.288  -7.724  1.00  0.00    -0.354 N 
ATOM     53  N   UNL     1       5.118  -6.334  -9.211  1.00  0.00    -0.248 NA
ATOM     54  C   UNL     1       3.891  -7.899  -7.988  1.00  0.00     0.031 C 
ATOM     55  C   UNL     1       9.628  -7.899  -7.962  1.00  0.00     0.029 A 
ATOM     56  C   UNL     1       8.285  -8.080  -8.295  1.00  0.00     0.049 A 
ATOM     57  H   UNL     1       7.302  -9.932  -8.056  1.00  0.00     0.167 HD
ATOM     58  C   UNL     1       5.969  -7.381  -8.893  1.00  0.00     0.074 A 
ATOM     59  C   UNL     1       5.128  -8.356  -8.201  1.00  0.00     0.031 C 
ATOM     60  C   UNL     1       7.325  -7.237  -8.972  1.00  0.00     0.037 A 
BRANCH  47  61
ATOM     61  C   UNL     1       7.591 -11.273  -5.215  1.00  0.00     0.064 A 
ATOM     62  C   UNL     1       8.146 -12.320  -5.979  1.00  0.00     0.173 A 
ATOM     63  C   UNL     1       6.383 -11.576  -4.552  1.00  0.00     0.173 A 
ATOM     64  F   UNL     1       9.285 -12.139  -6.664  1.00  0.00    -0.203 F 
ATOM     65  C   UNL     1       7.499 -13.551  -6.125  1.00  0.00     0.198 A 
ATOM     66  C   UNL     1       5.766 -12.821  -4.660  1.00  0.00     0.198 A 
ATOM     67  F   UNL     1       5.698 -10.650  -3.870  1.00  0.00    -0.203 F 
ATOM     68  F   UNL     1       8.002 -14.474  -6.956  1.00  0.00    -0.200 F 
ATOM     69  C   UNL     1       6.306 -13.798  -5.471  1.00  0.00     0.200 A 
ATOM     70  F   UNL     1       4.600 -13.035  -4.034  1.00  0.00    -0.200 F 
ATOM     71  F   UNL     1       5.652 -14.952  -5.658  1.00  0.00    -0.200 F 
ENDBRANCH  47  61
BRANCH  48  72
ATOM     72  C   UNL     1       1.823  -5.327  -7.929  1.00  0.00     0.064 A 
ATOM     73  C   UNL     1       1.163  -5.673  -9.118  1.00  0.00     0.173 A 
ATOM     74  C   UNL     1       1.016  -5.152  -6.787  1.00  0.00     0.173 A 
ATOM     75  F   UNL     1       1.866  -5.892 -10.238  1.00  0.00    -0.203 F 
ATOM     76  C   UNL     1      -0.219  -5.883  -9.152  1.00  0.00     0.198 A 
ATOM     77  C   UNL     1      -0.363  -5.358  -6.824  1.00  0.00     0.198 A 
ATOM     78  F   UNL     1       1.563  -4.882  -5.593  1.00  0.00    -0.203 F 
ATOM     79  F   UNL     1      -0.804  -6.288 -10.288  1.00  0.00    -0.200 F 
ATOM     80  C   UNL     1      -0.978  -5.741  -8.002  1.00  0.00     0.200 A 
ATOM     81  F   UNL     1      -1.082  -5.257  -5.697  1.00  0.00    -0.200 F 
ATOM     82  F   UNL     1      -2.289  -6.018  -8.017  1.00  0.00    -0.200 F 
ENDBRANCH  48  72
BRANCH  60  83
ATOM     83  C   UNL     1       7.851  -5.984  -9.627  1.00  0.00     0.064 A 
ATOM     84  C   UNL     1       7.640  -4.685  -9.127  1.00  0.00     0.173 A 
ATOM     85  C   UNL     1       8.699  -6.109 -10.733  1.00  0.00     0.173 A 
ATOM     86  F   UNL     1       6.927  -4.481  -8.016  1.00  0.00    -0.203 F 
ATOM     87  C   UNL     1       8.208  -3.567  -9.738  1.00  0.00     0.198 A 
ATOM     88  C   UNL     1       9.296  -4.995 -11.320  1.00  0.00     0.198 A 
ATOM     89  F   UNL     1       8.987  -7.325 -11.223  1.00  0.00    -0.203 F 
ATOM     90  F   UNL     1       7.973  -2.340  -9.249  1.00  0.00    -0.200 F 
ATOM     91  C   UNL     1       9.040  -3.724 -10.831  1.00  0.00     0.200 A 
ATOM     92  F   UNL     1      10.140  -5.157 -12.348  1.00  0.00    -0.200 F 
ATOM     93  F   UNL     1       9.616  -2.655 -11.399  1.00  0.00    -0.200 F 
ENDBRANCH  60  83
ENDBRANCH  34  35
ENDBRANCH  26  29
ENDBRANCH  24  25
ENDBRANCH  23  24
ENDBRANCH  22  23
ENDBRANCH   3  22
TORSDOF 15
