REMARK SMILES O=C(NCCCNC(=O)c1cc(/C=C/c2cc(O)cc(O)c2)ccc1O)c1ccc(-c2c3nc(c(-c4c(F)c(F)c(F)c(F)c4F)c4ccc([nH]4)c(-c4c(F)c(F)c(F)c(F)c4F)c4nc(c(-c5c(F)c(F)c(F)c(F)c5F)c5ccc2[nH]5)C=C4)C=C3)cc1
REMARK SMILES IDX 5 1 4 2 3 3 1 4 2 5 27 7 28 8 89 9 29 10 88 11 30 12 31 13
REMARK SMILES IDX 32 14 82 15 33 16 87 17 81 18 83 19 34 20 86 21 80 22 79 23
REMARK SMILES IDX 35 25 67 26 47 27 66 28 48 29 51 30 65 31 84 32 49 33 50 34
REMARK SMILES IDX 64 36 85 37 52 38 36 39 37 40 45 41 38 42 39 43 43 44 46 45
REMARK SMILES IDX 40 46 41 47 44 48 42 49 68 50 69 51 77 52 70 53 71 54 75 55
REMARK SMILES IDX 78 56 72 57 73 58 76 59 74 60 53 61 54 62 62 63 55 64 56 65
REMARK SMILES IDX 60 66 63 67 57 68 58 69 61 70 59 71 6 72 7 73 8 74 9 76
REMARK SMILES IDX 10 77 11 78 25 79 12 80 24 81 23 82 26 83 13 85 14 86 15 87
REMARK SMILES IDX 16 88 22 89 17 90 20 91 19 92 18 93 21 95
REMARK H PARENT 3 6 83 24 51 35 7 75 26 84 18 94 21 96
REMARK Flexibility Score: inf
ROOT
ATOM      1  C   UNL     1       4.984  -0.798   2.062  1.00  0.00     0.042 C 
ENDROOT
BRANCH   1   2
ATOM      2  C   UNL     1       4.564  -1.013   0.616  1.00  0.00     0.118 C 
BRANCH   2   3
ATOM      3  N   UNL     1       3.120  -0.959   0.432  1.00  0.00    -0.352 N 
ATOM      4  O   UNL     1       1.113  -0.068  -0.064  1.00  0.00    -0.269 OA
ATOM      5  C   UNL     1       2.336  -0.017  -0.181  1.00  0.00     0.251 C 
ATOM      6  H   UNL     1       2.627  -1.723   0.810  1.00  0.00     0.163 HD
BRANCH   5   7
ATOM      7  C   UNL     1       2.948   1.079  -0.961  1.00  0.00     0.039 A 
ATOM      8  C   UNL     1       4.018   0.842  -1.827  1.00  0.00     0.014 A 
ATOM      9  C   UNL     1       2.416   2.366  -0.846  1.00  0.00     0.014 A 
ATOM     10  C   UNL     1       4.655   1.908  -2.454  1.00  0.00     0.010 A 
ATOM     11  C   UNL     1       2.996   3.422  -1.551  1.00  0.00     0.010 A 
ATOM     12  C   UNL     1       4.141   3.207  -2.335  1.00  0.00    -0.014 A 
BRANCH  12  13
ATOM     13  C   UNL     1       4.771   4.331  -3.069  1.00  0.00     0.031 A 
ATOM     14  C   UNL     1       5.379   5.485  -2.326  1.00  0.00     0.074 A 
ATOM     15  C   UNL     1       4.759   4.323  -4.415  1.00  0.00     0.049 A 
ATOM     16  N   UNL     1       5.876   6.602  -2.794  1.00  0.00    -0.248 NA
ATOM     17  C   UNL     1       5.425   5.374  -0.861  1.00  0.00     0.031 C 
ATOM     18  C   UNL     1       4.202   3.254  -5.245  1.00  0.00     0.029 A 
ATOM     19  N   UNL     1       5.214   5.247  -5.321  1.00  0.00    -0.354 N 
ATOM     20  C   UNL     1       6.267   7.338  -1.684  1.00  0.00     0.074 A 
ATOM     21  C   UNL     1       5.925   6.552  -0.517  1.00  0.00     0.031 C 
ATOM     22  C   UNL     1       4.352   3.577  -6.536  1.00  0.00     0.029 A 
ATOM     23  C   UNL     1       4.950   4.905  -6.624  1.00  0.00     0.049 A 
ATOM     24  H   UNL     1       5.682   6.073  -5.063  1.00  0.00     0.167 HD
ATOM     25  C   UNL     1       6.859   8.557  -1.646  1.00  0.00     0.037 A 
ATOM     26  C   UNL     1       5.130   5.598  -7.763  1.00  0.00     0.037 A 
ATOM     27  C   UNL     1       7.194   9.326  -2.817  1.00  0.00     0.049 A 
ATOM     28  C   UNL     1       5.740   6.969  -7.696  1.00  0.00     0.074 A 
ATOM     29  C   UNL     1       7.828  10.554  -2.891  1.00  0.00     0.029 A 
ATOM     30  N   UNL     1       6.907   8.948  -4.122  1.00  0.00    -0.354 N 
ATOM     31  N   UNL     1       6.135   7.645  -6.645  1.00  0.00    -0.248 NA
ATOM     32  C   UNL     1       5.930   7.673  -8.971  1.00  0.00     0.031 C 
ATOM     33  C   UNL     1       7.864  10.949  -4.232  1.00  0.00     0.029 A 
ATOM     34  C   UNL     1       7.322   9.933  -5.005  1.00  0.00     0.049 A 
ATOM     35  H   UNL     1       6.472   8.104  -4.383  1.00  0.00     0.167 HD
ATOM     36  C   UNL     1       6.651   8.838  -7.130  1.00  0.00     0.074 A 
ATOM     37  C   UNL     1       6.516   8.794  -8.572  1.00  0.00     0.031 C 
ATOM     38  C   UNL     1       7.194   9.871  -6.441  1.00  0.00     0.037 A 
BRANCH  25  39
ATOM     39  C   UNL     1       7.141   9.150  -0.293  1.00  0.00     0.064 A 
ATOM     40  C   UNL     1       8.096   8.601   0.577  1.00  0.00     0.173 A 
ATOM     41  C   UNL     1       6.450  10.294   0.136  1.00  0.00     0.173 A 
ATOM     42  F   UNL     1       8.782   7.503   0.222  1.00  0.00    -0.203 F 
ATOM     43  C   UNL     1       8.312   9.144   1.841  1.00  0.00     0.198 A 
ATOM     44  C   UNL     1       6.696  10.857   1.386  1.00  0.00     0.198 A 
ATOM     45  F   UNL     1       5.534  10.869  -0.658  1.00  0.00    -0.203 F 
ATOM     46  F   UNL     1       9.178   8.560   2.681  1.00  0.00    -0.200 F 
ATOM     47  C   UNL     1       7.616  10.274   2.243  1.00  0.00     0.200 A 
ATOM     48  F   UNL     1       6.033  11.959   1.764  1.00  0.00    -0.200 F 
ATOM     49  F   UNL     1       7.822  10.794   3.461  1.00  0.00    -0.200 F 
ENDBRANCH  25  39
BRANCH  26  50
ATOM     50  C   UNL     1       4.710   4.994  -9.052  1.00  0.00     0.064 A 
ATOM     51  C   UNL     1       5.656   4.563  -9.990  1.00  0.00     0.173 A 
ATOM     52  C   UNL     1       3.353   4.784  -9.347  1.00  0.00     0.173 A 
ATOM     53  F   UNL     1       6.963   4.755  -9.759  1.00  0.00    -0.203 F 
ATOM     54  C   UNL     1       5.262   3.950 -11.178  1.00  0.00     0.198 A 
ATOM     55  C   UNL     1       2.962   4.144 -10.520  1.00  0.00     0.198 A 
ATOM     56  F   UNL     1       2.409   5.169  -8.476  1.00  0.00    -0.203 F 
ATOM     57  F   UNL     1       6.186   3.572 -12.072  1.00  0.00    -0.200 F 
ATOM     58  C   UNL     1       3.917   3.731 -11.437  1.00  0.00     0.200 A 
ATOM     59  F   UNL     1       1.663   3.915 -10.755  1.00  0.00    -0.200 F 
ATOM     60  F   UNL     1       3.541   3.123 -12.570  1.00  0.00    -0.200 F 
ENDBRANCH  26  50
BRANCH  38  61
ATOM     61  C   UNL     1       7.745  11.022  -7.232  1.00  0.00     0.064 A 
ATOM     62  C   UNL     1       6.913  11.944  -7.882  1.00  0.00     0.173 A 
ATOM     63  C   UNL     1       9.131  11.244  -7.274  1.00  0.00     0.173 A 
ATOM     64  F   UNL     1       5.583  11.768  -7.886  1.00  0.00    -0.203 F 
ATOM     65  C   UNL     1       7.449  13.040  -8.553  1.00  0.00     0.198 A 
ATOM     66  C   UNL     1       9.661  12.357  -7.918  1.00  0.00     0.198 A 
ATOM     67  F   UNL     1       9.971  10.393  -6.664  1.00  0.00    -0.203 F 
ATOM     68  F   UNL     1       6.638  13.891  -9.197  1.00  0.00    -0.200 F 
ATOM     69  C   UNL     1       8.820  13.252  -8.561  1.00  0.00     0.200 A 
ATOM     70  F   UNL     1      10.984  12.568  -7.910  1.00  0.00    -0.200 F 
ATOM     71  F   UNL     1       9.331  14.320  -9.190  1.00  0.00    -0.200 F 
ENDBRANCH  38  61
ENDBRANCH  12  13
ENDBRANCH   5   7
ENDBRANCH   2   3
ENDBRANCH   1   2
BRANCH   1  72
ATOM     72  C   UNL     1       4.485  -1.866   3.022  1.00  0.00     0.118 C 
BRANCH  72  73
ATOM     73  N   UNL     1       4.956  -3.195   2.671  1.00  0.00    -0.352 N 
ATOM     74  C   UNL     1       5.644  -4.101   3.435  1.00  0.00     0.255 C 
ATOM     75  H   UNL     1       4.751  -3.486   1.753  1.00  0.00     0.163 HD
ATOM     76  O   UNL     1       6.041  -5.146   2.921  1.00  0.00    -0.269 OA
BRANCH  74  77
ATOM     77  C   UNL     1       5.992  -3.802   4.840  1.00  0.00     0.082 A 
ATOM     78  C   UNL     1       7.339  -3.959   5.200  1.00  0.00     0.025 A 
ATOM     79  C   UNL     1       5.052  -3.422   5.801  1.00  0.00     0.128 A 
ATOM     80  C   UNL     1       7.770  -3.690   6.505  1.00  0.00    -0.025 A 
ATOM     81  C   UNL     1       5.468  -3.120   7.094  1.00  0.00     0.047 A 
ATOM     82  C   UNL     1       6.819  -3.247   7.438  1.00  0.00     0.012 A 
BRANCH  79  83
ATOM     83  O   UNL     1       3.724  -3.344   5.488  1.00  0.00    -0.507 OA
ATOM     84  H   UNL     1       3.434  -3.546   4.620  1.00  0.00     0.293 HD
ENDBRANCH  79  83
BRANCH  80  85
ATOM     85  C   UNL     1       9.163  -3.867   6.954  1.00  0.00     0.009 C 
ATOM     86  C   UNL     1      10.177  -4.344   6.213  1.00  0.00     0.009 C 
BRANCH  86  87
ATOM     87  C   UNL     1      11.533  -4.538   6.745  1.00  0.00    -0.018 A 
ATOM     88  C   UNL     1      11.754  -5.202   7.961  1.00  0.00     0.054 A 
ATOM     89  C   UNL     1      12.631  -4.112   5.986  1.00  0.00     0.054 A 
ATOM     90  C   UNL     1      13.056  -5.409   8.411  1.00  0.00     0.119 A 
ATOM     91  C   UNL     1      13.924  -4.327   6.457  1.00  0.00     0.119 A 
ATOM     92  C   UNL     1      14.145  -4.971   7.668  1.00  0.00     0.092 A 
BRANCH  90  93
ATOM     93  O   UNL     1      13.305  -6.054   9.587  1.00  0.00    -0.508 OA
ATOM     94  H   UNL     1      12.593  -6.362  10.112  1.00  0.00     0.293 HD
ENDBRANCH  90  93
BRANCH  91  95
ATOM     95  O   UNL     1      15.015  -3.920   5.745  1.00  0.00    -0.508 OA
ATOM     96  H   UNL     1      15.877  -4.074   6.079  1.00  0.00     0.293 HD
ENDBRANCH  91  95
ENDBRANCH  86  87
ENDBRANCH  80  85
ENDBRANCH  74  77
ENDBRANCH  72  73
ENDBRANCH   1  72
TORSDOF 15
