REMARK SMILES CC(C)[C@@H](CCNC(=O)N1C[C@@H](C)[C@H](C)C1)CCC(=O)NCCCNC(=O)c1ccc(-c2c3nc(c(-c4c(F)c(F)c(F)c(F)c4F)c4ccc([nH]4)c(-c4c(F)c(F)c(F)c(F)c4F)c4nc(c(-c5c(F)c(F)c(F)c(F)c5F)c5ccc2[nH]5)C=C4)C=C3)cc1
REMARK SMILES IDX 19 1 20 2 21 3 18 5 17 6 4 7 2 8 1 9 3 10 5 11 6 12 7 13
REMARK SMILES IDX 8 14 9 16 10 17 11 18 16 19 12 20 14 21 13 22 15 23 22 24
REMARK SMILES IDX 23 25 24 26 25 27 26 28 27 30 28 31 29 32 90 33 30 34 89 35
REMARK SMILES IDX 31 36 32 37 33 38 83 39 34 40 88 41 82 42 84 43 35 44 87 45
REMARK SMILES IDX 81 46 80 47 36 49 68 50 48 51 67 52 49 53 52 54 66 55 85 56
REMARK SMILES IDX 50 57 51 58 65 60 86 61 53 62 37 63 38 64 46 65 39 66 40 67
REMARK SMILES IDX 44 68 47 69 41 70 42 71 45 72 43 73 69 74 70 75 78 76 71 77
REMARK SMILES IDX 72 78 76 79 79 80 73 81 74 82 77 83 75 84 54 85 55 86 63 87
REMARK SMILES IDX 56 88 57 89 61 90 64 91 58 92 59 93 62 94 60 95
REMARK H PARENT 21 4 7 15 25 29 84 48 52 59
REMARK Flexibility Score: inf
ROOT
ATOM      1  C   UNL     1      -2.037  -1.929  -3.523  1.00  0.00     0.220 C 
ATOM      2  O   UNL     1      -3.074  -2.112  -4.165  1.00  0.00    -0.275 OA
ATOM      3  N   UNL     1      -1.763  -2.812  -2.523  1.00  0.00    -0.356 N 
ATOM      4  H   UNL     1      -2.385  -3.573  -2.470  1.00  0.00     0.163 HD
ENDROOT
BRANCH   1   5
ATOM      5  C   UNL     1      -1.076  -0.808  -3.901  1.00  0.00     0.100 C 
BRANCH   5   6
ATOM      6  C   UNL     1      -1.204   0.525  -3.140  1.00  0.00     0.014 C 
BRANCH   6   7
ATOM      7  C   UNL     1      -0.514   0.591  -1.760  1.00  0.00    -0.006 C 
BRANCH   7   8
ATOM      8  C   UNL     1       1.037   0.774  -1.718  1.00  0.00    -0.014 C 
ATOM      9  C   UNL     1       1.583   0.424  -0.320  1.00  0.00     0.007 C 
ATOM     10  C   UNL     1       1.846  -0.010  -2.750  1.00  0.00     0.007 C 
ENDBRANCH   7   8
BRANCH   7  11
ATOM     11  C   UNL     1      -1.258   1.542  -0.788  1.00  0.00     0.025 C 
BRANCH  11  12
ATOM     12  C   UNL     1      -0.830   3.006  -0.785  1.00  0.00     0.118 C 
BRANCH  12  13
ATOM     13  N   UNL     1      -1.385   3.731  -1.903  1.00  0.00    -0.338 N 
ATOM     14  C   UNL     1      -2.489   4.520  -1.901  1.00  0.00     0.317 C 
ATOM     15  H   UNL     1      -0.910   3.644  -2.761  1.00  0.00     0.165 HD
ATOM     16  O   UNL     1      -3.177   4.546  -2.920  1.00  0.00    -0.249 OA
ATOM     17  N   UNL     1      -2.783   5.242  -0.781  1.00  0.00    -0.324 N 
ATOM     18  C   UNL     1      -4.072   5.871  -0.612  1.00  0.00     0.125 C 
ATOM     19  C   UNL     1      -1.841   5.741   0.206  1.00  0.00     0.125 C 
ATOM     20  C   UNL     1      -3.749   7.245  -0.035  1.00  0.00     0.010 C 
ATOM     21  C   UNL     1      -2.431   7.048   0.738  1.00  0.00     0.010 C 
ATOM     22  C   UNL     1      -4.868   7.761   0.858  1.00  0.00     0.010 C 
ATOM     23  C   UNL     1      -1.465   8.212   0.550  1.00  0.00     0.010 C 
ENDBRANCH  12  13
ENDBRANCH  11  12
ENDBRANCH   7  11
ENDBRANCH   6   7
ENDBRANCH   5   6
ENDBRANCH   1   5
BRANCH   3  24
ATOM     24  C   UNL     1      -0.713  -2.827  -1.523  1.00  0.00     0.117 C 
BRANCH  24  25
ATOM     25  C   UNL     1      -1.249  -2.340  -0.175  1.00  0.00     0.042 C 
BRANCH  25  26
ATOM     26  C   UNL     1      -1.610  -3.461   0.773  1.00  0.00     0.118 C 
BRANCH  26  27
ATOM     27  N   UNL     1      -0.422  -4.127   1.290  1.00  0.00    -0.352 N 
ATOM     28  C   UNL     1       0.011  -4.303   2.582  1.00  0.00     0.251 C 
ATOM     29  H   UNL     1       0.165  -4.515   0.602  1.00  0.00     0.163 HD
ATOM     30  O   UNL     1       1.149  -4.711   2.782  1.00  0.00    -0.269 OA
BRANCH  28  31
ATOM     31  C   UNL     1      -0.870  -3.981   3.729  1.00  0.00     0.039 A 
ATOM     32  C   UNL     1      -0.292  -3.514   4.914  1.00  0.00     0.014 A 
ATOM     33  C   UNL     1      -2.252  -4.153   3.659  1.00  0.00     0.014 A 
ATOM     34  C   UNL     1      -1.105  -3.173   5.996  1.00  0.00     0.010 A 
ATOM     35  C   UNL     1      -3.067  -3.685   4.680  1.00  0.00     0.010 A 
ATOM     36  C   UNL     1      -2.503  -3.220   5.874  1.00  0.00    -0.014 A 
BRANCH  36  37
ATOM     37  C   UNL     1      -3.396  -2.835   6.995  1.00  0.00     0.031 A 
ATOM     38  C   UNL     1      -4.363  -3.840   7.563  1.00  0.00     0.074 A 
ATOM     39  C   UNL     1      -3.375  -1.571   7.460  1.00  0.00     0.049 A 
ATOM     40  N   UNL     1      -5.268  -3.686   8.496  1.00  0.00    -0.248 NA
ATOM     41  C   UNL     1      -4.338  -5.192   6.977  1.00  0.00     0.031 C 
ATOM     42  C   UNL     1      -2.524  -0.495   6.948  1.00  0.00     0.029 A 
ATOM     43  N   UNL     1      -4.093  -0.975   8.465  1.00  0.00    -0.354 N 
ATOM     44  C   UNL     1      -5.924  -4.907   8.590  1.00  0.00     0.074 A 
ATOM     45  C   UNL     1      -5.371  -5.767   7.570  1.00  0.00     0.031 C 
ATOM     46  C   UNL     1      -2.737   0.616   7.670  1.00  0.00     0.029 A 
ATOM     47  C   UNL     1      -3.772   0.345   8.663  1.00  0.00     0.049 A 
ATOM     48  H   UNL     1      -4.774  -1.450   8.995  1.00  0.00     0.167 HD
ATOM     49  C   UNL     1      -6.877  -5.289   9.473  1.00  0.00     0.037 A 
ATOM     50  C   UNL     1      -4.261   1.236   9.547  1.00  0.00     0.037 A 
ATOM     51  C   UNL     1      -7.398  -4.435  10.506  1.00  0.00     0.049 A 
ATOM     52  C   UNL     1      -5.321   0.787  10.516  1.00  0.00     0.074 A 
ATOM     53  C   UNL     1      -8.322  -4.734  11.491  1.00  0.00     0.029 A 
ATOM     54  N   UNL     1      -7.036  -3.107  10.686  1.00  0.00    -0.354 N 
ATOM     55  N   UNL     1      -5.882  -0.392  10.644  1.00  0.00    -0.248 NA
ATOM     56  C   UNL     1      -5.809   1.790  11.471  1.00  0.00     0.031 C 
ATOM     57  C   UNL     1      -8.560  -3.573  12.232  1.00  0.00     0.029 A 
ATOM     58  C   UNL     1      -7.737  -2.567  11.752  1.00  0.00     0.049 A 
ATOM     59  H   UNL     1      -6.379  -2.621  10.137  1.00  0.00     0.167 HD
ATOM     60  C   UNL     1      -6.765  -0.281  11.710  1.00  0.00     0.074 A 
ATOM     61  C   UNL     1      -6.648   1.075  12.205  1.00  0.00     0.031 C 
ATOM     62  C   UNL     1      -7.598  -1.215  12.232  1.00  0.00     0.037 A 
BRANCH  49  63
ATOM     63  C   UNL     1      -7.406  -6.692   9.363  1.00  0.00     0.064 A 
ATOM     64  C   UNL     1      -6.602  -7.809   9.646  1.00  0.00     0.173 A 
ATOM     65  C   UNL     1      -8.739  -6.925   8.994  1.00  0.00     0.173 A 
ATOM     66  F   UNL     1      -5.316  -7.646   9.990  1.00  0.00    -0.203 F 
ATOM     67  C   UNL     1      -7.103  -9.103   9.528  1.00  0.00     0.198 A 
ATOM     68  C   UNL     1      -9.246  -8.219   8.912  1.00  0.00     0.198 A 
ATOM     69  F   UNL     1      -9.554  -5.896   8.715  1.00  0.00    -0.203 F 
ATOM     70  F   UNL     1      -6.298 -10.152   9.743  1.00  0.00    -0.200 F 
ATOM     71  C   UNL     1      -8.426  -9.307   9.169  1.00  0.00     0.200 A 
ATOM     72  F   UNL     1     -10.530  -8.414   8.580  1.00  0.00    -0.200 F 
ATOM     73  F   UNL     1      -8.908 -10.553   9.063  1.00  0.00    -0.200 F 
ENDBRANCH  49  63
BRANCH  50  74
ATOM     74  C   UNL     1      -3.730   2.625   9.578  1.00  0.00     0.064 A 
ATOM     75  C   UNL     1      -2.983   3.085  10.672  1.00  0.00     0.173 A 
ATOM     76  C   UNL     1      -3.959   3.521   8.524  1.00  0.00     0.173 A 
ATOM     77  F   UNL     1      -2.748   2.272  11.712  1.00  0.00    -0.203 F 
ATOM     78  C   UNL     1      -2.509   4.394  10.722  1.00  0.00     0.198 A 
ATOM     79  C   UNL     1      -3.456   4.820   8.560  1.00  0.00     0.198 A 
ATOM     80  F   UNL     1      -4.659   3.129   7.449  1.00  0.00    -0.203 F 
ATOM     81  F   UNL     1      -1.841   4.822  11.802  1.00  0.00    -0.200 F 
ATOM     82  C   UNL     1      -2.741   5.259   9.663  1.00  0.00     0.200 A 
ATOM     83  F   UNL     1      -3.666   5.646   7.525  1.00  0.00    -0.200 F 
ATOM     84  F   UNL     1      -2.280   6.517   9.709  1.00  0.00    -0.200 F 
ENDBRANCH  50  74
BRANCH  62  85
ATOM     85  C   UNL     1      -8.418  -0.812  13.424  1.00  0.00     0.064 A 
ATOM     86  C   UNL     1      -9.474   0.105  13.320  1.00  0.00     0.173 A 
ATOM     87  C   UNL     1      -8.162  -1.379  14.682  1.00  0.00     0.173 A 
ATOM     88  F   UNL     1      -9.750   0.686  12.142  1.00  0.00    -0.203 F 
ATOM     89  C   UNL     1     -10.220   0.467  14.438  1.00  0.00     0.198 A 
ATOM     90  C   UNL     1      -8.934  -1.044  15.790  1.00  0.00     0.198 A 
ATOM     91  F   UNL     1      -7.170  -2.270  14.834  1.00  0.00    -0.203 F 
ATOM     92  F   UNL     1     -11.184   1.391  14.327  1.00  0.00    -0.200 F 
ATOM     93  C   UNL     1      -9.955  -0.113  15.669  1.00  0.00     0.200 A 
ATOM     94  F   UNL     1      -8.688  -1.619  16.975  1.00  0.00    -0.200 F 
ATOM     95  F   UNL     1     -10.678   0.231  16.743  1.00  0.00    -0.200 F 
ENDBRANCH  62  85
ENDBRANCH  36  37
ENDBRANCH  28  31
ENDBRANCH  26  27
ENDBRANCH  25  26
ENDBRANCH  24  25
ENDBRANCH   3  24
TORSDOF 16
