REMARK SMILES Cc1cc(C)c(S(=O)(=O)Nc2ccc(N3CC[NH+](C)CC3)c(C(=O)NCCCNC(=O)c3ccc(-c4c5nc(c(-c6c(F)c(F)c(F)c(F)c6F)c6ccc([nH]6)c(-c6c(F)c(F)c(F)c(F)c6F)c6nc(c(-c7c(F)c(F)c(F)c(F)c7F)c7ccc4[nH]7)C=C6)C=C5)cc3)c2)c(C)c1
REMARK SMILES IDX 26 1 25 2 23 3 24 4 22 6 11 7 12 8 95 9 13 10 14 11 10 12
REMARK SMILES IDX 7 14 8 15 9 16 6 17 1 18 2 19 3 20 98 21 4 22 96 23 5 24
REMARK SMILES IDX 97 25 15 26 16 27 21 28 17 29 20 30 18 31 19 32 27 34 28 35
REMARK SMILES IDX 29 36 30 37 31 39 32 40 33 41 94 42 34 43 93 44 35 45 36 46
REMARK SMILES IDX 37 47 87 48 38 49 92 50 86 51 88 52 39 53 91 54 85 55 84 56
REMARK SMILES IDX 40 58 72 59 52 60 71 61 53 62 56 63 70 64 89 65 54 66 55 67
REMARK SMILES IDX 69 69 90 70 57 71 41 72 42 73 50 74 43 75 44 76 48 77 51 78
REMARK SMILES IDX 45 79 46 80 49 81 47 82 73 83 74 84 82 85 75 86 76 87 80 88
REMARK SMILES IDX 83 89 77 90 78 91 81 92 79 93 58 94 59 95 67 96 60 97 61 98
REMARK SMILES IDX 65 99 68 100 62 101 63 102 66 103 64 104
REMARK H PARENT 25 5 10 13 18 33 29 38 88 57 56 68
REMARK Flexibility Score: inf
ROOT
ATOM      1  C   UNL     1       1.049  -1.080   2.580  1.00  0.00     0.118 C 
ENDROOT
BRANCH   1   2
ATOM      2  N   UNL     1       2.148  -1.966   2.901  1.00  0.00    -0.352 N 
ATOM      3  C   UNL     1       2.474  -3.242   2.510  1.00  0.00     0.253 C 
ATOM      4  O   UNL     1       3.386  -3.758   3.154  1.00  0.00    -0.269 OA
ATOM      5  H   UNL     1       2.796  -1.573   3.529  1.00  0.00     0.163 HD
BRANCH   3   6
ATOM      6  C   UNL     1       1.781  -3.980   1.399  1.00  0.00     0.065 A 
ATOM      7  C   UNL     1      -0.227  -4.345   0.077  1.00  0.00     0.050 A 
ATOM      8  C   UNL     1       0.430  -5.312  -0.673  1.00  0.00     0.029 A 
ATOM      9  C   UNL     1       0.396  -3.821   1.203  1.00  0.00     0.042 A 
ATOM     10  C   UNL     1       1.785  -5.535  -0.461  1.00  0.00     0.029 A 
ATOM     11  C   UNL     1       2.512  -4.792   0.489  1.00  0.00     0.050 A 
BRANCH   7  12
ATOM     12  N   UNL     1      -1.461  -3.876  -0.446  1.00  0.00    -0.280 N 
ATOM     13  H   UNL     1      -1.946  -4.491  -1.043  1.00  0.00     0.180 HD
BRANCH  12  14
ATOM     14  S   UNL     1      -2.179  -2.394  -0.161  1.00  0.00     0.262 S 
ATOM     15  O   UNL     1      -2.441  -2.344   1.271  1.00  0.00    -0.201 OA
ATOM     16  O   UNL     1      -3.255  -2.309  -1.117  1.00  0.00    -0.201 OA
BRANCH  14  17
ATOM     17  C   UNL     1      -1.078  -1.008  -0.519  1.00  0.00     0.093 A 
ATOM     18  C   UNL     1       1.845   2.176  -0.187  1.00  0.00     0.044 C 
ATOM     19  C   UNL     1       0.815   1.099  -0.351  1.00  0.00    -0.051 A 
ATOM     20  C   UNL     1      -0.479   1.278   0.128  1.00  0.00     0.008 A 
ATOM     21  C   UNL     1       1.101  -0.071  -1.054  1.00  0.00     0.008 A 
ATOM     22  C   UNL     1      -1.435   0.246   0.051  1.00  0.00    -0.030 A 
ATOM     23  C   UNL     1       0.156  -1.115  -1.193  1.00  0.00    -0.030 A 
ATOM     24  C   UNL     1      -2.829   0.615   0.504  1.00  0.00     0.046 C 
ATOM     25  C   UNL     1       0.570  -2.228  -2.107  1.00  0.00     0.046 C 
ENDBRANCH  14  17
ENDBRANCH  12  14
ENDBRANCH   7  12
BRANCH  11  26
ATOM     26  N   UNL     1       3.890  -4.760   0.364  1.00  0.00    -0.360 N 
ATOM     27  C   UNL     1       4.774  -5.455   1.308  1.00  0.00     0.178 C 
ATOM     28  C   UNL     1       4.494  -4.559  -0.962  1.00  0.00     0.178 C 
ATOM     29  C   UNL     1       6.088  -4.645   1.443  1.00  0.00     0.283 C 
ATOM     30  C   UNL     1       5.834  -3.806  -0.820  1.00  0.00     0.283 C 
ATOM     31  N   UNL     1       6.769  -4.446   0.133  1.00  0.00    -0.334 N 
ATOM     32  C   UNL     1       7.961  -3.617   0.295  1.00  0.00     0.332 C 
ATOM     33  H   UNL     1       7.055  -5.356  -0.230  1.00  0.00     0.347 HD
ENDBRANCH  11  26
ENDBRANCH   3   6
ENDBRANCH   1   2
BRANCH   1  34
ATOM     34  C   UNL     1      -0.060  -1.188   3.625  1.00  0.00     0.042 C 
BRANCH  34  35
ATOM     35  C   UNL     1       0.329  -0.590   4.970  1.00  0.00     0.118 C 
BRANCH  35  36
ATOM     36  N   UNL     1       0.372   0.863   4.928  1.00  0.00    -0.352 N 
ATOM     37  C   UNL     1      -0.188   1.770   5.790  1.00  0.00     0.251 C 
ATOM     38  H   UNL     1       0.874   1.250   4.175  1.00  0.00     0.163 HD
ATOM     39  O   UNL     1      -0.213   2.960   5.491  1.00  0.00    -0.269 OA
BRANCH  37  40
ATOM     40  C   UNL     1      -0.773   1.321   7.073  1.00  0.00     0.039 A 
ATOM     41  C   UNL     1      -1.969   1.904   7.503  1.00  0.00     0.014 A 
ATOM     42  C   UNL     1      -0.133   0.369   7.872  1.00  0.00     0.014 A 
ATOM     43  C   UNL     1      -2.535   1.515   8.718  1.00  0.00     0.010 A 
ATOM     44  C   UNL     1      -0.732  -0.068   9.051  1.00  0.00     0.010 A 
ATOM     45  C   UNL     1      -1.927   0.517   9.495  1.00  0.00    -0.014 A 
BRANCH  45  46
ATOM     46  C   UNL     1      -2.499   0.114  10.803  1.00  0.00     0.031 A 
ATOM     47  C   UNL     1      -1.750   0.410  12.072  1.00  0.00     0.074 A 
ATOM     48  C   UNL     1      -3.663  -0.560  10.846  1.00  0.00     0.049 A 
ATOM     49  N   UNL     1      -2.052   0.097  13.306  1.00  0.00    -0.248 NA
ATOM     50  C   UNL     1      -0.473   1.129  11.931  1.00  0.00     0.031 C 
ATOM     51  C   UNL     1      -4.455  -0.957   9.681  1.00  0.00     0.029 A 
ATOM     52  N   UNL     1      -4.379  -1.037  11.914  1.00  0.00    -0.354 N 
ATOM     53  C   UNL     1      -0.992   0.549  14.080  1.00  0.00     0.074 A 
ATOM     54  C   UNL     1      -0.021   1.125  13.176  1.00  0.00     0.031 C 
ATOM     55  C   UNL     1      -5.558  -1.599  10.098  1.00  0.00     0.029 A 
ATOM     56  C   UNL     1      -5.540  -1.676  11.556  1.00  0.00     0.049 A 
ATOM     57  H   UNL     1      -4.088  -0.930  12.849  1.00  0.00     0.167 HD
ATOM     58  C   UNL     1      -0.850   0.507  15.426  1.00  0.00     0.037 A 
ATOM     59  C   UNL     1      -6.484  -2.254  12.322  1.00  0.00     0.037 A 
ATOM     60  C   UNL     1      -1.840  -0.017  16.328  1.00  0.00     0.049 A 
ATOM     61  C   UNL     1      -6.337  -2.226  13.818  1.00  0.00     0.074 A 
ATOM     62  C   UNL     1      -1.826  -0.038  17.711  1.00  0.00     0.029 A 
ATOM     63  N   UNL     1      -3.032  -0.604  15.930  1.00  0.00    -0.354 N 
ATOM     64  N   UNL     1      -5.361  -1.739  14.543  1.00  0.00    -0.248 NA
ATOM     65  C   UNL     1      -7.431  -2.818  14.602  1.00  0.00     0.031 C 
ATOM     66  C   UNL     1      -3.000  -0.660  18.151  1.00  0.00     0.029 A 
ATOM     67  C   UNL     1      -3.759  -0.997  17.041  1.00  0.00     0.049 A 
ATOM     68  H   UNL     1      -3.318  -0.724  14.996  1.00  0.00     0.167 HD
ATOM     69  C   UNL     1      -5.729  -1.944  15.865  1.00  0.00     0.074 A 
ATOM     70  C   UNL     1      -7.026  -2.588  15.843  1.00  0.00     0.031 C 
ATOM     71  C   UNL     1      -5.052  -1.628  16.996  1.00  0.00     0.037 A 
BRANCH  58  72
ATOM     72  C   UNL     1       0.423   1.052  16.003  1.00  0.00     0.064 A 
ATOM     73  C   UNL     1       0.688   2.429  16.027  1.00  0.00     0.173 A 
ATOM     74  C   UNL     1       1.382   0.188  16.553  1.00  0.00     0.173 A 
ATOM     75  F   UNL     1      -0.191   3.295  15.500  1.00  0.00    -0.203 F 
ATOM     76  C   UNL     1       1.880   2.920  16.553  1.00  0.00     0.198 A 
ATOM     77  C   UNL     1       2.561   0.684  17.102  1.00  0.00     0.198 A 
ATOM     78  F   UNL     1       1.175  -1.137  16.558  1.00  0.00    -0.203 F 
ATOM     79  F   UNL     1       2.134   4.236  16.521  1.00  0.00    -0.200 F 
ATOM     80  C   UNL     1       2.813   2.048  17.095  1.00  0.00     0.200 A 
ATOM     81  F   UNL     1       3.458  -0.158  17.632  1.00  0.00    -0.200 F 
ATOM     82  F   UNL     1       3.959   2.522  17.602  1.00  0.00    -0.200 F 
ENDBRANCH  58  72
BRANCH  59  83
ATOM     83  C   UNL     1      -7.676  -2.864  11.683  1.00  0.00     0.064 A 
ATOM     84  C   UNL     1      -8.924  -2.228  11.743  1.00  0.00     0.173 A 
ATOM     85  C   UNL     1      -7.593  -4.080  10.992  1.00  0.00     0.173 A 
ATOM     86  F   UNL     1      -9.054  -1.072  12.411  1.00  0.00    -0.203 F 
ATOM     87  C   UNL     1     -10.048  -2.793  11.146  1.00  0.00     0.198 A 
ATOM     88  C   UNL     1      -8.714  -4.634  10.377  1.00  0.00     0.198 A 
ATOM     89  F   UNL     1      -6.420  -4.723  10.905  1.00  0.00    -0.203 F 
ATOM     90  F   UNL     1     -11.236  -2.182  11.246  1.00  0.00    -0.200 F 
ATOM     91  C   UNL     1      -9.941  -3.993  10.459  1.00  0.00     0.200 A 
ATOM     92  F   UNL     1      -8.606  -5.789   9.707  1.00  0.00    -0.200 F 
ATOM     93  F   UNL     1     -11.022  -4.535   9.881  1.00  0.00    -0.200 F 
ENDBRANCH  59  83
BRANCH  71  94
ATOM     94  C   UNL     1      -5.714  -1.950  18.301  1.00  0.00     0.064 A 
ATOM     95  C   UNL     1      -5.777  -3.264  18.784  1.00  0.00     0.173 A 
ATOM     96  C   UNL     1      -6.257  -0.927  19.092  1.00  0.00     0.173 A 
ATOM     97  F   UNL     1      -5.284  -4.276  18.054  1.00  0.00    -0.203 F 
ATOM     98  C   UNL     1      -6.378  -3.546  20.007  1.00  0.00     0.198 A 
ATOM     99  C   UNL     1      -6.838  -1.211  20.325  1.00  0.00     0.198 A 
ATOM    100  F   UNL     1      -6.217   0.346  18.673  1.00  0.00    -0.203 F 
ATOM    101  F   UNL     1      -6.461  -4.814  20.434  1.00  0.00    -0.200 F 
ATOM    102  C   UNL     1      -6.903  -2.520  20.779  1.00  0.00     0.200 A 
ATOM    103  F   UNL     1      -7.338  -0.217  21.073  1.00  0.00    -0.200 F 
ATOM    104  F   UNL     1      -7.478  -2.793  21.957  1.00  0.00    -0.200 F 
ENDBRANCH  71  94
ENDBRANCH  45  46
ENDBRANCH  37  40
ENDBRANCH  35  36
ENDBRANCH  34  35
ENDBRANCH   1  34
TORSDOF 14
