REMARK SMILES [NH3+]CC1([C@H](O)C(=O)NCCCNC(=O)c2ccc(-c3c4nc(c(-c5c(F)c(F)c(F)c(F)c5F)c5ccc([nH]5)c(-c5c(F)c(F)c(F)c(F)c5F)c5nc(c(-c6c(F)c(F)c(F)c(F)c6F)c6ccc3[nH]6)C=C5)C=C4)cc2)Cc2ccccc2C1
REMARK SMILES IDX 9 1 8 2 6 3 7 4 4 6 3 7 78 8 85 9 79 10 84 11 80 12 83 13
REMARK SMILES IDX 81 14 82 15 2 16 1 17 5 21 10 23 11 24 12 25 13 26 14 28
REMARK SMILES IDX 15 29 16 30 77 31 17 32 76 33 18 34 19 35 20 36 70 37 21 38
REMARK SMILES IDX 75 39 69 40 71 41 22 42 74 43 68 44 67 45 23 47 55 48 35 49
REMARK SMILES IDX 54 50 36 51 39 52 53 53 72 54 37 55 38 56 52 58 73 59 40 60
REMARK SMILES IDX 24 61 25 62 33 63 26 64 27 65 31 66 34 67 28 68 29 69 32 70
REMARK SMILES IDX 30 71 56 72 57 73 65 74 58 75 59 76 63 77 66 78 60 79 61 80
REMARK SMILES IDX 64 81 62 82 41 83 42 84 50 85 43 86 44 87 48 88 51 89 45 90
REMARK SMILES IDX 46 91 49 92 47 93
REMARK H PARENT 8 5 1 18 1 19 1 20 5 22 12 27 71 46 39 57
REMARK Flexibility Score: inf
ROOT
ATOM      1  C   UNL     1       1.338  -0.224  -0.631  1.00  0.00     0.117 C 
ENDROOT
BRANCH   1   2
ATOM      2  N   UNL     1       2.203   0.352   0.370  1.00  0.00    -0.354 N 
ATOM      3  C   UNL     1       2.882  -0.280   1.364  1.00  0.00     0.249 C 
ATOM      4  O   UNL     1       3.601   0.416   2.087  1.00  0.00    -0.272 OA
ATOM      5  H   UNL     1       2.316   1.329   0.328  1.00  0.00     0.163 HD
BRANCH   3   6
ATOM      6  C   UNL     1       2.720  -1.795   1.633  1.00  0.00     0.215 C 
BRANCH   6   7
ATOM      7  C   UNL     1       3.223  -2.824   0.545  1.00  0.00     0.062 C 
ATOM      8  C   UNL     1       3.960  -3.988   1.305  1.00  0.00     0.052 C 
ATOM      9  C   UNL     1       4.343  -2.214  -0.360  1.00  0.00     0.052 C 
ATOM     10  C   UNL     1       5.373  -3.493   1.358  1.00  0.00    -0.044 A 
ATOM     11  C   UNL     1       5.582  -2.476   0.426  1.00  0.00    -0.044 A 
ATOM     12  C   UNL     1       6.409  -3.953   2.151  1.00  0.00     0.004 A 
ATOM     13  C   UNL     1       6.823  -1.884   0.270  1.00  0.00     0.004 A 
ATOM     14  C   UNL     1       7.666  -3.360   2.006  1.00  0.00     0.000 A 
ATOM     15  C   UNL     1       7.871  -2.330   1.075  1.00  0.00     0.000 A 
BRANCH   7  16
ATOM     16  C   UNL     1       2.147  -3.465  -0.376  1.00  0.00     0.269 C 
BRANCH  16  17
ATOM     17  N   UNL     1       0.980  -4.030   0.292  1.00  0.00    -0.357 N 
ATOM     18  H   UNL     1       0.345  -4.420  -0.405  1.00  0.00     0.344 HD
ATOM     19  H   UNL     1       0.501  -3.299   0.817  1.00  0.00     0.344 HD
ATOM     20  H   UNL     1       1.278  -4.768   0.930  1.00  0.00     0.344 HD
ENDBRANCH  16  17
ENDBRANCH   7  16
ENDBRANCH   6   7
BRANCH   6  21
ATOM     21  O   UNL     1       1.384  -2.070   2.072  1.00  0.00    -0.382 OA
ATOM     22  H   UNL     1       0.763  -1.889   1.349  1.00  0.00     0.211 HD
ENDBRANCH   6  21
ENDBRANCH   3   6
ENDBRANCH   1   2
BRANCH   1  23
ATOM     23  C   UNL     1       0.158   0.648  -1.008  1.00  0.00     0.042 C 
BRANCH  23  24
ATOM     24  C   UNL     1       0.518   2.023  -1.542  1.00  0.00     0.118 C 
BRANCH  24  25
ATOM     25  N   UNL     1       1.211   1.999  -2.822  1.00  0.00    -0.352 N 
ATOM     26  C   UNL     1       0.828   2.489  -4.051  1.00  0.00     0.251 C 
ATOM     27  H   UNL     1       2.094   1.564  -2.807  1.00  0.00     0.163 HD
ATOM     28  O   UNL     1       1.520   2.272  -5.038  1.00  0.00    -0.269 OA
BRANCH  26  29
ATOM     29  C   UNL     1      -0.441   3.239  -4.193  1.00  0.00     0.039 A 
ATOM     30  C   UNL     1      -1.272   2.964  -5.282  1.00  0.00     0.014 A 
ATOM     31  C   UNL     1      -0.827   4.190  -3.248  1.00  0.00     0.014 A 
ATOM     32  C   UNL     1      -2.531   3.567  -5.364  1.00  0.00     0.010 A 
ATOM     33  C   UNL     1      -2.121   4.697  -3.266  1.00  0.00     0.010 A 
ATOM     34  C   UNL     1      -2.988   4.396  -4.327  1.00  0.00    -0.014 A 
BRANCH  34  35
ATOM     35  C   UNL     1      -4.360   4.968  -4.328  1.00  0.00     0.031 A 
ATOM     36  C   UNL     1      -4.552   6.461  -4.308  1.00  0.00     0.074 A 
ATOM     37  C   UNL     1      -5.430   4.151  -4.264  1.00  0.00     0.049 A 
ATOM     38  N   UNL     1      -5.657   7.154  -4.201  1.00  0.00    -0.248 NA
ATOM     39  C   UNL     1      -3.334   7.285  -4.380  1.00  0.00     0.031 C 
ATOM     40  C   UNL     1      -5.379   2.688  -4.219  1.00  0.00     0.029 A 
ATOM     41  N   UNL     1      -6.772   4.436  -4.212  1.00  0.00    -0.354 N 
ATOM     42  C   UNL     1      -5.265   8.486  -4.169  1.00  0.00     0.074 A 
ATOM     43  C   UNL     1      -3.819   8.504  -4.204  1.00  0.00     0.031 C 
ATOM     44  C   UNL     1      -6.631   2.204  -4.178  1.00  0.00     0.029 A 
ATOM     45  C   UNL     1      -7.571   3.320  -4.150  1.00  0.00     0.049 A 
ATOM     46  H   UNL     1      -7.128   5.353  -4.219  1.00  0.00     0.167 HD
ATOM     47  C   UNL     1      -6.039   9.597  -4.145  1.00  0.00     0.037 A 
ATOM     48  C   UNL     1      -8.911   3.210  -4.072  1.00  0.00     0.037 A 
ATOM     49  C   UNL     1      -7.478   9.578  -4.150  1.00  0.00     0.049 A 
ATOM     50  C   UNL     1      -9.750   4.459  -4.052  1.00  0.00     0.074 A 
ATOM     51  C   UNL     1      -8.354  10.648  -4.191  1.00  0.00     0.029 A 
ATOM     52  N   UNL     1      -8.251   8.427  -4.117  1.00  0.00    -0.354 N 
ATOM     53  N   UNL     1      -9.370   5.713  -4.090  1.00  0.00    -0.248 NA
ATOM     54  C   UNL     1     -11.207   4.277  -3.985  1.00  0.00     0.031 C 
ATOM     55  C   UNL     1      -9.659  10.145  -4.140  1.00  0.00     0.029 A 
ATOM     56  C   UNL     1      -9.595   8.761  -4.118  1.00  0.00     0.049 A 
ATOM     57  H   UNL     1      -7.897   7.508  -4.095  1.00  0.00     0.167 HD
ATOM     58  C   UNL     1     -10.536   6.466  -4.082  1.00  0.00     0.074 A 
ATOM     59  C   UNL     1     -11.639   5.528  -4.050  1.00  0.00     0.031 C 
ATOM     60  C   UNL     1     -10.680   7.814  -4.099  1.00  0.00     0.037 A 
BRANCH  47  61
ATOM     61  C   UNL     1      -5.343  10.927  -4.123  1.00  0.00     0.064 A 
ATOM     62  C   UNL     1      -4.630  11.402  -5.235  1.00  0.00     0.173 A 
ATOM     63  C   UNL     1      -5.412  11.750  -2.989  1.00  0.00     0.173 A 
ATOM     64  F   UNL     1      -4.521  10.648  -6.340  1.00  0.00    -0.203 F 
ATOM     65  C   UNL     1      -3.984  12.635  -5.200  1.00  0.00     0.198 A 
ATOM     66  C   UNL     1      -4.793  12.998  -2.970  1.00  0.00     0.198 A 
ATOM     67  F   UNL     1      -6.085  11.348  -1.901  1.00  0.00    -0.203 F 
ATOM     68  F   UNL     1      -3.263  13.042  -6.254  1.00  0.00    -0.200 F 
ATOM     69  C   UNL     1      -4.073  13.435  -4.071  1.00  0.00     0.200 A 
ATOM     70  F   UNL     1      -4.890  13.775  -1.883  1.00  0.00    -0.200 F 
ATOM     71  F   UNL     1      -3.457  14.625  -4.042  1.00  0.00    -0.200 F 
ENDBRANCH  47  61
BRANCH  48  72
ATOM     72  C   UNL     1      -9.548   1.866  -4.040  1.00  0.00     0.064 A 
ATOM     73  C   UNL     1     -10.295   1.401  -5.131  1.00  0.00     0.173 A 
ATOM     74  C   UNL     1      -9.431   1.026  -2.924  1.00  0.00     0.173 A 
ATOM     75  F   UNL     1     -10.453   2.177  -6.214  1.00  0.00    -0.203 F 
ATOM     76  C   UNL     1     -10.919   0.155  -5.099  1.00  0.00     0.198 A 
ATOM     77  C   UNL     1     -10.033  -0.231  -2.904  1.00  0.00     0.198 A 
ATOM     78  F   UNL     1      -8.724   1.422  -1.855  1.00  0.00    -0.203 F 
ATOM     79  F   UNL     1     -11.666  -0.244  -6.137  1.00  0.00    -0.200 F 
ATOM     80  C   UNL     1     -10.783  -0.662  -3.987  1.00  0.00     0.200 A 
ATOM     81  F   UNL     1      -9.888  -1.024  -1.833  1.00  0.00    -0.200 F 
ATOM     82  F   UNL     1     -11.381  -1.860  -3.957  1.00  0.00    -0.200 F 
ENDBRANCH  48  72
BRANCH  60  83
ATOM     83  C   UNL     1     -12.079   8.356  -4.126  1.00  0.00     0.064 A 
ATOM     84  C   UNL     1     -12.914   8.298  -3.000  1.00  0.00     0.173 A 
ATOM     85  C   UNL     1     -12.574   8.982  -5.281  1.00  0.00     0.173 A 
ATOM     86  F   UNL     1     -12.492   7.698  -1.877  1.00  0.00    -0.203 F 
ATOM     87  C   UNL     1     -14.202   8.825  -3.038  1.00  0.00     0.198 A 
ATOM     88  C   UNL     1     -13.851   9.534  -5.305  1.00  0.00     0.198 A 
ATOM     89  F   UNL     1     -11.812   9.069  -6.381  1.00  0.00    -0.203 F 
ATOM     90  F   UNL     1     -14.999   8.717  -1.966  1.00  0.00    -0.200 F 
ATOM     91  C   UNL     1     -14.666   9.449  -4.187  1.00  0.00     0.200 A 
ATOM     92  F   UNL     1     -14.292  10.149  -6.411  1.00  0.00    -0.200 F 
ATOM     93  F   UNL     1     -15.903   9.963  -4.218  1.00  0.00    -0.200 F 
ENDBRANCH  60  83
ENDBRANCH  34  35
ENDBRANCH  26  29
ENDBRANCH  24  25
ENDBRANCH  23  24
ENDBRANCH   1  23
TORSDOF 14
