REMARK SMILES CN(CCc1cccs1)C(=O)N[C@H](CC(N)=O)C(=O)NCCCNC(=O)c1ccc(-c2c3nc(c(-c4c(F)c(F)c(F)c(F)c4F)c4ccc([nH]4)c(-c4c(F)c(F)c(F)c(F)c4F)c4nc(c(-c5c(F)c(F)c(F)c(F)c5F)c5ccc2[nH]5)C=C4)C=C3)cc1
REMARK SMILES IDX 18 1 19 2 20 3 13 5 12 6 10 7 11 8 2 10 1 11 3 12 4 13 5 14
REMARK SMILES IDX 6 15 9 16 7 17 8 18 14 19 15 20 16 21 17 22 21 25 22 26
REMARK SMILES IDX 23 27 24 28 25 29 26 31 27 32 28 33 89 34 29 35 88 36 30 37
REMARK SMILES IDX 31 38 32 39 82 40 33 41 87 42 81 43 83 44 34 45 86 46 80 47
REMARK SMILES IDX 79 48 35 50 67 51 47 52 66 53 48 54 51 55 65 56 84 57 49 58
REMARK SMILES IDX 50 59 64 61 85 62 52 63 36 64 37 65 45 66 38 67 39 68 43 69
REMARK SMILES IDX 46 70 40 71 41 72 44 73 42 74 68 75 69 76 77 77 70 78 71 79
REMARK SMILES IDX 75 80 78 81 72 82 73 83 76 84 74 85 53 86 54 87 62 88 55 89
REMARK SMILES IDX 56 90 60 91 63 92 57 93 58 94 61 95 59 96
REMARK H PARENT 20 4 12 9 16 23 16 24 24 30 83 49 51 60
REMARK Flexibility Score: inf
ROOT
ATOM      1  C   UNL     1       1.198   3.952   0.384  1.00  0.00     0.243 C 
ATOM      2  O   UNL     1       1.882   3.535  -0.572  1.00  0.00    -0.273 OA
ATOM      3  N   UNL     1       1.862   4.907   1.080  1.00  0.00    -0.354 N 
ATOM      4  H   UNL     1       2.805   4.905   0.797  1.00  0.00     0.163 HD
ENDROOT
BRANCH   1   5
ATOM      5  C   UNL     1      -0.085   3.117   0.726  1.00  0.00     0.182 C 
BRANCH   5   6
ATOM      6  N   UNL     1      -1.327   3.708   1.212  1.00  0.00    -0.326 N 
ATOM      7  C   UNL     1      -2.389   3.987   0.395  1.00  0.00     0.317 C 
ATOM      8  O   UNL     1      -3.202   3.108   0.128  1.00  0.00    -0.249 OA
ATOM      9  H   UNL     1      -1.405   3.916   2.171  1.00  0.00     0.166 HD
BRANCH   7  10
ATOM     10  N   UNL     1      -2.535   5.307   0.033  1.00  0.00    -0.328 N 
ATOM     11  C   UNL     1      -3.722   5.726  -0.695  1.00  0.00     0.148 C 
BRANCH  10  12
ATOM     12  C   UNL     1      -1.599   6.343   0.435  1.00  0.00     0.126 C 
BRANCH  12  13
ATOM     13  C   UNL     1      -1.948   7.081   1.739  1.00  0.00     0.068 C 
BRANCH  13  14
ATOM     14  C   UNL     1      -2.062   6.286   3.028  1.00  0.00     0.006 A 
ATOM     15  C   UNL     1      -1.270   5.289   3.566  1.00  0.00     0.015 A 
ATOM     16  S   UNL     1      -3.321   6.672   4.138  1.00  0.00    -0.149 S 
ATOM     17  C   UNL     1      -1.686   4.825   4.840  1.00  0.00     0.012 A 
ATOM     18  C   UNL     1      -2.795   5.505   5.272  1.00  0.00     0.065 A 
ENDBRANCH  13  14
ENDBRANCH  12  13
ENDBRANCH  10  12
ENDBRANCH   7  10
ENDBRANCH   5   6
BRANCH   5  19
ATOM     19  C   UNL     1       0.413   1.883   1.524  1.00  0.00     0.134 C 
BRANCH  19  20
ATOM     20  C   UNL     1      -0.401   1.381   2.696  1.00  0.00     0.220 C 
ATOM     21  N   UNL     1       0.138   0.310   3.345  1.00  0.00    -0.370 N 
ATOM     22  O   UNL     1      -1.457   1.867   3.081  1.00  0.00    -0.275 OA
ATOM     23  H   UNL     1       0.988  -0.078   3.034  1.00  0.00     0.159 HD
ATOM     24  H   UNL     1      -0.322  -0.075   4.126  1.00  0.00     0.159 HD
ENDBRANCH  19  20
ENDBRANCH   5  19
ENDBRANCH   1   5
BRANCH   3  25
ATOM     25  C   UNL     1       1.679   5.943   2.107  1.00  0.00     0.117 C 
BRANCH  25  26
ATOM     26  C   UNL     1       2.253   5.584   3.481  1.00  0.00     0.042 C 
BRANCH  26  27
ATOM     27  C   UNL     1       2.729   6.790   4.307  1.00  0.00     0.118 C 
BRANCH  27  28
ATOM     28  N   UNL     1       1.709   7.638   4.908  1.00  0.00    -0.352 N 
ATOM     29  C   UNL     1       1.830   8.473   6.011  1.00  0.00     0.251 C 
ATOM     30  H   UNL     1       0.823   7.617   4.478  1.00  0.00     0.163 HD
ATOM     31  O   UNL     1       0.860   9.118   6.403  1.00  0.00    -0.269 OA
BRANCH  29  32
ATOM     32  C   UNL     1       3.108   8.548   6.774  1.00  0.00     0.039 A 
ATOM     33  C   UNL     1       3.072   8.530   8.175  1.00  0.00     0.014 A 
ATOM     34  C   UNL     1       4.343   8.598   6.130  1.00  0.00     0.014 A 
ATOM     35  C   UNL     1       4.262   8.432   8.912  1.00  0.00     0.010 A 
ATOM     36  C   UNL     1       5.519   8.407   6.855  1.00  0.00     0.010 A 
ATOM     37  C   UNL     1       5.496   8.301   8.255  1.00  0.00    -0.014 A 
BRANCH  37  38
ATOM     38  C   UNL     1       6.768   8.021   8.986  1.00  0.00     0.031 A 
ATOM     39  C   UNL     1       7.951   8.944   8.836  1.00  0.00     0.074 A 
ATOM     40  C   UNL     1       6.911   6.869   9.675  1.00  0.00     0.049 A 
ATOM     41  N   UNL     1       9.188   8.784   9.238  1.00  0.00    -0.248 NA
ATOM     42  C   UNL     1       7.723  10.193   8.092  1.00  0.00     0.031 C 
ATOM     43  C   UNL     1       5.879   5.843   9.838  1.00  0.00     0.029 A 
ATOM     44  N   UNL     1       7.994   6.351  10.347  1.00  0.00    -0.354 N 
ATOM     45  C   UNL     1       9.890   9.881   8.752  1.00  0.00     0.074 A 
ATOM     46  C   UNL     1       8.952  10.678   7.992  1.00  0.00     0.031 C 
ATOM     47  C   UNL     1       6.371   4.831  10.572  1.00  0.00     0.029 A 
ATOM     48  C   UNL     1       7.764   5.114  10.900  1.00  0.00     0.049 A 
ATOM     49  H   UNL     1       8.855   6.823  10.424  1.00  0.00     0.167 HD
ATOM     50  C   UNL     1      11.192  10.206   8.939  1.00  0.00     0.037 A 
ATOM     51  C   UNL     1       8.584   4.292  11.586  1.00  0.00     0.037 A 
ATOM     52  C   UNL     1      12.105   9.457   9.761  1.00  0.00     0.049 A 
ATOM     53  C   UNL     1      10.004   4.717  11.847  1.00  0.00     0.074 A 
ATOM     54  C   UNL     1      13.409   9.769  10.107  1.00  0.00     0.029 A 
ATOM     55  N   UNL     1      11.806   8.251  10.377  1.00  0.00    -0.354 N 
ATOM     56  N   UNL     1      10.630   5.798  11.452  1.00  0.00    -0.248 NA
ATOM     57  C   UNL     1      10.832   3.810  12.657  1.00  0.00     0.031 C 
ATOM     58  C   UNL     1      13.910   8.734  10.904  1.00  0.00     0.029 A 
ATOM     59  C   UNL     1      12.905   7.799  11.088  1.00  0.00     0.049 A 
ATOM     60  H   UNL     1      10.940   7.785  10.317  1.00  0.00     0.167 HD
ATOM     61  C   UNL     1      11.908   5.717  11.987  1.00  0.00     0.074 A 
ATOM     62  C   UNL     1      11.967   4.487  12.748  1.00  0.00     0.031 C 
ATOM     63  C   UNL     1      12.943   6.582  11.856  1.00  0.00     0.037 A 
BRANCH  50  64
ATOM     64  C   UNL     1      11.713  11.439   8.257  1.00  0.00     0.064 A 
ATOM     65  C   UNL     1      11.324  12.725   8.659  1.00  0.00     0.173 A 
ATOM     66  C   UNL     1      12.657  11.333   7.223  1.00  0.00     0.173 A 
ATOM     67  F   UNL     1      10.419  12.882   9.637  1.00  0.00    -0.203 F 
ATOM     68  C   UNL     1      11.835  13.858   8.030  1.00  0.00     0.198 A 
ATOM     69  C   UNL     1      13.189  12.469   6.618  1.00  0.00     0.198 A 
ATOM     70  F   UNL     1      13.072  10.127   6.807  1.00  0.00    -0.203 F 
ATOM     71  F   UNL     1      11.411  15.075   8.399  1.00  0.00    -0.200 F 
ATOM     72  C   UNL     1      12.773  13.729   7.017  1.00  0.00     0.200 A 
ATOM     73  F   UNL     1      14.106  12.343   5.649  1.00  0.00    -0.200 F 
ATOM     74  F   UNL     1      13.271  14.821   6.420  1.00  0.00    -0.200 F 
ENDBRANCH  50  64
BRANCH  51  75
ATOM     75  C   UNL     1       8.080   2.990  12.100  1.00  0.00     0.064 A 
ATOM     76  C   UNL     1       7.903   2.781  13.476  1.00  0.00     0.173 A 
ATOM     77  C   UNL     1       7.789   1.924  11.237  1.00  0.00     0.173 A 
ATOM     78  F   UNL     1       8.190   3.763  14.343  1.00  0.00    -0.203 F 
ATOM     79  C   UNL     1       7.481   1.548  13.970  1.00  0.00     0.198 A 
ATOM     80  C   UNL     1       7.339   0.700  11.731  1.00  0.00     0.198 A 
ATOM     81  F   UNL     1       7.936   2.072   9.913  1.00  0.00    -0.203 F 
ATOM     82  F   UNL     1       7.373   1.361  15.293  1.00  0.00    -0.200 F 
ATOM     83  C   UNL     1       7.195   0.510  13.097  1.00  0.00     0.200 A 
ATOM     84  F   UNL     1       7.051  -0.297  10.883  1.00  0.00    -0.200 F 
ATOM     85  F   UNL     1       6.791  -0.676  13.572  1.00  0.00    -0.200 F 
ENDBRANCH  51  75
BRANCH  63  86
ATOM     86  C   UNL     1      14.214   6.253  12.581  1.00  0.00     0.064 A 
ATOM     87  C   UNL     1      15.062   5.224  12.148  1.00  0.00     0.173 A 
ATOM     88  C   UNL     1      14.610   7.009  13.695  1.00  0.00     0.173 A 
ATOM     89  F   UNL     1      14.720   4.464  11.097  1.00  0.00    -0.203 F 
ATOM     90  C   UNL     1      16.252   4.949  12.818  1.00  0.00     0.198 A 
ATOM     91  C   UNL     1      15.813   6.749  14.345  1.00  0.00     0.198 A 
ATOM     92  F   UNL     1      13.836   8.008  14.145  1.00  0.00    -0.203 F 
ATOM     93  F   UNL     1      17.027   3.934  12.413  1.00  0.00    -0.200 F 
ATOM     94  C   UNL     1      16.630   5.716  13.910  1.00  0.00     0.200 A 
ATOM     95  F   UNL     1      16.183   7.499  15.393  1.00  0.00    -0.200 F 
ATOM     96  F   UNL     1      17.779   5.455  14.548  1.00  0.00    -0.200 F 
ENDBRANCH  63  86
ENDBRANCH  37  38
ENDBRANCH  29  32
ENDBRANCH  27  28
ENDBRANCH  26  27
ENDBRANCH  25  26
ENDBRANCH   3  25
TORSDOF 17
