REMARK SMILES Cc1noc(C)c1[C@H](C)NC(=O)NC[C@@](C)(O)C(=O)NCCCNC(=O)c1ccc(-c2c3nc(c(-c4c(F)c(F)c(F)c(F)c4F)c4ccc([nH]4)c(-c4c(F)c(F)c(F)c(F)c4F)c4nc(c(-c5c(F)c(F)c(F)c(F)c5F)c5ccc2[nH]5)C=C4)C=C3)cc1
REMARK SMILES IDX 21 1 20 2 18 3 19 4 15 6 16 7 14 8 13 9 10 10 11 11 12 13
REMARK SMILES IDX 8 15 9 16 7 17 1 18 2 19 3 20 4 21 5 22 6 23 17 24 22 26
REMARK SMILES IDX 23 27 24 28 25 29 26 31 27 32 28 33 89 34 29 35 88 36 30 37
REMARK SMILES IDX 31 38 32 39 82 40 33 41 87 42 81 43 83 44 34 45 86 46 80 47
REMARK SMILES IDX 79 48 35 50 67 51 47 52 66 53 48 54 51 55 65 56 84 57 49 58
REMARK SMILES IDX 50 59 64 61 85 62 52 63 36 64 37 65 45 66 38 67 39 68 43 69
REMARK SMILES IDX 46 70 40 71 41 72 44 73 42 74 68 75 69 76 77 77 70 78 71 79
REMARK SMILES IDX 75 80 78 81 72 82 73 83 76 84 74 85 53 86 54 87 62 88 55 89
REMARK SMILES IDX 56 90 60 91 63 92 57 93 58 94 61 95 59 96
REMARK H PARENT 20 5 10 12 13 14 17 25 24 30 83 49 51 60
REMARK Flexibility Score: inf
ROOT
ATOM      1  C   UNL     1       3.339   7.577  -1.607  1.00  0.00     0.117 C 
ENDROOT
BRANCH   1   2
ATOM      2  N   UNL     1       2.185   7.287  -0.775  1.00  0.00    -0.353 N 
ATOM      3  C   UNL     1       1.950   6.296   0.138  1.00  0.00     0.253 C 
ATOM      4  O   UNL     1       0.903   6.418   0.776  1.00  0.00    -0.272 OA
ATOM      5  H   UNL     1       1.437   7.917  -0.889  1.00  0.00     0.163 HD
BRANCH   3   6
ATOM      6  C   UNL     1       2.992   5.169   0.408  1.00  0.00     0.157 C 
ATOM      7  C   UNL     1       4.119   5.792   1.249  1.00  0.00     0.055 C 
BRANCH   6   8
ATOM      8  C   UNL     1       2.457   3.894   1.142  1.00  0.00     0.162 C 
BRANCH   8   9
ATOM      9  N   UNL     1       1.316   4.013   2.026  1.00  0.00    -0.335 N 
ATOM     10  N   UNL     1      -0.601   3.314   0.815  1.00  0.00    -0.331 N 
ATOM     11  C   UNL     1      -0.003   3.806   1.907  1.00  0.00     0.315 C 
ATOM     12  H   UNL     1      -1.583   3.375   0.852  1.00  0.00     0.165 HD
ATOM     13  O   UNL     1      -0.712   4.075   2.880  1.00  0.00    -0.249 OA
ATOM     14  H   UNL     1       1.569   4.317   2.927  1.00  0.00     0.165 HD
BRANCH  10  15
ATOM     15  C   UNL     1      -0.113   2.710  -0.411  1.00  0.00     0.116 C 
ATOM     16  C   UNL     1       0.226   1.247  -0.137  1.00  0.00     0.036 C 
BRANCH  15  17
ATOM     17  C   UNL     1      -1.121   2.943  -1.503  1.00  0.00     0.040 A 
ATOM     18  C   UNL     1      -1.040   5.562  -1.609  1.00  0.00     0.071 C 
ATOM     19  C   UNL     1      -1.507   4.220  -2.024  1.00  0.00     0.086 A 
ATOM     20  N   UNL     1      -2.380   4.107  -3.029  1.00  0.00    -0.085 NA
ATOM     21  O   UNL     1      -2.585   2.758  -3.193  1.00  0.00    -0.361 OA
ATOM     22  C   UNL     1      -1.832   2.062  -2.300  1.00  0.00     0.139 A 
ATOM     23  C   UNL     1      -1.944   0.594  -2.419  1.00  0.00     0.091 C 
ENDBRANCH  15  17
ENDBRANCH  10  15
ENDBRANCH   8   9
ENDBRANCH   6   8
BRANCH   6  24
ATOM     24  O   UNL     1       3.548   4.711  -0.839  1.00  0.00    -0.378 OA
ATOM     25  H   UNL     1       4.196   4.011  -0.666  1.00  0.00     0.212 HD
ENDBRANCH   6  24
ENDBRANCH   3   6
ENDBRANCH   1   2
BRANCH   1  26
ATOM     26  C   UNL     1       3.048   7.465  -3.100  1.00  0.00     0.042 C 
BRANCH  26  27
ATOM     27  C   UNL     1       1.934   8.374  -3.616  1.00  0.00     0.118 C 
BRANCH  27  28
ATOM     28  N   UNL     1       2.162   9.787  -3.339  1.00  0.00    -0.352 N 
ATOM     29  C   UNL     1       2.432  10.848  -4.163  1.00  0.00     0.251 C 
ATOM     30  H   UNL     1       2.112  10.023  -2.384  1.00  0.00     0.163 HD
ATOM     31  O   UNL     1       2.746  11.930  -3.658  1.00  0.00    -0.269 OA
BRANCH  29  32
ATOM     32  C   UNL     1       2.387  10.730  -5.637  1.00  0.00     0.039 A 
ATOM     33  C   UNL     1       3.346  11.416  -6.392  1.00  0.00     0.014 A 
ATOM     34  C   UNL     1       1.391  10.003  -6.292  1.00  0.00     0.014 A 
ATOM     35  C   UNL     1       3.353  11.310  -7.786  1.00  0.00     0.010 A 
ATOM     36  C   UNL     1       1.446   9.830  -7.675  1.00  0.00     0.010 A 
ATOM     37  C   UNL     1       2.429  10.478  -8.438  1.00  0.00    -0.014 A 
BRANCH  37  38
ATOM     38  C   UNL     1       2.486  10.265  -9.909  1.00  0.00     0.031 A 
ATOM     39  C   UNL     1       1.338  10.682 -10.788  1.00  0.00     0.074 A 
ATOM     40  C   UNL     1       3.546   9.632 -10.448  1.00  0.00     0.049 A 
ATOM     41  N   UNL     1       1.173  10.505 -12.076  1.00  0.00    -0.248 NA
ATOM     42  C   UNL     1       0.216  11.367 -10.129  1.00  0.00     0.031 C 
ATOM     43  C   UNL     1       4.705   9.139  -9.702  1.00  0.00     0.029 A 
ATOM     44  N   UNL     1       3.817   9.280 -11.749  1.00  0.00    -0.354 N 
ATOM     45  C   UNL     1      -0.074  11.039 -12.375  1.00  0.00     0.074 A 
ATOM     46  C   UNL     1      -0.644  11.502 -11.128  1.00  0.00     0.031 C 
ATOM     47  C   UNL     1       5.569   8.568 -10.556  1.00  0.00     0.029 A 
ATOM     48  C   UNL     1       5.008   8.614 -11.903  1.00  0.00     0.049 A 
ATOM     49  H   UNL     1       3.214   9.487 -12.499  1.00  0.00     0.167 HD
ATOM     50  C   UNL     1      -0.678  11.153 -13.582  1.00  0.00     0.037 A 
ATOM     51  C   UNL     1       5.579   8.086 -13.003  1.00  0.00     0.037 A 
ATOM     52  C   UNL     1      -0.101  10.711 -14.825  1.00  0.00     0.049 A 
ATOM     53  C   UNL     1       4.878   8.211 -14.329  1.00  0.00     0.074 A 
ATOM     54  C   UNL     1      -0.609  10.838 -16.107  1.00  0.00     0.029 A 
ATOM     55  N   UNL     1       1.114  10.052 -14.942  1.00  0.00    -0.354 N 
ATOM     56  N   UNL     1       3.732   8.780 -14.609  1.00  0.00    -0.248 NA
ATOM     57  C   UNL     1       5.556   7.625 -15.493  1.00  0.00     0.031 C 
ATOM     58  C   UNL     1       0.272  10.208 -16.992  1.00  0.00     0.029 A 
ATOM     59  C   UNL     1       1.359   9.742 -16.271  1.00  0.00     0.049 A 
ATOM     60  H   UNL     1       1.714   9.836 -14.192  1.00  0.00     0.167 HD
ATOM     61  C   UNL     1       3.564   8.648 -15.981  1.00  0.00     0.074 A 
ATOM     62  C   UNL     1       4.736   7.958 -16.479  1.00  0.00     0.031 C 
ATOM     63  C   UNL     1       2.533   9.061 -16.757  1.00  0.00     0.037 A 
BRANCH  50  64
ATOM     64  C   UNL     1      -2.042  11.784 -13.621  1.00  0.00     0.064 A 
ATOM     65  C   UNL     1      -2.230  13.150 -13.362  1.00  0.00     0.173 A 
ATOM     66  C   UNL     1      -3.170  11.021 -13.963  1.00  0.00     0.173 A 
ATOM     67  F   UNL     1      -1.187  13.923 -13.023  1.00  0.00    -0.203 F 
ATOM     68  C   UNL     1      -3.499  13.722 -13.413  1.00  0.00     0.198 A 
ATOM     69  C   UNL     1      -4.432  11.604 -14.045  1.00  0.00     0.198 A 
ATOM     70  F   UNL     1      -3.047   9.712 -14.230  1.00  0.00    -0.203 F 
ATOM     71  F   UNL     1      -3.660  15.018 -13.113  1.00  0.00    -0.200 F 
ATOM     72  C   UNL     1      -4.597  12.951 -13.761  1.00  0.00     0.200 A 
ATOM     73  F   UNL     1      -5.490  10.861 -14.398  1.00  0.00    -0.200 F 
ATOM     74  F   UNL     1      -5.816  13.505 -13.819  1.00  0.00    -0.200 F 
ENDBRANCH  50  64
BRANCH  51  75
ATOM     75  C   UNL     1       6.896   7.402 -12.901  1.00  0.00     0.064 A 
ATOM     76  C   UNL     1       8.044   7.963 -13.478  1.00  0.00     0.173 A 
ATOM     77  C   UNL     1       7.034   6.176 -12.235  1.00  0.00     0.173 A 
ATOM     78  F   UNL     1       7.959   9.124 -14.144  1.00  0.00    -0.203 F 
ATOM     79  C   UNL     1       9.274   7.312 -13.413  1.00  0.00     0.198 A 
ATOM     80  C   UNL     1       8.271   5.541 -12.143  1.00  0.00     0.198 A 
ATOM     81  F   UNL     1       5.968   5.599 -11.661  1.00  0.00    -0.203 F 
ATOM     82  F   UNL     1      10.345   7.847 -14.016  1.00  0.00    -0.200 F 
ATOM     83  C   UNL     1       9.388   6.105 -12.740  1.00  0.00     0.200 A 
ATOM     84  F   UNL     1       8.380   4.383 -11.478  1.00  0.00    -0.200 F 
ATOM     85  F   UNL     1      10.572   5.482 -12.674  1.00  0.00    -0.200 F 
ENDBRANCH  51  75
BRANCH  63  86
ATOM     86  C   UNL     1       2.639   8.815 -18.235  1.00  0.00     0.064 A 
ATOM     87  C   UNL     1       2.534   7.526 -18.778  1.00  0.00     0.173 A 
ATOM     88  C   UNL     1       2.811   9.889 -19.122  1.00  0.00     0.173 A 
ATOM     89  F   UNL     1       2.385   6.463 -17.972  1.00  0.00    -0.203 F 
ATOM     90  C   UNL     1       2.625   7.319 -20.152  1.00  0.00     0.198 A 
ATOM     91  C   UNL     1       2.869   9.681 -20.497  1.00  0.00     0.198 A 
ATOM     92  F   UNL     1       2.912  11.142 -18.655  1.00  0.00    -0.203 F 
ATOM     93  F   UNL     1       2.573   6.073 -20.645  1.00  0.00    -0.200 F 
ATOM     94  C   UNL     1       2.784   8.396 -21.011  1.00  0.00     0.200 A 
ATOM     95  F   UNL     1       3.008  10.726 -21.325  1.00  0.00    -0.200 F 
ATOM     96  F   UNL     1       2.863   8.195 -22.333  1.00  0.00    -0.200 F 
ENDBRANCH  63  86
ENDBRANCH  37  38
ENDBRANCH  29  32
ENDBRANCH  27  28
ENDBRANCH  26  27
ENDBRANCH   1  26
TORSDOF 15
