REMARK SMILES CC(C)(CC(=O)NCCCNC(=O)c1ccc(-c2c3nc(c(-c4c(F)c(F)c(F)c(F)c4F)c4ccc([nH]4)c(-c4c(F)c(F)c(F)c(F)c4F)c4nc(c(-c5c(F)c(F)c(F)c(F)c5F)c5ccc2[nH]5)C=C4)C=C3)cc1)c1c(F)cc(F)cc1F
REMARK SMILES IDX 9 1 8 2 7 3 5 4 6 5 4 7 2 8 1 9 3 10 77 11 78 12 84 13 79 14
REMARK SMILES IDX 80 15 83 16 85 17 81 18 82 19 10 20 11 21 12 22 13 24 14 25
REMARK SMILES IDX 15 26 76 27 16 28 75 29 17 30 18 31 19 32 69 33 20 34 74 35
REMARK SMILES IDX 68 36 70 37 21 38 73 39 67 40 66 41 22 43 54 44 34 45 53 46
REMARK SMILES IDX 35 47 38 48 52 49 71 50 36 51 37 52 51 54 72 55 39 56 23 57
REMARK SMILES IDX 24 58 32 59 25 60 26 61 30 62 33 63 27 64 28 65 31 66 29 67
REMARK SMILES IDX 55 68 56 69 64 70 57 71 58 72 62 73 65 74 59 75 60 76 63 77
REMARK SMILES IDX 61 78 40 79 41 80 49 81 42 82 43 83 47 84 50 85 44 86 45 87
REMARK SMILES IDX 48 88 46 89
REMARK H PARENT 7 6 11 23 70 42 38 53
REMARK Flexibility Score: inf
ROOT
ATOM      1  C   UNL     1       0.455  -1.691   2.065  1.00  0.00     0.042 C 
ENDROOT
BRANCH   1   2
ATOM      2  C   UNL     1      -0.748  -1.330   1.196  1.00  0.00     0.117 C 
BRANCH   2   3
ATOM      3  N   UNL     1      -1.228   0.013   1.469  1.00  0.00    -0.356 N 
ATOM      4  C   UNL     1      -1.214   1.143   0.717  1.00  0.00     0.220 C 
ATOM      5  O   UNL     1      -1.673   2.168   1.228  1.00  0.00    -0.275 OA
ATOM      6  H   UNL     1      -1.637   0.124   2.357  1.00  0.00     0.163 HD
BRANCH   4   7
ATOM      7  C   UNL     1      -0.690   1.152  -0.708  1.00  0.00     0.111 C 
BRANCH   7   8
ATOM      8  C   UNL     1       0.771   1.646  -0.917  1.00  0.00     0.004 C 
ATOM      9  C   UNL     1       1.772   0.486  -0.707  1.00  0.00     0.017 C 
ATOM     10  C   UNL     1       0.931   1.969  -2.432  1.00  0.00     0.017 C 
BRANCH   8  11
ATOM     11  C   UNL     1       1.074   2.870  -0.029  1.00  0.00     0.030 A 
ATOM     12  C   UNL     1       1.607   2.745   1.271  1.00  0.00     0.132 A 
ATOM     13  C   UNL     1       0.749   4.181  -0.424  1.00  0.00     0.132 A 
ATOM     14  F   UNL     1       1.886   1.542   1.790  1.00  0.00    -0.206 F 
ATOM     15  C   UNL     1       1.835   3.842   2.101  1.00  0.00     0.079 A 
ATOM     16  C   UNL     1       0.976   5.290   0.391  1.00  0.00     0.079 A 
ATOM     17  F   UNL     1       0.178   4.419  -1.611  1.00  0.00    -0.206 F 
ATOM     18  C   UNL     1       1.520   5.109   1.649  1.00  0.00     0.129 A 
ATOM     19  F   UNL     1       1.730   6.167   2.441  1.00  0.00    -0.207 F 
ENDBRANCH   8  11
ENDBRANCH   7   8
ENDBRANCH   4   7
ENDBRANCH   2   3
ENDBRANCH   1   2
BRANCH   1  20
ATOM     20  C   UNL     1       0.159  -1.750   3.558  1.00  0.00     0.118 C 
BRANCH  20  21
ATOM     21  N   UNL     1      -0.378  -3.036   3.966  1.00  0.00    -0.352 N 
ATOM     22  C   UNL     1       0.215  -4.063   4.659  1.00  0.00     0.251 C 
ATOM     23  H   UNL     1      -1.313  -3.197   3.705  1.00  0.00     0.163 HD
ATOM     24  O   UNL     1      -0.351  -5.155   4.713  1.00  0.00    -0.269 OA
BRANCH  22  25
ATOM     25  C   UNL     1       1.528  -3.894   5.328  1.00  0.00     0.039 A 
ATOM     26  C   UNL     1       2.433  -4.960   5.304  1.00  0.00     0.014 A 
ATOM     27  C   UNL     1       1.853  -2.734   6.037  1.00  0.00     0.014 A 
ATOM     28  C   UNL     1       3.671  -4.848   5.947  1.00  0.00     0.010 A 
ATOM     29  C   UNL     1       3.119  -2.590   6.606  1.00  0.00     0.010 A 
ATOM     30  C   UNL     1       4.035  -3.652   6.586  1.00  0.00    -0.014 A 
BRANCH  30  31
ATOM     31  C   UNL     1       5.345  -3.514   7.277  1.00  0.00     0.031 A 
ATOM     32  C   UNL     1       5.394  -3.303   8.767  1.00  0.00     0.074 A 
ATOM     33  C   UNL     1       6.489  -3.527   6.566  1.00  0.00     0.049 A 
ATOM     34  N   UNL     1       6.429  -3.091   9.542  1.00  0.00    -0.248 NA
ATOM     35  C   UNL     1       4.106  -3.304   9.478  1.00  0.00     0.031 C 
ATOM     36  C   UNL     1       6.580  -3.681   5.114  1.00  0.00     0.029 A 
ATOM     37  N   UNL     1       7.795  -3.401   6.970  1.00  0.00    -0.354 N 
ATOM     38  C   UNL     1       5.915  -2.909  10.819  1.00  0.00     0.074 A 
ATOM     39  C   UNL     1       4.475  -2.990  10.711  1.00  0.00     0.031 C 
ATOM     40  C   UNL     1       7.873  -3.662   4.751  1.00  0.00     0.029 A 
ATOM     41  C   UNL     1       8.700  -3.462   5.938  1.00  0.00     0.049 A 
ATOM     42  H   UNL     1       8.058  -3.278   7.910  1.00  0.00     0.167 HD
ATOM     43  C   UNL     1       6.582  -2.715  11.982  1.00  0.00     0.037 A 
ATOM     44  C   UNL     1      10.043  -3.364   5.948  1.00  0.00     0.037 A 
ATOM     45  C   UNL     1       8.016  -2.679  12.101  1.00  0.00     0.049 A 
ATOM     46  C   UNL     1      10.762  -3.168   7.255  1.00  0.00     0.074 A 
ATOM     47  C   UNL     1       8.785  -2.557  13.246  1.00  0.00     0.029 A 
ATOM     48  N   UNL     1       8.898  -2.772  11.035  1.00  0.00    -0.354 N 
ATOM     49  N   UNL     1      10.266  -3.055   8.463  1.00  0.00    -0.248 NA
ATOM     50  C   UNL     1      12.229  -3.092   7.199  1.00  0.00     0.031 C 
ATOM     51  C   UNL     1      10.132  -2.542  12.869  1.00  0.00     0.029 A 
ATOM     52  C   UNL     1      10.203  -2.694  11.494  1.00  0.00     0.049 A 
ATOM     53  H   UNL     1       8.635  -2.878  10.092  1.00  0.00     0.167 HD
ATOM     54  C   UNL     1      11.356  -2.921   9.311  1.00  0.00     0.074 A 
ATOM     55  C   UNL     1      12.542  -2.978   8.482  1.00  0.00     0.031 C 
ATOM     56  C   UNL     1      11.373  -2.763  10.657  1.00  0.00     0.037 A 
BRANCH  43  57
ATOM     57  C   UNL     1       5.765  -2.534  13.228  1.00  0.00     0.064 A 
ATOM     58  C   UNL     1       5.064  -3.602  13.808  1.00  0.00     0.173 A 
ATOM     59  C   UNL     1       5.707  -1.286  13.867  1.00  0.00     0.173 A 
ATOM     60  F   UNL     1       5.077  -4.812  13.229  1.00  0.00    -0.203 F 
ATOM     61  C   UNL     1       4.312  -3.420  14.966  1.00  0.00     0.198 A 
ATOM     62  C   UNL     1       4.978  -1.115  15.040  1.00  0.00     0.198 A 
ATOM     63  F   UNL     1       6.365  -0.234  13.356  1.00  0.00    -0.203 F 
ATOM     64  F   UNL     1       3.613  -4.443  15.476  1.00  0.00    -0.200 F 
ATOM     65  C   UNL     1       4.275  -2.179  15.584  1.00  0.00     0.200 A 
ATOM     66  F   UNL     1       4.951   0.082  15.643  1.00  0.00    -0.200 F 
ATOM     67  F   UNL     1       3.555  -2.007  16.702  1.00  0.00    -0.200 F 
ENDBRANCH  43  57
BRANCH  44  68
ATOM     68  C   UNL     1      10.801  -3.480   4.676  1.00  0.00     0.064 A 
ATOM     69  C   UNL     1      11.570  -4.619   4.402  1.00  0.00     0.173 A 
ATOM     70  C   UNL     1      10.772  -2.463   3.712  1.00  0.00     0.173 A 
ATOM     71  F   UNL     1      11.646  -5.609   5.305  1.00  0.00    -0.203 F 
ATOM     72  C   UNL     1      12.295  -4.730   3.218  1.00  0.00     0.198 A 
ATOM     73  C   UNL     1      11.478  -2.585   2.517  1.00  0.00     0.198 A 
ATOM     74  F   UNL     1      10.049  -1.354   3.927  1.00  0.00    -0.203 F 
ATOM     75  F   UNL     1      13.054  -5.812   2.998  1.00  0.00    -0.200 F 
ATOM     76  C   UNL     1      12.244  -3.715   2.274  1.00  0.00     0.200 A 
ATOM     77  F   UNL     1      11.417  -1.608   1.602  1.00  0.00    -0.200 F 
ATOM     78  F   UNL     1      12.937  -3.824   1.132  1.00  0.00    -0.200 F 
ENDBRANCH  44  68
BRANCH  56  79
ATOM     79  C   UNL     1      12.713  -2.672  11.323  1.00  0.00     0.064 A 
ATOM     80  C   UNL     1      13.505  -1.518  11.224  1.00  0.00     0.173 A 
ATOM     81  C   UNL     1      13.192  -3.735  12.102  1.00  0.00     0.173 A 
ATOM     82  F   UNL     1      13.096  -0.481  10.477  1.00  0.00    -0.203 F 
ATOM     83  C   UNL     1      14.738  -1.441  11.866  1.00  0.00     0.198 A 
ATOM     84  C   UNL     1      14.414  -3.645  12.763  1.00  0.00     0.198 A 
ATOM     85  F   UNL     1      12.470  -4.858  12.232  1.00  0.00    -0.203 F 
ATOM     86  F   UNL     1      15.496  -0.345  11.726  1.00  0.00    -0.200 F 
ATOM     87  C   UNL     1      15.188  -2.501  12.640  1.00  0.00     0.200 A 
ATOM     88  F   UNL     1      14.844  -4.665  13.518  1.00  0.00    -0.200 F 
ATOM     89  F   UNL     1      16.373  -2.421  13.261  1.00  0.00    -0.200 F 
ENDBRANCH  56  79
ENDBRANCH  30  31
ENDBRANCH  22  25
ENDBRANCH  20  21
ENDBRANCH   1  20
TORSDOF 12
