REMARK SMILES CC1=C(C(=O)NCCCNC(=O)c2ccc(-c3c4nc(c(-c5c(F)c(F)c(F)c(F)c5F)c5ccc([nH]5)c(-c5c(F)c(F)c(F)c(F)c5F)c5nc(c(-c6c(F)c(F)c(F)c(F)c6F)c6ccc3[nH]6)C=C5)C=C4)cc2)N2C(=O)[C@@H](NC(=O)c3ccn(C)n3)[C@H]2SC1
REMARK SMILES IDX 8 1 7 2 6 3 4 4 5 5 3 7 1 8 2 9 91 10 76 11 90 12 77 13
REMARK SMILES IDX 89 14 78 15 79 16 80 17 81 18 82 20 83 21 84 22 88 23 85 24
REMARK SMILES IDX 86 25 87 26 9 27 10 28 11 29 12 31 13 32 14 33 75 34 15 35
REMARK SMILES IDX 74 36 16 37 17 38 18 39 68 40 19 41 73 42 67 43 69 44 20 45
REMARK SMILES IDX 72 46 66 47 65 48 21 50 53 51 33 52 52 53 34 54 37 55 51 56
REMARK SMILES IDX 70 57 35 58 36 59 50 61 71 62 38 63 22 64 23 65 31 66 24 67
REMARK SMILES IDX 25 68 29 69 32 70 26 71 27 72 30 73 28 74 54 75 55 76 63 77
REMARK SMILES IDX 56 78 57 79 61 80 64 81 58 82 59 83 62 84 60 85 39 86 40 87
REMARK SMILES IDX 48 88 41 89 42 90 46 91 49 92 43 93 44 94 47 95 45 96
REMARK H PARENT 6 6 80 19 10 30 69 49 37 60
REMARK Flexibility Score: inf
ROOT
ATOM      1  C   UNL     1       3.107  -3.830   2.220  1.00  0.00     0.042 C 
ENDROOT
BRANCH   1   2
ATOM      2  C   UNL     1       2.742  -3.058   0.972  1.00  0.00     0.118 C 
BRANCH   2   3
ATOM      3  N   UNL     1       1.473  -3.391   0.361  1.00  0.00    -0.351 N 
ATOM      4  C   UNL     1       0.628  -2.590  -0.357  1.00  0.00     0.268 C 
ATOM      5  O   UNL     1      -0.276  -3.121  -1.004  1.00  0.00    -0.268 OA
ATOM      6  H   UNL     1       1.176  -4.322   0.479  1.00  0.00     0.163 HD
BRANCH   4   7
ATOM      7  C   UNL     1       0.750  -1.085  -0.318  1.00  0.00     0.110 C 
ATOM      8  C   UNL     1       3.163  -0.875  -1.072  1.00  0.00     0.043 C 
ATOM      9  C   UNL     1       1.873  -0.344  -0.503  1.00  0.00    -0.034 C 
ATOM     10  C   UNL     1       1.957   1.155  -0.201  1.00  0.00     0.104 C 
ATOM     11  N   UNL     1      -0.428  -0.411  -0.260  1.00  0.00    -0.290 N 
ATOM     12  S   UNL     1       0.386   1.970   0.257  1.00  0.00    -0.129 SA
ATOM     13  C   UNL     1      -1.724  -0.596   0.054  1.00  0.00     0.253 C 
ATOM     14  C   UNL     1      -0.563   0.904  -0.845  1.00  0.00     0.181 C 
ATOM     15  O   UNL     1      -2.328  -1.462   0.643  1.00  0.00    -0.272 OA
ATOM     16  C   UNL     1      -2.082   0.732  -0.674  1.00  0.00     0.206 C 
BRANCH  16  17
ATOM     17  N   UNL     1      -2.825   1.787   0.044  1.00  0.00    -0.336 N 
ATOM     18  C   UNL     1      -3.828   2.585  -0.479  1.00  0.00     0.272 C 
ATOM     19  H   UNL     1      -2.583   1.938   0.986  1.00  0.00     0.164 HD
ATOM     20  O   UNL     1      -4.220   3.554   0.170  1.00  0.00    -0.267 OA
BRANCH  18  21
ATOM     21  C   UNL     1      -4.363   2.234  -1.806  1.00  0.00     0.150 A 
ATOM     22  C   UNL     1      -4.886   0.977  -2.228  1.00  0.00     0.056 A 
ATOM     23  N   UNL     1      -4.365   3.109  -2.830  1.00  0.00    -0.168 NA
ATOM     24  C   UNL     1      -5.165   1.122  -3.565  1.00  0.00     0.109 A 
ATOM     25  N   UNL     1      -4.885   2.421  -3.861  1.00  0.00    -0.275 N 
ATOM     26  C   UNL     1      -5.073   3.061  -5.142  1.00  0.00     0.173 C 
ENDBRANCH  18  21
ENDBRANCH  16  17
ENDBRANCH   4   7
ENDBRANCH   2   3
ENDBRANCH   1   2
BRANCH   1  27
ATOM     27  C   UNL     1       3.225  -5.331   2.037  1.00  0.00     0.118 C 
BRANCH  27  28
ATOM     28  N   UNL     1       4.290  -5.745   1.128  1.00  0.00    -0.352 N 
ATOM     29  C   UNL     1       5.511  -6.341   1.354  1.00  0.00     0.251 C 
ATOM     30  H   UNL     1       4.101  -5.564   0.178  1.00  0.00     0.163 HD
ATOM     31  O   UNL     1       6.290  -6.494   0.416  1.00  0.00    -0.269 OA
BRANCH  29  32
ATOM     32  C   UNL     1       5.920  -6.753   2.716  1.00  0.00     0.039 A 
ATOM     33  C   UNL     1       7.251  -6.587   3.110  1.00  0.00     0.014 A 
ATOM     34  C   UNL     1       5.005  -7.293   3.616  1.00  0.00     0.014 A 
ATOM     35  C   UNL     1       7.626  -6.859   4.429  1.00  0.00     0.010 A 
ATOM     36  C   UNL     1       5.339  -7.415   4.958  1.00  0.00     0.010 A 
ATOM     37  C   UNL     1       6.659  -7.217   5.382  1.00  0.00    -0.014 A 
BRANCH  37  38
ATOM     38  C   UNL     1       7.004  -7.409   6.815  1.00  0.00     0.031 A 
ATOM     39  C   UNL     1       6.720  -8.725   7.493  1.00  0.00     0.074 A 
ATOM     40  C   UNL     1       7.513  -6.382   7.526  1.00  0.00     0.049 A 
ATOM     41  N   UNL     1       6.896  -9.068   8.745  1.00  0.00    -0.248 NA
ATOM     42  C   UNL     1       6.124  -9.787   6.665  1.00  0.00     0.031 C 
ATOM     43  C   UNL     1       7.773  -5.038   7.006  1.00  0.00     0.029 A 
ATOM     44  N   UNL     1       7.899  -6.306   8.841  1.00  0.00    -0.354 N 
ATOM     45  C   UNL     1       6.420 -10.369   8.851  1.00  0.00     0.074 A 
ATOM     46  C   UNL     1       5.874 -10.727   7.562  1.00  0.00     0.031 C 
ATOM     47  C   UNL     1       8.317  -4.287   7.976  1.00  0.00     0.029 A 
ATOM     48  C   UNL     1       8.399  -5.077   9.200  1.00  0.00     0.049 A 
ATOM     49  H   UNL     1       7.825  -7.061   9.469  1.00  0.00     0.167 HD
ATOM     50  C   UNL     1       6.467 -11.207   9.914  1.00  0.00     0.037 A 
ATOM     51  C   UNL     1       8.867  -4.636  10.383  1.00  0.00     0.037 A 
ATOM     52  C   UNL     1       7.033 -10.856  11.189  1.00  0.00     0.049 A 
ATOM     53  C   UNL     1       8.897  -5.583  11.554  1.00  0.00     0.074 A 
ATOM     54  C   UNL     1       7.181 -11.647  12.314  1.00  0.00     0.029 A 
ATOM     55  N   UNL     1       7.540  -9.604  11.509  1.00  0.00    -0.354 N 
ATOM     56  N   UNL     1       8.518  -6.836  11.618  1.00  0.00    -0.248 NA
ATOM     57  C   UNL     1       9.431  -5.054  12.816  1.00  0.00     0.031 C 
ATOM     58  C   UNL     1       7.719 -10.857  13.335  1.00  0.00     0.029 A 
ATOM     59  C   UNL     1       7.976  -9.594  12.825  1.00  0.00     0.049 A 
ATOM     60  H   UNL     1       7.583  -8.838  10.894  1.00  0.00     0.167 HD
ATOM     61  C   UNL     1       8.797  -7.255  12.912  1.00  0.00     0.074 A 
ATOM     62  C   UNL     1       9.398  -6.126  13.592  1.00  0.00     0.031 C 
ATOM     63  C   UNL     1       8.577  -8.464  13.486  1.00  0.00     0.037 A 
BRANCH  50  64
ATOM     64  C   UNL     1       5.897 -12.587   9.738  1.00  0.00     0.064 A 
ATOM     65  C   UNL     1       6.489 -13.528   8.878  1.00  0.00     0.173 A 
ATOM     66  C   UNL     1       4.761 -12.987  10.457  1.00  0.00     0.173 A 
ATOM     67  F   UNL     1       7.570 -13.196   8.155  1.00  0.00    -0.203 F 
ATOM     68  C   UNL     1       5.944 -14.799   8.718  1.00  0.00     0.198 A 
ATOM     69  C   UNL     1       4.241 -14.272  10.324  1.00  0.00     0.198 A 
ATOM     70  F   UNL     1       4.156 -12.133  11.296  1.00  0.00    -0.203 F 
ATOM     71  F   UNL     1       6.491 -15.655   7.845  1.00  0.00    -0.200 F 
ATOM     72  C   UNL     1       4.826 -15.173   9.448  1.00  0.00     0.200 A 
ATOM     73  F   UNL     1       3.170 -14.637  11.043  1.00  0.00    -0.200 F 
ATOM     74  F   UNL     1       4.307 -16.400   9.300  1.00  0.00    -0.200 F 
ENDBRANCH  50  64
BRANCH  51  75
ATOM     75  C   UNL     1       9.374  -3.244  10.516  1.00  0.00     0.064 A 
ATOM     76  C   UNL     1      10.733  -2.990  10.755  1.00  0.00     0.173 A 
ATOM     77  C   UNL     1       8.514  -2.139  10.422  1.00  0.00     0.173 A 
ATOM     78  F   UNL     1      11.594  -4.012  10.871  1.00  0.00    -0.203 F 
ATOM     79  C   UNL     1      11.206  -1.690  10.924  1.00  0.00     0.198 A 
ATOM     80  C   UNL     1       8.994  -0.838  10.556  1.00  0.00     0.198 A 
ATOM     81  F   UNL     1       7.207  -2.323  10.186  1.00  0.00    -0.203 F 
ATOM     82  F   UNL     1      12.499  -1.482  11.208  1.00  0.00    -0.200 F 
ATOM     83  C   UNL     1      10.337  -0.615  10.819  1.00  0.00     0.200 A 
ATOM     84  F   UNL     1       8.155   0.199  10.434  1.00  0.00    -0.200 F 
ATOM     85  F   UNL     1      10.793   0.635  10.978  1.00  0.00    -0.200 F 
ENDBRANCH  51  75
BRANCH  63  86
ATOM     86  C   UNL     1       9.031  -8.644  14.908  1.00  0.00     0.064 A 
ATOM     87  C   UNL     1       8.410  -7.978  15.976  1.00  0.00     0.173 A 
ATOM     88  C   UNL     1      10.089  -9.517  15.207  1.00  0.00     0.173 A 
ATOM     89  F   UNL     1       7.402  -7.123  15.745  1.00  0.00    -0.203 F 
ATOM     90  C   UNL     1       8.858  -8.149  17.283  1.00  0.00     0.198 A 
ATOM     91  C   UNL     1      10.507  -9.716  16.520  1.00  0.00     0.198 A 
ATOM     92  F   UNL     1      10.711 -10.188  14.226  1.00  0.00    -0.203 F 
ATOM     93  F   UNL     1       8.293  -7.452  18.278  1.00  0.00    -0.200 F 
ATOM     94  C   UNL     1       9.900  -9.023  17.555  1.00  0.00     0.200 A 
ATOM     95  F   UNL     1      11.500 -10.577  16.781  1.00  0.00    -0.200 F 
ATOM     96  F   UNL     1      10.325  -9.190  18.814  1.00  0.00    -0.200 F 
ENDBRANCH  63  86
ENDBRANCH  37  38
ENDBRANCH  29  32
ENDBRANCH  27  28
ENDBRANCH   1  27
TORSDOF 12
