REMARK SMILES CC(=O)Oc1ccc([C@H]2Nc3c(C(=O)NCCCNC(=O)c4ccc(-c5c6nc(c(-c7c(F)c(F)c(F)c(F)c7F)c7ccc([nH]7)c(-c7c(F)c(F)c(F)c(F)c7F)c7nc(c(-c8c(F)c(F)c(F)c(F)c8F)c8ccc5[nH]8)C=C7)C=C6)cc4)ccc([N+](=O)[O-])c3[C@H]3C=CC[C@@H]32)cc1
REMARK SMILES IDX 16 1 15 2 13 3 14 4 12 6 9 7 10 8 96 9 11 10 92 12 95 13
REMARK SMILES IDX 91 14 93 15 94 16 85 17 87 18 86 19 8 20 5 21 6 22 98 23
REMARK SMILES IDX 7 24 97 25 4 26 2 27 1 28 3 29 88 30 89 31 90 32 17 33 18 34
REMARK SMILES IDX 19 35 20 36 21 38 22 39 23 40 84 41 24 42 83 43 25 44 26 45
REMARK SMILES IDX 27 46 77 47 28 48 82 49 76 50 78 51 29 52 81 53 75 54 74 55
REMARK SMILES IDX 30 57 62 58 42 59 61 60 43 61 46 62 60 63 79 64 44 65 45 66
REMARK SMILES IDX 59 68 80 69 47 70 31 71 32 72 40 73 33 74 34 75 38 76 41 77
REMARK SMILES IDX 35 78 36 79 39 80 37 81 63 82 64 83 72 84 65 85 66 86 70 87
REMARK SMILES IDX 73 88 67 89 68 90 71 91 69 92 48 93 49 94 57 95 50 96 51 97
REMARK SMILES IDX 55 98 58 99 52 100 53 101 56 102 54 103
REMARK H PARENT 15 5 10 11 19 37 78 56 46 67
REMARK Flexibility Score: inf
ROOT
ATOM      1  C   UNL     1       0.437  14.487  -3.310  1.00  0.00     0.118 C 
ENDROOT
BRANCH   1   2
ATOM      2  N   UNL     1       1.068  13.180  -3.555  1.00  0.00    -0.352 N 
ATOM      3  C   UNL     1       0.605  11.881  -3.344  1.00  0.00     0.253 C 
ATOM      4  O   UNL     1       1.355  10.930  -3.540  1.00  0.00    -0.269 OA
ATOM      5  H   UNL     1       1.975  13.232  -3.935  1.00  0.00     0.163 HD
BRANCH   3   6
ATOM      6  C   UNL     1      -0.791  11.658  -2.868  1.00  0.00     0.063 A 
ATOM      7  C   UNL     1      -0.953   8.530  -0.610  1.00  0.00     0.114 C 
ATOM      8  N   UNL     1      -0.403   9.579  -1.523  1.00  0.00    -0.377 N 
ATOM      9  C   UNL     1      -2.486   8.686  -0.642  1.00  0.00     0.031 C 
ATOM     10  C   UNL     1      -1.142  10.754  -1.833  1.00  0.00     0.058 A 
ATOM     11  H   UNL     1       0.490   9.454  -1.917  1.00  0.00     0.161 HD
ATOM     12  C   UNL     1      -2.701  10.076  -0.015  1.00  0.00     0.056 C 
ATOM     13  C   UNL     1      -3.471   7.744   0.047  1.00  0.00     0.034 C 
ATOM     14  C   UNL     1      -2.387  11.003  -1.157  1.00  0.00     0.061 A 
ATOM     15  C   UNL     1      -4.040   9.946   0.620  1.00  0.00    -0.022 C 
ATOM     16  C   UNL     1      -4.456   8.678   0.663  1.00  0.00    -0.030 C 
ATOM     17  C   UNL     1      -1.778  12.477  -3.450  1.00  0.00     0.023 A 
ATOM     18  C   UNL     1      -3.248  12.006  -1.635  1.00  0.00     0.275 A 
ATOM     19  C   UNL     1      -2.995  12.683  -2.821  1.00  0.00     0.087 A 
BRANCH   7  20
ATOM     20  C   UNL     1      -0.404   7.104  -0.748  1.00  0.00    -0.025 A 
ATOM     21  C   UNL     1       0.369   4.414  -0.243  1.00  0.00     0.130 A 
ATOM     22  C   UNL     1       1.236   5.463   0.063  1.00  0.00     0.047 A 
ATOM     23  C   UNL     1      -0.855   4.689  -0.839  1.00  0.00     0.047 A 
ATOM     24  C   UNL     1       0.854   6.793  -0.191  1.00  0.00     0.010 A 
ATOM     25  C   UNL     1      -1.209   6.016  -1.134  1.00  0.00     0.010 A 
BRANCH  21  26
ATOM     26  O   UNL     1       0.771   3.117   0.159  1.00  0.00    -0.427 OA
BRANCH  26  27
ATOM     27  C   UNL     1       0.343   1.961  -0.505  1.00  0.00     0.308 C 
ATOM     28  C   UNL     1       0.910   0.749   0.180  1.00  0.00     0.139 C 
ATOM     29  O   UNL     1      -0.375   1.906  -1.489  1.00  0.00    -0.252 OA
ENDBRANCH  26  27
ENDBRANCH  21  26
ENDBRANCH   7  20
BRANCH  18  30
ATOM     30  N   UNL     1      -4.447  12.395  -0.928  1.00  0.00     0.063 N 
ATOM     31  O   UNL     1      -5.530  12.071  -1.431  1.00  0.00    -0.258 OA
ATOM     32  O   UNL     1      -4.291  13.074   0.097  1.00  0.00    -0.258 OA
ENDBRANCH  18  30
ENDBRANCH   3   6
ENDBRANCH   1   2
BRANCH   1  33
ATOM     33  C   UNL     1       1.222  15.412  -2.388  1.00  0.00     0.042 C 
BRANCH  33  34
ATOM     34  C   UNL     1       2.449  16.066  -3.005  1.00  0.00     0.118 C 
BRANCH  34  35
ATOM     35  N   UNL     1       2.135  17.131  -3.949  1.00  0.00    -0.352 N 
ATOM     36  C   UNL     1       2.532  18.450  -3.991  1.00  0.00     0.251 C 
ATOM     37  H   UNL     1       1.537  16.863  -4.684  1.00  0.00     0.163 HD
ATOM     38  O   UNL     1       2.046  19.189  -4.845  1.00  0.00    -0.269 OA
BRANCH  36  39
ATOM     39  C   UNL     1       3.501  19.012  -3.015  1.00  0.00     0.039 A 
ATOM     40  C   UNL     1       3.327  20.334  -2.585  1.00  0.00     0.014 A 
ATOM     41  C   UNL     1       4.594  18.284  -2.542  1.00  0.00     0.014 A 
ATOM     42  C   UNL     1       4.192  20.887  -1.634  1.00  0.00     0.010 A 
ATOM     43  C   UNL     1       5.397  18.801  -1.523  1.00  0.00     0.010 A 
ATOM     44  C   UNL     1       5.210  20.111  -1.058  1.00  0.00    -0.014 A 
BRANCH  44  45
ATOM     45  C   UNL     1       6.074  20.653   0.027  1.00  0.00     0.031 A 
ATOM     46  C   UNL     1       7.563  20.777  -0.162  1.00  0.00     0.074 A 
ATOM     47  C   UNL     1       5.525  20.988   1.212  1.00  0.00     0.049 A 
ATOM     48  N   UNL     1       8.476  21.191   0.682  1.00  0.00    -0.248 NA
ATOM     49  C   UNL     1       8.102  20.355  -1.464  1.00  0.00     0.031 C 
ATOM     50  C   UNL     1       4.107  20.863   1.551  1.00  0.00     0.029 A 
ATOM     51  N   UNL     1       6.095  21.494   2.356  1.00  0.00    -0.354 N 
ATOM     52  C   UNL     1       9.690  21.073   0.018  1.00  0.00     0.074 A 
ATOM     53  C   UNL     1       9.407  20.488  -1.274  1.00  0.00     0.031 C 
ATOM     54  C   UNL     1       3.913  21.305   2.803  1.00  0.00     0.029 A 
ATOM     55  C   UNL     1       5.196  21.705   3.373  1.00  0.00     0.049 A 
ATOM     56  H   UNL     1       7.057  21.686   2.438  1.00  0.00     0.167 HD
ATOM     57  C   UNL     1      10.926  21.445   0.433  1.00  0.00     0.037 A 
ATOM     58  C   UNL     1       5.382  22.163   4.626  1.00  0.00     0.037 A 
ATOM     59  C   UNL     1      11.209  22.035   1.717  1.00  0.00     0.049 A 
ATOM     60  C   UNL     1       6.765  22.560   5.068  1.00  0.00     0.074 A 
ATOM     61  C   UNL     1      12.420  22.487   2.212  1.00  0.00     0.029 A 
ATOM     62  N   UNL     1      10.268  22.250   2.714  1.00  0.00    -0.354 N 
ATOM     63  N   UNL     1       7.893  22.511   4.403  1.00  0.00    -0.248 NA
ATOM     64  C   UNL     1       6.895  23.090   6.432  1.00  0.00     0.031 C 
ATOM     65  C   UNL     1      12.223  22.923   3.527  1.00  0.00     0.029 A 
ATOM     66  C   UNL     1      10.877  22.806   3.830  1.00  0.00     0.049 A 
ATOM     67  H   UNL     1       9.309  22.039   2.640  1.00  0.00     0.167 HD
ATOM     68  C   UNL     1       8.861  23.028   5.255  1.00  0.00     0.074 A 
ATOM     69  C   UNL     1       8.181  23.405   6.477  1.00  0.00     0.031 C 
ATOM     70  C   UNL     1      10.192  23.177   5.043  1.00  0.00     0.037 A 
BRANCH  57  71
ATOM     71  C   UNL     1      12.072  21.224  -0.516  1.00  0.00     0.064 A 
ATOM     72  C   UNL     1      12.189  21.952  -1.711  1.00  0.00     0.173 A 
ATOM     73  C   UNL     1      13.082  20.297  -0.215  1.00  0.00     0.173 A 
ATOM     74  F   UNL     1      11.248  22.845  -2.053  1.00  0.00    -0.203 F 
ATOM     75  C   UNL     1      13.252  21.733  -2.585  1.00  0.00     0.198 A 
ATOM     76  C   UNL     1      14.162  20.108  -1.074  1.00  0.00     0.198 A 
ATOM     77  F   UNL     1      13.027  19.580   0.917  1.00  0.00    -0.203 F 
ATOM     78  F   UNL     1      13.308  22.398  -3.747  1.00  0.00    -0.200 F 
ATOM     79  C   UNL     1      14.241  20.817  -2.262  1.00  0.00     0.200 A 
ATOM     80  F   UNL     1      15.126  19.233  -0.752  1.00  0.00    -0.200 F 
ATOM     81  F   UNL     1      15.266  20.612  -3.101  1.00  0.00    -0.200 F 
ENDBRANCH  57  71
BRANCH  58  82
ATOM     82  C   UNL     1       4.221  22.290   5.548  1.00  0.00     0.064 A 
ATOM     83  C   UNL     1       3.756  23.548   5.957  1.00  0.00     0.173 A 
ATOM     84  C   UNL     1       3.558  21.158   6.043  1.00  0.00     0.173 A 
ATOM     85  F   UNL     1       4.369  24.661   5.528  1.00  0.00    -0.203 F 
ATOM     86  C   UNL     1       2.687  23.667   6.843  1.00  0.00     0.198 A 
ATOM     87  C   UNL     1       2.469  21.279   6.904  1.00  0.00     0.198 A 
ATOM     88  F   UNL     1       3.960  19.931   5.680  1.00  0.00    -0.203 F 
ATOM     89  F   UNL     1       2.297  24.880   7.258  1.00  0.00    -0.200 F 
ATOM     90  C   UNL     1       2.041  22.533   7.311  1.00  0.00     0.200 A 
ATOM     91  F   UNL     1       1.836  20.181   7.339  1.00  0.00    -0.200 F 
ATOM     92  F   UNL     1       1.010  22.649   8.159  1.00  0.00    -0.200 F 
ENDBRANCH  58  82
BRANCH  70  93
ATOM     93  C   UNL     1      10.997  23.809   6.145  1.00  0.00     0.064 A 
ATOM     94  C   UNL     1      11.226  23.156   7.365  1.00  0.00     0.173 A 
ATOM     95  C   UNL     1      11.561  25.083   5.970  1.00  0.00     0.173 A 
ATOM     96  F   UNL     1      10.700  21.942   7.591  1.00  0.00    -0.203 F 
ATOM     97  C   UNL     1      11.952  23.770   8.383  1.00  0.00     0.198 A 
ATOM     98  C   UNL     1      12.317  25.679   6.975  1.00  0.00     0.198 A 
ATOM     99  F   UNL     1      11.382  25.750   4.819  1.00  0.00    -0.203 F 
ATOM    100  F   UNL     1      12.101  23.154   9.563  1.00  0.00    -0.200 F 
ATOM    101  C   UNL     1      12.502  25.028   8.185  1.00  0.00     0.200 A 
ATOM    102  F   UNL     1      12.862  26.887   6.775  1.00  0.00    -0.200 F 
ATOM    103  F   UNL     1      13.202  25.617   9.164  1.00  0.00    -0.200 F 
ENDBRANCH  70  93
ENDBRANCH  44  45
ENDBRANCH  36  39
ENDBRANCH  34  35
ENDBRANCH  33  34
ENDBRANCH   1  33
TORSDOF 14
