REMARK SMILES CC[NH2+][C@@]1(C(=O)NCCCNC(=O)c2ccc(-c3c4nc(c(-c5c(F)c(F)c(F)c(F)c5F)c5ccc([nH]5)c(-c5c(F)c(F)c(F)c(F)c5F)c5nc(c(-c6c(F)c(F)c(F)c(F)c6F)c6ccc3[nH]6)C=C5)C=C4)cc2)CCC[C@H]1CCN1C(=O)CCC1=O
REMARK SMILES IDX 8 1 7 2 5 3 6 4 4 6 77 7 80 8 78 9 79 10 3 11 2 14 1 15
REMARK SMILES IDX 81 16 82 17 83 18 84 19 88 20 85 21 86 22 87 23 89 24 9 25
REMARK SMILES IDX 10 26 11 27 12 28 13 30 14 31 15 32 76 33 16 34 75 35 17 36
REMARK SMILES IDX 18 37 19 38 69 39 20 40 74 41 68 42 70 43 21 44 73 45 67 46
REMARK SMILES IDX 66 47 22 49 54 50 34 51 53 52 35 53 38 54 52 55 71 56 36 57
REMARK SMILES IDX 37 58 51 60 72 61 39 62 23 63 24 64 32 65 25 66 26 67 30 68
REMARK SMILES IDX 33 69 27 70 28 71 31 72 29 73 55 74 56 75 64 76 57 77 58 78
REMARK SMILES IDX 62 79 65 80 59 81 60 82 63 83 61 84 40 85 41 86 49 87 42 88
REMARK SMILES IDX 43 89 47 90 50 91 44 92 45 93 48 94 46 95
REMARK H PARENT 7 5 3 12 3 13 11 29 70 48 38 59
REMARK Flexibility Score: inf
ROOT
ATOM      1  C   UNL     1      -0.095   5.957   2.492  1.00  0.00     0.118 C 
ENDROOT
BRANCH   1   2
ATOM      2  N   UNL     1       0.296   4.574   2.591  1.00  0.00    -0.351 N 
ATOM      3  C   UNL     1       1.058   3.872   1.719  1.00  0.00     0.281 C 
ATOM      4  O   UNL     1       2.009   3.281   2.257  1.00  0.00    -0.268 OA
ATOM      5  H   UNL     1      -0.026   4.084   3.382  1.00  0.00     0.163 HD
BRANCH   3   6
ATOM      6  C   UNL     1       0.825   3.765   0.143  1.00  0.00     0.178 C 
ATOM      7  C   UNL     1       1.700   4.846  -0.525  1.00  0.00     0.079 C 
ATOM      8  C   UNL     1      -0.593   4.020  -0.466  1.00  0.00     0.062 C 
ATOM      9  C   UNL     1       0.797   6.027  -0.864  1.00  0.00     0.008 C 
ATOM     10  C   UNL     1      -0.643   5.551  -0.713  1.00  0.00     0.011 C 
BRANCH   6  11
ATOM     11  N   UNL     1       1.379   2.431  -0.259  1.00  0.00    -0.334 N 
ATOM     12  H   UNL     1       1.176   2.292  -1.248  1.00  0.00     0.347 HD
ATOM     13  H   UNL     1       2.375   2.464  -0.045  1.00  0.00     0.347 HD
BRANCH  11  14
ATOM     14  C   UNL     1       0.844   1.278   0.481  1.00  0.00     0.257 C 
ATOM     15  C   UNL     1       1.391  -0.008  -0.126  1.00  0.00     0.071 C 
ENDBRANCH  11  14
ENDBRANCH   6  11
BRANCH   8  16
ATOM     16  C   UNL     1      -0.930   3.426  -1.871  1.00  0.00     0.033 C 
BRANCH  16  17
ATOM     17  C   UNL     1      -1.206   1.940  -2.082  1.00  0.00     0.129 C 
BRANCH  17  18
ATOM     18  N   UNL     1      -2.148   1.279  -1.195  1.00  0.00    -0.283 N 
ATOM     19  C   UNL     1      -3.240   1.840  -0.600  1.00  0.00     0.229 C 
ATOM     20  C   UNL     1      -2.139  -0.082  -1.053  1.00  0.00     0.229 C 
ATOM     21  O   UNL     1      -3.652   2.982  -0.712  1.00  0.00    -0.274 OA
ATOM     22  C   UNL     1      -3.896   0.808   0.272  1.00  0.00     0.110 C 
ATOM     23  C   UNL     1      -3.211  -0.490  -0.094  1.00  0.00     0.110 C 
ATOM     24  O   UNL     1      -1.408  -0.877  -1.627  1.00  0.00    -0.274 OA
ENDBRANCH  17  18
ENDBRANCH  16  17
ENDBRANCH   8  16
ENDBRANCH   3   6
ENDBRANCH   1   2
BRANCH   1  25
ATOM     25  C   UNL     1      -1.547   6.172   2.869  1.00  0.00     0.042 C 
BRANCH  25  26
ATOM     26  C   UNL     1      -1.754   6.134   4.376  1.00  0.00     0.118 C 
BRANCH  26  27
ATOM     27  N   UNL     1      -1.021   7.202   5.056  1.00  0.00    -0.352 N 
ATOM     28  C   UNL     1      -1.482   8.314   5.710  1.00  0.00     0.251 C 
ATOM     29  H   UNL     1      -0.041   7.106   5.040  1.00  0.00     0.163 HD
ATOM     30  O   UNL     1      -0.716   9.235   5.977  1.00  0.00    -0.269 OA
BRANCH  28  31
ATOM     31  C   UNL     1      -2.902   8.397   6.093  1.00  0.00     0.039 A 
ATOM     32  C   UNL     1      -3.575   9.616   5.985  1.00  0.00     0.014 A 
ATOM     33  C   UNL     1      -3.565   7.264   6.566  1.00  0.00     0.014 A 
ATOM     34  C   UNL     1      -4.934   9.677   6.290  1.00  0.00     0.010 A 
ATOM     35  C   UNL     1      -4.937   7.297   6.751  1.00  0.00     0.010 A 
ATOM     36  C   UNL     1      -5.632   8.508   6.636  1.00  0.00    -0.014 A 
BRANCH  36  37
ATOM     37  C   UNL     1      -7.087   8.524   6.910  1.00  0.00     0.031 A 
ATOM     38  C   UNL     1      -7.597   8.105   8.260  1.00  0.00     0.074 A 
ATOM     39  C   UNL     1      -7.945   8.835   5.920  1.00  0.00     0.049 A 
ATOM     40  N   UNL     1      -8.831   7.974   8.677  1.00  0.00    -0.248 NA
ATOM     41  C   UNL     1      -6.585   7.746   9.267  1.00  0.00     0.031 C 
ATOM     42  C   UNL     1      -7.565   9.198   4.554  1.00  0.00     0.029 A 
ATOM     43  N   UNL     1      -9.315   8.888   5.910  1.00  0.00    -0.354 N 
ATOM     44  C   UNL     1      -8.739   7.498   9.978  1.00  0.00     0.074 A 
ATOM     45  C   UNL     1      -7.336   7.292  10.257  1.00  0.00     0.031 C 
ATOM     46  C   UNL     1      -8.672   9.477   3.850  1.00  0.00     0.029 A 
ATOM     47  C   UNL     1      -9.840   9.267   4.700  1.00  0.00     0.049 A 
ATOM     48  H   UNL     1      -9.869   8.675   6.696  1.00  0.00     0.167 HD
ATOM     49  C   UNL     1      -9.734   7.283  10.870  1.00  0.00     0.037 A 
ATOM     50  C   UNL     1     -11.122   9.424   4.322  1.00  0.00     0.037 A 
ATOM     51  C   UNL     1     -11.125   7.516  10.586  1.00  0.00     0.049 A 
ATOM     52  C   UNL     1     -12.212   9.170   5.326  1.00  0.00     0.074 A 
ATOM     53  C   UNL     1     -12.211   7.398  11.434  1.00  0.00     0.029 A 
ATOM     54  N   UNL     1     -11.621   7.909   9.350  1.00  0.00    -0.354 N 
ATOM     55  N   UNL     1     -12.113   8.798   6.580  1.00  0.00    -0.248 NA
ATOM     56  C   UNL     1     -13.592   9.365   4.864  1.00  0.00     0.031 C 
ATOM     57  C   UNL     1     -13.370   7.660  10.695  1.00  0.00     0.029 A 
ATOM     58  C   UNL     1     -13.002   8.007   9.404  1.00  0.00     0.049 A 
ATOM     59  H   UNL     1     -11.072   8.092   8.554  1.00  0.00     0.167 HD
ATOM     60  C   UNL     1     -13.412   8.742   7.066  1.00  0.00     0.074 A 
ATOM     61  C   UNL     1     -14.280   9.133   5.973  1.00  0.00     0.031 C 
ATOM     62  C   UNL     1     -13.848   8.400   8.304  1.00  0.00     0.037 A 
BRANCH  49  63
ATOM     63  C   UNL     1      -9.346   6.765  12.227  1.00  0.00     0.064 A 
ATOM     64  C   UNL     1      -8.587   7.533  13.126  1.00  0.00     0.173 A 
ATOM     65  C   UNL     1      -9.733   5.479  12.635  1.00  0.00     0.173 A 
ATOM     66  F   UNL     1      -8.178   8.764  12.784  1.00  0.00    -0.203 F 
ATOM     67  C   UNL     1      -8.191   7.017  14.357  1.00  0.00     0.198 A 
ATOM     68  C   UNL     1      -9.369   4.981  13.883  1.00  0.00     0.198 A 
ATOM     69  F   UNL     1     -10.462   4.702  11.820  1.00  0.00    -0.203 F 
ATOM     70  F   UNL     1      -7.404   7.742  15.164  1.00  0.00    -0.200 F 
ATOM     71  C   UNL     1      -8.587   5.744  14.737  1.00  0.00     0.200 A 
ATOM     72  F   UNL     1      -9.765   3.756  14.255  1.00  0.00    -0.200 F 
ATOM     73  F   UNL     1      -8.204   5.247  15.921  1.00  0.00    -0.200 F 
ENDBRANCH  49  63
BRANCH  50  74
ATOM     74  C   UNL     1     -11.433   9.885   2.944  1.00  0.00     0.064 A 
ATOM     75  C   UNL     1     -11.954  11.167   2.719  1.00  0.00     0.173 A 
ATOM     76  C   UNL     1     -11.199   9.071   1.826  1.00  0.00     0.173 A 
ATOM     77  F   UNL     1     -12.210  11.976   3.758  1.00  0.00    -0.203 F 
ATOM     78  C   UNL     1     -12.241  11.613   1.431  1.00  0.00     0.198 A 
ATOM     79  C   UNL     1     -11.459   9.528   0.536  1.00  0.00     0.198 A 
ATOM     80  F   UNL     1     -10.694   7.839   1.986  1.00  0.00    -0.203 F 
ATOM     81  F   UNL     1     -12.774  12.828   1.248  1.00  0.00    -0.200 F 
ATOM     82  C   UNL     1     -11.987  10.796   0.340  1.00  0.00     0.200 A 
ATOM     83  F   UNL     1     -11.195   8.743  -0.517  1.00  0.00    -0.200 F 
ATOM     84  F   UNL     1     -12.254  11.229  -0.900  1.00  0.00    -0.200 F 
ENDBRANCH  50  74
BRANCH  62  85
ATOM     85  C   UNL     1     -15.327   8.469   8.555  1.00  0.00     0.064 A 
ATOM     86  C   UNL     1     -16.219   7.555   7.974  1.00  0.00     0.173 A 
ATOM     87  C   UNL     1     -15.853   9.438   9.424  1.00  0.00     0.173 A 
ATOM     88  F   UNL     1     -15.769   6.619   7.125  1.00  0.00    -0.203 F 
ATOM     89  C   UNL     1     -17.586   7.628   8.231  1.00  0.00     0.198 A 
ATOM     90  C   UNL     1     -17.214   9.485   9.707  1.00  0.00     0.198 A 
ATOM     91  F   UNL     1     -15.042  10.330  10.012  1.00  0.00    -0.203 F 
ATOM     92  F   UNL     1     -18.425   6.779   7.622  1.00  0.00    -0.200 F 
ATOM     93  C   UNL     1     -18.081   8.586   9.103  1.00  0.00     0.200 A 
ATOM     94  F   UNL     1     -17.688  10.399  10.564  1.00  0.00    -0.200 F 
ATOM     95  F   UNL     1     -19.395   8.648   9.357  1.00  0.00    -0.200 F 
ENDBRANCH  62  85
ENDBRANCH  36  37
ENDBRANCH  28  31
ENDBRANCH  26  27
ENDBRANCH  25  26
ENDBRANCH   1  25
TORSDOF 15
