REMARK SMILES Cc1ccc(NC(=O)C[C@H]2C(=O)NCCN2C(=O)CCC(=O)NCCCNC(=O)c2ccc(-c3c4nc(c(-c5c(F)c(F)c(F)c(F)c5F)c5ccc([nH]5)c(-c5c(F)c(F)c(F)c(F)c5F)c5nc(c(-c6c(F)c(F)c(F)c(F)c6F)c6ccc3[nH]6)C=C5)C=C4)cc2)c(C)c1
REMARK SMILES IDX 21 1 22 2 23 3 20 5 19 6 17 7 18 8 16 9 10 10 11 11 12 12
REMARK SMILES IDX 13 13 15 14 14 15 9 17 7 18 6 19 8 21 5 22 1 23 2 24 3 25
REMARK SMILES IDX 95 26 4 27 93 28 94 29 24 30 25 31 26 32 27 33 28 34 29 36
REMARK SMILES IDX 30 37 31 38 92 39 32 40 91 41 33 42 34 43 35 44 85 45 36 46
REMARK SMILES IDX 90 47 84 48 86 49 37 50 89 51 83 52 82 53 38 55 70 56 50 57
REMARK SMILES IDX 69 58 51 59 54 60 68 61 87 62 52 63 53 64 67 66 88 67 55 68
REMARK SMILES IDX 39 69 40 70 48 71 41 72 42 73 46 74 49 75 43 76 44 77 47 78
REMARK SMILES IDX 45 79 71 80 72 81 80 82 73 83 74 84 78 85 81 86 75 87 76 88
REMARK SMILES IDX 79 89 77 90 56 91 57 92 65 93 58 94 59 95 63 96 66 97 60 98
REMARK SMILES IDX 61 99 64 100 62 101
REMARK H PARENT 23 4 13 16 6 20 27 35 86 54 54 65
REMARK Flexibility Score: inf
ROOT
ATOM      1  C   UNL     1      -2.818   1.268  -1.066  1.00  0.00     0.220 C 
ATOM      2  O   UNL     1      -1.929   0.472  -1.377  1.00  0.00    -0.275 OA
ATOM      3  N   UNL     1      -2.599   2.117  -0.023  1.00  0.00    -0.356 N 
ATOM      4  H   UNL     1      -1.727   1.949   0.400  1.00  0.00     0.163 HD
ENDROOT
BRANCH   1   5
ATOM      5  C   UNL     1      -4.138   1.207  -1.740  1.00  0.00     0.110 C 
BRANCH   5   6
ATOM      6  C   UNL     1      -5.045   0.342  -0.899  1.00  0.00     0.110 C 
BRANCH   6   7
ATOM      7  C   UNL     1      -5.439   1.112   0.315  1.00  0.00     0.223 C 
ATOM      8  O   UNL     1      -6.370   1.921   0.178  1.00  0.00    -0.275 OA
BRANCH   7   9
ATOM      9  N   UNL     1      -4.741   1.005   1.531  1.00  0.00    -0.328 N 
ATOM     10  C   UNL     1      -3.462   0.185   1.869  1.00  0.00     0.183 C 
ATOM     11  C   UNL     1      -3.764  -0.700   3.118  1.00  0.00     0.243 C 
ATOM     12  O   UNL     1      -3.093  -1.690   3.404  1.00  0.00    -0.273 OA
ATOM     13  N   UNL     1      -4.764  -0.343   3.977  1.00  0.00    -0.353 N 
ATOM     14  C   UNL     1      -5.590   1.555   2.599  1.00  0.00     0.141 C 
ATOM     15  C   UNL     1      -5.551   0.858   3.931  1.00  0.00     0.137 C 
ATOM     16  H   UNL     1      -4.967  -0.975   4.705  1.00  0.00     0.163 HD
BRANCH  10  17
ATOM     17  C   UNL     1      -1.776   0.550   1.841  1.00  0.00     0.135 C 
BRANCH  17  18
ATOM     18  C   UNL     1      -0.547   1.678   2.002  1.00  0.00     0.227 C 
ATOM     19  N   UNL     1       0.039   2.722   1.291  1.00  0.00    -0.326 N 
ATOM     20  H   UNL     1       0.996   2.763   1.519  1.00  0.00     0.169 HD
ATOM     21  O   UNL     1       0.149   1.494   3.031  1.00  0.00    -0.275 OA
BRANCH  19  22
ATOM     22  C   UNL     1      -0.257   3.764   0.340  1.00  0.00     0.044 A 
ATOM     23  C   UNL     1      -2.890   6.339  -1.787  1.00  0.00     0.044 C 
ATOM     24  C   UNL     1      -1.678   5.671  -1.189  1.00  0.00    -0.051 A 
ATOM     25  C   UNL     1      -1.247   5.988   0.100  1.00  0.00     0.005 A 
ATOM     26  C   UNL     1      -1.111   4.547  -1.799  1.00  0.00     0.009 A 
ATOM     27  C   UNL     1      -0.475   5.064   0.832  1.00  0.00     0.026 A 
ATOM     28  C   UNL     1      -0.364   3.603  -1.048  1.00  0.00    -0.027 A 
ATOM     29  C   UNL     1       0.324   2.496  -1.788  1.00  0.00     0.046 C 
ENDBRANCH  19  22
ENDBRANCH  17  18
ENDBRANCH  10  17
ENDBRANCH   7   9
ENDBRANCH   6   7
ENDBRANCH   5   6
ENDBRANCH   1   5
BRANCH   3  30
ATOM     30  C   UNL     1      -3.319   3.223   0.644  1.00  0.00     0.117 C 
BRANCH  30  31
ATOM     31  C   UNL     1      -3.034   3.736   2.134  1.00  0.00     0.042 C 
BRANCH  31  32
ATOM     32  C   UNL     1      -2.956   2.996   3.500  1.00  0.00     0.118 C 
BRANCH  32  33
ATOM     33  N   UNL     1      -1.736   3.222   4.288  1.00  0.00    -0.352 N 
ATOM     34  C   UNL     1      -1.531   3.211   5.661  1.00  0.00     0.251 C 
ATOM     35  H   UNL     1      -0.932   3.413   3.754  1.00  0.00     0.163 HD
ATOM     36  O   UNL     1      -0.439   3.435   6.132  1.00  0.00    -0.269 OA
BRANCH  34  37
ATOM     37  C   UNL     1      -2.675   2.978   6.572  1.00  0.00     0.039 A 
ATOM     38  C   UNL     1      -2.991   3.954   7.517  1.00  0.00     0.014 A 
ATOM     39  C   UNL     1      -3.425   1.808   6.504  1.00  0.00     0.014 A 
ATOM     40  C   UNL     1      -4.146   3.820   8.296  1.00  0.00     0.010 A 
ATOM     41  C   UNL     1      -4.614   1.705   7.238  1.00  0.00     0.010 A 
ATOM     42  C   UNL     1      -5.011   2.728   8.113  1.00  0.00    -0.014 A 
BRANCH  42  43
ATOM     43  C   UNL     1      -6.345   2.690   8.783  1.00  0.00     0.031 A 
ATOM     44  C   UNL     1      -6.709   1.590   9.743  1.00  0.00     0.074 A 
ATOM     45  C   UNL     1      -7.267   3.631   8.488  1.00  0.00     0.049 A 
ATOM     46  N   UNL     1      -7.816   1.421  10.427  1.00  0.00    -0.248 NA
ATOM     47  C   UNL     1      -5.717   0.525   9.940  1.00  0.00     0.031 C 
ATOM     48  C   UNL     1      -7.088   4.718   7.524  1.00  0.00     0.029 A 
ATOM     49  N   UNL     1      -8.537   3.832   8.976  1.00  0.00    -0.354 N 
ATOM     50  C   UNL     1      -7.654   0.232  11.125  1.00  0.00     0.074 A 
ATOM     51  C   UNL     1      -6.372  -0.312  10.730  1.00  0.00     0.031 C 
ATOM     52  C   UNL     1      -8.178   5.503   7.535  1.00  0.00     0.029 A 
ATOM     53  C   UNL     1      -9.149   4.960   8.480  1.00  0.00     0.049 A 
ATOM     54  H   UNL     1      -8.969   3.226   9.620  1.00  0.00     0.167 HD
ATOM     55  C   UNL     1      -8.479  -0.342  12.035  1.00  0.00     0.037 A 
ATOM     56  C   UNL     1     -10.347   5.508   8.764  1.00  0.00     0.037 A 
ATOM     57  C   UNL     1      -9.742   0.205  12.458  1.00  0.00     0.049 A 
ATOM     58  C   UNL     1     -11.245   4.854   9.778  1.00  0.00     0.074 A 
ATOM     59  C   UNL     1     -10.605  -0.266  13.433  1.00  0.00     0.029 A 
ATOM     60  N   UNL     1     -10.327   1.345  11.927  1.00  0.00    -0.354 N 
ATOM     61  N   UNL     1     -11.035   3.782  10.501  1.00  0.00    -0.248 NA
ATOM     62  C   UNL     1     -12.548   5.493  10.018  1.00  0.00     0.031 C 
ATOM     63  C   UNL     1     -11.732   0.563  13.461  1.00  0.00     0.029 A 
ATOM     64  C   UNL     1     -11.552   1.577  12.534  1.00  0.00     0.049 A 
ATOM     65  H   UNL     1      -9.931   1.907  11.222  1.00  0.00     0.167 HD
ATOM     66  C   UNL     1     -12.160   3.635  11.301  1.00  0.00     0.074 A 
ATOM     67  C   UNL     1     -13.048   4.734  10.982  1.00  0.00     0.031 C 
ATOM     68  C   UNL     1     -12.429   2.675  12.219  1.00  0.00     0.037 A 
BRANCH  55  69
ATOM     69  C   UNL     1      -8.028  -1.639  12.647  1.00  0.00     0.064 A 
ATOM     70  C   UNL     1      -6.942  -1.693  13.535  1.00  0.00     0.173 A 
ATOM     71  C   UNL     1      -8.695  -2.837  12.353  1.00  0.00     0.173 A 
ATOM     72  F   UNL     1      -6.266  -0.576  13.843  1.00  0.00    -0.203 F 
ATOM     73  C   UNL     1      -6.514  -2.905  14.070  1.00  0.00     0.198 A 
ATOM     74  C   UNL     1      -8.284  -4.043  12.915  1.00  0.00     0.198 A 
ATOM     75  F   UNL     1      -9.746  -2.840  11.519  1.00  0.00    -0.203 F 
ATOM     76  F   UNL     1      -5.436  -2.939  14.866  1.00  0.00    -0.200 F 
ATOM     77  C   UNL     1      -7.187  -4.077  13.763  1.00  0.00     0.200 A 
ATOM     78  F   UNL     1      -8.944  -5.174  12.630  1.00  0.00    -0.200 F 
ATOM     79  F   UNL     1      -6.771  -5.243  14.277  1.00  0.00    -0.200 F 
ENDBRANCH  55  69
BRANCH  56  80
ATOM     80  C   UNL     1     -10.746   6.789   8.124  1.00  0.00     0.064 A 
ATOM     81  C   UNL     1     -10.794   7.974   8.872  1.00  0.00     0.173 A 
ATOM     82  C   UNL     1     -11.088   6.859   6.767  1.00  0.00     0.173 A 
ATOM     83  F   UNL     1     -10.497   7.951  10.180  1.00  0.00    -0.203 F 
ATOM     84  C   UNL     1     -11.181   9.179   8.290  1.00  0.00     0.198 A 
ATOM     85  C   UNL     1     -11.452   8.069   6.179  1.00  0.00     0.198 A 
ATOM     86  F   UNL     1     -11.056   5.753   6.008  1.00  0.00    -0.203 F 
ATOM     87  F   UNL     1     -11.253  10.289   9.037  1.00  0.00    -0.200 F 
ATOM     88  C   UNL     1     -11.504   9.227   6.942  1.00  0.00     0.200 A 
ATOM     89  F   UNL     1     -11.752   8.115   4.874  1.00  0.00    -0.200 F 
ATOM     90  F   UNL     1     -11.870  10.386   6.380  1.00  0.00    -0.200 F 
ENDBRANCH  56  80
BRANCH  68  91
ATOM     91  C   UNL     1     -13.723   2.782  12.973  1.00  0.00     0.064 A 
ATOM     92  C   UNL     1     -14.956   2.508  12.362  1.00  0.00     0.173 A 
ATOM     93  C   UNL     1     -13.727   3.127  14.333  1.00  0.00     0.173 A 
ATOM     94  F   UNL     1     -15.008   2.190  11.060  1.00  0.00    -0.203 F 
ATOM     95  C   UNL     1     -16.146   2.596  13.080  1.00  0.00     0.198 A 
ATOM     96  C   UNL     1     -14.917   3.189  15.054  1.00  0.00     0.198 A 
ATOM     97  F   UNL     1     -12.575   3.396  14.966  1.00  0.00    -0.203 F 
ATOM     98  F   UNL     1     -17.316   2.372  12.465  1.00  0.00    -0.200 F 
ATOM     99  C   UNL     1     -16.125   2.929  14.426  1.00  0.00     0.200 A 
ATOM    100  F   UNL     1     -14.893   3.501  16.358  1.00  0.00    -0.200 F 
ATOM    101  F   UNL     1     -17.271   3.008  15.117  1.00  0.00    -0.200 F 
ENDBRANCH  68  91
ENDBRANCH  42  43
ENDBRANCH  34  37
ENDBRANCH  32  33
ENDBRANCH  31  32
ENDBRANCH  30  31
ENDBRANCH   3  30
TORSDOF 16
