REMARK SMILES CC(C)n1c([C@H](O)CC(=O)NCCCNC(=O)c2ccc(-c3c4nc(c(-c5c(F)c(F)c(F)c(F)c5F)c5ccc([nH]5)c(-c5c(F)c(F)c(F)c(F)c5F)c5nc(c(-c6c(F)c(F)c(F)c(F)c6F)c6ccc3[nH]6)C=C5)C=C4)cc2)nc2cc(Cl)ccc21
REMARK SMILES IDX 12 1 11 2 9 3 10 4 8 6 6 7 5 8 4 9 88 10 81 11 82 12 87 13
REMARK SMILES IDX 83 14 86 15 84 16 85 17 2 18 1 19 3 20 7 21 13 23 14 24
REMARK SMILES IDX 15 25 16 26 17 28 18 29 19 30 80 31 20 32 79 33 21 34 22 35
REMARK SMILES IDX 23 36 73 37 24 38 78 39 72 40 74 41 25 42 77 43 71 44 70 45
REMARK SMILES IDX 26 47 58 48 38 49 57 50 39 51 42 52 56 53 75 54 40 55 41 56
REMARK SMILES IDX 55 58 76 59 43 60 27 61 28 62 36 63 29 64 30 65 34 66 37 67
REMARK SMILES IDX 31 68 32 69 35 70 33 71 59 72 60 73 68 74 61 75 62 76 66 77
REMARK SMILES IDX 69 78 63 79 64 80 67 81 65 82 44 83 45 84 53 85 46 86 47 87
REMARK SMILES IDX 51 88 54 89 48 90 49 91 52 92 50 93
REMARK H PARENT 11 5 7 22 15 27 74 46 42 57
REMARK Flexibility Score: inf
ROOT
ATOM      1  C   UNL     1      -2.284   2.654   2.271  1.00  0.00     0.117 C 
ENDROOT
BRANCH   1   2
ATOM      2  N   UNL     1      -1.245   3.500   1.710  1.00  0.00    -0.356 N 
ATOM      3  C   UNL     1      -0.830   3.629   0.412  1.00  0.00     0.223 C 
ATOM      4  O   UNL     1       0.131   4.349   0.172  1.00  0.00    -0.275 OA
ATOM      5  H   UNL     1      -0.768   4.065   2.360  1.00  0.00     0.163 HD
BRANCH   3   6
ATOM      6  C   UNL     1      -1.590   2.930  -0.695  1.00  0.00     0.140 C 
BRANCH   6   7
ATOM      7  C   UNL     1      -1.027   1.563  -1.029  1.00  0.00     0.190 C 
BRANCH   7   8
ATOM      8  C   UNL     1      -1.714   0.855  -2.172  1.00  0.00     0.139 A 
ATOM      9  N   UNL     1      -3.013   0.354  -2.266  1.00  0.00    -0.323 N 
ATOM     10  C   UNL     1      -3.108  -0.299  -3.495  1.00  0.00     0.069 A 
ATOM     11  N   UNL     1      -1.017   0.520  -3.245  1.00  0.00    -0.230 NA
ATOM     12  C   UNL     1      -1.846  -0.188  -4.059  1.00  0.00     0.090 A 
ATOM     13  C   UNL     1      -4.152  -0.977  -4.145  1.00  0.00     0.030 A 
ATOM     14  C   UNL     1      -1.573  -0.775  -5.302  1.00  0.00     0.051 A 
ATOM     15  C   UNL     1      -3.872  -1.559  -5.385  1.00  0.00     0.023 A 
ATOM     16  C   UNL     1      -2.602  -1.461  -5.949  1.00  0.00     0.043 A 
ATOM     17  Cl  UNL     1      -2.296  -2.201  -7.473  1.00  0.00    -0.084 Cl
BRANCH   9  18
ATOM     18  C   UNL     1      -4.151   0.389  -1.346  1.00  0.00     0.083 C 
ATOM     19  C   UNL     1      -3.906  -0.138   0.063  1.00  0.00     0.031 C 
ATOM     20  C   UNL     1      -4.949   1.693  -1.401  1.00  0.00     0.031 C 
ENDBRANCH   9  18
ENDBRANCH   7   8
BRANCH   7  21
ATOM     21  O   UNL     1      -1.025   0.653   0.059  1.00  0.00    -0.385 OA
ATOM     22  H   UNL     1      -1.938   0.433   0.299  1.00  0.00     0.211 HD
ENDBRANCH   7  21
ENDBRANCH   6   7
ENDBRANCH   3   6
ENDBRANCH   1   2
BRANCH   1  23
ATOM     23  C   UNL     1      -1.714   1.444   3.018  1.00  0.00     0.042 C 
BRANCH  23  24
ATOM     24  C   UNL     1      -1.057   1.812   4.342  1.00  0.00     0.118 C 
BRANCH  24  25
ATOM     25  N   UNL     1      -1.978   2.423   5.276  1.00  0.00    -0.352 N 
ATOM     26  C   UNL     1      -2.859   1.969   6.212  1.00  0.00     0.251 C 
ATOM     27  H   UNL     1      -1.965   3.406   5.223  1.00  0.00     0.163 HD
ATOM     28  O   UNL     1      -3.444   2.844   6.856  1.00  0.00    -0.269 OA
BRANCH  26  29
ATOM     29  C   UNL     1      -3.206   0.545   6.472  1.00  0.00     0.039 A 
ATOM     30  C   UNL     1      -2.639  -0.578   5.865  1.00  0.00     0.014 A 
ATOM     31  C   UNL     1      -4.247   0.349   7.402  1.00  0.00     0.014 A 
ATOM     32  C   UNL     1      -3.160  -1.850   6.112  1.00  0.00     0.010 A 
ATOM     33  C   UNL     1      -4.759  -0.914   7.660  1.00  0.00     0.010 A 
ATOM     34  C   UNL     1      -4.250  -2.010   6.973  1.00  0.00    -0.014 A 
BRANCH  34  35
ATOM     35  C   UNL     1      -4.776  -3.353   7.221  1.00  0.00     0.031 A 
ATOM     36  C   UNL     1      -3.824  -4.288   7.894  1.00  0.00     0.074 A 
ATOM     37  C   UNL     1      -6.072  -3.670   7.011  1.00  0.00     0.049 A 
ATOM     38  N   UNL     1      -3.448  -5.467   7.513  1.00  0.00    -0.248 NA
ATOM     39  C   UNL     1      -3.140  -3.810   9.109  1.00  0.00     0.031 C 
ATOM     40  C   UNL     1      -7.162  -2.767   6.622  1.00  0.00     0.029 A 
ATOM     41  N   UNL     1      -6.722  -4.854   7.205  1.00  0.00    -0.354 N 
ATOM     42  C   UNL     1      -2.599  -5.944   8.512  1.00  0.00     0.074 A 
ATOM     43  C   UNL     1      -2.354  -4.845   9.409  1.00  0.00     0.031 C 
ATOM     44  C   UNL     1      -8.350  -3.376   6.836  1.00  0.00     0.029 A 
ATOM     45  C   UNL     1      -8.109  -4.747   7.244  1.00  0.00     0.049 A 
ATOM     46  H   UNL     1      -6.249  -5.712   7.309  1.00  0.00     0.167 HD
ATOM     47  C   UNL     1      -2.310  -7.268   8.645  1.00  0.00     0.037 A 
ATOM     48  C   UNL     1      -8.989  -5.699   7.647  1.00  0.00     0.037 A 
ATOM     49  C   UNL     1      -2.593  -7.998   7.444  1.00  0.00     0.049 A 
ATOM     50  C   UNL     1      -8.286  -7.001   7.589  1.00  0.00     0.074 A 
ATOM     51  C   UNL     1      -2.075  -8.015   6.166  1.00  0.00     0.029 A 
ATOM     52  N   UNL     1      -3.795  -8.653   7.373  1.00  0.00    -0.354 N 
ATOM     53  N   UNL     1      -7.904  -7.582   6.488  1.00  0.00    -0.248 NA
ATOM     54  C   UNL     1      -7.647  -7.480   8.805  1.00  0.00     0.031 C 
ATOM     55  C   UNL     1      -3.189  -8.272   5.315  1.00  0.00     0.029 A 
ATOM     56  C   UNL     1      -4.314  -8.450   6.122  1.00  0.00     0.049 A 
ATOM     57  H   UNL     1      -4.211  -9.177   8.095  1.00  0.00     0.167 HD
ATOM     58  C   UNL     1      -6.691  -8.169   6.808  1.00  0.00     0.074 A 
ATOM     59  C   UNL     1      -6.642  -8.172   8.266  1.00  0.00     0.031 C 
ATOM     60  C   UNL     1      -5.729  -8.335   5.855  1.00  0.00     0.037 A 
BRANCH  47  61
ATOM     61  C   UNL     1      -2.095  -7.952   9.970  1.00  0.00     0.064 A 
ATOM     62  C   UNL     1      -1.562  -9.255  10.017  1.00  0.00     0.173 A 
ATOM     63  C   UNL     1      -2.667  -7.482  11.173  1.00  0.00     0.173 A 
ATOM     64  F   UNL     1      -1.037  -9.817   8.918  1.00  0.00    -0.203 F 
ATOM     65  C   UNL     1      -1.633 -10.039  11.173  1.00  0.00     0.198 A 
ATOM     66  C   UNL     1      -2.691  -8.247  12.337  1.00  0.00     0.198 A 
ATOM     67  F   UNL     1      -3.323  -6.316  11.232  1.00  0.00    -0.203 F 
ATOM     68  F   UNL     1      -1.210 -11.311  11.143  1.00  0.00    -0.200 F 
ATOM     69  C   UNL     1      -2.196  -9.535  12.332  1.00  0.00     0.200 A 
ATOM     70  F   UNL     1      -3.269  -7.751  13.440  1.00  0.00    -0.200 F 
ATOM     71  F   UNL     1      -2.310 -10.301  13.425  1.00  0.00    -0.200 F 
ENDBRANCH  47  61
BRANCH  48  72
ATOM     72  C   UNL     1     -10.257  -5.539   8.405  1.00  0.00     0.064 A 
ATOM     73  C   UNL     1     -11.158  -6.612   8.537  1.00  0.00     0.173 A 
ATOM     74  C   UNL     1     -10.461  -4.447   9.271  1.00  0.00     0.173 A 
ATOM     75  F   UNL     1     -11.015  -7.709   7.779  1.00  0.00    -0.203 F 
ATOM     76  C   UNL     1     -12.166  -6.613   9.507  1.00  0.00     0.198 A 
ATOM     77  C   UNL     1     -11.473  -4.446  10.233  1.00  0.00     0.198 A 
ATOM     78  F   UNL     1      -9.619  -3.404   9.273  1.00  0.00    -0.203 F 
ATOM     79  F   UNL     1     -12.953  -7.688   9.653  1.00  0.00    -0.200 F 
ATOM     80  C   UNL     1     -12.313  -5.536  10.364  1.00  0.00     0.200 A 
ATOM     81  F   UNL     1     -11.582  -3.412  11.079  1.00  0.00    -0.200 F 
ATOM     82  F   UNL     1     -13.230  -5.566  11.341  1.00  0.00    -0.200 F 
ENDBRANCH  48  72
BRANCH  60  83
ATOM     83  C   UNL     1      -6.138  -8.160   4.418  1.00  0.00     0.064 A 
ATOM     84  C   UNL     1      -6.595  -6.950   3.865  1.00  0.00     0.173 A 
ATOM     85  C   UNL     1      -5.932  -9.231   3.538  1.00  0.00     0.173 A 
ATOM     86  F   UNL     1      -6.727  -5.852   4.619  1.00  0.00    -0.203 F 
ATOM     87  C   UNL     1      -6.871  -6.835   2.503  1.00  0.00     0.198 A 
ATOM     88  C   UNL     1      -6.170  -9.102   2.173  1.00  0.00     0.198 A 
ATOM     89  F   UNL     1      -5.448 -10.395   3.999  1.00  0.00    -0.203 F 
ATOM     90  F   UNL     1      -7.316  -5.673   2.002  1.00  0.00    -0.200 F 
ATOM     91  C   UNL     1      -6.649  -7.908   1.657  1.00  0.00     0.200 A 
ATOM     92  F   UNL     1      -5.906 -10.127   1.351  1.00  0.00    -0.200 F 
ATOM     93  F   UNL     1      -6.869  -7.784   0.341  1.00  0.00    -0.200 F 
ENDBRANCH  60  83
ENDBRANCH  34  35
ENDBRANCH  26  29
ENDBRANCH  24  25
ENDBRANCH  23  24
ENDBRANCH   1  23
TORSDOF 14
