REMARK SMILES O=C(CCCC(=O)Nc1ccc(C(=O)N2CCOCC2)cc1)NCCCNC(=O)c1ccc(-c2c3nc(c(-c4c(F)c(F)c(F)c(F)c4F)c4ccc([nH]4)c(-c4c(F)c(F)c(F)c(F)c4F)c4nc(c(-c5c(F)c(F)c(F)c(F)c5F)c5ccc2[nH]5)C=C4)C=C3)cc1
REMARK SMILES IDX 1 1 2 2 23 3 3 5 4 6 5 7 6 8 7 9 8 10 9 12 10 13 22 14 11 15
REMARK SMILES IDX 21 16 12 17 13 18 14 19 15 20 16 21 20 22 17 23 19 24 18 25
REMARK SMILES IDX 24 26 25 27 26 28 27 29 28 30 29 32 30 33 31 34 92 35 32 36
REMARK SMILES IDX 91 37 33 38 34 39 35 40 85 41 36 42 90 43 84 44 86 45 37 46
REMARK SMILES IDX 89 47 83 48 82 49 38 51 70 52 50 53 69 54 51 55 54 56 68 57
REMARK SMILES IDX 87 58 52 59 53 60 67 62 88 63 55 64 39 65 40 66 48 67 41 68
REMARK SMILES IDX 42 69 46 70 49 71 43 72 44 73 47 74 45 75 71 76 72 77 80 78
REMARK SMILES IDX 73 79 74 80 78 81 81 82 75 83 76 84 79 85 77 86 56 87 57 88
REMARK SMILES IDX 65 89 58 90 59 91 63 92 66 93 60 94 61 95 64 96 62 97
REMARK H PARENT 23 4 8 11 27 31 86 50 54 61
REMARK Flexibility Score: inf
ROOT
ATOM      1  O   UNL     1       1.564   2.386   1.424  1.00  0.00    -0.275 OA
ATOM      2  C   UNL     1       2.179   1.474   0.880  1.00  0.00     0.220 C 
ATOM      3  N   UNL     1       2.367   0.249   1.480  1.00  0.00    -0.356 N 
ATOM      4  H   UNL     1       2.817  -0.470   0.980  1.00  0.00     0.163 HD
ENDROOT
BRANCH   2   5
ATOM      5  C   UNL     1       2.699   1.606  -0.542  1.00  0.00     0.100 C 
BRANCH   5   6
ATOM      6  C   UNL     1       4.214   1.588  -0.806  1.00  0.00     0.020 C 
BRANCH   6   7
ATOM      7  C   UNL     1       5.129   0.668   0.001  1.00  0.00     0.101 C 
BRANCH   7   8
ATOM      8  C   UNL     1       5.800  -0.547  -0.659  1.00  0.00     0.224 C 
ATOM      9  O   UNL     1       6.965  -0.480  -1.055  1.00  0.00    -0.275 OA
ATOM     10  N   UNL     1       5.195  -1.779  -0.584  1.00  0.00    -0.326 N 
ATOM     11  H   UNL     1       5.790  -2.539  -0.394  1.00  0.00     0.169 HD
BRANCH  10  12
ATOM     12  C   UNL     1       3.844  -2.087  -0.744  1.00  0.00     0.041 A 
ATOM     13  C   UNL     1       3.255  -3.079   0.033  1.00  0.00     0.027 A 
ATOM     14  C   UNL     1       3.074  -1.416  -1.682  1.00  0.00     0.027 A 
ATOM     15  C   UNL     1       1.858  -3.213   0.032  1.00  0.00     0.016 A 
ATOM     16  C   UNL     1       1.683  -1.555  -1.687  1.00  0.00     0.016 A 
ATOM     17  C   UNL     1       1.046  -2.390  -0.771  1.00  0.00     0.040 A 
BRANCH  17  18
ATOM     18  C   UNL     1      -0.410  -2.284  -0.406  1.00  0.00     0.254 C 
ATOM     19  O   UNL     1      -0.806  -2.960   0.545  1.00  0.00    -0.269 OA
ATOM     20  N   UNL     1      -1.204  -1.286  -0.954  1.00  0.00    -0.334 N 
ATOM     21  C   UNL     1      -1.392  -0.993  -2.376  1.00  0.00     0.148 C 
ATOM     22  C   UNL     1      -2.211  -0.642  -0.105  1.00  0.00     0.148 C 
ATOM     23  C   UNL     1      -1.418   0.525  -2.589  1.00  0.00     0.181 C 
ATOM     24  C   UNL     1      -2.263   0.866  -0.398  1.00  0.00     0.181 C 
ATOM     25  O   UNL     1      -2.459   1.125  -1.800  1.00  0.00    -0.378 OA
ENDBRANCH  17  18
ENDBRANCH  10  12
ENDBRANCH   7   8
ENDBRANCH   6   7
ENDBRANCH   5   6
ENDBRANCH   2   5
BRANCH   3  26
ATOM     26  C   UNL     1       1.915  -0.001   2.835  1.00  0.00     0.117 C 
BRANCH  26  27
ATOM     27  C   UNL     1       2.295  -1.376   3.382  1.00  0.00     0.042 C 
BRANCH  27  28
ATOM     28  C   UNL     1       3.792  -1.661   3.498  1.00  0.00     0.118 C 
BRANCH  28  29
ATOM     29  N   UNL     1       4.467  -0.823   4.473  1.00  0.00    -0.352 N 
ATOM     30  C   UNL     1       5.202  -1.139   5.590  1.00  0.00     0.251 C 
ATOM     31  H   UNL     1       4.383   0.143   4.304  1.00  0.00     0.163 HD
ATOM     32  O   UNL     1       5.569  -0.234   6.334  1.00  0.00    -0.269 OA
BRANCH  30  33
ATOM     33  C   UNL     1       5.546  -2.540   5.942  1.00  0.00     0.039 A 
ATOM     34  C   UNL     1       5.505  -2.904   7.295  1.00  0.00     0.014 A 
ATOM     35  C   UNL     1       5.980  -3.475   4.998  1.00  0.00     0.014 A 
ATOM     36  C   UNL     1       5.836  -4.204   7.689  1.00  0.00     0.010 A 
ATOM     37  C   UNL     1       6.258  -4.792   5.386  1.00  0.00     0.010 A 
ATOM     38  C   UNL     1       6.184  -5.173   6.735  1.00  0.00    -0.014 A 
BRANCH  38  39
ATOM     39  C   UNL     1       6.434  -6.583   7.147  1.00  0.00     0.031 A 
ATOM     40  C   UNL     1       7.801  -7.200   7.029  1.00  0.00     0.074 A 
ATOM     41  C   UNL     1       5.410  -7.329   7.605  1.00  0.00     0.049 A 
ATOM     42  N   UNL     1       8.190  -8.415   7.333  1.00  0.00    -0.248 NA
ATOM     43  C   UNL     1       8.868  -6.350   6.483  1.00  0.00     0.031 C 
ATOM     44  C   UNL     1       4.025  -6.871   7.731  1.00  0.00     0.029 A 
ATOM     45  N   UNL     1       5.371  -8.629   8.047  1.00  0.00    -0.354 N 
ATOM     46  C   UNL     1       9.539  -8.478   7.009  1.00  0.00     0.074 A 
ATOM     47  C   UNL     1       9.893  -7.191   6.446  1.00  0.00     0.031 C 
ATOM     48  C   UNL     1       3.279  -7.865   8.238  1.00  0.00     0.029 A 
ATOM     49  C   UNL     1       4.122  -9.039   8.445  1.00  0.00     0.049 A 
ATOM     50  H   UNL     1       6.164  -9.212   8.075  1.00  0.00     0.167 HD
ATOM     51  C   UNL     1      10.407  -9.505   7.182  1.00  0.00     0.037 A 
ATOM     52  C   UNL     1       3.699 -10.225   8.923  1.00  0.00     0.037 A 
ATOM     53  C   UNL     1      10.066 -10.780   7.761  1.00  0.00     0.049 A 
ATOM     54  C   UNL     1       4.685 -11.345   9.111  1.00  0.00     0.074 A 
ATOM     55  C   UNL     1      10.895 -11.858   8.025  1.00  0.00     0.029 A 
ATOM     56  N   UNL     1       8.793 -11.151   8.165  1.00  0.00    -0.354 N 
ATOM     57  N   UNL     1       5.970 -11.367   8.860  1.00  0.00    -0.248 NA
ATOM     58  C   UNL     1       4.159 -12.604   9.659  1.00  0.00     0.031 C 
ATOM     59  C   UNL     1      10.117 -12.895   8.551  1.00  0.00     0.029 A 
ATOM     60  C   UNL     1       8.811 -12.448   8.658  1.00  0.00     0.049 A 
ATOM     61  H   UNL     1       7.994 -10.579   8.111  1.00  0.00     0.167 HD
ATOM     62  C   UNL     1       6.411 -12.627   9.242  1.00  0.00     0.074 A 
ATOM     63  C   UNL     1       5.259 -13.336   9.757  1.00  0.00     0.031 C 
ATOM     64  C   UNL     1       7.661 -13.147   9.172  1.00  0.00     0.037 A 
BRANCH  51  65
ATOM     65  C   UNL     1      11.827  -9.296   6.739  1.00  0.00     0.064 A 
ATOM     66  C   UNL     1      12.699  -8.454   7.446  1.00  0.00     0.173 A 
ATOM     67  C   UNL     1      12.337  -9.986   5.630  1.00  0.00     0.173 A 
ATOM     68  F   UNL     1      12.258  -7.765   8.509  1.00  0.00    -0.203 F 
ATOM     69  C   UNL     1      14.022  -8.291   7.042  1.00  0.00     0.198 A 
ATOM     70  C   UNL     1      13.668  -9.843   5.245  1.00  0.00     0.198 A 
ATOM     71  F   UNL     1      11.548 -10.811   4.925  1.00  0.00    -0.203 F 
ATOM     72  F   UNL     1      14.825  -7.450   7.708  1.00  0.00    -0.200 F 
ATOM     73  C   UNL     1      14.507  -8.991   5.948  1.00  0.00     0.200 A 
ATOM     74  F   UNL     1      14.139 -10.530   4.195  1.00  0.00    -0.200 F 
ATOM     75  F   UNL     1      15.783  -8.840   5.566  1.00  0.00    -0.200 F 
ENDBRANCH  51  65
BRANCH  52  76
ATOM     76  C   UNL     1       2.271 -10.406   9.289  1.00  0.00     0.064 A 
ATOM     77  C   UNL     1       1.881 -10.517  10.630  1.00  0.00     0.173 A 
ATOM     78  C   UNL     1       1.272 -10.476   8.308  1.00  0.00     0.173 A 
ATOM     79  F   UNL     1       2.805 -10.479  11.601  1.00  0.00    -0.203 F 
ATOM     80  C   UNL     1       0.546 -10.710  10.977  1.00  0.00     0.198 A 
ATOM     81  C   UNL     1      -0.067 -10.642   8.657  1.00  0.00     0.198 A 
ATOM     82  F   UNL     1       1.595 -10.373   7.011  1.00  0.00    -0.203 F 
ATOM     83  F   UNL     1       0.205 -10.857  12.264  1.00  0.00    -0.200 F 
ATOM     84  C   UNL     1      -0.428 -10.766   9.991  1.00  0.00     0.200 A 
ATOM     85  F   UNL     1      -1.006 -10.685   7.702  1.00  0.00    -0.200 F 
ATOM     86  F   UNL     1      -1.712 -10.948  10.325  1.00  0.00    -0.200 F 
ENDBRANCH  52  76
BRANCH  64  87
ATOM     87  C   UNL     1       7.853 -14.542   9.692  1.00  0.00     0.064 A 
ATOM     88  C   UNL     1       7.359 -15.660   9.003  1.00  0.00     0.173 A 
ATOM     89  C   UNL     1       8.554 -14.764  10.887  1.00  0.00     0.173 A 
ATOM     90  F   UNL     1       6.668 -15.499   7.864  1.00  0.00    -0.203 F 
ATOM     91  C   UNL     1       7.534 -16.946   9.507  1.00  0.00     0.198 A 
ATOM     92  C   UNL     1       8.750 -16.054  11.374  1.00  0.00     0.198 A 
ATOM     93  F   UNL     1       9.051 -13.730  11.582  1.00  0.00    -0.203 F 
ATOM     94  F   UNL     1       7.008 -17.995   8.859  1.00  0.00    -0.200 F 
ATOM     95  C   UNL     1       8.233 -17.143  10.689  1.00  0.00     0.200 A 
ATOM     96  F   UNL     1       9.435 -16.243  12.511  1.00  0.00    -0.200 F 
ATOM     97  F   UNL     1       8.399 -18.381  11.172  1.00  0.00    -0.200 F 
ENDBRANCH  64  87
ENDBRANCH  38  39
ENDBRANCH  30  33
ENDBRANCH  28  29
ENDBRANCH  27  28
ENDBRANCH  26  27
ENDBRANCH   3  26
TORSDOF 15
