REMARK SMILES CCOC(=O)c1noc(C)c1C(=O)NCCCNC(=O)c1ccc(-c2c3nc(c(-c4c(F)c(F)c(F)c(F)c4F)c4ccc([nH]4)c(-c4c(F)c(F)c(F)c(F)c4F)c4nc(c(-c5c(F)c(F)c(F)c(F)c5F)c5ccc2[nH]5)C=C4)C=C3)cc1
REMARK SMILES IDX 15 1 14 2 12 3 13 4 11 6 6 7 7 8 8 9 9 10 10 11 4 12 5 13
REMARK SMILES IDX 3 14 2 15 1 16 16 17 17 18 18 19 19 20 20 22 21 23 22 24
REMARK SMILES IDX 83 25 23 26 82 27 24 28 25 29 26 30 76 31 27 32 81 33 75 34
REMARK SMILES IDX 77 35 28 36 80 37 74 38 73 39 29 41 61 42 41 43 60 44 42 45
REMARK SMILES IDX 45 46 59 47 78 48 43 49 44 50 58 52 79 53 46 54 30 55 31 56
REMARK SMILES IDX 39 57 32 58 33 59 37 60 40 61 34 62 35 63 38 64 36 65 62 66
REMARK SMILES IDX 63 67 71 68 64 69 65 70 69 71 72 72 66 73 67 74 70 75 68 76
REMARK SMILES IDX 47 77 48 78 56 79 49 80 50 81 54 82 57 83 51 84 52 85 55 86
REMARK SMILES IDX 53 87
REMARK H PARENT 14 5 18 21 77 40 45 51
REMARK Flexibility Score: inf
ROOT
ATOM      1  C   UNL     1       1.674  -1.806   7.827  1.00  0.00     0.118 C 
ENDROOT
BRANCH   1   2
ATOM      2  N   UNL     1       1.180  -1.949   6.481  1.00  0.00    -0.352 N 
ATOM      3  C   UNL     1       1.494  -1.378   5.284  1.00  0.00     0.257 C 
ATOM      4  O   UNL     1       0.893  -1.882   4.331  1.00  0.00    -0.269 OA
ATOM      5  H   UNL     1       0.452  -2.608   6.410  1.00  0.00     0.163 HD
BRANCH   3   6
ATOM      6  C   UNL     1       2.464  -0.313   5.064  1.00  0.00     0.117 A 
ATOM      7  C   UNL     1       2.910   0.043   3.736  1.00  0.00     0.204 A 
ATOM      8  N   UNL     1       3.844   1.001   3.765  1.00  0.00    -0.072 NA
ATOM      9  O   UNL     1       3.988   1.336   5.081  1.00  0.00    -0.360 OA
ATOM     10  C   UNL     1       3.161   0.585   5.862  1.00  0.00     0.147 A 
ATOM     11  C   UNL     1       3.279   0.979   7.278  1.00  0.00     0.092 C 
BRANCH   7  12
ATOM     12  C   UNL     1       2.473  -0.502   2.459  1.00  0.00     0.361 C 
ATOM     13  O   UNL     1       3.211  -1.125   1.699  1.00  0.00    -0.244 OA
BRANCH  12  14
ATOM     14  O   UNL     1       1.168  -0.196   2.199  1.00  0.00    -0.461 OA
BRANCH  14  15
ATOM     15  C   UNL     1       0.629  -0.756   0.996  1.00  0.00     0.230 C 
ATOM     16  C   UNL     1       0.921   0.158  -0.178  1.00  0.00     0.049 C 
ENDBRANCH  14  15
ENDBRANCH  12  14
ENDBRANCH   7  12
ENDBRANCH   3   6
ENDBRANCH   1   2
BRANCH   1  17
ATOM     17  C   UNL     1       0.723  -0.962   8.673  1.00  0.00     0.042 C 
BRANCH  17  18
ATOM     18  C   UNL     1      -0.504  -1.724   9.166  1.00  0.00     0.118 C 
BRANCH  18  19
ATOM     19  N   UNL     1      -0.147  -2.773  10.109  1.00  0.00    -0.352 N 
ATOM     20  C   UNL     1      -0.493  -2.946  11.424  1.00  0.00     0.251 C 
ATOM     21  H   UNL     1       0.440  -3.474   9.743  1.00  0.00     0.163 HD
ATOM     22  O   UNL     1       0.129  -3.756  12.106  1.00  0.00    -0.269 OA
BRANCH  20  23
ATOM     23  C   UNL     1      -1.597  -2.173  12.031  1.00  0.00     0.039 A 
ATOM     24  C   UNL     1      -1.478  -1.773  13.366  1.00  0.00     0.014 A 
ATOM     25  C   UNL     1      -2.769  -1.893  11.323  1.00  0.00     0.014 A 
ATOM     26  C   UNL     1      -2.508  -1.051  13.970  1.00  0.00     0.010 A 
ATOM     27  C   UNL     1      -3.761  -1.103  11.900  1.00  0.00     0.010 A 
ATOM     28  C   UNL     1      -3.644  -0.681  13.232  1.00  0.00    -0.014 A 
BRANCH  28  29
ATOM     29  C   UNL     1      -4.707   0.157  13.841  1.00  0.00     0.031 A 
ATOM     30  C   UNL     1      -6.099  -0.381  14.015  1.00  0.00     0.074 A 
ATOM     31  C   UNL     1      -4.420   1.425  14.194  1.00  0.00     0.049 A 
ATOM     32  N   UNL     1      -7.161   0.213  14.500  1.00  0.00    -0.248 NA
ATOM     33  C   UNL     1      -6.339  -1.760  13.563  1.00  0.00     0.031 C 
ATOM     34  C   UNL     1      -3.119   2.074  14.023  1.00  0.00     0.029 A 
ATOM     35  N   UNL     1      -5.203   2.397  14.763  1.00  0.00    -0.354 N 
ATOM     36  C   UNL     1      -8.191  -0.714  14.403  1.00  0.00     0.074 A 
ATOM     37  C   UNL     1      -7.643  -1.887  13.758  1.00  0.00     0.031 C 
ATOM     38  C   UNL     1      -3.184   3.324  14.507  1.00  0.00     0.029 A 
ATOM     39  C   UNL     1      -4.540   3.579  14.982  1.00  0.00     0.049 A 
ATOM     40  H   UNL     1      -6.151   2.260  14.994  1.00  0.00     0.167 HD
ATOM     41  C   UNL     1      -9.470  -0.603  14.835  1.00  0.00     0.037 A 
ATOM     42  C   UNL     1      -4.978   4.741  15.502  1.00  0.00     0.037 A 
ATOM     43  C   UNL     1     -10.004   0.565  15.488  1.00  0.00     0.049 A 
ATOM     44  C   UNL     1      -6.407   4.840  15.962  1.00  0.00     0.074 A 
ATOM     45  C   UNL     1     -11.269   0.758  16.014  1.00  0.00     0.029 A 
ATOM     46  N   UNL     1      -9.301   1.744  15.696  1.00  0.00    -0.354 N 
ATOM     47  N   UNL     1      -7.351   3.931  15.935  1.00  0.00    -0.248 NA
ATOM     48  C   UNL     1      -6.827   6.126  16.533  1.00  0.00     0.031 C 
ATOM     49  C   UNL     1     -11.350   2.072  16.489  1.00  0.00     0.029 A 
ATOM     50  C   UNL     1     -10.115   2.678  16.317  1.00  0.00     0.049 A 
ATOM     51  H   UNL     1      -8.362   1.894  15.441  1.00  0.00     0.167 HD
ATOM     52  C   UNL     1      -8.468   4.524  16.507  1.00  0.00     0.074 A 
ATOM     53  C   UNL     1      -8.075   5.864  16.893  1.00  0.00     0.031 C 
ATOM     54  C   UNL     1      -9.709   4.009  16.692  1.00  0.00     0.037 A 
BRANCH  41  55
ATOM     55  C   UNL     1     -10.384  -1.776  14.614  1.00  0.00     0.064 A 
ATOM     56  C   UNL     1     -10.208  -2.988  15.301  1.00  0.00     0.173 A 
ATOM     57  C   UNL     1     -11.473  -1.677  13.734  1.00  0.00     0.173 A 
ATOM     58  F   UNL     1      -9.178  -3.142  16.146  1.00  0.00    -0.203 F 
ATOM     59  C   UNL     1     -11.066  -4.065  15.090  1.00  0.00     0.198 A 
ATOM     60  C   UNL     1     -12.349  -2.744  13.552  1.00  0.00     0.198 A 
ATOM     61  F   UNL     1     -11.693  -0.541  13.056  1.00  0.00    -0.203 F 
ATOM     62  F   UNL     1     -10.845  -5.229  15.717  1.00  0.00    -0.200 F 
ATOM     63  C   UNL     1     -12.140  -3.939  14.223  1.00  0.00     0.200 A 
ATOM     64  F   UNL     1     -13.396  -2.616  12.724  1.00  0.00    -0.200 F 
ATOM     65  F   UNL     1     -12.971  -4.973  14.027  1.00  0.00    -0.200 F 
ENDBRANCH  41  55
BRANCH  42  66
ATOM     66  C   UNL     1      -4.048   5.894  15.635  1.00  0.00     0.064 A 
ATOM     67  C   UNL     1      -3.644   6.353  16.897  1.00  0.00     0.173 A 
ATOM     68  C   UNL     1      -3.549   6.563  14.508  1.00  0.00     0.173 A 
ATOM     69  F   UNL     1      -4.107   5.757  18.005  1.00  0.00    -0.203 F 
ATOM     70  C   UNL     1      -2.797   7.451  17.027  1.00  0.00     0.198 A 
ATOM     71  C   UNL     1      -2.676   7.641  14.638  1.00  0.00     0.198 A 
ATOM     72  F   UNL     1      -3.897   6.160  13.277  1.00  0.00    -0.203 F 
ATOM     73  F   UNL     1      -2.468   7.900  18.246  1.00  0.00    -0.200 F 
ATOM     74  C   UNL     1      -2.309   8.091  15.898  1.00  0.00     0.200 A 
ATOM     75  F   UNL     1      -2.192   8.244  13.544  1.00  0.00    -0.200 F 
ATOM     76  F   UNL     1      -1.491   9.145  16.023  1.00  0.00    -0.200 F 
ENDBRANCH  42  66
BRANCH  54  77
ATOM     77  C   UNL     1     -10.721   4.890  17.368  1.00  0.00     0.064 A 
ATOM     78  C   UNL     1     -11.250   6.026  16.736  1.00  0.00     0.173 A 
ATOM     79  C   UNL     1     -11.181   4.583  18.658  1.00  0.00     0.173 A 
ATOM     80  F   UNL     1     -10.832   6.372  15.509  1.00  0.00    -0.203 F 
ATOM     81  C   UNL     1     -12.172   6.842  17.385  1.00  0.00     0.198 A 
ATOM     82  C   UNL     1     -12.132   5.381  19.289  1.00  0.00     0.198 A 
ATOM     83  F   UNL     1     -10.715   3.504  19.304  1.00  0.00    -0.203 F 
ATOM     84  F   UNL     1     -12.615   7.956  16.787  1.00  0.00    -0.200 F 
ATOM     85  C   UNL     1     -12.618   6.515  18.657  1.00  0.00     0.200 A 
ATOM     86  F   UNL     1     -12.573   5.054  20.511  1.00  0.00    -0.200 F 
ATOM     87  F   UNL     1     -13.509   7.300  19.279  1.00  0.00    -0.200 F 
ENDBRANCH  54  77
ENDBRANCH  28  29
ENDBRANCH  20  23
ENDBRANCH  18  19
ENDBRANCH  17  18
ENDBRANCH   1  17
TORSDOF 13
