REMARK SMILES CN(C)S(=O)(=O)c1ccc(NC(=O)[C@@H]2CCCC[C@@H]2C(=O)NCCCNC(=O)c2ccc(-c3c4nc(c(-c5c(F)c(F)c(F)c(F)c5F)c5ccc([nH]5)c(-c5c(F)c(F)c(F)c(F)c5F)c5nc(c(-c6c(F)c(F)c(F)c(F)c6F)c6ccc3[nH]6)C=C5)C=C4)cc2)cc1
REMARK SMILES IDX 23 1 22 2 20 3 21 4 19 6 14 7 15 8 16 9 18 10 17 11 12 12
REMARK SMILES IDX 11 13 13 15 10 16 7 17 8 18 93 19 9 20 92 21 4 22 5 23 6 24
REMARK SMILES IDX 2 25 1 26 3 27 24 28 25 29 26 30 27 31 28 33 29 34 30 35
REMARK SMILES IDX 91 36 31 37 90 38 32 39 33 40 34 41 84 42 35 43 89 44 83 45
REMARK SMILES IDX 85 46 36 47 88 48 82 49 81 50 37 52 69 53 49 54 68 55 50 56
REMARK SMILES IDX 53 57 67 58 86 59 51 60 52 61 66 63 87 64 54 65 38 66 39 67
REMARK SMILES IDX 47 68 40 69 41 70 45 71 48 72 42 73 43 74 46 75 44 76 70 77
REMARK SMILES IDX 71 78 79 79 72 80 73 81 77 82 80 83 74 84 75 85 78 86 76 87
REMARK SMILES IDX 55 88 56 89 64 90 57 91 58 92 62 93 65 94 59 95 60 96 63 97
REMARK SMILES IDX 61 98
REMARK H PARENT 22 5 11 14 26 32 85 51 53 62
REMARK Flexibility Score: inf
ROOT
ATOM      1  C   UNL     1      -1.912  10.884  -3.812  1.00  0.00     0.117 C 
ENDROOT
BRANCH   1   2
ATOM      2  N   UNL     1      -2.265   9.969  -4.877  1.00  0.00    -0.356 N 
ATOM      3  C   UNL     1      -1.633   9.009  -5.581  1.00  0.00     0.223 C 
ATOM      4  O   UNL     1      -2.398   8.369  -6.314  1.00  0.00    -0.275 OA
ATOM      5  H   UNL     1      -3.202  10.074  -5.158  1.00  0.00     0.163 HD
BRANCH   3   6
ATOM      6  C   UNL     1      -0.133   8.662  -5.537  1.00  0.00     0.091 C 
ATOM      7  C   UNL     1       0.048   7.132  -5.328  1.00  0.00     0.091 C 
ATOM      8  C   UNL     1      -0.544   6.801  -3.944  1.00  0.00     0.014 C 
ATOM      9  C   UNL     1       0.389   7.378  -2.879  1.00  0.00     0.001 C 
ATOM     10  C   UNL     1       0.792   9.337  -4.507  1.00  0.00     0.014 C 
ATOM     11  C   UNL     1       0.585   8.882  -3.050  1.00  0.00     0.001 C 
BRANCH   7  12
ATOM     12  C   UNL     1      -0.333   6.224  -6.511  1.00  0.00     0.228 C 
ATOM     13  N   UNL     1      -0.300   4.853  -6.390  1.00  0.00    -0.326 N 
ATOM     14  H   UNL     1      -0.716   4.363  -7.135  1.00  0.00     0.169 HD
ATOM     15  O   UNL     1      -0.606   6.684  -7.622  1.00  0.00    -0.274 OA
BRANCH  13  16
ATOM     16  C   UNL     1       0.231   4.040  -5.375  1.00  0.00     0.041 A 
ATOM     17  C   UNL     1       0.830   2.682  -3.013  1.00  0.00     0.082 A 
ATOM     18  C   UNL     1       1.622   3.758  -3.421  1.00  0.00     0.024 A 
ATOM     19  C   UNL     1      -0.132   2.163  -3.878  1.00  0.00     0.024 A 
ATOM     20  C   UNL     1       1.346   4.405  -4.622  1.00  0.00     0.027 A 
ATOM     21  C   UNL     1      -0.434   2.850  -5.064  1.00  0.00     0.027 A 
BRANCH  17  22
ATOM     22  S   UNL     1       1.105   2.102  -1.357  1.00  0.00     0.242 S 
ATOM     23  O   UNL     1       0.455   3.049  -0.469  1.00  0.00    -0.207 OA
ATOM     24  O   UNL     1       2.525   1.846  -1.262  1.00  0.00    -0.207 OA
BRANCH  22  25
ATOM     25  N   UNL     1       0.291   0.605  -1.187  1.00  0.00    -0.204 NA
ATOM     26  C   UNL     1       0.892  -0.228  -0.109  1.00  0.00     0.124 C 
ATOM     27  C   UNL     1      -1.179   0.698  -0.990  1.00  0.00     0.124 C 
ENDBRANCH  22  25
ENDBRANCH  17  22
ENDBRANCH  13  16
ENDBRANCH   7  12
ENDBRANCH   3   6
ENDBRANCH   1   2
BRANCH   1  28
ATOM     28  C   UNL     1      -2.534  12.255  -3.997  1.00  0.00     0.042 C 
BRANCH  28  29
ATOM     29  C   UNL     1      -4.053  12.241  -3.954  1.00  0.00     0.118 C 
BRANCH  29  30
ATOM     30  N   UNL     1      -4.579  11.884  -2.641  1.00  0.00    -0.352 N 
ATOM     31  C   UNL     1      -5.050  12.677  -1.621  1.00  0.00     0.251 C 
ATOM     32  H   UNL     1      -4.599  10.917  -2.454  1.00  0.00     0.163 HD
ATOM     33  O   UNL     1      -5.248  12.196  -0.510  1.00  0.00    -0.269 OA
BRANCH  31  34
ATOM     34  C   UNL     1      -5.282  14.117  -1.853  1.00  0.00     0.039 A 
ATOM     35  C   UNL     1      -4.889  15.040  -0.880  1.00  0.00     0.014 A 
ATOM     36  C   UNL     1      -5.868  14.562  -3.037  1.00  0.00     0.014 A 
ATOM     37  C   UNL     1      -4.986  16.407  -1.147  1.00  0.00     0.010 A 
ATOM     38  C   UNL     1      -5.847  15.914  -3.352  1.00  0.00     0.010 A 
ATOM     39  C   UNL     1      -5.405  16.853  -2.411  1.00  0.00    -0.014 A 
BRANCH  39  40
ATOM     40  C   UNL     1      -5.380  18.291  -2.782  1.00  0.00     0.031 A 
ATOM     41  C   UNL     1      -6.648  18.981  -3.211  1.00  0.00     0.074 A 
ATOM     42  C   UNL     1      -4.202  18.945  -2.828  1.00  0.00     0.049 A 
ATOM     43  N   UNL     1      -6.813  20.192  -3.679  1.00  0.00    -0.248 NA
ATOM     44  C   UNL     1      -7.891  18.194  -3.140  1.00  0.00     0.031 C 
ATOM     45  C   UNL     1      -2.896  18.363  -2.505  1.00  0.00     0.029 A 
ATOM     46  N   UNL     1      -3.906  20.238  -3.181  1.00  0.00    -0.354 N 
ATOM     47  C   UNL     1      -8.165  20.299  -3.980  1.00  0.00     0.074 A 
ATOM     48  C   UNL     1      -8.768  19.017  -3.695  1.00  0.00     0.031 C 
ATOM     49  C   UNL     1      -1.946  19.300  -2.651  1.00  0.00     0.029 A 
ATOM     50  C   UNL     1      -2.565  20.534  -3.122  1.00  0.00     0.049 A 
ATOM     51  H   UNL     1      -4.590  20.892  -3.452  1.00  0.00     0.167 HD
ATOM     52  C   UNL     1      -8.845  21.380  -4.429  1.00  0.00     0.037 A 
ATOM     53  C   UNL     1      -1.908  21.669  -3.427  1.00  0.00     0.037 A 
ATOM     54  C   UNL     1      -8.247  22.667  -4.664  1.00  0.00     0.049 A 
ATOM     55  C   UNL     1      -2.696  22.858  -3.909  1.00  0.00     0.074 A 
ATOM     56  C   UNL     1      -8.865  23.850  -5.027  1.00  0.00     0.029 A 
ATOM     57  N   UNL     1      -6.891  22.938  -4.558  1.00  0.00    -0.354 N 
ATOM     58  N   UNL     1      -3.987  22.973  -4.100  1.00  0.00    -0.248 NA
ATOM     59  C   UNL     1      -1.934  24.077  -4.215  1.00  0.00     0.031 C 
ATOM     60  C   UNL     1      -7.878  24.825  -5.191  1.00  0.00     0.029 A 
ATOM     61  C   UNL     1      -6.650  24.263  -4.878  1.00  0.00     0.049 A 
ATOM     62  H   UNL     1      -6.203  22.285  -4.294  1.00  0.00     0.167 HD
ATOM     63  C   UNL     1      -4.196  24.278  -4.524  1.00  0.00     0.074 A 
ATOM     64  C   UNL     1      -2.900  24.924  -4.538  1.00  0.00     0.031 C 
ATOM     65  C   UNL     1      -5.353  24.887  -4.878  1.00  0.00     0.037 A 
BRANCH  52  66
ATOM     66  C   UNL     1     -10.317  21.232  -4.681  1.00  0.00     0.064 A 
ATOM     67  C   UNL     1     -11.233  21.090  -3.628  1.00  0.00     0.173 A 
ATOM     68  C   UNL     1     -10.825  21.306  -5.987  1.00  0.00     0.173 A 
ATOM     69  F   UNL     1     -10.799  21.002  -2.362  1.00  0.00    -0.203 F 
ATOM     70  C   UNL     1     -12.601  21.012  -3.874  1.00  0.00     0.198 A 
ATOM     71  C   UNL     1     -12.195  21.258  -6.227  1.00  0.00     0.198 A 
ATOM     72  F   UNL     1      -9.992  21.445  -7.029  1.00  0.00    -0.203 F 
ATOM     73  F   UNL     1     -13.455  20.842  -2.855  1.00  0.00    -0.200 F 
ATOM     74  C   UNL     1     -13.082  21.108  -5.171  1.00  0.00     0.200 A 
ATOM     75  F   UNL     1     -12.659  21.363  -7.480  1.00  0.00    -0.200 F 
ATOM     76  F   UNL     1     -14.400  21.052  -5.405  1.00  0.00    -0.200 F 
ENDBRANCH  52  66
BRANCH  53  77
ATOM     77  C   UNL     1      -0.429  21.746  -3.285  1.00  0.00     0.064 A 
ATOM     78  C   UNL     1       0.161  22.580  -2.324  1.00  0.00     0.173 A 
ATOM     79  C   UNL     1       0.426  21.016  -4.124  1.00  0.00     0.173 A 
ATOM     80  F   UNL     1      -0.613  23.314  -1.510  1.00  0.00    -0.203 F 
ATOM     81  C   UNL     1       1.545  22.708  -2.232  1.00  0.00     0.198 A 
ATOM     82  C   UNL     1       1.811  21.119  -4.009  1.00  0.00     0.198 A 
ATOM     83  F   UNL     1      -0.085  20.198  -5.056  1.00  0.00    -0.203 F 
ATOM     84  F   UNL     1       2.079  23.560  -1.346  1.00  0.00    -0.200 F 
ATOM     85  C   UNL     1       2.369  21.974  -3.071  1.00  0.00     0.200 A 
ATOM     86  F   UNL     1       2.603  20.396  -4.811  1.00  0.00    -0.200 F 
ATOM     87  F   UNL     1       3.700  22.101  -2.985  1.00  0.00    -0.200 F 
ENDBRANCH  53  77
BRANCH  65  88
ATOM     88  C   UNL     1      -5.273  26.329  -5.285  1.00  0.00     0.064 A 
ATOM     89  C   UNL     1      -4.695  26.717  -6.502  1.00  0.00     0.173 A 
ATOM     90  C   UNL     1      -5.816  27.330  -4.465  1.00  0.00     0.173 A 
ATOM     91  F   UNL     1      -4.149  25.799  -7.313  1.00  0.00    -0.203 F 
ATOM     92  C   UNL     1      -4.639  28.058  -6.871  1.00  0.00     0.198 A 
ATOM     93  C   UNL     1      -5.787  28.666  -4.852  1.00  0.00     0.198 A 
ATOM     94  F   UNL     1      -6.387  27.010  -3.294  1.00  0.00    -0.203 F 
ATOM     95  F   UNL     1      -4.036  28.411  -8.015  1.00  0.00    -0.200 F 
ATOM     96  C   UNL     1      -5.192  29.030  -6.051  1.00  0.00     0.200 A 
ATOM     97  F   UNL     1      -6.336  29.602  -4.066  1.00  0.00    -0.200 F 
ATOM     98  F   UNL     1      -5.144  30.319  -6.412  1.00  0.00    -0.200 F 
ENDBRANCH  65  88
ENDBRANCH  39  40
ENDBRANCH  31  34
ENDBRANCH  29  30
ENDBRANCH  28  29
ENDBRANCH   1  28
TORSDOF 14
