REMARK SMILES Cc1cc(F)c([C@H](O)[C@H]2CCCC[C@@H]2C(=O)NCCCNC(=O)c2ccc(-c3c4nc(c(-c5c(F)c(F)c(F)c(F)c5F)c5ccc([nH]5)c(-c5c(F)c(F)c(F)c(F)c5F)c5nc(c(-c6c(F)c(F)c(F)c(F)c6F)c6ccc3[nH]6)C=C5)C=C4)cc2)cc1F
REMARK SMILES IDX 19 1 18 2 17 3 15 4 16 5 14 7 9 8 10 9 11 10 13 11 12 12
REMARK SMILES IDX 7 13 6 14 1 15 2 16 3 17 88 18 4 19 87 20 89 21 5 22 8 23
REMARK SMILES IDX 20 25 21 26 22 27 23 29 24 30 25 31 86 32 26 33 85 34 27 35
REMARK SMILES IDX 28 36 29 37 79 38 30 39 84 40 78 41 80 42 31 43 83 44 77 45
REMARK SMILES IDX 76 46 32 48 64 49 44 50 63 51 45 52 48 53 62 54 81 55 46 56
REMARK SMILES IDX 47 57 61 59 82 60 49 61 33 62 34 63 42 64 35 65 36 66 40 67
REMARK SMILES IDX 43 68 37 69 38 70 41 71 39 72 65 73 66 74 74 75 67 76 68 77
REMARK SMILES IDX 72 78 75 79 69 80 70 81 73 82 71 83 50 84 51 85 59 86 52 87
REMARK SMILES IDX 53 88 57 89 60 90 54 91 55 92 58 93 56 94
REMARK H PARENT 17 6 8 24 21 28 80 47 48 58
REMARK Flexibility Score: inf
ROOT
ATOM      1  C   UNL     1       1.460  -5.646   4.250  1.00  0.00     0.042 C 
ENDROOT
BRANCH   1   2
ATOM      2  C   UNL     1       0.428  -6.013   3.195  1.00  0.00     0.117 C 
BRANCH   2   3
ATOM      3  N   UNL     1       0.504  -5.147   2.038  1.00  0.00    -0.356 N 
ATOM      4  C   UNL     1       0.154  -5.311   0.746  1.00  0.00     0.223 C 
ATOM      5  O   UNL     1       0.390  -4.332   0.029  1.00  0.00    -0.275 OA
ATOM      6  H   UNL     1       0.888  -4.262   2.233  1.00  0.00     0.163 HD
BRANCH   4   7
ATOM      7  C   UNL     1      -0.412  -6.628   0.180  1.00  0.00     0.084 C 
ATOM      8  C   UNL     1      -1.006  -6.330  -1.237  1.00  0.00     0.035 C 
ATOM      9  C   UNL     1      -2.293  -5.475  -1.086  1.00  0.00     0.007 C 
ATOM     10  C   UNL     1      -3.322  -6.025  -0.093  1.00  0.00     0.000 C 
ATOM     11  C   UNL     1      -1.476  -7.319   1.037  1.00  0.00     0.014 C 
ATOM     12  C   UNL     1      -2.711  -6.452   1.234  1.00  0.00     0.001 C 
BRANCH   8  13
ATOM     13  C   UNL     1      -1.092  -7.538  -2.234  1.00  0.00     0.151 C 
BRANCH  13  14
ATOM     14  C   UNL     1      -2.434  -8.210  -2.418  1.00  0.00     0.019 A 
ATOM     15  C   UNL     1      -6.521  -9.612  -2.670  1.00  0.00     0.047 C 
ATOM     16  C   UNL     1      -5.088  -9.180  -2.636  1.00  0.00    -0.012 A 
ATOM     17  C   UNL     1      -4.665  -8.101  -3.415  1.00  0.00     0.046 A 
ATOM     18  C   UNL     1      -4.156  -9.805  -1.805  1.00  0.00     0.126 A 
ATOM     19  C   UNL     1      -3.355  -7.640  -3.311  1.00  0.00     0.129 A 
ATOM     20  C   UNL     1      -2.843  -9.342  -1.701  1.00  0.00     0.049 A 
ATOM     21  F   UNL     1      -4.523 -10.853  -1.055  1.00  0.00    -0.207 F 
ATOM     22  F   UNL     1      -2.998  -6.582  -4.053  1.00  0.00    -0.207 F 
ENDBRANCH  13  14
BRANCH  13  23
ATOM     23  O   UNL     1      -0.062  -8.495  -1.978  1.00  0.00    -0.388 OA
ATOM     24  H   UNL     1      -0.216  -8.913  -1.117  1.00  0.00     0.211 HD
ENDBRANCH  13  23
ENDBRANCH   8  13
ENDBRANCH   4   7
ENDBRANCH   2   3
ENDBRANCH   1   2
BRANCH   1  25
ATOM     25  C   UNL     1       1.360  -4.209   4.749  1.00  0.00     0.118 C 
BRANCH  25  26
ATOM     26  N   UNL     1       0.287  -3.992   5.709  1.00  0.00    -0.352 N 
ATOM     27  C   UNL     1       0.307  -3.956   7.087  1.00  0.00     0.251 C 
ATOM     28  H   UNL     1      -0.600  -3.845   5.308  1.00  0.00     0.163 HD
ATOM     29  O   UNL     1      -0.740  -3.875   7.713  1.00  0.00    -0.269 OA
BRANCH  27  30
ATOM     30  C   UNL     1       1.592  -4.081   7.812  1.00  0.00     0.039 A 
ATOM     31  C   UNL     1       2.723  -3.389   7.390  1.00  0.00     0.014 A 
ATOM     32  C   UNL     1       1.674  -4.938   8.912  1.00  0.00     0.014 A 
ATOM     33  C   UNL     1       3.969  -3.746   7.884  1.00  0.00     0.010 A 
ATOM     34  C   UNL     1       2.915  -5.191   9.505  1.00  0.00     0.010 A 
ATOM     35  C   UNL     1       4.086  -4.653   8.950  1.00  0.00    -0.014 A 
BRANCH  35  36
ATOM     36  C   UNL     1       5.439  -5.026   9.444  1.00  0.00     0.031 A 
ATOM     37  C   UNL     1       5.911  -6.457   9.402  1.00  0.00     0.074 A 
ATOM     38  C   UNL     1       6.279  -4.057   9.859  1.00  0.00     0.049 A 
ATOM     39  N   UNL     1       7.053  -6.962   9.799  1.00  0.00    -0.248 NA
ATOM     40  C   UNL     1       4.982  -7.456   8.849  1.00  0.00     0.031 C 
ATOM     41  C   UNL     1       5.951  -2.631   9.926  1.00  0.00     0.029 A 
ATOM     42  N   UNL     1       7.590  -4.112  10.262  1.00  0.00    -0.354 N 
ATOM     43  C   UNL     1       6.965  -8.331   9.579  1.00  0.00     0.074 A 
ATOM     44  C   UNL     1       5.652  -8.586   9.029  1.00  0.00     0.031 C 
ATOM     45  C   UNL     1       7.050  -1.941  10.262  1.00  0.00     0.029 A 
ATOM     46  C   UNL     1       8.135  -2.879  10.522  1.00  0.00     0.049 A 
ATOM     47  H   UNL     1       8.090  -4.955  10.356  1.00  0.00     0.167 HD
ATOM     48  C   UNL     1       7.898  -9.285   9.806  1.00  0.00     0.037 A 
ATOM     49  C   UNL     1       9.367  -2.537  10.942  1.00  0.00     0.037 A 
ATOM     50  C   UNL     1       9.221  -9.024  10.312  1.00  0.00     0.049 A 
ATOM     51  C   UNL     1      10.372  -3.617  11.213  1.00  0.00     0.074 A 
ATOM     52  C   UNL     1      10.242  -9.925  10.563  1.00  0.00     0.029 A 
ATOM     53  N   UNL     1       9.711  -7.766  10.628  1.00  0.00    -0.354 N 
ATOM     54  N   UNL     1      10.260  -4.910  11.036  1.00  0.00    -0.248 NA
ATOM     55  C   UNL     1      11.666  -3.194  11.764  1.00  0.00     0.031 C 
ATOM     56  C   UNL     1      11.338  -9.216  11.064  1.00  0.00     0.029 A 
ATOM     57  C   UNL     1      11.015  -7.869  11.086  1.00  0.00     0.049 A 
ATOM     58  H   UNL     1       9.208  -6.924  10.540  1.00  0.00     0.167 HD
ATOM     59  C   UNL     1      11.464  -5.457  11.453  1.00  0.00     0.074 A 
ATOM     60  C   UNL     1      12.304  -4.352  11.866  1.00  0.00     0.031 C 
ATOM     61  C   UNL     1      11.834  -6.759  11.499  1.00  0.00     0.037 A 
BRANCH  48  62
ATOM     62  C   UNL     1       7.529 -10.712   9.523  1.00  0.00     0.064 A 
ATOM     63  C   UNL     1       7.435 -11.202   8.212  1.00  0.00     0.173 A 
ATOM     64  C   UNL     1       7.335 -11.617  10.578  1.00  0.00     0.173 A 
ATOM     65  F   UNL     1       7.598 -10.375   7.169  1.00  0.00    -0.203 F 
ATOM     66  C   UNL     1       7.149 -12.544   7.968  1.00  0.00     0.198 A 
ATOM     67  C   UNL     1       7.074 -12.962  10.331  1.00  0.00     0.198 A 
ATOM     68  F   UNL     1       7.419 -11.200  11.850  1.00  0.00    -0.203 F 
ATOM     69  F   UNL     1       7.035 -12.984   6.708  1.00  0.00    -0.200 F 
ATOM     70  C   UNL     1       6.978 -13.424   9.027  1.00  0.00     0.200 A 
ATOM     71  F   UNL     1       6.920 -13.813  11.355  1.00  0.00    -0.200 F 
ATOM     72  F   UNL     1       6.717 -14.717   8.790  1.00  0.00    -0.200 F 
ENDBRANCH  48  62
BRANCH  49  73
ATOM     73  C   UNL     1       9.702  -1.104  11.140  1.00  0.00     0.064 A 
ATOM     74  C   UNL     1      10.595  -0.450  10.282  1.00  0.00     0.173 A 
ATOM     75  C   UNL     1       9.104  -0.349  12.161  1.00  0.00     0.173 A 
ATOM     76  F   UNL     1      11.207  -1.134   9.304  1.00  0.00    -0.203 F 
ATOM     77  C   UNL     1      10.877   0.906  10.437  1.00  0.00     0.198 A 
ATOM     78  C   UNL     1       9.364   1.012  12.297  1.00  0.00     0.198 A 
ATOM     79  F   UNL     1       8.239  -0.930  13.006  1.00  0.00    -0.203 F 
ATOM     80  F   UNL     1      11.755   1.503   9.619  1.00  0.00    -0.200 F 
ATOM     81  C   UNL     1      10.254   1.637  11.437  1.00  0.00     0.200 A 
ATOM     82  F   UNL     1       8.745   1.717  13.253  1.00  0.00    -0.200 F 
ATOM     83  F   UNL     1      10.511   2.946  11.573  1.00  0.00    -0.200 F 
ENDBRANCH  49  73
BRANCH  61  84
ATOM     84  C   UNL     1      13.209  -7.062  12.012  1.00  0.00     0.064 A 
ATOM     85  C   UNL     1      13.507  -6.986  13.380  1.00  0.00     0.173 A 
ATOM     86  C   UNL     1      14.220  -7.484  11.137  1.00  0.00     0.173 A 
ATOM     87  F   UNL     1      12.575  -6.572  14.252  1.00  0.00    -0.203 F 
ATOM     88  C   UNL     1      14.776  -7.308  13.853  1.00  0.00     0.198 A 
ATOM     89  C   UNL     1      15.480  -7.828  11.616  1.00  0.00     0.198 A 
ATOM     90  F   UNL     1      13.979  -7.577   9.821  1.00  0.00    -0.203 F 
ATOM     91  F   UNL     1      15.050  -7.196  15.160  1.00  0.00    -0.200 F 
ATOM     92  C   UNL     1      15.758  -7.736  12.972  1.00  0.00     0.200 A 
ATOM     93  F   UNL     1      16.426  -8.252  10.766  1.00  0.00    -0.200 F 
ATOM     94  F   UNL     1      16.977  -8.055  13.430  1.00  0.00    -0.200 F 
ENDBRANCH  61  84
ENDBRANCH  35  36
ENDBRANCH  27  30
ENDBRANCH  25  26
ENDBRANCH   1  25
TORSDOF 13
