REMARK SMILES CC(C)=C1[C@H]2CC[C@@H]1[C@@H](C(=O)Nc1cc(C)cc(C)c1)[C@@H]2C(=O)NCCCNC(=O)c1ccc(-c2c3nc(c(-c4c(F)c(F)c(F)c(F)c4F)c4ccc([nH]4)c(-c4c(F)c(F)c(F)c(F)c4F)c4nc(c(-c5c(F)c(F)c(F)c(F)c5F)c5ccc2[nH]5)C=C4)C=C3)cc1
REMARK SMILES IDX 26 1 25 2 24 3 22 4 23 5 21 7 1 8 2 9 3 10 4 11 5 12 8 13
REMARK SMILES IDX 6 14 7 15 9 16 10 17 11 18 12 19 13 21 14 22 20 23 15 24
REMARK SMILES IDX 18 25 16 26 17 27 19 28 27 29 28 30 29 31 30 33 31 34 32 35
REMARK SMILES IDX 93 36 33 37 92 38 34 39 35 40 36 41 86 42 37 43 91 44 85 45
REMARK SMILES IDX 87 46 38 47 90 48 84 49 83 50 39 52 71 53 51 54 70 55 52 56
REMARK SMILES IDX 55 57 69 58 88 59 53 60 54 61 68 63 89 64 56 65 40 66 41 67
REMARK SMILES IDX 49 68 42 69 43 70 47 71 50 72 44 73 45 74 48 75 46 76 72 77
REMARK SMILES IDX 73 78 81 79 74 80 75 81 79 82 82 83 76 84 77 85 80 86 78 87
REMARK SMILES IDX 57 88 58 89 66 90 59 91 60 92 64 93 67 94 61 95 62 96 65 97
REMARK SMILES IDX 63 98
REMARK H PARENT 24 6 12 20 28 32 87 51 55 62
REMARK Flexibility Score: inf
ROOT
ATOM      1  C   UNL     1       0.347   4.885   5.402  1.00  0.00     0.042 C 
ENDROOT
BRANCH   1   2
ATOM      2  C   UNL     1       0.200   5.421   3.999  1.00  0.00     0.117 C 
BRANCH   2   3
ATOM      3  N   UNL     1       1.392   5.872   3.376  1.00  0.00    -0.356 N 
ATOM      4  C   UNL     1       1.831   5.484   2.154  1.00  0.00     0.224 C 
ATOM      5  O   UNL     1       2.687   6.219   1.642  1.00  0.00    -0.275 OA
ATOM      6  H   UNL     1       1.945   6.519   3.871  1.00  0.00     0.163 HD
BRANCH   4   7
ATOM      7  C   UNL     1       1.464   4.156   1.442  1.00  0.00     0.098 C 
ATOM      8  C   UNL     1       0.750  -0.376   0.080  1.00  0.00     0.039 C 
ATOM      9  C   UNL     1       0.168   1.012   0.083  1.00  0.00    -0.077 C 
ATOM     10  C   UNL     1      -1.134   1.187  -0.645  1.00  0.00     0.039 C 
ATOM     11  C   UNL     1       0.681   1.982   0.864  1.00  0.00    -0.064 C 
ATOM     12  C   UNL     1       0.124   3.340   1.290  1.00  0.00     0.028 C 
ATOM     13  C   UNL     1       1.697   1.815   1.953  1.00  0.00     0.028 C 
ATOM     14  C   UNL     1      -0.516   2.662   2.511  1.00  0.00     0.009 C 
ATOM     15  C   UNL     1       0.681   1.907   3.127  1.00  0.00     0.009 C 
ATOM     16  C   UNL     1       2.515   3.103   1.799  1.00  0.00     0.099 C 
BRANCH  16  17
ATOM     17  C   UNL     1       3.737   2.920   0.867  1.00  0.00     0.228 C 
ATOM     18  O   UNL     1       4.849   2.813   1.413  1.00  0.00    -0.274 OA
ATOM     19  N   UNL     1       3.730   2.677  -0.478  1.00  0.00    -0.326 N 
ATOM     20  H   UNL     1       4.607   2.394  -0.826  1.00  0.00     0.169 HD
BRANCH  19  21
ATOM     21  C   UNL     1       2.740   2.744  -1.468  1.00  0.00     0.041 A 
ATOM     22  C   UNL     1       2.009   3.900  -1.728  1.00  0.00     0.029 A 
ATOM     23  C   UNL     1       2.498   1.605  -2.238  1.00  0.00     0.029 A 
ATOM     24  C   UNL     1       0.868   3.860  -2.538  1.00  0.00    -0.049 A 
ATOM     25  C   UNL     1       1.404   1.560  -3.116  1.00  0.00    -0.049 A 
ATOM     26  C   UNL     1      -0.110   4.999  -2.531  1.00  0.00     0.044 C 
ATOM     27  C   UNL     1       0.575   2.684  -3.235  1.00  0.00     0.007 A 
ATOM     28  C   UNL     1       1.017   0.278  -3.793  1.00  0.00     0.044 C 
ENDBRANCH  19  21
ENDBRANCH  16  17
ENDBRANCH   4   7
ENDBRANCH   2   3
ENDBRANCH   1   2
BRANCH   1  29
ATOM     29  C   UNL     1      -0.182   5.869   6.423  1.00  0.00     0.118 C 
BRANCH  29  30
ATOM     30  N   UNL     1      -1.612   6.146   6.252  1.00  0.00    -0.352 N 
ATOM     31  C   UNL     1      -2.709   5.814   7.007  1.00  0.00     0.251 C 
ATOM     32  H   UNL     1      -1.825   6.669   5.445  1.00  0.00     0.163 HD
ATOM     33  O   UNL     1      -3.837   6.009   6.556  1.00  0.00    -0.269 OA
BRANCH  31  34
ATOM     34  C   UNL     1      -2.546   5.197   8.337  1.00  0.00     0.039 A 
ATOM     35  C   UNL     1      -3.464   4.241   8.778  1.00  0.00     0.014 A 
ATOM     36  C   UNL     1      -1.472   5.549   9.149  1.00  0.00     0.014 A 
ATOM     37  C   UNL     1      -3.241   3.578   9.988  1.00  0.00     0.010 A 
ATOM     38  C   UNL     1      -1.158   4.773  10.250  1.00  0.00     0.010 A 
ATOM     39  C   UNL     1      -2.054   3.798  10.704  1.00  0.00    -0.014 A 
BRANCH  39  40
ATOM     40  C   UNL     1      -1.733   3.071  11.958  1.00  0.00     0.031 A 
ATOM     41  C   UNL     1      -1.435   3.853  13.213  1.00  0.00     0.074 A 
ATOM     42  C   UNL     1      -1.613   1.729  11.946  1.00  0.00     0.049 A 
ATOM     43  N   UNL     1      -0.997   3.428  14.371  1.00  0.00    -0.248 NA
ATOM     44  C   UNL     1      -1.596   5.317  13.142  1.00  0.00     0.031 C 
ATOM     45  C   UNL     1      -1.799   0.868  10.776  1.00  0.00     0.029 A 
ATOM     46  N   UNL     1      -1.288   0.852  12.951  1.00  0.00    -0.354 N 
ATOM     47  C   UNL     1      -0.795   4.569  15.138  1.00  0.00     0.074 A 
ATOM     48  C   UNL     1      -1.084   5.707  14.298  1.00  0.00     0.031 C 
ATOM     49  C   UNL     1      -1.620  -0.413  11.137  1.00  0.00     0.029 A 
ATOM     50  C   UNL     1      -1.259  -0.462  12.549  1.00  0.00     0.049 A 
ATOM     51  H   UNL     1      -1.094   1.138  13.873  1.00  0.00     0.167 HD
ATOM     52  C   UNL     1      -0.439   4.659  16.440  1.00  0.00     0.037 A 
ATOM     53  C   UNL     1      -0.965  -1.577  13.244  1.00  0.00     0.037 A 
ATOM     54  C   UNL     1      -0.224   3.520  17.288  1.00  0.00     0.049 A 
ATOM     55  C   UNL     1      -0.614  -1.450  14.704  1.00  0.00     0.074 A 
ATOM     56  C   UNL     1       0.044   3.494  18.645  1.00  0.00     0.029 A 
ATOM     57  N   UNL     1      -0.264   2.202  16.859  1.00  0.00    -0.354 N 
ATOM     58  N   UNL     1      -0.513  -0.370  15.441  1.00  0.00    -0.248 NA
ATOM     59  C   UNL     1      -0.346  -2.698  15.431  1.00  0.00     0.031 C 
ATOM     60  C   UNL     1       0.216   2.161  19.027  1.00  0.00     0.029 A 
ATOM     61  C   UNL     1      -0.003   1.354  17.922  1.00  0.00     0.049 A 
ATOM     62  H   UNL     1      -0.449   1.912  15.936  1.00  0.00     0.167 HD
ATOM     63  C   UNL     1      -0.202  -0.809  16.720  1.00  0.00     0.074 A 
ATOM     64  C   UNL     1      -0.150  -2.255  16.664  1.00  0.00     0.031 C 
ATOM     65  C   UNL     1       0.025  -0.083  17.842  1.00  0.00     0.037 A 
BRANCH  52  66
ATOM     66  C   UNL     1      -0.282   6.029  17.034  1.00  0.00     0.064 A 
ATOM     67  C   UNL     1      -1.382   6.877  17.239  1.00  0.00     0.173 A 
ATOM     68  C   UNL     1       0.979   6.481  17.452  1.00  0.00     0.173 A 
ATOM     69  F   UNL     1      -2.608   6.501  16.844  1.00  0.00    -0.203 F 
ATOM     70  C   UNL     1      -1.222   8.134  17.815  1.00  0.00     0.198 A 
ATOM     71  C   UNL     1       1.130   7.725  18.059  1.00  0.00     0.198 A 
ATOM     72  F   UNL     1       2.064   5.711  17.282  1.00  0.00    -0.203 F 
ATOM     73  F   UNL     1      -2.280   8.945  17.954  1.00  0.00    -0.200 F 
ATOM     74  C   UNL     1       0.031   8.553  18.235  1.00  0.00     0.200 A 
ATOM     75  F   UNL     1       2.340   8.123  18.477  1.00  0.00    -0.200 F 
ATOM     76  F   UNL     1       0.181   9.757  18.804  1.00  0.00    -0.200 F 
ENDBRANCH  52  66
BRANCH  53  77
ATOM     77  C   UNL     1      -1.008  -2.909  12.583  1.00  0.00     0.064 A 
ATOM     78  C   UNL     1      -1.973  -3.861  12.941  1.00  0.00     0.173 A 
ATOM     79  C   UNL     1      -0.074  -3.268  11.600  1.00  0.00     0.173 A 
ATOM     80  F   UNL     1      -2.879  -3.573  13.887  1.00  0.00    -0.203 F 
ATOM     81  C   UNL     1      -1.981  -5.132  12.368  1.00  0.00     0.198 A 
ATOM     82  C   UNL     1      -0.104  -4.528  11.003  1.00  0.00     0.198 A 
ATOM     83  F   UNL     1       0.864  -2.393  11.211  1.00  0.00    -0.203 F 
ATOM     84  F   UNL     1      -2.876  -6.042  12.775  1.00  0.00    -0.200 F 
ATOM     85  C   UNL     1      -1.048  -5.463  11.397  1.00  0.00     0.200 A 
ATOM     86  F   UNL     1       0.788  -4.837  10.052  1.00  0.00    -0.200 F 
ATOM     87  F   UNL     1      -1.054  -6.686  10.849  1.00  0.00    -0.200 F 
ENDBRANCH  53  77
BRANCH  65  88
ATOM     88  C   UNL     1       0.305  -0.839  19.107  1.00  0.00     0.064 A 
ATOM     89  C   UNL     1       1.513  -1.522  19.306  1.00  0.00     0.173 A 
ATOM     90  C   UNL     1      -0.631  -0.837  20.154  1.00  0.00     0.173 A 
ATOM     91  F   UNL     1       2.434  -1.564  18.331  1.00  0.00    -0.203 F 
ATOM     92  C   UNL     1       1.763  -2.199  20.496  1.00  0.00     0.198 A 
ATOM     93  C   UNL     1      -0.363  -1.484  21.355  1.00  0.00     0.198 A 
ATOM     94  F   UNL     1      -1.798  -0.189  20.017  1.00  0.00    -0.203 F 
ATOM     95  F   UNL     1       2.903  -2.887  20.646  1.00  0.00    -0.200 F 
ATOM     96  C   UNL     1       0.830  -2.172  21.522  1.00  0.00     0.200 A 
ATOM     97  F   UNL     1      -1.258  -1.442  22.351  1.00  0.00    -0.200 F 
ATOM     98  F   UNL     1       1.077  -2.815  22.672  1.00  0.00    -0.200 F 
ENDBRANCH  65  88
ENDBRANCH  39  40
ENDBRANCH  31  34
ENDBRANCH  29  30
ENDBRANCH   1  29
TORSDOF 12
