REMARK SMILES CC1=C(C)C[C@@H](C(=O)N[C@H](C)C(C)(C)C)[C@@H](C(=O)NCCCNC(=O)c2ccc(-c3c4nc(c(-c5c(F)c(F)c(F)c(F)c5F)c5ccc([nH]5)c(-c5c(F)c(F)c(F)c(F)c5F)c5nc(c(-c6c(F)c(F)c(F)c(F)c6F)c6ccc3[nH]6)C=C5)C=C4)cc2)C1
REMARK SMILES IDX 20 1 19 2 17 3 18 4 16 6 1 7 2 8 3 9 89 10 4 11 5 12 6 13
REMARK SMILES IDX 7 14 8 15 9 16 10 18 11 19 12 20 13 21 14 22 15 23 21 24
REMARK SMILES IDX 22 25 23 26 24 27 25 29 26 30 27 31 88 32 28 33 87 34 29 35
REMARK SMILES IDX 30 36 31 37 81 38 32 39 86 40 80 41 82 42 33 43 85 44 79 45
REMARK SMILES IDX 78 46 34 48 66 49 46 50 65 51 47 52 50 53 64 54 83 55 48 56
REMARK SMILES IDX 49 57 63 59 84 60 51 61 35 62 36 63 44 64 37 65 38 66 42 67
REMARK SMILES IDX 45 68 39 69 40 70 43 71 41 72 67 73 68 74 76 75 69 76 70 77
REMARK SMILES IDX 74 78 77 79 71 80 72 81 75 82 73 83 52 84 53 85 61 86 54 87
REMARK SMILES IDX 55 88 59 89 62 90 56 91 57 92 60 93 58 94
REMARK H PARENT 19 5 9 17 23 28 82 47 50 58
REMARK Flexibility Score: inf
ROOT
ATOM      1  C   UNL     1       0.940  -0.480  -1.392  1.00  0.00     0.117 C 
ENDROOT
BRANCH   1   2
ATOM      2  N   UNL     1      -0.032   0.068  -0.467  1.00  0.00    -0.356 N 
ATOM      3  C   UNL     1      -1.254  -0.348  -0.064  1.00  0.00     0.224 C 
ATOM      4  O   UNL     1      -1.878   0.477   0.609  1.00  0.00    -0.275 OA
ATOM      5  H   UNL     1       0.255   0.912  -0.048  1.00  0.00     0.163 HD
BRANCH   3   6
ATOM      6  C   UNL     1      -1.879  -1.679  -0.488  1.00  0.00     0.095 C 
ATOM      7  C   UNL     1      -0.064  -5.148  -0.868  1.00  0.00     0.039 C 
ATOM      8  C   UNL     1      -1.208  -4.224  -0.525  1.00  0.00    -0.074 C 
ATOM      9  C   UNL     1      -2.383  -4.586   0.020  1.00  0.00    -0.074 C 
ATOM     10  C   UNL     1      -0.889  -2.792  -0.851  1.00  0.00     0.045 C 
ATOM     11  C   UNL     1      -2.761  -6.001   0.378  1.00  0.00     0.039 C 
ATOM     12  C   UNL     1      -3.443  -3.561   0.359  1.00  0.00     0.045 C 
ATOM     13  C   UNL     1      -2.974  -2.109   0.510  1.00  0.00     0.095 C 
BRANCH  13  14
ATOM     14  C   UNL     1      -2.880  -1.666   1.988  1.00  0.00     0.224 C 
ATOM     15  O   UNL     1      -3.865  -1.136   2.519  1.00  0.00    -0.275 OA
ATOM     16  N   UNL     1      -1.804  -1.856   2.797  1.00  0.00    -0.353 N 
ATOM     17  H   UNL     1      -1.817  -1.315   3.620  1.00  0.00     0.163 HD
BRANCH  16  18
ATOM     18  C   UNL     1      -0.637  -2.715   2.664  1.00  0.00     0.084 C 
ATOM     19  C   UNL     1      -1.039  -4.149   3.024  1.00  0.00     0.031 C 
BRANCH  18  20
ATOM     20  C   UNL     1       0.616  -2.209   3.465  1.00  0.00    -0.018 C 
ATOM     21  C   UNL     1       1.854  -3.032   3.042  1.00  0.00     0.013 C 
ATOM     22  C   UNL     1       0.922  -0.729   3.153  1.00  0.00     0.013 C 
ATOM     23  C   UNL     1       0.440  -2.346   4.990  1.00  0.00     0.013 C 
ENDBRANCH  18  20
ENDBRANCH  16  18
ENDBRANCH  13  14
ENDBRANCH   3   6
ENDBRANCH   1   2
BRANCH   1  24
ATOM     24  C   UNL     1       1.663   0.606  -2.160  1.00  0.00     0.042 C 
BRANCH  24  25
ATOM     25  C   UNL     1       2.468   1.534  -1.268  1.00  0.00     0.118 C 
BRANCH  25  26
ATOM     26  N   UNL     1       3.633   0.888  -0.678  1.00  0.00    -0.352 N 
ATOM     27  C   UNL     1       4.965   0.984  -1.018  1.00  0.00     0.251 C 
ATOM     28  H   UNL     1       3.439   0.290   0.080  1.00  0.00     0.163 HD
ATOM     29  O   UNL     1       5.783   0.219  -0.534  1.00  0.00    -0.269 OA
BRANCH  27  30
ATOM     30  C   UNL     1       5.386   1.996  -2.011  1.00  0.00     0.039 A 
ATOM     31  C   UNL     1       6.280   1.635  -3.020  1.00  0.00     0.014 A 
ATOM     32  C   UNL     1       4.860   3.287  -1.970  1.00  0.00     0.014 A 
ATOM     33  C   UNL     1       6.561   2.542  -4.044  1.00  0.00     0.010 A 
ATOM     34  C   UNL     1       5.028   4.131  -3.058  1.00  0.00     0.010 A 
ATOM     35  C   UNL     1       5.891   3.775  -4.103  1.00  0.00    -0.014 A 
BRANCH  35  36
ATOM     36  C   UNL     1       6.082   4.717  -5.235  1.00  0.00     0.031 A 
ATOM     37  C   UNL     1       6.579   6.113  -4.972  1.00  0.00     0.074 A 
ATOM     38  C   UNL     1       5.731   4.345  -6.482  1.00  0.00     0.049 A 
ATOM     39  N   UNL     1       6.725   7.112  -5.806  1.00  0.00    -0.248 NA
ATOM     40  C   UNL     1       6.918   6.446  -3.578  1.00  0.00     0.031 C 
ATOM     41  C   UNL     1       5.174   3.043  -6.855  1.00  0.00     0.029 A 
ATOM     42  N   UNL     1       5.783   5.033  -7.669  1.00  0.00    -0.354 N 
ATOM     43  C   UNL     1       7.149   8.187  -5.035  1.00  0.00     0.074 A 
ATOM     44  C   UNL     1       7.168   7.744  -3.659  1.00  0.00     0.031 C 
ATOM     45  C   UNL     1       4.969   3.014  -8.181  1.00  0.00     0.029 A 
ATOM     46  C   UNL     1       5.335   4.308  -8.747  1.00  0.00     0.049 A 
ATOM     47  H   UNL     1       6.109   5.959  -7.741  1.00  0.00     0.167 HD
ATOM     48  C   UNL     1       7.523   9.423  -5.440  1.00  0.00     0.037 A 
ATOM     49  C   UNL     1       5.228   4.652 -10.045  1.00  0.00     0.037 A 
ATOM     50  C   UNL     1       7.539   9.846  -6.814  1.00  0.00     0.049 A 
ATOM     51  C   UNL     1       5.655   6.032 -10.470  1.00  0.00     0.074 A 
ATOM     52  C   UNL     1       7.968  11.051  -7.340  1.00  0.00     0.029 A 
ATOM     53  N   UNL     1       7.104   9.074  -7.881  1.00  0.00    -0.354 N 
ATOM     54  N   UNL     1       6.131   7.013  -9.743  1.00  0.00    -0.248 NA
ATOM     55  C   UNL     1       5.535   6.349 -11.900  1.00  0.00     0.031 C 
ATOM     56  C   UNL     1       7.744  11.028  -8.720  1.00  0.00     0.029 A 
ATOM     57  C   UNL     1       7.231   9.787  -9.062  1.00  0.00     0.049 A 
ATOM     58  H   UNL     1       6.756   8.155  -7.810  1.00  0.00     0.167 HD
ATOM     59  C   UNL     1       6.395   8.050 -10.626  1.00  0.00     0.074 A 
ATOM     60  C   UNL     1       6.042   7.572 -11.947  1.00  0.00     0.031 C 
ATOM     61  C   UNL     1       6.882   9.289 -10.368  1.00  0.00     0.037 A 
BRANCH  48  62
ATOM     62  C   UNL     1       7.957  10.400  -4.385  1.00  0.00     0.064 A 
ATOM     63  C   UNL     1       9.146  10.223  -3.660  1.00  0.00     0.173 A 
ATOM     64  C   UNL     1       7.193  11.545  -4.117  1.00  0.00     0.173 A 
ATOM     65  F   UNL     1       9.909   9.138  -3.867  1.00  0.00    -0.203 F 
ATOM     66  C   UNL     1       9.536  11.137  -2.685  1.00  0.00     0.198 A 
ATOM     67  C   UNL     1       7.603  12.475  -3.165  1.00  0.00     0.198 A 
ATOM     68  F   UNL     1       6.049  11.767  -4.782  1.00  0.00    -0.203 F 
ATOM     69  F   UNL     1      10.646  10.916  -1.967  1.00  0.00    -0.200 F 
ATOM     70  C   UNL     1       8.769  12.267  -2.444  1.00  0.00     0.200 A 
ATOM     71  F   UNL     1       6.868  13.574  -2.944  1.00  0.00    -0.200 F 
ATOM     72  F   UNL     1       9.150  13.151  -1.512  1.00  0.00    -0.200 F 
ENDBRANCH  48  62
BRANCH  49  73
ATOM     73  C   UNL     1       4.719   3.670 -11.039  1.00  0.00     0.064 A 
ATOM     74  C   UNL     1       5.565   3.138 -12.023  1.00  0.00     0.173 A 
ATOM     75  C   UNL     1       3.381   3.249 -11.034  1.00  0.00     0.173 A 
ATOM     76  F   UNL     1       6.848   3.522 -12.081  1.00  0.00    -0.203 F 
ATOM     77  C   UNL     1       5.087   2.243 -12.978  1.00  0.00     0.198 A 
ATOM     78  C   UNL     1       2.912   2.330 -11.971  1.00  0.00     0.198 A 
ATOM     79  F   UNL     1       2.531   3.720 -10.110  1.00  0.00    -0.203 F 
ATOM     80  F   UNL     1       5.905   1.791 -13.938  1.00  0.00    -0.200 F 
ATOM     81  C   UNL     1       3.762   1.836 -12.948  1.00  0.00     0.200 A 
ATOM     82  F   UNL     1       1.635   1.925 -11.928  1.00  0.00    -0.200 F 
ATOM     83  F   UNL     1       3.303   0.973 -13.865  1.00  0.00    -0.200 F 
ENDBRANCH  49  73
BRANCH  61  84
ATOM     84  C   UNL     1       7.097  10.202 -11.541  1.00  0.00     0.064 A 
ATOM     85  C   UNL     1       6.022  10.765 -12.243  1.00  0.00     0.173 A 
ATOM     86  C   UNL     1       8.397  10.548 -11.939  1.00  0.00     0.173 A 
ATOM     87  F   UNL     1       4.760  10.454 -11.911  1.00  0.00    -0.203 F 
ATOM     88  C   UNL     1       6.241  11.620 -13.320  1.00  0.00     0.198 A 
ATOM     89  C   UNL     1       8.612  11.430 -12.994  1.00  0.00     0.198 A 
ATOM     90  F   UNL     1       9.460  10.043 -11.295  1.00  0.00    -0.203 F 
ATOM     91  F   UNL     1       5.200  12.106 -14.010  1.00  0.00    -0.200 F 
ATOM     92  C   UNL     1       7.535  11.958 -13.689  1.00  0.00     0.200 A 
ATOM     93  F   UNL     1       9.862  11.769 -13.338  1.00  0.00    -0.200 F 
ATOM     94  F   UNL     1       7.743  12.789 -14.720  1.00  0.00    -0.200 F 
ENDBRANCH  61  84
ENDBRANCH  35  36
ENDBRANCH  27  30
ENDBRANCH  25  26
ENDBRANCH  24  25
ENDBRANCH   1  24
TORSDOF 13
