REMARK SMILES NS(=O)(=O)c1ccc(-n2nc(C(=O)NCCCNC(=O)c3ccc(-c4c5nc(c(-c6c(F)c(F)c(F)c(F)c6F)c6ccc([nH]6)c(-c6c(F)c(F)c(F)c(F)c6F)c6nc(c(-c7c(F)c(F)c(F)c(F)c7F)c7ccc4[nH]7)C=C6)C=C5)cc3)cc2-c2ccc(Cl)s2)cc1
REMARK SMILES IDX 15 1 14 2 12 3 13 4 11 6 9 7 10 8 85 9 84 10 8 11 5 12 6 13
REMARK SMILES IDX 93 14 7 15 92 16 2 17 3 18 4 19 1 20 86 23 87 24 91 25 88 26
REMARK SMILES IDX 89 27 90 28 16 29 17 30 18 31 19 32 20 34 21 35 22 36 83 37
REMARK SMILES IDX 23 38 82 39 24 40 25 41 26 42 76 43 27 44 81 45 75 46 77 47
REMARK SMILES IDX 28 48 80 49 74 50 73 51 29 53 61 54 41 55 60 56 42 57 45 58
REMARK SMILES IDX 59 59 78 60 43 61 44 62 58 64 79 65 46 66 30 67 31 68 39 69
REMARK SMILES IDX 32 70 33 71 37 72 40 73 34 74 35 75 38 76 36 77 62 78 63 79
REMARK SMILES IDX 71 80 64 81 65 82 69 83 72 84 66 85 67 86 70 87 68 88 47 89
REMARK SMILES IDX 48 90 56 91 49 92 50 93 54 94 57 95 51 96 52 97 55 98 53 99
REMARK H PARENT 14 5 1 21 1 22 18 33 77 52 45 63
REMARK Flexibility Score: inf
ROOT
ATOM      1  C   UNL     1       3.492  11.062   2.428  1.00  0.00     0.118 C 
ENDROOT
BRANCH   1   2
ATOM      2  N   UNL     1       2.089  10.933   2.074  1.00  0.00    -0.351 N 
ATOM      3  C   UNL     1       1.362   9.917   1.488  1.00  0.00     0.271 C 
ATOM      4  O   UNL     1       0.152  10.127   1.375  1.00  0.00    -0.267 OA
ATOM      5  H   UNL     1       1.551  11.726   2.297  1.00  0.00     0.163 HD
BRANCH   3   6
ATOM      6  C   UNL     1       1.994   8.650   1.053  1.00  0.00     0.151 A 
ATOM      7  N   UNL     1       2.094   6.570   0.487  1.00  0.00    -0.231 N 
ATOM      8  N   UNL     1       1.237   7.606   0.653  1.00  0.00    -0.162 NA
ATOM      9  C   UNL     1       3.409   6.972   0.614  1.00  0.00     0.085 A 
ATOM     10  C   UNL     1       3.361   8.307   0.936  1.00  0.00     0.066 A 
BRANCH   7  11
ATOM     11  C   UNL     1       1.614   5.269   0.200  1.00  0.00     0.065 A 
ATOM     12  C   UNL     1       0.906   2.703  -0.599  1.00  0.00     0.082 A 
ATOM     13  C   UNL     1       1.818   2.870   0.445  1.00  0.00     0.024 A 
ATOM     14  C   UNL     1       0.295   3.811  -1.201  1.00  0.00     0.024 A 
ATOM     15  C   UNL     1       2.184   4.157   0.836  1.00  0.00     0.030 A 
ATOM     16  C   UNL     1       0.630   5.102  -0.781  1.00  0.00     0.030 A 
BRANCH  12  17
ATOM     17  S   UNL     1       0.525   1.093  -1.224  1.00  0.00     0.238 S 
ATOM     18  O   UNL     1       1.288   0.892  -2.438  1.00  0.00    -0.207 OA
ATOM     19  O   UNL     1      -0.898   0.893  -1.150  1.00  0.00    -0.207 OA
BRANCH  17  20
ATOM     20  N   UNL     1       1.187   0.030  -0.100  1.00  0.00    -0.225 NA
ATOM     21  H   UNL     1       1.007  -0.930  -0.394  1.00  0.00     0.137 HD
ATOM     22  H   UNL     1       0.762   0.192   0.813  1.00  0.00     0.137 HD
ENDBRANCH  17  20
ENDBRANCH  12  17
ENDBRANCH   7  11
BRANCH   9  23
ATOM     23  C   UNL     1       4.585   6.199   0.355  1.00  0.00     0.054 A 
ATOM     24  C   UNL     1       5.621   5.959   1.238  1.00  0.00     0.024 A 
ATOM     25  S   UNL     1       4.909   5.544  -1.196  1.00  0.00    -0.122 S 
ATOM     26  C   UNL     1       6.683   5.223   0.632  1.00  0.00     0.033 A 
ATOM     27  C   UNL     1       6.407   4.951  -0.683  1.00  0.00     0.094 A 
ATOM     28  Cl  UNL     1       7.418   4.116  -1.790  1.00  0.00    -0.072 Cl
ENDBRANCH   9  23
ENDBRANCH   3   6
ENDBRANCH   1   2
BRANCH   1  29
ATOM     29  C   UNL     1       4.314  11.699   1.302  1.00  0.00     0.042 C 
BRANCH  29  30
ATOM     30  C   UNL     1       4.236  13.221   1.333  1.00  0.00     0.118 C 
BRANCH  30  31
ATOM     31  N   UNL     1       4.956  13.781   2.478  1.00  0.00    -0.352 N 
ATOM     32  C   UNL     1       5.033  15.094   2.888  1.00  0.00     0.251 C 
ATOM     33  H   UNL     1       5.452  13.132   3.028  1.00  0.00     0.163 HD
ATOM     34  O   UNL     1       5.938  15.463   3.628  1.00  0.00    -0.269 OA
BRANCH  32  35
ATOM     35  C   UNL     1       4.020  16.053   2.420  1.00  0.00     0.039 A 
ATOM     36  C   UNL     1       4.396  17.335   2.015  1.00  0.00     0.014 A 
ATOM     37  C   UNL     1       2.687  15.647   2.365  1.00  0.00     0.014 A 
ATOM     38  C   UNL     1       3.433  18.169   1.460  1.00  0.00     0.010 A 
ATOM     39  C   UNL     1       1.761  16.422   1.705  1.00  0.00     0.010 A 
ATOM     40  C   UNL     1       2.123  17.692   1.270  1.00  0.00    -0.014 A 
BRANCH  40  41
ATOM     41  C   UNL     1       1.195  18.445   0.428  1.00  0.00     0.031 A 
ATOM     42  C   UNL     1       1.768  18.770  -0.905  1.00  0.00     0.074 A 
ATOM     43  C   UNL     1      -0.105  18.665   0.726  1.00  0.00     0.049 A 
ATOM     44  N   UNL     1       2.148  19.932  -1.318  1.00  0.00    -0.248 NA
ATOM     45  C   UNL     1       2.141  17.672  -1.814  1.00  0.00     0.031 C 
ATOM     46  C   UNL     1      -0.858  18.135   1.867  1.00  0.00     0.029 A 
ATOM     47  N   UNL     1      -1.066  19.332   0.020  1.00  0.00    -0.354 N 
ATOM     48  C   UNL     1       2.573  19.751  -2.631  1.00  0.00     0.074 A 
ATOM     49  C   UNL     1       2.751  18.336  -2.800  1.00  0.00     0.031 C 
ATOM     50  C   UNL     1      -2.183  18.292   1.651  1.00  0.00     0.029 A 
ATOM     51  C   UNL     1      -2.369  19.079   0.446  1.00  0.00     0.049 A 
ATOM     52  H   UNL     1      -0.856  19.939  -0.726  1.00  0.00     0.167 HD
ATOM     53  C   UNL     1       2.402  20.759  -3.533  1.00  0.00     0.037 A 
ATOM     54  C   UNL     1      -3.519  19.479  -0.153  1.00  0.00     0.037 A 
ATOM     55  C   UNL     1       2.109  21.992  -2.839  1.00  0.00     0.049 A 
ATOM     56  C   UNL     1      -3.181  20.648  -0.994  1.00  0.00     0.074 A 
ATOM     57  C   UNL     1       2.773  22.851  -1.990  1.00  0.00     0.029 A 
ATOM     58  N   UNL     1       0.769  22.219  -2.679  1.00  0.00    -0.354 N 
ATOM     59  N   UNL     1      -2.822  21.804  -0.509  1.00  0.00    -0.248 NA
ATOM     60  C   UNL     1      -2.890  20.443  -2.406  1.00  0.00     0.031 C 
ATOM     61  C   UNL     1       1.767  23.424  -1.152  1.00  0.00     0.029 A 
ATOM     62  C   UNL     1       0.519  22.953  -1.558  1.00  0.00     0.049 A 
ATOM     63  H   UNL     1       0.074  21.895  -3.296  1.00  0.00     0.167 HD
ATOM     64  C   UNL     1      -1.867  22.258  -1.397  1.00  0.00     0.074 A 
ATOM     65  C   UNL     1      -2.091  21.492  -2.619  1.00  0.00     0.031 C 
ATOM     66  C   UNL     1      -0.788  22.957  -0.940  1.00  0.00     0.037 A 
BRANCH  53  67
ATOM     67  C   UNL     1       1.919  20.563  -4.965  1.00  0.00     0.064 A 
ATOM     68  C   UNL     1       1.725  21.713  -5.766  1.00  0.00     0.173 A 
ATOM     69  C   UNL     1       1.304  19.388  -5.451  1.00  0.00     0.173 A 
ATOM     70  F   UNL     1       2.252  22.893  -5.405  1.00  0.00    -0.203 F 
ATOM     71  C   UNL     1       0.893  21.706  -6.890  1.00  0.00     0.198 A 
ATOM     72  C   UNL     1       0.512  19.376  -6.599  1.00  0.00     0.198 A 
ATOM     73  F   UNL     1       1.340  18.229  -4.788  1.00  0.00    -0.203 F 
ATOM     74  F   UNL     1       0.625  22.853  -7.528  1.00  0.00    -0.200 F 
ATOM     75  C   UNL     1       0.277  20.539  -7.298  1.00  0.00     0.200 A 
ATOM     76  F   UNL     1      -0.094  18.238  -6.965  1.00  0.00    -0.200 F 
ATOM     77  F   UNL     1      -0.578  20.542  -8.329  1.00  0.00    -0.200 F 
ENDBRANCH  53  67
BRANCH  54  78
ATOM     78  C   UNL     1      -4.842  18.810  -0.239  1.00  0.00     0.064 A 
ATOM     79  C   UNL     1      -5.969  19.498  -0.730  1.00  0.00     0.173 A 
ATOM     80  C   UNL     1      -4.963  17.411  -0.144  1.00  0.00     0.173 A 
ATOM     81  F   UNL     1      -5.935  20.830  -0.881  1.00  0.00    -0.203 F 
ATOM     82  C   UNL     1      -7.118  18.824  -1.155  1.00  0.00     0.198 A 
ATOM     83  C   UNL     1      -6.115  16.740  -0.563  1.00  0.00     0.198 A 
ATOM     84  F   UNL     1      -3.931  16.659   0.262  1.00  0.00    -0.203 F 
ATOM     85  F   UNL     1      -8.135  19.510  -1.696  1.00  0.00    -0.200 F 
ATOM     86  C   UNL     1      -7.183  17.443  -1.088  1.00  0.00     0.200 A 
ATOM     87  F   UNL     1      -6.154  15.400  -0.522  1.00  0.00    -0.200 F 
ATOM     88  F   UNL     1      -8.250  16.790  -1.569  1.00  0.00    -0.200 F 
ENDBRANCH  54  78
BRANCH  66  89
ATOM     89  C   UNL     1      -0.929  23.662   0.375  1.00  0.00     0.064 A 
ATOM     90  C   UNL     1      -1.115  23.029   1.615  1.00  0.00     0.173 A 
ATOM     91  C   UNL     1      -0.781  25.056   0.373  1.00  0.00     0.173 A 
ATOM     92  F   UNL     1      -1.184  21.695   1.710  1.00  0.00    -0.203 F 
ATOM     93  C   UNL     1      -1.189  23.772   2.793  1.00  0.00     0.198 A 
ATOM     94  C   UNL     1      -0.813  25.788   1.553  1.00  0.00     0.198 A 
ATOM     95  F   UNL     1      -0.563  25.706  -0.781  1.00  0.00    -0.203 F 
ATOM     96  F   UNL     1      -1.389  23.152   3.966  1.00  0.00    -0.200 F 
ATOM     97  C   UNL     1      -1.030  25.148   2.761  1.00  0.00     0.200 A 
ATOM     98  F   UNL     1      -0.614  27.113   1.518  1.00  0.00    -0.200 F 
ATOM     99  F   UNL     1      -1.064  25.857   3.898  1.00  0.00    -0.200 F 
ENDBRANCH  66  89
ENDBRANCH  40  41
ENDBRANCH  32  35
ENDBRANCH  30  31
ENDBRANCH  29  30
ENDBRANCH   1  29
TORSDOF 14
