REMARK SMILES O=C(NCCCNC(=O)c1ccccc1Sc1ccc(S(=O)(=O)N2CCCC2)cc1[N+](=O)[O-])c1ccc(-c2c3nc(c(-c4c(F)c(F)c(F)c(F)c4F)c4ccc([nH]4)c(-c4c(F)c(F)c(F)c(F)c4F)c4nc(c(-c5c(F)c(F)c(F)c(F)c5F)c5ccc2[nH]5)C=C4)C=C3)cc1
REMARK SMILES IDX 6 1 5 2 4 3 3 4 1 5 2 6 34 8 35 9 96 10 36 11 95 12 37 13
REMARK SMILES IDX 38 14 39 15 89 16 40 17 94 18 88 19 90 20 41 21 93 22 87 23
REMARK SMILES IDX 86 24 42 26 74 27 54 28 73 29 55 30 58 31 72 32 91 33 56 34
REMARK SMILES IDX 57 35 71 37 92 38 59 39 43 40 44 41 52 42 45 43 46 44 50 45
REMARK SMILES IDX 53 46 47 47 48 48 51 49 49 50 75 51 76 52 84 53 77 54 78 55
REMARK SMILES IDX 82 56 85 57 79 58 80 59 83 60 81 61 60 62 61 63 69 64 62 65
REMARK SMILES IDX 63 66 67 67 70 68 64 69 65 70 68 71 66 72 7 73 8 74 9 76
REMARK SMILES IDX 10 77 11 78 15 79 12 80 14 81 13 82 16 83 17 84 18 85 30 86
REMARK SMILES IDX 19 87 29 88 20 89 31 90 32 91 33 92 21 93 22 94 23 95 24 96
REMARK SMILES IDX 25 97 28 98 26 99 27 100
REMARK H PARENT 3 7 90 25 58 36 7 75
REMARK Flexibility Score: inf
ROOT
ATOM      1  C   UNL     1       5.473   1.987   2.905  1.00  0.00     0.118 C 
ENDROOT
BRANCH   1   2
ATOM      2  C   UNL     1       5.630   1.960   1.399  1.00  0.00     0.042 C 
BRANCH   2   3
ATOM      3  C   UNL     1       4.866   0.846   0.705  1.00  0.00     0.118 C 
BRANCH   3   4
ATOM      4  N   UNL     1       3.416   0.953   0.782  1.00  0.00    -0.352 N 
ATOM      5  O   UNL     1       1.282   0.616   0.095  1.00  0.00    -0.269 OA
ATOM      6  C   UNL     1       2.481   0.567  -0.155  1.00  0.00     0.251 C 
ATOM      7  H   UNL     1       3.058   1.351   1.608  1.00  0.00     0.163 HD
BRANCH   6   8
ATOM      8  C   UNL     1       2.962   0.227  -1.506  1.00  0.00     0.039 A 
ATOM      9  C   UNL     1       4.002  -0.687  -1.675  1.00  0.00     0.014 A 
ATOM     10  C   UNL     1       2.527   1.029  -2.562  1.00  0.00     0.014 A 
ATOM     11  C   UNL     1       4.774  -0.606  -2.825  1.00  0.00     0.010 A 
ATOM     12  C   UNL     1       3.230   1.014  -3.763  1.00  0.00     0.010 A 
ATOM     13  C   UNL     1       4.401   0.251  -3.877  1.00  0.00    -0.014 A 
BRANCH  13  14
ATOM     14  C   UNL     1       5.220   0.304  -5.110  1.00  0.00     0.031 A 
ATOM     15  C   UNL     1       5.879   1.580  -5.561  1.00  0.00     0.074 A 
ATOM     16  C   UNL     1       5.350  -0.827  -5.826  1.00  0.00     0.049 A 
ATOM     17  N   UNL     1       6.570   1.812  -6.650  1.00  0.00    -0.248 NA
ATOM     18  C   UNL     1       5.736   2.755  -4.686  1.00  0.00     0.031 C 
ATOM     19  C   UNL     1       4.744  -2.114  -5.475  1.00  0.00     0.029 A 
ATOM     20  N   UNL     1       6.028  -1.084  -6.987  1.00  0.00    -0.354 N 
ATOM     21  C   UNL     1       6.919   3.157  -6.606  1.00  0.00     0.074 A 
ATOM     22  C   UNL     1       6.344   3.699  -5.393  1.00  0.00     0.031 C 
ATOM     23  C   UNL     1       5.105  -3.032  -6.379  1.00  0.00     0.029 A 
ATOM     24  C   UNL     1       5.894  -2.381  -7.415  1.00  0.00     0.049 A 
ATOM     25  H   UNL     1       6.558  -0.407  -7.466  1.00  0.00     0.167 HD
ATOM     26  C   UNL     1       7.652   3.865  -7.500  1.00  0.00     0.037 A 
ATOM     27  C   UNL     1       6.325  -2.973  -8.541  1.00  0.00     0.037 A 
ATOM     28  C   UNL     1       8.222   3.298  -8.698  1.00  0.00     0.049 A 
ATOM     29  C   UNL     1       7.104  -2.156  -9.527  1.00  0.00     0.074 A 
ATOM     30  C   UNL     1       9.013   3.911  -9.655  1.00  0.00     0.029 A 
ATOM     31  N   UNL     1       8.052   1.981  -9.108  1.00  0.00    -0.354 N 
ATOM     32  N   UNL     1       7.453  -0.894  -9.462  1.00  0.00    -0.248 NA
ATOM     33  C   UNL     1       7.549  -2.844 -10.743  1.00  0.00     0.031 C 
ATOM     34  C   UNL     1       9.269   2.985 -10.671  1.00  0.00     0.029 A 
ATOM     35  C   UNL     1       8.698   1.773 -10.317  1.00  0.00     0.049 A 
ATOM     36  H   UNL     1       7.548   1.297  -8.612  1.00  0.00     0.167 HD
ATOM     37  C   UNL     1       8.177  -0.640 -10.616  1.00  0.00     0.074 A 
ATOM     38  C   UNL     1       8.234  -1.888 -11.352  1.00  0.00     0.031 C 
ATOM     39  C   UNL     1       8.741   0.521 -11.032  1.00  0.00     0.037 A 
BRANCH  26  40
ATOM     40  C   UNL     1       7.863   5.333  -7.241  1.00  0.00     0.064 A 
ATOM     41  C   UNL     1       8.666   5.795  -6.187  1.00  0.00     0.173 A 
ATOM     42  C   UNL     1       7.296   6.294  -8.095  1.00  0.00     0.173 A 
ATOM     43  F   UNL     1       9.229   4.926  -5.335  1.00  0.00    -0.203 F 
ATOM     44  C   UNL     1       8.869   7.160  -5.981  1.00  0.00     0.198 A 
ATOM     45  C   UNL     1       7.528   7.655  -7.906  1.00  0.00     0.198 A 
ATOM     46  F   UNL     1       6.528   5.913  -9.126  1.00  0.00    -0.203 F 
ATOM     47  F   UNL     1       9.602   7.577  -4.939  1.00  0.00    -0.200 F 
ATOM     48  C   UNL     1       8.307   8.087  -6.844  1.00  0.00     0.200 A 
ATOM     49  F   UNL     1       6.997   8.548  -8.752  1.00  0.00    -0.200 F 
ATOM     50  F   UNL     1       8.511   9.398  -6.650  1.00  0.00    -0.200 F 
ENDBRANCH  26  40
BRANCH  27  51
ATOM     51  C   UNL     1       6.009  -4.404  -8.782  1.00  0.00     0.064 A 
ATOM     52  C   UNL     1       7.019  -5.374  -8.779  1.00  0.00     0.173 A 
ATOM     53  C   UNL     1       4.688  -4.834  -8.983  1.00  0.00     0.173 A 
ATOM     54  F   UNL     1       8.297  -5.010  -8.601  1.00  0.00    -0.203 F 
ATOM     55  C   UNL     1       6.722  -6.719  -8.987  1.00  0.00     0.198 A 
ATOM     56  C   UNL     1       4.389  -6.182  -9.155  1.00  0.00     0.198 A 
ATOM     57  F   UNL     1       3.683  -3.946  -8.981  1.00  0.00    -0.203 F 
ATOM     58  F   UNL     1       7.711  -7.622  -9.024  1.00  0.00    -0.200 F 
ATOM     59  C   UNL     1       5.407  -7.123  -9.167  1.00  0.00     0.200 A 
ATOM     60  F   UNL     1       3.115  -6.570  -9.303  1.00  0.00    -0.200 F 
ATOM     61  F   UNL     1       5.122  -8.418  -9.355  1.00  0.00    -0.200 F 
ENDBRANCH  27  51
BRANCH  39  62
ATOM     62  C   UNL     1       9.500   0.478 -12.326  1.00  0.00     0.064 A 
ATOM     63  C   UNL     1       8.849   0.324 -13.559  1.00  0.00     0.173 A 
ATOM     64  C   UNL     1      10.897   0.608 -12.331  1.00  0.00     0.173 A 
ATOM     65  F   UNL     1       7.516   0.176 -13.606  1.00  0.00    -0.203 F 
ATOM     66  C   UNL     1       9.572   0.269 -14.747  1.00  0.00     0.198 A 
ATOM     67  C   UNL     1      11.613   0.590 -13.524  1.00  0.00     0.198 A 
ATOM     68  F   UNL     1      11.566   0.762 -11.179  1.00  0.00    -0.203 F 
ATOM     69  F   UNL     1       8.936   0.060 -15.908  1.00  0.00    -0.200 F 
ATOM     70  C   UNL     1      10.952   0.410 -14.729  1.00  0.00     0.200 A 
ATOM     71  F   UNL     1      12.945   0.741 -13.506  1.00  0.00    -0.200 F 
ATOM     72  F   UNL     1      11.647   0.362 -15.874  1.00  0.00    -0.200 F 
ENDBRANCH  39  62
ENDBRANCH  13  14
ENDBRANCH   6   8
ENDBRANCH   3   4
ENDBRANCH   2   3
ENDBRANCH   1   2
BRANCH   1  73
ATOM     73  N   UNL     1       5.917   0.764   3.540  1.00  0.00    -0.352 N 
ATOM     74  C   UNL     1       6.219   0.577   4.859  1.00  0.00     0.252 C 
ATOM     75  H   UNL     1       6.013  -0.021   2.955  1.00  0.00     0.163 HD
ATOM     76  O   UNL     1       6.631  -0.514   5.244  1.00  0.00    -0.269 OA
BRANCH  74  77
ATOM     77  C   UNL     1       6.118   1.698   5.808  1.00  0.00     0.053 A 
ATOM     78  C   UNL     1       7.369   2.041   6.364  1.00  0.00     0.015 A 
ATOM     79  C   UNL     1       4.949   2.399   6.166  1.00  0.00     0.025 A 
ATOM     80  C   UNL     1       7.495   3.136   7.209  1.00  0.00     0.001 A 
ATOM     81  C   UNL     1       5.123   3.531   6.990  1.00  0.00     0.016 A 
ATOM     82  C   UNL     1       6.375   3.900   7.497  1.00  0.00     0.001 A 
BRANCH  79  83
ATOM     83  S   UNL     1       3.209   2.095   5.780  1.00  0.00    -0.082 SA
BRANCH  83  84
ATOM     84  C   UNL     1       3.029   0.423   5.192  1.00  0.00     0.090 A 
ATOM     85  C   UNL     1       2.276   0.284   4.007  1.00  0.00     0.024 A 
ATOM     86  C   UNL     1       3.647  -0.723   5.691  1.00  0.00     0.284 A 
ATOM     87  C   UNL     1       2.326  -0.886   3.237  1.00  0.00     0.023 A 
ATOM     88  C   UNL     1       3.838  -1.824   4.840  1.00  0.00     0.108 A 
ATOM     89  C   UNL     1       3.201  -1.900   3.607  1.00  0.00     0.089 A 
BRANCH  86  90
ATOM     90  N   UNL     1       4.109  -0.854   7.085  1.00  0.00     0.063 N 
ATOM     91  O   UNL     1       4.663  -1.917   7.404  1.00  0.00    -0.258 OA
ATOM     92  O   UNL     1       3.836   0.045   7.889  1.00  0.00    -0.258 OA
ENDBRANCH  86  90
BRANCH  89  93
ATOM     93  S   UNL     1       3.521  -3.236   2.469  1.00  0.00     0.243 S 
ATOM     94  O   UNL     1       2.291  -3.450   1.732  1.00  0.00    -0.207 OA
ATOM     95  O   UNL     1       4.747  -2.887   1.786  1.00  0.00    -0.207 OA
BRANCH  93  96
ATOM     96  N   UNL     1       3.782  -4.610   3.402  1.00  0.00    -0.198 NA
ATOM     97  C   UNL     1       2.695  -5.152   4.232  1.00  0.00     0.102 C 
ATOM     98  C   UNL     1       5.071  -4.837   4.084  1.00  0.00     0.102 C 
ATOM     99  C   UNL     1       3.206  -5.002   5.653  1.00  0.00     0.018 C 
ATOM    100  C   UNL     1       4.716  -5.165   5.536  1.00  0.00     0.018 C 
ENDBRANCH  93  96
ENDBRANCH  89  93
ENDBRANCH  83  84
ENDBRANCH  79  83
ENDBRANCH  74  77
ENDBRANCH   1  73
TORSDOF 15
