REMARK SMILES O=C(NCCCNC(=O)c1coc(-c2csc(-c3ccc(Cl)cn3)n2)c1)c1ccc(-c2c3nc(c(-c4c(F)c(F)c(F)c(F)c4F)c4ccc([nH]4)c(-c4c(F)c(F)c(F)c(F)c4F)c4nc(c(-c5c(F)c(F)c(F)c(F)c5F)c5ccc2[nH]5)C=C4)C=C3)cc1
REMARK SMILES IDX 5 1 4 2 3 3 1 4 2 5 27 7 28 8 89 9 29 10 88 11 30 12 31 13
REMARK SMILES IDX 32 14 82 15 33 16 87 17 81 18 83 19 34 20 86 21 80 22 79 23
REMARK SMILES IDX 35 25 67 26 47 27 66 28 48 29 51 30 65 31 84 32 49 33 50 34
REMARK SMILES IDX 64 36 85 37 52 38 36 39 37 40 45 41 38 42 39 43 43 44 46 45
REMARK SMILES IDX 40 46 41 47 44 48 42 49 68 50 69 51 77 52 70 53 71 54 75 55
REMARK SMILES IDX 78 56 72 57 73 58 76 59 74 60 53 61 54 62 62 63 55 64 56 65
REMARK SMILES IDX 60 66 63 67 57 68 58 69 61 70 59 71 6 72 7 73 8 74 9 76
REMARK SMILES IDX 10 77 11 78 26 79 12 80 13 81 14 82 15 83 25 84 16 85 17 86
REMARK SMILES IDX 18 87 19 88 24 89 20 90 23 91 21 92 22 93
REMARK H PARENT 3 6 83 24 51 35 7 75
REMARK Flexibility Score: inf
ROOT
ATOM      1  C   UNL     1       4.190   0.721  -3.368  1.00  0.00     0.042 C 
ENDROOT
BRANCH   1   2
ATOM      2  C   UNL     1       4.287   0.473  -1.861  1.00  0.00     0.118 C 
BRANCH   2   3
ATOM      3  N   UNL     1       3.018   0.656  -1.175  1.00  0.00    -0.352 N 
ATOM      4  O   UNL     1       1.391   0.291   0.323  1.00  0.00    -0.269 OA
ATOM      5  C   UNL     1       2.553   0.083  -0.019  1.00  0.00     0.251 C 
ATOM      6  H   UNL     1       2.398   1.288  -1.607  1.00  0.00     0.163 HD
BRANCH   5   7
ATOM      7  C   UNL     1       3.406  -0.801   0.810  1.00  0.00     0.039 A 
ATOM      8  C   UNL     1       4.731  -0.484   1.120  1.00  0.00     0.014 A 
ATOM      9  C   UNL     1       2.818  -1.944   1.370  1.00  0.00     0.014 A 
ATOM     10  C   UNL     1       5.481  -1.336   1.937  1.00  0.00     0.010 A 
ATOM     11  C   UNL     1       3.560  -2.785   2.204  1.00  0.00     0.010 A 
ATOM     12  C   UNL     1       4.902  -2.493   2.481  1.00  0.00    -0.014 A 
BRANCH  12  13
ATOM     13  C   UNL     1       5.703  -3.370   3.365  1.00  0.00     0.031 A 
ATOM     14  C   UNL     1       6.340  -4.617   2.827  1.00  0.00     0.074 A 
ATOM     15  C   UNL     1       5.878  -3.030   4.655  1.00  0.00     0.049 A 
ATOM     16  N   UNL     1       7.140  -5.460   3.430  1.00  0.00    -0.248 NA
ATOM     17  C   UNL     1       6.035  -4.965   1.432  1.00  0.00     0.031 C 
ATOM     18  C   UNL     1       5.282  -1.865   5.309  1.00  0.00     0.029 A 
ATOM     19  N   UNL     1       6.622  -3.627   5.640  1.00  0.00    -0.354 N 
ATOM     20  C   UNL     1       7.424  -6.444   2.496  1.00  0.00     0.074 A 
ATOM     21  C   UNL     1       6.712  -6.096   1.283  1.00  0.00     0.031 C 
ATOM     22  C   UNL     1       5.711  -1.813   6.581  1.00  0.00     0.029 A 
ATOM     23  C   UNL     1       6.613  -2.936   6.825  1.00  0.00     0.049 A 
ATOM     24  H   UNL     1       7.115  -4.469   5.509  1.00  0.00     0.167 HD
ATOM     25  C   UNL     1       8.206  -7.540   2.637  1.00  0.00     0.037 A 
ATOM     26  C   UNL     1       7.282  -3.167   7.969  1.00  0.00     0.037 A 
ATOM     27  C   UNL     1       8.923  -7.892   3.832  1.00  0.00     0.049 A 
ATOM     28  C   UNL     1       8.221  -4.331   8.067  1.00  0.00     0.074 A 
ATOM     29  C   UNL     1       9.716  -9.002   4.073  1.00  0.00     0.029 A 
ATOM     30  N   UNL     1       8.943  -7.129   4.988  1.00  0.00    -0.354 N 
ATOM     31  N   UNL     1       8.490  -5.250   7.174  1.00  0.00    -0.248 NA
ATOM     32  C   UNL     1       8.962  -4.481   9.329  1.00  0.00     0.031 C 
ATOM     33  C   UNL     1      10.223  -8.905   5.375  1.00  0.00     0.029 A 
ATOM     34  C   UNL     1       9.748  -7.733   5.939  1.00  0.00     0.049 A 
ATOM     35  H   UNL     1       8.456  -6.283   5.115  1.00  0.00     0.167 HD
ATOM     36  C   UNL     1       9.430  -6.084   7.759  1.00  0.00     0.074 A 
ATOM     37  C   UNL     1       9.694  -5.559   9.083  1.00  0.00     0.031 C 
ATOM     38  C   UNL     1      10.015  -7.190   7.243  1.00  0.00     0.037 A 
BRANCH  25  39
ATOM     39  C   UNL     1       8.323  -8.447   1.456  1.00  0.00     0.064 A 
ATOM     40  C   UNL     1       9.279  -8.212   0.459  1.00  0.00     0.173 A 
ATOM     41  C   UNL     1       7.496  -9.572   1.334  1.00  0.00     0.173 A 
ATOM     42  F   UNL     1      10.079  -7.138   0.532  1.00  0.00    -0.203 F 
ATOM     43  C   UNL     1       9.400  -9.074  -0.627  1.00  0.00     0.198 A 
ATOM     44  C   UNL     1       7.624 -10.435   0.249  1.00  0.00     0.198 A 
ATOM     45  F   UNL     1       6.564  -9.829   2.264  1.00  0.00    -0.203 F 
ATOM     46  F   UNL     1      10.309  -8.825  -1.580  1.00  0.00    -0.200 F 
ATOM     47  C   UNL     1       8.575 -10.185  -0.730  1.00  0.00     0.200 A 
ATOM     48  F   UNL     1       6.824 -11.504   0.147  1.00  0.00    -0.200 F 
ATOM     49  F   UNL     1       8.691 -11.011  -1.778  1.00  0.00    -0.200 F 
ENDBRANCH  25  39
BRANCH  26  50
ATOM     50  C   UNL     1       7.127  -2.226   9.100  1.00  0.00     0.064 A 
ATOM     51  C   UNL     1       7.996  -1.137   9.243  1.00  0.00     0.173 A 
ATOM     52  C   UNL     1       6.103  -2.387  10.039  1.00  0.00     0.173 A 
ATOM     53  F   UNL     1       8.997  -0.959   8.369  1.00  0.00    -0.203 F 
ATOM     54  C   UNL     1       7.843  -0.236  10.293  1.00  0.00     0.198 A 
ATOM     55  C   UNL     1       5.950  -1.484  11.088  1.00  0.00     0.198 A 
ATOM     56  F   UNL     1       5.258  -3.423   9.939  1.00  0.00    -0.203 F 
ATOM     57  F   UNL     1       8.690   0.795  10.418  1.00  0.00    -0.200 F 
ATOM     58  C   UNL     1       6.820  -0.409  11.214  1.00  0.00     0.200 A 
ATOM     59  F   UNL     1       4.965  -1.655  11.979  1.00  0.00    -0.200 F 
ATOM     60  F   UNL     1       6.675   0.457  12.226  1.00  0.00    -0.200 F 
ENDBRANCH  26  50
BRANCH  38  61
ATOM     61  C   UNL     1      11.007  -7.899   8.107  1.00  0.00     0.064 A 
ATOM     62  C   UNL     1      10.595  -8.880   9.019  1.00  0.00     0.173 A 
ATOM     63  C   UNL     1      12.375  -7.621   8.000  1.00  0.00     0.173 A 
ATOM     64  F   UNL     1       9.293  -9.168   9.159  1.00  0.00    -0.203 F 
ATOM     65  C   UNL     1      11.526  -9.558   9.801  1.00  0.00     0.198 A 
ATOM     66  C   UNL     1      13.303  -8.303   8.781  1.00  0.00     0.198 A 
ATOM     67  F   UNL     1      12.809  -6.683   7.144  1.00  0.00    -0.203 F 
ATOM     68  F   UNL     1      11.114 -10.485  10.677  1.00  0.00    -0.200 F 
ATOM     69  C   UNL     1      12.878  -9.270   9.681  1.00  0.00     0.200 A 
ATOM     70  F   UNL     1      14.608  -8.020   8.671  1.00  0.00    -0.200 F 
ATOM     71  F   UNL     1      13.772  -9.921  10.438  1.00  0.00    -0.200 F 
ENDBRANCH  38  61
ENDBRANCH  12  13
ENDBRANCH   5   7
ENDBRANCH   2   3
ENDBRANCH   1   2
BRANCH   1  72
ATOM     72  C   UNL     1       3.862   2.165  -3.755  1.00  0.00     0.118 C 
BRANCH  72  73
ATOM     73  N   UNL     1       4.882   3.098  -3.311  1.00  0.00    -0.352 N 
ATOM     74  C   UNL     1       6.059   3.465  -3.912  1.00  0.00     0.254 C 
ATOM     75  H   UNL     1       4.702   3.533  -2.446  1.00  0.00     0.163 HD
ATOM     76  O   UNL     1       6.927   3.992  -3.221  1.00  0.00    -0.269 OA
BRANCH  74  77
ATOM     77  C   UNL     1       6.263   3.215  -5.323  1.00  0.00     0.078 A 
ATOM     78  C   UNL     1       5.389   3.488  -6.355  1.00  0.00     0.209 A 
ATOM     79  C   UNL     1       7.459   2.772  -5.960  1.00  0.00     0.066 A 
ATOM     80  O   UNL     1       5.955   3.220  -7.559  1.00  0.00    -0.462 OA
ATOM     81  C   UNL     1       7.230   2.789  -7.321  1.00  0.00     0.153 A 
BRANCH  81  82
ATOM     82  C   UNL     1       8.223   2.437  -8.373  1.00  0.00     0.117 A 
ATOM     83  C   UNL     1       7.969   2.606  -9.716  1.00  0.00     0.099 A 
ATOM     84  N   UNL     1       9.471   1.930  -8.061  1.00  0.00    -0.231 NA
ATOM     85  S   UNL     1       9.357   2.180 -10.624  1.00  0.00    -0.120 S 
ATOM     86  C   UNL     1      10.183   1.774  -9.164  1.00  0.00     0.142 A 
BRANCH  86  87
ATOM     87  C   UNL     1      11.557   1.251  -9.204  1.00  0.00     0.099 A 
ATOM     88  C   UNL     1      11.990   0.328  -8.252  1.00  0.00     0.033 A 
ATOM     89  N   UNL     1      12.373   1.727 -10.181  1.00  0.00    -0.252 NA
ATOM     90  C   UNL     1      13.305  -0.136  -8.306  1.00  0.00     0.024 A 
ATOM     91  C   UNL     1      13.650   1.271 -10.197  1.00  0.00     0.132 A 
ATOM     92  C   UNL     1      14.153   0.348  -9.294  1.00  0.00     0.059 A 
ATOM     93  Cl  UNL     1      15.780  -0.185  -9.389  1.00  0.00    -0.083 Cl
ENDBRANCH  86  87
ENDBRANCH  81  82
ENDBRANCH  74  77
ENDBRANCH  72  73
ENDBRANCH   1  72
TORSDOF 12
