REMARK SMILES COc1ccc(F)c(NC(=O)N[C@H]2CCC[C@H]2C(=O)NCCCNC(=O)c2ccc(-c3c4nc(c(-c5c(F)c(F)c(F)c(F)c5F)c5ccc([nH]5)c(-c5c(F)c(F)c(F)c(F)c5F)c5nc(c(-c6c(F)c(F)c(F)c(F)c6F)c6ccc3[nH]6)C=C5)C=C4)cc2)c1
REMARK SMILES IDX 21 1 20 2 18 3 19 4 17 6 13 7 14 8 15 9 16 10 12 11 9 12
REMARK SMILES IDX 10 13 11 15 8 17 3 18 4 19 90 20 5 21 6 22 7 23 2 24 1 25
REMARK SMILES IDX 22 26 23 27 24 28 25 29 26 31 27 32 28 33 89 34 29 35 88 36
REMARK SMILES IDX 30 37 31 38 32 39 82 40 33 41 87 42 81 43 83 44 34 45 86 46
REMARK SMILES IDX 80 47 79 48 35 50 67 51 47 52 66 53 48 54 51 55 65 56 84 57
REMARK SMILES IDX 49 58 50 59 64 61 85 62 52 63 36 64 37 65 45 66 38 67 39 68
REMARK SMILES IDX 43 69 46 70 40 71 41 72 44 73 42 74 68 75 69 76 77 77 70 78
REMARK SMILES IDX 71 79 75 80 78 81 72 82 73 83 76 84 74 85 53 86 54 87 62 88
REMARK SMILES IDX 55 89 56 90 60 91 63 92 57 93 58 94 61 95 59 96
REMARK H PARENT 20 5 9 14 12 16 24 30 83 49 51 60
REMARK Flexibility Score: inf
ROOT
ATOM      1  C   UNL     1      -0.920   1.402   2.917  1.00  0.00     0.117 C 
ENDROOT
BRANCH   1   2
ATOM      2  N   UNL     1      -2.035   2.239   2.393  1.00  0.00    -0.356 N 
ATOM      3  C   UNL     1      -2.513   2.691   1.187  1.00  0.00     0.225 C 
ATOM      4  O   UNL     1      -3.755   2.699   1.124  1.00  0.00    -0.275 OA
ATOM      5  H   UNL     1      -2.597   2.567   3.132  1.00  0.00     0.163 HD
BRANCH   3   6
ATOM      6  C   UNL     1      -1.754   3.417   0.039  1.00  0.00     0.101 C 
ATOM      7  C   UNL     1      -0.325   3.678   0.312  1.00  0.00     0.096 C 
ATOM      8  C   UNL     1      -0.004   4.708  -0.796  1.00  0.00     0.026 C 
ATOM      9  C   UNL     1      -0.544   4.048  -2.050  1.00  0.00     0.003 C 
ATOM     10  C   UNL     1      -1.665   3.153  -1.510  1.00  0.00     0.016 C 
BRANCH   7  11
ATOM     11  N   UNL     1       0.497   2.474   0.163  1.00  0.00    -0.334 N 
ATOM     12  N   UNL     1      -0.591   0.281  -0.036  1.00  0.00    -0.305 N 
ATOM     13  C   UNL     1       0.414   1.155   0.044  1.00  0.00     0.319 C 
ATOM     14  H   UNL     1      -0.152  -0.572   0.185  1.00  0.00     0.171 HD
ATOM     15  O   UNL     1       1.529   0.612   0.154  1.00  0.00    -0.248 OA
ATOM     16  H   UNL     1       1.445   2.736   0.144  1.00  0.00     0.165 HD
BRANCH  12  17
ATOM     17  C   UNL     1      -1.951  -0.116  -0.262  1.00  0.00     0.082 A 
ATOM     18  C   UNL     1      -4.254  -0.103  -1.178  1.00  0.00     0.121 A 
ATOM     19  C   UNL     1      -4.450  -1.419  -0.791  1.00  0.00     0.049 A 
ATOM     20  C   UNL     1      -3.032   0.527  -0.871  1.00  0.00     0.075 A 
ATOM     21  C   UNL     1      -3.444  -2.079  -0.099  1.00  0.00     0.045 A 
ATOM     22  C   UNL     1      -2.227  -1.436   0.141  1.00  0.00     0.147 A 
ATOM     23  F   UNL     1      -1.277  -2.116   0.804  1.00  0.00    -0.205 F 
BRANCH  18  24
ATOM     24  O   UNL     1      -5.306   0.463  -1.851  1.00  0.00    -0.497 OA
ATOM     25  C   UNL     1      -5.173   1.803  -2.318  1.00  0.00     0.278 C 
ENDBRANCH  18  24
ENDBRANCH  12  17
ENDBRANCH   7  11
ENDBRANCH   3   6
ENDBRANCH   1   2
BRANCH   1  26
ATOM     26  C   UNL     1       0.339   2.101   3.438  1.00  0.00     0.042 C 
BRANCH  26  27
ATOM     27  C   UNL     1       0.481   2.073   4.966  1.00  0.00     0.118 C 
BRANCH  27  28
ATOM     28  N   UNL     1       1.272   0.954   5.476  1.00  0.00    -0.352 N 
ATOM     29  C   UNL     1       2.333   0.958   6.362  1.00  0.00     0.251 C 
ATOM     30  H   UNL     1       1.012   0.067   5.137  1.00  0.00     0.163 HD
ATOM     31  O   UNL     1       2.961  -0.073   6.574  1.00  0.00    -0.269 OA
BRANCH  29  32
ATOM     32  C   UNL     1       2.726   2.202   7.071  1.00  0.00     0.039 A 
ATOM     33  C   UNL     1       4.083   2.483   7.272  1.00  0.00     0.014 A 
ATOM     34  C   UNL     1       1.759   3.060   7.598  1.00  0.00     0.014 A 
ATOM     35  C   UNL     1       4.465   3.631   7.977  1.00  0.00     0.010 A 
ATOM     36  C   UNL     1       2.138   4.247   8.219  1.00  0.00     0.010 A 
ATOM     37  C   UNL     1       3.492   4.522   8.454  1.00  0.00    -0.014 A 
BRANCH  37  38
ATOM     38  C   UNL     1       3.854   5.686   9.304  1.00  0.00     0.031 A 
ATOM     39  C   UNL     1       3.394   5.721  10.738  1.00  0.00     0.074 A 
ATOM     40  C   UNL     1       4.536   6.724   8.786  1.00  0.00     0.049 A 
ATOM     41  N   UNL     1       3.542   6.659  11.639  1.00  0.00    -0.248 NA
ATOM     42  C   UNL     1       2.622   4.559  11.211  1.00  0.00     0.031 C 
ATOM     43  C   UNL     1       4.977   6.834   7.396  1.00  0.00     0.029 A 
ATOM     44  N   UNL     1       4.973   7.887   9.369  1.00  0.00    -0.354 N 
ATOM     45  C   UNL     1       2.855   6.215  12.762  1.00  0.00     0.074 A 
ATOM     46  C   UNL     1       2.235   4.957  12.412  1.00  0.00     0.031 C 
ATOM     47  C   UNL     1       5.652   7.985   7.240  1.00  0.00     0.029 A 
ATOM     48  C   UNL     1       5.675   8.701   8.514  1.00  0.00     0.049 A 
ATOM     49  H   UNL     1       4.799   8.117  10.310  1.00  0.00     0.167 HD
ATOM     50  C   UNL     1       2.776   6.786  13.987  1.00  0.00     0.037 A 
ATOM     51  C   UNL     1       6.285   9.880   8.742  1.00  0.00     0.037 A 
ATOM     52  C   UNL     1       3.451   8.005  14.343  1.00  0.00     0.049 A 
ATOM     53  C   UNL     1       6.264  10.455  10.132  1.00  0.00     0.074 A 
ATOM     54  C   UNL     1       3.500   8.640  15.570  1.00  0.00     0.029 A 
ATOM     55  N   UNL     1       4.212   8.764  13.465  1.00  0.00    -0.354 N 
ATOM     56  N   UNL     1       5.659  10.001  11.203  1.00  0.00    -0.248 NA
ATOM     57  C   UNL     1       7.027  11.691  10.352  1.00  0.00     0.031 C 
ATOM     58  C   UNL     1       4.267   9.801  15.428  1.00  0.00     0.029 A 
ATOM     59  C   UNL     1       4.734   9.864  14.124  1.00  0.00     0.049 A 
ATOM     60  H   UNL     1       4.358   8.553  12.515  1.00  0.00     0.167 HD
ATOM     61  C   UNL     1       5.986  10.877  12.229  1.00  0.00     0.074 A 
ATOM     62  C   UNL     1       6.854  11.885  11.654  1.00  0.00     0.031 C 
ATOM     63  C   UNL     1       5.604  10.848  13.530  1.00  0.00     0.037 A 
BRANCH  50  64
ATOM     64  C   UNL     1       1.949   6.088  15.030  1.00  0.00     0.064 A 
ATOM     65  C   UNL     1       0.763   6.667  15.506  1.00  0.00     0.173 A 
ATOM     66  C   UNL     1       2.336   4.852  15.573  1.00  0.00     0.173 A 
ATOM     67  F   UNL     1       0.348   7.849  15.027  1.00  0.00    -0.203 F 
ATOM     68  C   UNL     1      -0.005   6.035  16.481  1.00  0.00     0.198 A 
ATOM     69  C   UNL     1       1.548   4.206  16.523  1.00  0.00     0.198 A 
ATOM     70  F   UNL     1       3.453   4.246  15.145  1.00  0.00    -0.203 F 
ATOM     71  F   UNL     1      -1.124   6.617  16.933  1.00  0.00    -0.200 F 
ATOM     72  C   UNL     1       0.382   4.801  16.981  1.00  0.00     0.200 A 
ATOM     73  F   UNL     1       1.907   2.998  16.979  1.00  0.00    -0.200 F 
ATOM     74  F   UNL     1      -0.373   4.180  17.898  1.00  0.00    -0.200 F 
ENDBRANCH  50  64
BRANCH  51  75
ATOM     75  C   UNL     1       7.041  10.530   7.640  1.00  0.00     0.064 A 
ATOM     76  C   UNL     1       6.386  11.125   6.553  1.00  0.00     0.173 A 
ATOM     77  C   UNL     1       8.442  10.498   7.620  1.00  0.00     0.173 A 
ATOM     78  F   UNL     1       5.046  11.171   6.520  1.00  0.00    -0.203 F 
ATOM     79  C   UNL     1       7.104  11.642   5.476  1.00  0.00     0.198 A 
ATOM     80  C   UNL     1       9.160  11.035   6.553  1.00  0.00     0.198 A 
ATOM     81  F   UNL     1       9.114   9.954   8.645  1.00  0.00    -0.203 F 
ATOM     82  F   UNL     1       6.453  12.168   4.429  1.00  0.00    -0.200 F 
ATOM     83  C   UNL     1       8.490  11.596   5.476  1.00  0.00     0.200 A 
ATOM     84  F   UNL     1      10.500  11.003   6.566  1.00  0.00    -0.200 F 
ATOM     85  F   UNL     1       9.180  12.089   4.438  1.00  0.00    -0.200 F 
ENDBRANCH  51  75
BRANCH  63  86
ATOM     86  C   UNL     1       6.140  11.918  14.433  1.00  0.00     0.064 A 
ATOM     87  C   UNL     1       7.079  11.601  15.426  1.00  0.00     0.173 A 
ATOM     88  C   UNL     1       5.668  13.237  14.369  1.00  0.00     0.173 A 
ATOM     89  F   UNL     1       7.552  10.350  15.535  1.00  0.00    -0.203 F 
ATOM     90  C   UNL     1       7.519  12.564  16.328  1.00  0.00     0.198 A 
ATOM     91  C   UNL     1       6.131  14.204  15.256  1.00  0.00     0.198 A 
ATOM     92  F   UNL     1       4.775  13.589  13.432  1.00  0.00    -0.203 F 
ATOM     93  F   UNL     1       8.393  12.232  17.288  1.00  0.00    -0.200 F 
ATOM     94  C   UNL     1       7.048  13.865  16.240  1.00  0.00     0.200 A 
ATOM     95  F   UNL     1       5.691  15.466  15.157  1.00  0.00    -0.200 F 
ATOM     96  F   UNL     1       7.481  14.795  17.102  1.00  0.00    -0.200 F 
ENDBRANCH  63  86
ENDBRANCH  37  38
ENDBRANCH  29  32
ENDBRANCH  27  28
ENDBRANCH  26  27
ENDBRANCH   1  26
TORSDOF 13
