REMARK SMILES NS(=O)(=O)c1ccc(-c2coc(=O)n2-c2ccc(C(=O)NCCCNC(=O)c3ccc(-c4c5nc(c(-c6c(F)c(F)c(F)c(F)c6F)c6ccc([nH]6)c(-c6c(F)c(F)c(F)c(F)c6F)c6nc(c(-c7c(F)c(F)c(F)c(F)c7F)c7ccc4[nH]7)C=C6)C=C5)cc3)cc2)cc1
REMARK SMILES IDX 22 1 21 2 19 3 20 4 18 6 15 7 16 8 92 9 17 10 91 11 14 12
REMARK SMILES IDX 9 13 10 14 11 15 12 16 13 17 8 18 5 19 6 20 94 21 7 22 93 23
REMARK SMILES IDX 2 24 3 25 4 26 1 27 23 30 24 31 25 32 26 33 27 35 28 36
REMARK SMILES IDX 29 37 90 38 30 39 89 40 31 41 32 42 33 43 83 44 34 45 88 46
REMARK SMILES IDX 82 47 84 48 35 49 87 50 81 51 80 52 36 54 68 55 48 56 67 57
REMARK SMILES IDX 49 58 52 59 66 60 85 61 50 62 51 63 65 65 86 66 53 67 37 68
REMARK SMILES IDX 38 69 46 70 39 71 40 72 44 73 47 74 41 75 42 76 45 77 43 78
REMARK SMILES IDX 69 79 70 80 78 81 71 82 72 83 76 84 79 85 73 86 74 87 77 88
REMARK SMILES IDX 75 89 54 90 55 91 63 92 56 93 57 94 61 95 64 96 58 97 59 98
REMARK SMILES IDX 62 99 60 100
REMARK H PARENT 21 5 1 28 1 29 25 34 84 53 52 64
REMARK Flexibility Score: inf
ROOT
ATOM      1  C   UNL     1      -3.457  -3.012  -4.214  1.00  0.00     0.118 C 
ENDROOT
BRANCH   1   2
ATOM      2  N   UNL     1      -4.218  -4.244  -4.379  1.00  0.00    -0.352 N 
ATOM      3  C   UNL     1      -3.870  -5.572  -4.288  1.00  0.00     0.251 C 
ATOM      4  O   UNL     1      -4.772  -6.404  -4.400  1.00  0.00    -0.269 OA
ATOM      5  H   UNL     1      -5.166  -4.097  -4.598  1.00  0.00     0.163 HD
BRANCH   3   6
ATOM      6  C   UNL     1      -2.480  -6.041  -4.019  1.00  0.00     0.039 A 
ATOM      7  C   UNL     1       0.082  -6.959  -3.298  1.00  0.00     0.053 A 
ATOM      8  C   UNL     1      -1.022  -7.797  -3.144  1.00  0.00     0.028 A 
ATOM      9  C   UNL     1      -0.085  -5.711  -3.896  1.00  0.00     0.028 A 
ATOM     10  C   UNL     1      -2.301  -7.326  -3.477  1.00  0.00     0.016 A 
ATOM     11  C   UNL     1      -1.346  -5.281  -4.290  1.00  0.00     0.016 A 
BRANCH   7  12
ATOM     12  N   UNL     1       1.360  -7.313  -2.835  1.00  0.00    -0.242 N 
ATOM     13  C   UNL     1       2.214  -6.552  -2.085  1.00  0.00     0.095 A 
ATOM     14  C   UNL     1       3.361  -7.218  -2.050  1.00  0.00     0.228 A 
ATOM     15  O   UNL     1       3.341  -8.430  -2.741  1.00  0.00    -0.415 OA
ATOM     16  C   UNL     1       2.031  -8.468  -3.224  1.00  0.00     0.424 A 
ATOM     17  O   UNL     1       1.610  -9.381  -3.921  1.00  0.00    -0.223 OA
BRANCH  13  18
ATOM     18  C   UNL     1       1.845  -5.330  -1.368  1.00  0.00     0.002 A 
ATOM     19  C   UNL     1       1.048  -2.996  -0.032  1.00  0.00     0.082 A 
ATOM     20  C   UNL     1       0.373  -4.194   0.208  1.00  0.00     0.022 A 
ATOM     21  C   UNL     1       2.114  -2.952  -0.935  1.00  0.00     0.022 A 
ATOM     22  C   UNL     1       0.776  -5.355  -0.454  1.00  0.00     0.012 A 
ATOM     23  C   UNL     1       2.513  -4.121  -1.596  1.00  0.00     0.012 A 
BRANCH  19  24
ATOM     24  S   UNL     1       0.508  -1.550   0.832  1.00  0.00     0.238 S 
ATOM     25  O   UNL     1       1.145  -1.524   2.118  1.00  0.00    -0.207 OA
ATOM     26  O   UNL     1      -0.927  -1.429   0.656  1.00  0.00    -0.207 OA
BRANCH  24  27
ATOM     27  N   UNL     1       1.158  -0.264  -0.036  1.00  0.00    -0.225 NA
ATOM     28  H   UNL     1       0.888   0.615   0.405  1.00  0.00     0.137 HD
ATOM     29  H   UNL     1       0.805  -0.287  -0.993  1.00  0.00     0.137 HD
ENDBRANCH  24  27
ENDBRANCH  19  24
ENDBRANCH  13  18
ENDBRANCH   7  12
ENDBRANCH   3   6
ENDBRANCH   1   2
BRANCH   1  30
ATOM     30  C   UNL     1      -2.913  -2.486  -5.551  1.00  0.00     0.042 C 
BRANCH  30  31
ATOM     31  C   UNL     1      -3.965  -1.750  -6.359  1.00  0.00     0.118 C 
BRANCH  31  32
ATOM     32  N   UNL     1      -4.313  -0.455  -5.776  1.00  0.00    -0.352 N 
ATOM     33  C   UNL     1      -5.284   0.432  -6.192  1.00  0.00     0.251 C 
ATOM     34  H   UNL     1      -3.790  -0.183  -4.987  1.00  0.00     0.163 HD
ATOM     35  O   UNL     1      -5.234   1.613  -5.869  1.00  0.00    -0.269 OA
BRANCH  33  36
ATOM     36  C   UNL     1      -6.373  -0.062  -7.051  1.00  0.00     0.039 A 
ATOM     37  C   UNL     1      -6.838   0.692  -8.128  1.00  0.00     0.014 A 
ATOM     38  C   UNL     1      -6.889  -1.330  -6.796  1.00  0.00     0.014 A 
ATOM     39  C   UNL     1      -7.757   0.112  -8.997  1.00  0.00     0.010 A 
ATOM     40  C   UNL     1      -7.645  -1.963  -7.750  1.00  0.00     0.010 A 
ATOM     41  C   UNL     1      -8.128  -1.236  -8.828  1.00  0.00    -0.014 A 
BRANCH  41  42
ATOM     42  C   UNL     1      -8.921  -1.915  -9.852  1.00  0.00     0.031 A 
ATOM     43  C   UNL     1      -8.437  -1.675 -11.237  1.00  0.00     0.074 A 
ATOM     44  C   UNL     1      -9.914  -2.797  -9.600  1.00  0.00     0.049 A 
ATOM     45  N   UNL     1      -9.008  -0.951 -12.139  1.00  0.00    -0.248 NA
ATOM     46  C   UNL     1      -7.095  -2.147 -11.615  1.00  0.00     0.031 C 
ATOM     47  C   UNL     1     -10.330  -3.364  -8.310  1.00  0.00     0.029 A 
ATOM     48  N   UNL     1     -10.734  -3.439 -10.481  1.00  0.00    -0.354 N 
ATOM     49  C   UNL     1      -8.202  -1.034 -13.270  1.00  0.00     0.074 A 
ATOM     50  C   UNL     1      -6.967  -1.634 -12.842  1.00  0.00     0.031 C 
ATOM     51  C   UNL     1     -11.152  -4.416  -8.514  1.00  0.00     0.029 A 
ATOM     52  C   UNL     1     -11.476  -4.477  -9.926  1.00  0.00     0.049 A 
ATOM     53  H   UNL     1     -10.795  -3.190 -11.432  1.00  0.00     0.167 HD
ATOM     54  C   UNL     1      -8.739  -0.838 -14.505  1.00  0.00     0.037 A 
ATOM     55  C   UNL     1     -12.318  -5.317 -10.574  1.00  0.00     0.037 A 
ATOM     56  C   UNL     1     -10.031  -0.202 -14.399  1.00  0.00     0.049 A 
ATOM     57  C   UNL     1     -12.728  -4.637 -11.820  1.00  0.00     0.074 A 
ATOM     58  C   UNL     1     -10.501   1.029 -13.993  1.00  0.00     0.029 A 
ATOM     59  N   UNL     1     -11.096  -1.062 -14.366  1.00  0.00    -0.354 N 
ATOM     60  N   UNL     1     -13.480  -3.573 -11.850  1.00  0.00    -0.248 NA
ATOM     61  C   UNL     1     -11.995  -4.920 -13.043  1.00  0.00     0.031 C 
ATOM     62  C   UNL     1     -11.775   0.775 -13.399  1.00  0.00     0.029 A 
ATOM     63  C   UNL     1     -12.059  -0.586 -13.520  1.00  0.00     0.049 A 
ATOM     64  H   UNL     1     -11.160  -1.901 -14.877  1.00  0.00     0.167 HD
ATOM     65  C   UNL     1     -12.971  -2.823 -12.893  1.00  0.00     0.074 A 
ATOM     66  C   UNL     1     -12.192  -3.767 -13.688  1.00  0.00     0.031 C 
ATOM     67  C   UNL     1     -12.989  -1.459 -12.834  1.00  0.00     0.037 A 
BRANCH  54  68
ATOM     68  C   UNL     1      -8.359  -1.635 -15.738  1.00  0.00     0.064 A 
ATOM     69  C   UNL     1      -8.963  -1.310 -16.972  1.00  0.00     0.173 A 
ATOM     70  C   UNL     1      -7.703  -2.885 -15.699  1.00  0.00     0.173 A 
ATOM     71  F   UNL     1      -9.634  -0.159 -17.122  1.00  0.00    -0.203 F 
ATOM     72  C   UNL     1      -8.980  -2.205 -18.048  1.00  0.00     0.198 A 
ATOM     73  C   UNL     1      -7.680  -3.753 -16.790  1.00  0.00     0.198 A 
ATOM     74  F   UNL     1      -7.162  -3.375 -14.579  1.00  0.00    -0.203 F 
ATOM     75  F   UNL     1      -9.678  -1.906 -19.152  1.00  0.00    -0.200 F 
ATOM     76  C   UNL     1      -8.344  -3.428 -17.953  1.00  0.00     0.200 A 
ATOM     77  F   UNL     1      -7.079  -4.945 -16.669  1.00  0.00    -0.200 F 
ATOM     78  F   UNL     1      -8.413  -4.313 -18.956  1.00  0.00    -0.200 F 
ENDBRANCH  54  68
BRANCH  55  79
ATOM     79  C   UNL     1     -12.611  -6.746 -10.325  1.00  0.00     0.064 A 
ATOM     80  C   UNL     1     -13.733  -7.367 -10.902  1.00  0.00     0.173 A 
ATOM     81  C   UNL     1     -11.630  -7.599  -9.787  1.00  0.00     0.173 A 
ATOM     82  F   UNL     1     -14.696  -6.627 -11.470  1.00  0.00    -0.203 F 
ATOM     83  C   UNL     1     -13.841  -8.759 -10.981  1.00  0.00     0.198 A 
ATOM     84  C   UNL     1     -11.741  -8.989  -9.864  1.00  0.00     0.198 A 
ATOM     85  F   UNL     1     -10.497  -7.098  -9.272  1.00  0.00    -0.203 F 
ATOM     86  F   UNL     1     -14.888  -9.314 -11.609  1.00  0.00    -0.200 F 
ATOM     87  C   UNL     1     -12.837  -9.568 -10.476  1.00  0.00     0.200 A 
ATOM     88  F   UNL     1     -10.745  -9.761  -9.408  1.00  0.00    -0.200 F 
ATOM     89  F   UNL     1     -12.903 -10.899 -10.621  1.00  0.00    -0.200 F 
ENDBRANCH  55  79
BRANCH  67  90
ATOM     90  C   UNL     1     -13.939  -0.832 -11.850  1.00  0.00     0.064 A 
ATOM     91  C   UNL     1     -13.867  -0.980 -10.454  1.00  0.00     0.173 A 
ATOM     92  C   UNL     1     -14.932   0.019 -12.354  1.00  0.00     0.173 A 
ATOM     93  F   UNL     1     -12.895  -1.703  -9.884  1.00  0.00    -0.203 F 
ATOM     94  C   UNL     1     -14.782  -0.350  -9.611  1.00  0.00     0.198 A 
ATOM     95  C   UNL     1     -15.819   0.679 -11.509  1.00  0.00     0.198 A 
ATOM     96  F   UNL     1     -15.023   0.236 -13.676  1.00  0.00    -0.203 F 
ATOM     97  F   UNL     1     -14.712  -0.531  -8.284  1.00  0.00    -0.200 F 
ATOM     98  C   UNL     1     -15.754   0.483 -10.140  1.00  0.00     0.200 A 
ATOM     99  F   UNL     1     -16.727   1.519 -12.024  1.00  0.00    -0.200 F 
ATOM    100  F   UNL     1     -16.616   1.114  -9.330  1.00  0.00    -0.200 F 
ENDBRANCH  67  90
ENDBRANCH  41  42
ENDBRANCH  33  36
ENDBRANCH  31  32
ENDBRANCH  30  31
ENDBRANCH   1  30
TORSDOF 14
