REMARK SMILES Cc1ncccc1NC(=O)NC[C@H]1CCC[C@H]1C(=O)NCCCNC(=O)c1ccc(-c2c3nc(c(-c4c(F)c(F)c(F)c(F)c4F)c4ccc([nH]4)c(-c4c(F)c(F)c(F)c(F)c4F)c4nc(c(-c5c(F)c(F)c(F)c(F)c5F)c5ccc2[nH]5)C=C4)C=C3)cc1
REMARK SMILES IDX 21 1 20 2 18 3 19 4 17 6 13 7 14 8 15 9 16 10 12 11 11 12
REMARK SMILES IDX 8 13 9 14 10 16 7 18 1 19 2 20 3 21 4 22 6 23 5 24 22 25
REMARK SMILES IDX 23 26 24 27 25 28 26 30 27 31 28 32 89 33 29 34 88 35 30 36
REMARK SMILES IDX 31 37 32 38 82 39 33 40 87 41 81 42 83 43 34 44 86 45 80 46
REMARK SMILES IDX 79 47 35 49 67 50 47 51 66 52 48 53 51 54 65 55 84 56 49 57
REMARK SMILES IDX 50 58 64 60 85 61 52 62 36 63 37 64 45 65 38 66 39 67 43 68
REMARK SMILES IDX 46 69 40 70 41 71 44 72 42 73 68 74 69 75 77 76 70 77 71 78
REMARK SMILES IDX 75 79 78 80 72 81 73 82 76 83 74 84 53 85 54 86 62 87 55 88
REMARK SMILES IDX 56 89 60 90 63 91 57 92 58 93 61 94 59 95
REMARK H PARENT 20 5 8 15 11 17 24 29 83 48 51 59
REMARK Flexibility Score: inf
ROOT
ATOM      1  C   UNL     1      -5.187   1.162  -1.749  1.00  0.00     0.117 C 
ENDROOT
BRANCH   1   2
ATOM      2  N   UNL     1      -3.815   1.330  -1.282  1.00  0.00    -0.356 N 
ATOM      3  C   UNL     1      -2.655   0.642  -1.324  1.00  0.00     0.223 C 
ATOM      4  O   UNL     1      -1.750   1.144  -0.637  1.00  0.00    -0.275 OA
ATOM      5  H   UNL     1      -3.705   2.183  -0.803  1.00  0.00     0.163 HD
BRANCH   3   6
ATOM      6  C   UNL     1      -2.337  -0.658  -2.062  1.00  0.00     0.083 C 
ATOM      7  C   UNL     1      -2.531  -2.003  -1.319  1.00  0.00     0.021 C 
ATOM      8  C   UNL     1      -2.029  -2.976  -2.396  1.00  0.00     0.006 C 
ATOM      9  C   UNL     1      -2.561  -2.424  -3.720  1.00  0.00     0.001 C 
ATOM     10  C   UNL     1      -2.740  -0.907  -3.516  1.00  0.00     0.014 C 
BRANCH   7  11
ATOM     11  C   UNL     1      -3.949  -2.342  -0.820  1.00  0.00     0.122 C 
BRANCH  11  12
ATOM     12  N   UNL     1      -4.942  -2.165  -1.861  1.00  0.00    -0.338 N 
ATOM     13  N   UNL     1      -6.417  -3.929  -2.533  1.00  0.00    -0.306 N 
ATOM     14  C   UNL     1      -5.931  -2.702  -2.540  1.00  0.00     0.319 C 
ATOM     15  H   UNL     1      -7.255  -3.963  -3.050  1.00  0.00     0.171 HD
ATOM     16  O   UNL     1      -6.514  -1.901  -3.288  1.00  0.00    -0.249 OA
ATOM     17  H   UNL     1      -4.825  -1.251  -2.209  1.00  0.00     0.165 HD
BRANCH  13  18
ATOM     18  C   UNL     1      -6.117  -5.196  -2.024  1.00  0.00     0.064 A 
ATOM     19  C   UNL     1      -8.328  -6.080  -2.955  1.00  0.00     0.069 C 
ATOM     20  C   UNL     1      -7.062  -6.234  -2.155  1.00  0.00     0.061 A 
ATOM     21  N   UNL     1      -6.865  -7.484  -1.656  1.00  0.00    -0.259 NA
ATOM     22  C   UNL     1      -5.699  -7.730  -1.028  1.00  0.00     0.111 A 
ATOM     23  C   UNL     1      -4.908  -5.527  -1.438  1.00  0.00     0.030 A 
ATOM     24  C   UNL     1      -4.693  -6.796  -0.909  1.00  0.00     0.022 A 
ENDBRANCH  13  18
ENDBRANCH  11  12
ENDBRANCH   7  11
ENDBRANCH   3   6
ENDBRANCH   1   2
BRANCH   1  25
ATOM     25  C   UNL     1      -6.046   0.483  -0.678  1.00  0.00     0.042 C 
BRANCH  25  26
ATOM     26  C   UNL     1      -7.067   1.371   0.017  1.00  0.00     0.118 C 
BRANCH  26  27
ATOM     27  N   UNL     1      -8.281   1.538  -0.764  1.00  0.00    -0.352 N 
ATOM     28  C   UNL     1      -9.587   1.176  -0.532  1.00  0.00     0.251 C 
ATOM     29  H   UNL     1      -8.142   1.999  -1.623  1.00  0.00     0.163 HD
ATOM     30  O   UNL     1     -10.390   1.299  -1.456  1.00  0.00    -0.269 OA
BRANCH  28  31
ATOM     31  C   UNL     1     -10.074   0.643   0.773  1.00  0.00     0.039 A 
ATOM     32  C   UNL     1     -11.233  -0.148   0.771  1.00  0.00     0.014 A 
ATOM     33  C   UNL     1      -9.495   0.966   2.001  1.00  0.00     0.014 A 
ATOM     34  C   UNL     1     -11.789  -0.611   1.972  1.00  0.00     0.010 A 
ATOM     35  C   UNL     1      -9.978   0.407   3.187  1.00  0.00     0.010 A 
ATOM     36  C   UNL     1     -11.157  -0.349   3.195  1.00  0.00    -0.014 A 
BRANCH  36  37
ATOM     37  C   UNL     1     -11.756  -0.770   4.493  1.00  0.00     0.031 A 
ATOM     38  C   UNL     1     -12.130   0.270   5.522  1.00  0.00     0.074 A 
ATOM     39  C   UNL     1     -11.925  -2.077   4.776  1.00  0.00     0.049 A 
ATOM     40  N   UNL     1     -12.582   0.113   6.742  1.00  0.00    -0.248 NA
ATOM     41  C   UNL     1     -11.934   1.679   5.141  1.00  0.00     0.031 C 
ATOM     42  C   UNL     1     -11.567  -3.188   3.894  1.00  0.00     0.029 A 
ATOM     43  N   UNL     1     -12.437  -2.692   5.892  1.00  0.00    -0.354 N 
ATOM     44  C   UNL     1     -12.681   1.392   7.279  1.00  0.00     0.074 A 
ATOM     45  C   UNL     1     -12.192   2.310   6.275  1.00  0.00     0.031 C 
ATOM     46  C   UNL     1     -11.900  -4.346   4.487  1.00  0.00     0.029 A 
ATOM     47  C   UNL     1     -12.460  -4.063   5.805  1.00  0.00     0.049 A 
ATOM     48  H   UNL     1     -12.758  -2.198   6.681  1.00  0.00     0.167 HD
ATOM     49  C   UNL     1     -13.164   1.773   8.486  1.00  0.00     0.037 A 
ATOM     50  C   UNL     1     -12.885  -4.987   6.688  1.00  0.00     0.037 A 
ATOM     51  C   UNL     1     -13.712   0.866   9.459  1.00  0.00     0.049 A 
ATOM     52  C   UNL     1     -13.452  -4.537   8.009  1.00  0.00     0.074 A 
ATOM     53  C   UNL     1     -14.299   1.157  10.678  1.00  0.00     0.029 A 
ATOM     54  N   UNL     1     -13.750  -0.513   9.315  1.00  0.00    -0.354 N 
ATOM     55  N   UNL     1     -13.595  -3.322   8.479  1.00  0.00    -0.248 NA
ATOM     56  C   UNL     1     -13.926  -5.590   8.918  1.00  0.00     0.031 C 
ATOM     57  C   UNL     1     -14.656  -0.049  11.290  1.00  0.00     0.029 A 
ATOM     58  C   UNL     1     -14.337  -1.088  10.431  1.00  0.00     0.049 A 
ATOM     59  H   UNL     1     -13.410  -1.010   8.536  1.00  0.00     0.167 HD
ATOM     60  C   UNL     1     -14.202  -3.461   9.720  1.00  0.00     0.074 A 
ATOM     61  C   UNL     1     -14.413  -4.878   9.924  1.00  0.00     0.031 C 
ATOM     62  C   UNL     1     -14.552  -2.501  10.611  1.00  0.00     0.037 A 
BRANCH  49  63
ATOM     63  C   UNL     1     -13.129   3.239   8.820  1.00  0.00     0.064 A 
ATOM     64  C   UNL     1     -13.947   4.169   8.160  1.00  0.00     0.173 A 
ATOM     65  C   UNL     1     -12.284   3.717   9.834  1.00  0.00     0.173 A 
ATOM     66  F   UNL     1     -14.765   3.769   7.175  1.00  0.00    -0.203 F 
ATOM     67  C   UNL     1     -13.893   5.525   8.475  1.00  0.00     0.198 A 
ATOM     68  C   UNL     1     -12.258   5.068  10.170  1.00  0.00     0.198 A 
ATOM     69  F   UNL     1     -11.486   2.872  10.505  1.00  0.00    -0.203 F 
ATOM     70  F   UNL     1     -14.640   6.400   7.789  1.00  0.00    -0.200 F 
ATOM     71  C   UNL     1     -13.054   5.972   9.484  1.00  0.00     0.200 A 
ATOM     72  F   UNL     1     -11.457   5.497  11.156  1.00  0.00    -0.200 F 
ATOM     73  F   UNL     1     -13.007   7.276   9.789  1.00  0.00    -0.200 F 
ENDBRANCH  49  63
BRANCH  50  74
ATOM     74  C   UNL     1     -12.832  -6.431   6.337  1.00  0.00     0.064 A 
ATOM     75  C   UNL     1     -14.010  -7.154   6.098  1.00  0.00     0.173 A 
ATOM     76  C   UNL     1     -11.614  -7.118   6.238  1.00  0.00     0.173 A 
ATOM     77  F   UNL     1     -15.201  -6.546   6.204  1.00  0.00    -0.203 F 
ATOM     78  C   UNL     1     -13.972  -8.513   5.792  1.00  0.00     0.198 A 
ATOM     79  C   UNL     1     -11.576  -8.471   5.904  1.00  0.00     0.198 A 
ATOM     80  F   UNL     1     -10.459  -6.472   6.455  1.00  0.00    -0.203 F 
ATOM     81  F   UNL     1     -15.116  -9.189   5.614  1.00  0.00    -0.200 F 
ATOM     82  C   UNL     1     -12.755  -9.169   5.689  1.00  0.00     0.200 A 
ATOM     83  F   UNL     1     -10.398  -9.099   5.794  1.00  0.00    -0.200 F 
ATOM     84  F   UNL     1     -12.719 -10.475   5.392  1.00  0.00    -0.200 F 
ENDBRANCH  50  74
BRANCH  62  85
ATOM     85  C   UNL     1     -15.238  -2.947  11.868  1.00  0.00     0.064 A 
ATOM     86  C   UNL     1     -14.548  -3.623  12.885  1.00  0.00     0.173 A 
ATOM     87  C   UNL     1     -16.598  -2.664  12.072  1.00  0.00     0.173 A 
ATOM     88  F   UNL     1     -13.251  -3.929  12.732  1.00  0.00    -0.203 F 
ATOM     89  C   UNL     1     -15.201  -4.025  14.047  1.00  0.00     0.198 A 
ATOM     90  C   UNL     1     -17.240  -3.041  13.248  1.00  0.00     0.198 A 
ATOM     91  F   UNL     1     -17.301  -2.012  11.133  1.00  0.00    -0.203 F 
ATOM     92  F   UNL     1     -14.535  -4.714  14.984  1.00  0.00    -0.200 F 
ATOM     93  C   UNL     1     -16.544  -3.728  14.230  1.00  0.00     0.200 A 
ATOM     94  F   UNL     1     -18.533  -2.740  13.429  1.00  0.00    -0.200 F 
ATOM     95  F   UNL     1     -17.169  -4.111  15.352  1.00  0.00    -0.200 F 
ENDBRANCH  62  85
ENDBRANCH  36  37
ENDBRANCH  28  31
ENDBRANCH  26  27
ENDBRANCH  25  26
ENDBRANCH   1  25
TORSDOF 13
