REMARK SMILES C[C@@H](C(=O)NCCCNC(=O)c1ccc(-c2c3nc(c(-c4c(F)c(F)c(F)c(F)c4F)c4ccc([nH]4)c(-c4c(F)c(F)c(F)c(F)c4F)c4nc(c(-c5c(F)c(F)c(F)c(F)c5F)c5ccc2[nH]5)C=C4)C=C3)cc1)c1cccn(C(F)F)c1=O
REMARK SMILES IDX 7 1 6 2 5 3 3 4 4 5 2 7 1 8 75 9 76 10 83 11 77 12 79 13
REMARK SMILES IDX 84 14 78 15 80 16 81 17 82 18 8 19 9 20 10 21 11 23 12 24
REMARK SMILES IDX 13 25 74 26 14 27 73 28 15 29 16 30 17 31 67 32 18 33 72 34
REMARK SMILES IDX 66 35 68 36 19 37 71 38 65 39 64 40 20 42 52 43 32 44 51 45
REMARK SMILES IDX 33 46 36 47 50 48 69 49 34 50 35 51 49 53 70 54 37 55 21 56
REMARK SMILES IDX 22 57 30 58 23 59 24 60 28 61 31 62 25 63 26 64 29 65 27 66
REMARK SMILES IDX 53 67 54 68 62 69 55 70 56 71 60 72 63 73 57 74 58 75 61 76
REMARK SMILES IDX 59 77 38 78 39 79 47 80 40 81 41 82 45 83 48 84 42 85 43 86
REMARK SMILES IDX 46 87 44 88
REMARK H PARENT 5 6 9 22 68 41 36 52
REMARK Flexibility Score: inf
ROOT
ATOM      1  C   UNL     1       4.267   0.699   1.173  1.00  0.00     0.042 C 
ENDROOT
BRANCH   1   2
ATOM      2  C   UNL     1       3.408  -0.211   2.043  1.00  0.00     0.117 C 
BRANCH   2   3
ATOM      3  N   UNL     1       2.338   0.513   2.701  1.00  0.00    -0.356 N 
ATOM      4  C   UNL     1       0.994   0.519   2.470  1.00  0.00     0.227 C 
ATOM      5  O   UNL     1       0.305   1.134   3.288  1.00  0.00    -0.274 OA
ATOM      6  H   UNL     1       2.631   1.097   3.438  1.00  0.00     0.163 HD
BRANCH   4   7
ATOM      7  C   UNL     1       0.403  -0.291   1.299  1.00  0.00     0.111 C 
ATOM      8  C   UNL     1       0.850   0.187  -0.083  1.00  0.00     0.023 C 
BRANCH   7   9
ATOM      9  C   UNL     1      -1.108  -0.327   1.405  1.00  0.00     0.030 A 
ATOM     10  C   UNL     1      -1.798  -1.459   1.641  1.00  0.00     0.012 A 
ATOM     11  C   UNL     1      -1.871   0.967   1.270  1.00  0.00     0.258 A 
ATOM     12  C   UNL     1      -3.230  -1.450   1.786  1.00  0.00     0.019 A 
ATOM     13  N   UNL     1      -3.233   0.897   1.510  1.00  0.00    -0.258 N 
ATOM     14  O   UNL     1      -1.298   2.003   0.942  1.00  0.00    -0.269 OA
ATOM     15  C   UNL     1      -3.896  -0.292   1.737  1.00  0.00     0.095 A 
BRANCH  13  16
ATOM     16  C   UNL     1      -3.978   2.128   1.446  1.00  0.00     0.451 C 
ATOM     17  F   UNL     1      -4.737   2.136   0.317  1.00  0.00    -0.185 F 
ATOM     18  F   UNL     1      -4.854   2.195   2.486  1.00  0.00    -0.185 F 
ENDBRANCH  13  16
ENDBRANCH   7   9
ENDBRANCH   4   7
ENDBRANCH   2   3
ENDBRANCH   1   2
BRANCH   1  19
ATOM     19  C   UNL     1       5.002   1.788   1.947  1.00  0.00     0.118 C 
BRANCH  19  20
ATOM     20  N   UNL     1       6.022   1.258   2.843  1.00  0.00    -0.352 N 
ATOM     21  C   UNL     1       7.376   1.491   2.868  1.00  0.00     0.251 C 
ATOM     22  H   UNL     1       5.691   0.639   3.534  1.00  0.00     0.163 HD
ATOM     23  O   UNL     1       8.104   0.824   3.598  1.00  0.00    -0.269 OA
BRANCH  21  24
ATOM     24  C   UNL     1       7.962   2.531   1.998  1.00  0.00     0.039 A 
ATOM     25  C   UNL     1       9.116   2.236   1.265  1.00  0.00     0.014 A 
ATOM     26  C   UNL     1       7.374   3.794   1.905  1.00  0.00     0.014 A 
ATOM     27  C   UNL     1       9.633   3.181   0.375  1.00  0.00     0.010 A 
ATOM     28  C   UNL     1       7.844   4.705   0.966  1.00  0.00     0.010 A 
ATOM     29  C   UNL     1       8.976   4.407   0.190  1.00  0.00    -0.014 A 
BRANCH  29  30
ATOM     30  C   UNL     1       9.440   5.413  -0.798  1.00  0.00     0.031 A 
ATOM     31  C   UNL     1       9.879   6.768  -0.323  1.00  0.00     0.074 A 
ATOM     32  C   UNL     1       9.342   5.157  -2.116  1.00  0.00     0.049 A 
ATOM     33  N   UNL     1      10.117   7.854  -1.012  1.00  0.00    -0.248 NA
ATOM     34  C   UNL     1      10.032   6.929   1.131  1.00  0.00     0.031 C 
ATOM     35  C   UNL     1       8.897   3.893  -2.701  1.00  0.00     0.029 A 
ATOM     36  N   UNL     1       9.576   5.965  -3.202  1.00  0.00    -0.354 N 
ATOM     37  C   UNL     1      10.411   8.835  -0.075  1.00  0.00     0.074 A 
ATOM     38  C   UNL     1      10.281   8.226   1.231  1.00  0.00     0.031 C 
ATOM     39  C   UNL     1       8.881   4.011  -4.038  1.00  0.00     0.029 A 
ATOM     40  C   UNL     1       9.268   5.372  -4.401  1.00  0.00     0.049 A 
ATOM     41  H   UNL     1       9.930   6.880  -3.127  1.00  0.00     0.167 HD
ATOM     42  C   UNL     1      10.769  10.124  -0.287  1.00  0.00     0.037 A 
ATOM     43  C   UNL     1       9.266   5.876  -5.650  1.00  0.00     0.037 A 
ATOM     44  C   UNL     1      10.923  10.714  -1.591  1.00  0.00     0.049 A 
ATOM     45  C   UNL     1       9.670   7.309  -5.867  1.00  0.00     0.074 A 
ATOM     46  C   UNL     1      11.345  11.990  -1.917  1.00  0.00     0.029 A 
ATOM     47  N   UNL     1      10.653  10.062  -2.787  1.00  0.00    -0.354 N 
ATOM     48  N   UNL     1       9.999   8.216  -4.980  1.00  0.00    -0.248 NA
ATOM     49  C   UNL     1       9.706   7.787  -7.256  1.00  0.00     0.031 C 
ATOM     50  C   UNL     1      11.288  12.126  -3.308  1.00  0.00     0.029 A 
ATOM     51  C   UNL     1      10.882  10.917  -3.852  1.00  0.00     0.049 A 
ATOM     52  H   UNL     1      10.345   9.131  -2.865  1.00  0.00     0.167 HD
ATOM     53  C   UNL     1      10.310   9.361  -5.701  1.00  0.00     0.074 A 
ATOM     54  C   UNL     1      10.131   9.034  -7.100  1.00  0.00     0.031 C 
ATOM     55  C   UNL     1      10.713  10.571  -5.242  1.00  0.00     0.037 A 
BRANCH  42  56
ATOM     56  C   UNL     1      11.003  10.982   0.924  1.00  0.00     0.064 A 
ATOM     57  C   UNL     1      12.089  10.765   1.786  1.00  0.00     0.173 A 
ATOM     58  C   UNL     1      10.126  12.034   1.228  1.00  0.00     0.173 A 
ATOM     59  F   UNL     1      12.951   9.765   1.546  1.00  0.00    -0.203 F 
ATOM     60  C   UNL     1      12.261  11.537   2.931  1.00  0.00     0.198 A 
ATOM     61  C   UNL     1      10.321  12.827   2.356  1.00  0.00     0.198 A 
ATOM     62  F   UNL     1       9.076  12.292   0.434  1.00  0.00    -0.203 F 
ATOM     63  F   UNL     1      13.265  11.265   3.776  1.00  0.00    -0.200 F 
ATOM     64  C   UNL     1      11.380  12.569   3.213  1.00  0.00     0.200 A 
ATOM     65  F   UNL     1       9.476  13.834   2.620  1.00  0.00    -0.200 F 
ATOM     66  F   UNL     1      11.544  13.309   4.319  1.00  0.00    -0.200 F 
ENDBRANCH  42  56
BRANCH  43  67
ATOM     67  C   UNL     1       8.876   5.005  -6.787  1.00  0.00     0.064 A 
ATOM     68  C   UNL     1       9.835   4.531  -7.692  1.00  0.00     0.173 A 
ATOM     69  C   UNL     1       7.547   4.593  -6.968  1.00  0.00     0.173 A 
ATOM     70  F   UNL     1      11.115   4.912  -7.570  1.00  0.00    -0.203 F 
ATOM     71  C   UNL     1       9.480   3.681  -8.737  1.00  0.00     0.198 A 
ATOM     72  C   UNL     1       7.197   3.723  -7.999  1.00  0.00     0.198 A 
ATOM     73  F   UNL     1       6.593   5.012  -6.123  1.00  0.00    -0.203 F 
ATOM     74  F   UNL     1      10.413   3.262  -9.603  1.00  0.00    -0.200 F 
ATOM     75  C   UNL     1       8.163   3.271  -8.885  1.00  0.00     0.200 A 
ATOM     76  F   UNL     1       5.927   3.316  -8.127  1.00  0.00    -0.200 F 
ATOM     77  F   UNL     1       7.826   2.440  -9.880  1.00  0.00    -0.200 F 
ENDBRANCH  43  67
BRANCH  55  78
ATOM     78  C   UNL     1      11.039  11.627  -6.256  1.00  0.00     0.064 A 
ATOM     79  C   UNL     1      10.037  12.307  -6.962  1.00  0.00     0.173 A 
ATOM     80  C   UNL     1      12.371  12.018  -6.462  1.00  0.00     0.173 A 
ATOM     81  F   UNL     1       8.750  11.959  -6.811  1.00  0.00    -0.203 F 
ATOM     82  C   UNL     1      10.357  13.336  -7.843  1.00  0.00     0.198 A 
ATOM     83  C   UNL     1      12.686  13.065  -7.324  1.00  0.00     0.198 A 
ATOM     84  F   UNL     1      13.366  11.401  -5.806  1.00  0.00    -0.203 F 
ATOM     85  F   UNL     1       9.387  13.956  -8.529  1.00  0.00    -0.200 F 
ATOM     86  C   UNL     1      11.679  13.721  -8.015  1.00  0.00     0.200 A 
ATOM     87  F   UNL     1      13.962  13.444  -7.478  1.00  0.00    -0.200 F 
ATOM     88  F   UNL     1      11.984  14.725  -8.849  1.00  0.00    -0.200 F 
ENDBRANCH  55  78
ENDBRANCH  29  30
ENDBRANCH  21  24
ENDBRANCH  19  20
ENDBRANCH   1  19
TORSDOF 12
