REMARK SMILES Cc1cn2c(CC(=O)N[C@@H](C(=O)NCCCNC(=O)c3ccc(-c4c5nc(c(-c6c(F)c(F)c(F)c(F)c6F)c6ccc([nH]6)c(-c6c(F)c(F)c(F)c(F)c6F)c6nc(c(-c7c(F)c(F)c(F)c(F)c7F)c7ccc4[nH]7)C=C6)C=C5)cc3)[C@H](C)O)csc2n1
REMARK SMILES IDX 14 1 13 2 11 3 12 4 10 6 9 7 7 8 8 9 6 11 5 12 1 13 2 14
REMARK SMILES IDX 3 15 89 16 4 17 88 18 87 19 86 20 83 21 84 22 85 23 15 25
REMARK SMILES IDX 16 26 17 27 18 28 19 30 20 31 21 32 82 33 22 34 81 35 23 36
REMARK SMILES IDX 24 37 25 38 75 39 26 40 80 41 74 42 76 43 27 44 79 45 73 46
REMARK SMILES IDX 72 47 28 49 60 50 40 51 59 52 41 53 44 54 58 55 77 56 42 57
REMARK SMILES IDX 43 58 57 60 78 61 45 62 29 63 30 64 38 65 31 66 32 67 36 68
REMARK SMILES IDX 39 69 33 70 34 71 37 72 35 73 61 74 62 75 70 76 63 77 64 78
REMARK SMILES IDX 68 79 71 80 65 81 66 82 69 83 67 84 46 85 47 86 55 87 48 88
REMARK SMILES IDX 49 89 53 90 56 91 50 92 51 93 54 94 52 95
REMARK H PARENT 13 5 9 10 85 24 17 29 76 48 44 59
REMARK Flexibility Score: inf
ROOT
ATOM      1  C   UNL     1       0.749  -7.491   2.364  1.00  0.00     0.117 C 
ENDROOT
BRANCH   1   2
ATOM      2  N   UNL     1       0.516  -6.870   3.647  1.00  0.00    -0.354 N 
ATOM      3  C   UNL     1       0.444  -5.534   3.939  1.00  0.00     0.245 C 
ATOM      4  O   UNL     1      -0.123  -5.232   4.990  1.00  0.00    -0.273 OA
ATOM      5  H   UNL     1       0.393  -7.484   4.407  1.00  0.00     0.163 HD
BRANCH   3   6
ATOM      6  C   UNL     1       0.908  -4.470   2.896  1.00  0.00     0.200 C 
BRANCH   6   7
ATOM      7  N   UNL     1       2.261  -4.782   2.380  1.00  0.00    -0.342 N 
ATOM      8  C   UNL     1       2.730  -4.905   1.103  1.00  0.00     0.226 C 
ATOM      9  O   UNL     1       3.845  -5.405   0.947  1.00  0.00    -0.275 OA
ATOM     10  H   UNL     1       2.940  -4.924   3.078  1.00  0.00     0.164 HD
BRANCH   8  11
ATOM     11  C   UNL     1       1.902  -4.446  -0.095  1.00  0.00     0.155 C 
BRANCH  11  12
ATOM     12  C   UNL     1       1.025  -5.534  -0.627  1.00  0.00     0.044 A 
ATOM     13  C   UNL     1      -3.849  -4.618  -0.052  1.00  0.00     0.068 C 
ATOM     14  C   UNL     1      -2.501  -5.146  -0.360  1.00  0.00     0.057 A 
ATOM     15  C   UNL     1      -1.282  -4.492  -0.264  1.00  0.00     0.117 A 
ATOM     16  N   UNL     1      -2.332  -6.449  -0.798  1.00  0.00    -0.224 NA
ATOM     17  N   UNL     1      -0.356  -5.430  -0.610  1.00  0.00    -0.294 N 
ATOM     18  C   UNL     1      -1.043  -6.548  -0.976  1.00  0.00     0.194 A 
ATOM     19  S   UNL     1       0.036  -7.816  -1.458  1.00  0.00    -0.105 S 
ATOM     20  C   UNL     1       1.404  -6.747  -1.087  1.00  0.00     0.091 A 
ENDBRANCH  11  12
ENDBRANCH   8  11
ENDBRANCH   6   7
BRANCH   6  21
ATOM     21  C   UNL     1       0.840  -3.040   3.507  1.00  0.00     0.143 C 
ATOM     22  C   UNL     1      -0.246  -2.202   2.841  1.00  0.00     0.041 C 
BRANCH  21  23
ATOM     23  O   UNL     1       2.075  -2.324   3.369  1.00  0.00    -0.391 OA
ATOM     24  H   UNL     1       2.269  -2.192   2.428  1.00  0.00     0.211 HD
ENDBRANCH  21  23
ENDBRANCH   6  21
ENDBRANCH   3   6
ENDBRANCH   1   2
BRANCH   1  25
ATOM     25  C   UNL     1       2.010  -8.337   2.325  1.00  0.00     0.042 C 
BRANCH  25  26
ATOM     26  C   UNL     1       1.756  -9.780   2.733  1.00  0.00     0.118 C 
BRANCH  26  27
ATOM     27  N   UNL     1       0.914 -10.496   1.780  1.00  0.00    -0.352 N 
ATOM     28  C   UNL     1       1.084 -11.726   1.186  1.00  0.00     0.251 C 
ATOM     29  H   UNL     1       0.091 -10.023   1.520  1.00  0.00     0.163 HD
ATOM     30  O   UNL     1       0.311 -12.095   0.317  1.00  0.00    -0.269 OA
BRANCH  28  31
ATOM     31  C   UNL     1       2.223 -12.587   1.572  1.00  0.00     0.039 A 
ATOM     32  C   UNL     1       2.904 -13.285   0.570  1.00  0.00     0.014 A 
ATOM     33  C   UNL     1       2.624 -12.705   2.903  1.00  0.00     0.014 A 
ATOM     34  C   UNL     1       4.035 -14.036   0.896  1.00  0.00     0.010 A 
ATOM     35  C   UNL     1       3.806 -13.368   3.211  1.00  0.00     0.010 A 
ATOM     36  C   UNL     1       4.521 -14.044   2.212  1.00  0.00    -0.014 A 
BRANCH  36  37
ATOM     37  C   UNL     1       5.771 -14.758   2.574  1.00  0.00     0.031 A 
ATOM     38  C   UNL     1       5.732 -15.876   3.577  1.00  0.00     0.074 A 
ATOM     39  C   UNL     1       6.946 -14.344   2.063  1.00  0.00     0.049 A 
ATOM     40  N   UNL     1       6.722 -16.548   4.108  1.00  0.00    -0.248 NA
ATOM     41  C   UNL     1       4.406 -16.265   4.082  1.00  0.00     0.031 C 
ATOM     42  C   UNL     1       7.118 -13.231   1.127  1.00  0.00     0.029 A 
ATOM     43  N   UNL     1       8.223 -14.801   2.273  1.00  0.00    -0.354 N 
ATOM     44  C   UNL     1       6.139 -17.420   5.019  1.00  0.00     0.074 A 
ATOM     45  C   UNL     1       4.719 -17.148   5.017  1.00  0.00     0.031 C 
ATOM     46  C   UNL     1       8.421 -13.106   0.827  1.00  0.00     0.029 A 
ATOM     47  C   UNL     1       9.179 -14.100   1.579  1.00  0.00     0.049 A 
ATOM     48  H   UNL     1       8.434 -15.559   2.865  1.00  0.00     0.167 HD
ATOM     49  C   UNL     1       6.731 -18.381   5.766  1.00  0.00     0.037 A 
ATOM     50  C   UNL     1      10.518 -14.238   1.561  1.00  0.00     0.037 A 
ATOM     51  C   UNL     1       8.141 -18.667   5.740  1.00  0.00     0.049 A 
ATOM     52  C   UNL     1      11.152 -15.322   2.390  1.00  0.00     0.074 A 
ATOM     53  C   UNL     1       8.835 -19.656   6.415  1.00  0.00     0.029 A 
ATOM     54  N   UNL     1       9.074 -17.962   4.993  1.00  0.00    -0.354 N 
ATOM     55  N   UNL     1      10.585 -16.183   3.200  1.00  0.00    -0.248 NA
ATOM     56  C   UNL     1      12.612 -15.458   2.297  1.00  0.00     0.031 C 
ATOM     57  C   UNL     1      10.194 -19.523   6.108  1.00  0.00     0.029 A 
ATOM     58  C   UNL     1      10.340 -18.483   5.203  1.00  0.00     0.049 A 
ATOM     59  H   UNL     1       8.867 -17.202   4.402  1.00  0.00     0.167 HD
ATOM     60  C   UNL     1      11.610 -16.978   3.692  1.00  0.00     0.074 A 
ATOM     61  C   UNL     1      12.834 -16.507   3.077  1.00  0.00     0.031 C 
ATOM     62  C   UNL     1      11.545 -18.004   4.575  1.00  0.00     0.037 A 
BRANCH  49  63
ATOM     63  C   UNL     1       5.849 -19.198   6.666  1.00  0.00     0.064 A 
ATOM     64  C   UNL     1       4.912 -20.106   6.150  1.00  0.00     0.173 A 
ATOM     65  C   UNL     1       5.953 -19.088   8.061  1.00  0.00     0.173 A 
ATOM     66  F   UNL     1       4.762 -20.241   4.823  1.00  0.00    -0.203 F 
ATOM     67  C   UNL     1       4.087 -20.845   6.994  1.00  0.00     0.198 A 
ATOM     68  C   UNL     1       5.150 -19.853   8.903  1.00  0.00     0.198 A 
ATOM     69  F   UNL     1       6.836 -18.239   8.609  1.00  0.00    -0.203 F 
ATOM     70  F   UNL     1       3.159 -21.661   6.475  1.00  0.00    -0.200 F 
ATOM     71  C   UNL     1       4.211 -20.723   8.369  1.00  0.00     0.200 A 
ATOM     72  F   UNL     1       5.280 -19.744  10.232  1.00  0.00    -0.200 F 
ATOM     73  F   UNL     1       3.419 -21.437   9.180  1.00  0.00    -0.200 F 
ENDBRANCH  49  63
BRANCH  50  74
ATOM     74  C   UNL     1      11.343 -13.343   0.708  1.00  0.00     0.064 A 
ATOM     75  C   UNL     1      11.991 -13.834  -0.434  1.00  0.00     0.173 A 
ATOM     76  C   UNL     1      11.496 -11.983   1.012  1.00  0.00     0.173 A 
ATOM     77  F   UNL     1      11.889 -15.132  -0.755  1.00  0.00    -0.203 F 
ATOM     78  C   UNL     1      12.775 -13.002  -1.230  1.00  0.00     0.198 A 
ATOM     79  C   UNL     1      12.258 -11.145   0.199  1.00  0.00     0.198 A 
ATOM     80  F   UNL     1      10.892 -11.462   2.090  1.00  0.00    -0.203 F 
ATOM     81  F   UNL     1      13.418 -13.506  -2.292  1.00  0.00    -0.200 F 
ATOM     82  C   UNL     1      12.903 -11.657  -0.917  1.00  0.00     0.200 A 
ATOM     83  F   UNL     1      12.367  -9.843   0.497  1.00  0.00    -0.200 F 
ATOM     84  F   UNL     1      13.654 -10.856  -1.686  1.00  0.00    -0.200 F 
ENDBRANCH  50  74
BRANCH  62  85
ATOM     85  C   UNL     1      12.829 -18.709   4.904  1.00  0.00     0.064 A 
ATOM     86  C   UNL     1      13.818 -18.107   5.695  1.00  0.00     0.173 A 
ATOM     87  C   UNL     1      13.052 -20.020   4.455  1.00  0.00     0.173 A 
ATOM     88  F   UNL     1      13.658 -16.850   6.135  1.00  0.00    -0.203 F 
ATOM     89  C   UNL     1      14.994 -18.784   6.005  1.00  0.00     0.198 A 
ATOM     90  C   UNL     1      14.215 -20.704   4.793  1.00  0.00     0.198 A 
ATOM     91  F   UNL     1      12.133 -20.642   3.701  1.00  0.00    -0.203 F 
ATOM     92  F   UNL     1      15.947 -18.173   6.724  1.00  0.00    -0.200 F 
ATOM     93  C   UNL     1      15.189 -20.084   5.561  1.00  0.00     0.200 A 
ATOM     94  F   UNL     1      14.395 -21.965   4.375  1.00  0.00    -0.200 F 
ATOM     95  F   UNL     1      16.318 -20.736   5.868  1.00  0.00    -0.200 F 
ENDBRANCH  62  85
ENDBRANCH  36  37
ENDBRANCH  28  31
ENDBRANCH  26  27
ENDBRANCH  25  26
ENDBRANCH   1  25
TORSDOF 15
