REMARK SMILES CCN(C(=O)NCC(=O)NCCCNC(=O)c1ccc(-c2c3nc(c(-c4c(F)c(F)c(F)c(F)c4F)c4ccc([nH]4)c(-c4c(F)c(F)c(F)c(F)c4F)c4nc(c(-c5c(F)c(F)c(F)c(F)c5F)c5ccc2[nH]5)C=C4)C=C3)cc1)C1CCCCC1
REMARK SMILES IDX 11 1 10 2 8 3 9 4 7 6 6 7 4 8 5 9 3 11 2 12 1 13 80 14 81 15
REMARK SMILES IDX 85 16 82 17 84 18 83 19 12 20 13 21 14 22 15 23 16 25 17 26
REMARK SMILES IDX 18 27 79 28 19 29 78 30 20 31 21 32 22 33 72 34 23 35 77 36
REMARK SMILES IDX 71 37 73 38 24 39 76 40 70 41 69 42 25 44 57 45 37 46 56 47
REMARK SMILES IDX 38 48 41 49 55 50 74 51 39 52 40 53 54 55 75 56 42 57 26 58
REMARK SMILES IDX 27 59 35 60 28 61 29 62 33 63 36 64 30 65 31 66 34 67 32 68
REMARK SMILES IDX 58 69 59 70 67 71 60 72 61 73 65 74 68 75 62 76 63 77 66 78
REMARK SMILES IDX 64 79 43 80 44 81 52 82 45 83 46 84 50 85 53 86 47 87 48 88
REMARK SMILES IDX 51 89 49 90
REMARK H PARENT 10 5 6 10 14 24 73 43 41 54
REMARK Flexibility Score: inf
ROOT
ATOM      1  C   UNL     1      -1.013   1.254   4.142  1.00  0.00     0.117 C 
ENDROOT
BRANCH   1   2
ATOM      2  N   UNL     1      -2.397   1.064   3.779  1.00  0.00    -0.355 N 
ATOM      3  C   UNL     1      -3.033   1.195   2.586  1.00  0.00     0.239 C 
ATOM      4  O   UNL     1      -4.202   0.790   2.547  1.00  0.00    -0.273 OA
ATOM      5  H   UNL     1      -2.981   0.792   4.524  1.00  0.00     0.163 HD
BRANCH   3   6
ATOM      6  C   UNL     1      -2.347   1.651   1.285  1.00  0.00     0.217 C 
BRANCH   6   7
ATOM      7  N   UNL     1      -1.349   2.710   1.325  1.00  0.00    -0.329 N 
ATOM      8  C   UNL     1      -0.026   2.917   1.294  1.00  0.00     0.318 C 
ATOM      9  O   UNL     1       0.236   4.122   1.248  1.00  0.00    -0.249 OA
ATOM     10  H   UNL     1      -1.807   3.579   1.401  1.00  0.00     0.165 HD
BRANCH   8  11
ATOM     11  N   UNL     1       0.932   1.931   1.368  1.00  0.00    -0.322 N 
BRANCH  11  12
ATOM     12  C   UNL     1       0.658   0.505   1.123  1.00  0.00     0.118 C 
ATOM     13  C   UNL     1       1.000   0.068  -0.290  1.00  0.00     0.027 C 
ENDBRANCH  11  12
BRANCH  11  14
ATOM     14  C   UNL     1       2.406   2.306   1.476  1.00  0.00     0.087 C 
ATOM     15  C   UNL     1       2.715   3.702   2.082  1.00  0.00     0.025 C 
ATOM     16  C   UNL     1       3.210   1.242   2.275  1.00  0.00     0.025 C 
ATOM     17  C   UNL     1       4.202   3.993   2.275  1.00  0.00     0.002 C 
ATOM     18  C   UNL     1       4.688   1.567   2.462  1.00  0.00     0.002 C 
ATOM     19  C   UNL     1       4.888   2.926   3.104  1.00  0.00     0.000 C 
ENDBRANCH  11  14
ENDBRANCH   8  11
ENDBRANCH   6   7
ENDBRANCH   3   6
ENDBRANCH   1   2
BRANCH   1  20
ATOM     20  C   UNL     1      -0.764   2.542   4.908  1.00  0.00     0.042 C 
BRANCH  20  21
ATOM     21  C   UNL     1      -1.315   2.505   6.327  1.00  0.00     0.118 C 
BRANCH  21  22
ATOM     22  N   UNL     1      -0.679   1.482   7.151  1.00  0.00    -0.352 N 
ATOM     23  C   UNL     1      -0.081   1.579   8.381  1.00  0.00     0.251 C 
ATOM     24  H   UNL     1      -0.680   0.578   6.761  1.00  0.00     0.163 HD
ATOM     25  O   UNL     1       0.550   0.628   8.826  1.00  0.00    -0.269 OA
BRANCH  23  26
ATOM     26  C   UNL     1      -0.179   2.830   9.162  1.00  0.00     0.039 A 
ATOM     27  C   UNL     1       0.944   3.270   9.867  1.00  0.00     0.014 A 
ATOM     28  C   UNL     1      -1.369   3.558   9.217  1.00  0.00     0.014 A 
ATOM     29  C   UNL     1       0.889   4.471  10.575  1.00  0.00     0.010 A 
ATOM     30  C   UNL     1      -1.395   4.800   9.843  1.00  0.00     0.010 A 
ATOM     31  C   UNL     1      -0.269   5.265  10.537  1.00  0.00    -0.014 A 
BRANCH  31  32
ATOM     32  C   UNL     1      -0.314   6.582  11.218  1.00  0.00     0.031 A 
ATOM     33  C   UNL     1      -1.287   6.827  12.337  1.00  0.00     0.074 A 
ATOM     34  C   UNL     1       0.487   7.576  10.789  1.00  0.00     0.049 A 
ATOM     35  N   UNL     1      -1.490   7.917  13.034  1.00  0.00    -0.248 NA
ATOM     36  C   UNL     1      -2.173   5.711  12.703  1.00  0.00     0.031 C 
ATOM     37  C   UNL     1       1.427   7.480   9.671  1.00  0.00     0.029 A 
ATOM     38  N   UNL     1       0.636   8.864  11.238  1.00  0.00    -0.354 N 
ATOM     39  C   UNL     1      -2.529   7.621  13.906  1.00  0.00     0.074 A 
ATOM     40  C   UNL     1      -2.960   6.273  13.608  1.00  0.00     0.031 C 
ATOM     41  C   UNL     1       2.078   8.646   9.541  1.00  0.00     0.029 A 
ATOM     42  C   UNL     1       1.574   9.585  10.539  1.00  0.00     0.049 A 
ATOM     43  H   UNL     1       0.120   9.237  11.988  1.00  0.00     0.167 HD
ATOM     44  C   UNL     1      -3.059   8.394  14.884  1.00  0.00     0.037 A 
ATOM     45  C   UNL     1       1.980  10.860  10.685  1.00  0.00     0.037 A 
ATOM     46  C   UNL     1      -2.612   9.729  15.187  1.00  0.00     0.049 A 
ATOM     47  C   UNL     1       1.379  11.698  11.780  1.00  0.00     0.074 A 
ATOM     48  C   UNL     1      -3.033  10.570  16.201  1.00  0.00     0.029 A 
ATOM     49  N   UNL     1      -1.646  10.420  14.469  1.00  0.00    -0.354 N 
ATOM     50  N   UNL     1       0.459  11.378  12.658  1.00  0.00    -0.248 NA
ATOM     51  C   UNL     1       1.881  13.073  11.912  1.00  0.00     0.031 C 
ATOM     52  C   UNL     1      -2.368  11.792  16.060  1.00  0.00     0.029 A 
ATOM     53  C   UNL     1      -1.480  11.690  15.000  1.00  0.00     0.049 A 
ATOM     54  H   UNL     1      -1.151  10.062  13.697  1.00  0.00     0.167 HD
ATOM     55  C   UNL     1       0.293  12.497  13.463  1.00  0.00     0.074 A 
ATOM     56  C   UNL     1       1.219  13.499  12.979  1.00  0.00     0.031 C 
ATOM     57  C   UNL     1      -0.550  12.676  14.510  1.00  0.00     0.037 A 
BRANCH  44  58
ATOM     58  C   UNL     1      -4.184   7.815  15.696  1.00  0.00     0.064 A 
ATOM     59  C   UNL     1      -3.985   6.738  16.573  1.00  0.00     0.173 A 
ATOM     60  C   UNL     1      -5.473   8.363  15.616  1.00  0.00     0.173 A 
ATOM     61  F   UNL     1      -2.774   6.169  16.682  1.00  0.00    -0.203 F 
ATOM     62  C   UNL     1      -5.041   6.207  17.310  1.00  0.00     0.198 A 
ATOM     63  C   UNL     1      -6.519   7.853  16.382  1.00  0.00     0.198 A 
ATOM     64  F   UNL     1      -5.720   9.399  14.800  1.00  0.00    -0.203 F 
ATOM     65  F   UNL     1      -4.838   5.139  18.095  1.00  0.00    -0.200 F 
ATOM     66  C   UNL     1      -6.304   6.769  17.219  1.00  0.00     0.200 A 
ATOM     67  F   UNL     1      -7.736   8.408  16.305  1.00  0.00    -0.200 F 
ATOM     68  F   UNL     1      -7.318   6.261  17.934  1.00  0.00    -0.200 F 
ENDBRANCH  44  58
BRANCH  45  69
ATOM     69  C   UNL     1       3.032  11.408   9.789  1.00  0.00     0.064 A 
ATOM     70  C   UNL     1       4.310  11.713  10.278  1.00  0.00     0.173 A 
ATOM     71  C   UNL     1       2.787  11.629   8.426  1.00  0.00     0.173 A 
ATOM     72  F   UNL     1       4.589  11.537  11.579  1.00  0.00    -0.203 F 
ATOM     73  C   UNL     1       5.295  12.238   9.444  1.00  0.00     0.198 A 
ATOM     74  C   UNL     1       3.782  12.124   7.585  1.00  0.00     0.198 A 
ATOM     75  F   UNL     1       1.583  11.346   7.905  1.00  0.00    -0.203 F 
ATOM     76  F   UNL     1       6.493  12.564   9.948  1.00  0.00    -0.200 F 
ATOM     77  C   UNL     1       5.032  12.436   8.097  1.00  0.00     0.200 A 
ATOM     78  F   UNL     1       3.529  12.297   6.281  1.00  0.00    -0.200 F 
ATOM     79  F   UNL     1       5.982  12.933   7.293  1.00  0.00    -0.200 F 
ENDBRANCH  45  69
BRANCH  57  80
ATOM     80  C   UNL     1      -0.483  13.992  15.233  1.00  0.00     0.064 A 
ATOM     81  C   UNL     1      -0.938  15.182  14.648  1.00  0.00     0.173 A 
ATOM     82  C   UNL     1       0.006  14.052  16.547  1.00  0.00     0.173 A 
ATOM     83  F   UNL     1      -1.402  15.182  13.389  1.00  0.00    -0.203 F 
ATOM     84  C   UNL     1      -0.880  16.388  15.341  1.00  0.00     0.198 A 
ATOM     85  C   UNL     1       0.030  15.253  17.250  1.00  0.00     0.198 A 
ATOM     86  F   UNL     1       0.447  12.941  17.157  1.00  0.00    -0.203 F 
ATOM     87  F   UNL     1      -1.272  17.522  14.743  1.00  0.00    -0.200 F 
ATOM     88  C   UNL     1      -0.404  16.421  16.644  1.00  0.00     0.200 A 
ATOM     89  F   UNL     1       0.474  15.279  18.514  1.00  0.00    -0.200 F 
ATOM     90  F   UNL     1      -0.359  17.582  17.313  1.00  0.00    -0.200 F 
ENDBRANCH  57  80
ENDBRANCH  31  32
ENDBRANCH  23  26
ENDBRANCH  21  22
ENDBRANCH  20  21
ENDBRANCH   1  20
TORSDOF 14
