REMARK SMILES [NH3+][C@]1(C(=O)NCCCNC(=O)c2ccc(-c3c4nc(c(-c5c(F)c(F)c(F)c(F)c5F)c5ccc([nH]5)c(-c5c(F)c(F)c(F)c(F)c5F)c5nc(c(-c6c(F)c(F)c(F)c(F)c6F)c6ccc3[nH]6)C=C5)C=C4)cc2)CCC[C@@H]1CCn1cc(I)cn1
REMARK SMILES IDX 6 1 5 2 3 3 4 4 2 6 75 7 78 8 76 9 77 10 1 11 79 15 80 16
REMARK SMILES IDX 81 17 82 18 86 19 83 20 85 21 84 22 7 23 8 24 9 25 10 26
REMARK SMILES IDX 11 28 12 29 13 30 74 31 14 32 73 33 15 34 16 35 17 36 67 37
REMARK SMILES IDX 18 38 72 39 66 40 68 41 19 42 71 43 65 44 64 45 20 47 52 48
REMARK SMILES IDX 32 49 51 50 33 51 36 52 50 53 69 54 34 55 35 56 49 58 70 59
REMARK SMILES IDX 37 60 21 61 22 62 30 63 23 64 24 65 28 66 31 67 25 68 26 69
REMARK SMILES IDX 29 70 27 71 53 72 54 73 62 74 55 75 56 76 60 77 63 78 57 79
REMARK SMILES IDX 58 80 61 81 59 82 38 83 39 84 47 85 40 86 41 87 45 88 48 89
REMARK SMILES IDX 42 90 43 91 46 92 44 93
REMARK H PARENT 5 5 1 12 1 13 1 14 9 27 68 46 36 57
REMARK Flexibility Score: inf
ROOT
ATOM      1  C   UNL     1       3.417  -1.486   1.295  1.00  0.00     0.118 C 
ENDROOT
BRANCH   1   2
ATOM      2  N   UNL     1       2.676  -0.762   0.284  1.00  0.00    -0.351 N 
ATOM      3  C   UNL     1       1.893   0.343   0.386  1.00  0.00     0.281 C 
ATOM      4  O   UNL     1       1.860   1.052  -0.628  1.00  0.00    -0.268 OA
ATOM      5  H   UNL     1       2.751  -1.132  -0.625  1.00  0.00     0.163 HD
BRANCH   3   6
ATOM      6  C   UNL     1       0.980   0.654   1.614  1.00  0.00     0.176 C 
ATOM      7  C   UNL     1       1.660   0.517   2.985  1.00  0.00     0.079 C 
ATOM      8  C   UNL     1       0.567   2.178   1.581  1.00  0.00     0.062 C 
ATOM      9  C   UNL     1       0.915   1.470   3.896  1.00  0.00     0.008 C 
ATOM     10  C   UNL     1       0.759   2.696   3.027  1.00  0.00     0.011 C 
BRANCH   6  11
ATOM     11  N   UNL     1      -0.146  -0.301   1.615  1.00  0.00    -0.345 N 
ATOM     12  H   UNL     1      -0.753  -0.111   2.412  1.00  0.00     0.345 HD
ATOM     13  H   UNL     1       0.215  -1.252   1.681  1.00  0.00     0.345 HD
ATOM     14  H   UNL     1      -0.679  -0.199   0.750  1.00  0.00     0.345 HD
ENDBRANCH   6  11
BRANCH   8  15
ATOM     15  C   UNL     1      -0.825   2.581   1.042  1.00  0.00     0.034 C 
BRANCH  15  16
ATOM     16  C   UNL     1      -0.999   2.596  -0.485  1.00  0.00     0.145 C 
BRANCH  16  17
ATOM     17  N   UNL     1      -1.140   1.321  -1.153  1.00  0.00    -0.272 N 
ATOM     18  C   UNL     1      -0.529   0.946  -2.319  1.00  0.00     0.123 A 
ATOM     19  N   UNL     1      -1.969   0.371  -0.662  1.00  0.00    -0.180 NA
ATOM     20  C   UNL     1      -0.895  -0.356  -2.523  1.00  0.00     0.051 A 
ATOM     21  C   UNL     1      -1.807  -0.657  -1.506  1.00  0.00     0.149 A 
ATOM     22  I   UNL     1      -0.205  -1.566  -3.968  1.00  0.00    -0.041 I 
ENDBRANCH  16  17
ENDBRANCH  15  16
ENDBRANCH   8  15
ENDBRANCH   3   6
ENDBRANCH   1   2
BRANCH   1  23
ATOM     23  C   UNL     1       3.334  -2.993   1.152  1.00  0.00     0.042 C 
BRANCH  23  24
ATOM     24  C   UNL     1       3.765  -3.502  -0.214  1.00  0.00     0.118 C 
BRANCH  24  25
ATOM     25  N   UNL     1       5.143  -3.143  -0.540  1.00  0.00    -0.352 N 
ATOM     26  C   UNL     1       6.283  -3.906  -0.538  1.00  0.00     0.251 C 
ATOM     27  H   UNL     1       5.275  -2.204  -0.804  1.00  0.00     0.163 HD
ATOM     28  O   UNL     1       7.387  -3.368  -0.618  1.00  0.00    -0.269 OA
BRANCH  26  29
ATOM     29  C   UNL     1       6.189  -5.373  -0.416  1.00  0.00     0.039 A 
ATOM     30  C   UNL     1       7.086  -6.055   0.409  1.00  0.00     0.014 A 
ATOM     31  C   UNL     1       5.205  -6.075  -1.113  1.00  0.00     0.014 A 
ATOM     32  C   UNL     1       6.937  -7.431   0.599  1.00  0.00     0.010 A 
ATOM     33  C   UNL     1       4.984  -7.415  -0.830  1.00  0.00     0.010 A 
ATOM     34  C   UNL     1       5.855  -8.112   0.018  1.00  0.00    -0.014 A 
BRANCH  34  35
ATOM     35  C   UNL     1       5.618  -9.556   0.265  1.00  0.00     0.031 A 
ATOM     36  C   UNL     1       5.609 -10.521  -0.889  1.00  0.00     0.074 A 
ATOM     37  C   UNL     1       5.333  -9.984   1.510  1.00  0.00     0.049 A 
ATOM     38  N   UNL     1       5.330 -11.800  -0.899  1.00  0.00    -0.248 NA
ATOM     39  C   UNL     1       5.916  -9.967  -2.219  1.00  0.00     0.031 C 
ATOM     40  C   UNL     1       5.255  -9.134   2.701  1.00  0.00     0.029 A 
ATOM     41  N   UNL     1       5.043 -11.240   1.981  1.00  0.00    -0.354 N 
ATOM     42  C   UNL     1       5.411 -12.193  -2.228  1.00  0.00     0.074 A 
ATOM     43  C   UNL     1       5.693 -11.008  -3.006  1.00  0.00     0.031 C 
ATOM     44  C   UNL     1       4.970  -9.897   3.768  1.00  0.00     0.029 A 
ATOM     45  C   UNL     1       4.799 -11.279   3.333  1.00  0.00     0.049 A 
ATOM     46  H   UNL     1       5.014 -12.037   1.405  1.00  0.00     0.167 HD
ATOM     47  C   UNL     1       5.291 -13.436  -2.751  1.00  0.00     0.037 A 
ATOM     48  C   UNL     1       4.466 -12.314   4.128  1.00  0.00     0.037 A 
ATOM     49  C   UNL     1       5.037 -14.616  -1.967  1.00  0.00     0.049 A 
ATOM     50  C   UNL     1       4.331 -13.685   3.521  1.00  0.00     0.074 A 
ATOM     51  C   UNL     1       4.959 -15.931  -2.388  1.00  0.00     0.029 A 
ATOM     52  N   UNL     1       4.818 -14.619  -0.597  1.00  0.00    -0.354 N 
ATOM     53  N   UNL     1       4.484 -14.058   2.273  1.00  0.00    -0.248 NA
ATOM     54  C   UNL     1       3.985 -14.781   4.435  1.00  0.00     0.031 C 
ATOM     55  C   UNL     1       4.636 -16.723  -1.282  1.00  0.00     0.029 A 
ATOM     56  C   UNL     1       4.578 -15.912  -0.160  1.00  0.00     0.049 A 
ATOM     57  H   UNL     1       4.830 -13.821  -0.020  1.00  0.00     0.167 HD
ATOM     58  C   UNL     1       4.286 -15.432   2.258  1.00  0.00     0.074 A 
ATOM     59  C   UNL     1       4.018 -15.829   3.624  1.00  0.00     0.031 C 
ATOM     60  C   UNL     1       4.324 -16.289   1.207  1.00  0.00     0.037 A 
BRANCH  47  61
ATOM     61  C   UNL     1       5.438 -13.583  -4.239  1.00  0.00     0.064 A 
ATOM     62  C   UNL     1       6.665 -13.367  -4.885  1.00  0.00     0.173 A 
ATOM     63  C   UNL     1       4.345 -13.974  -5.028  1.00  0.00     0.173 A 
ATOM     64  F   UNL     1       7.740 -12.979  -4.181  1.00  0.00    -0.203 F 
ATOM     65  C   UNL     1       6.785 -13.503  -6.266  1.00  0.00     0.198 A 
ATOM     66  C   UNL     1       4.477 -14.145  -6.404  1.00  0.00     0.198 A 
ATOM     67  F   UNL     1       3.149 -14.199  -4.463  1.00  0.00    -0.203 F 
ATOM     68  F   UNL     1       7.953 -13.234  -6.865  1.00  0.00    -0.200 F 
ATOM     69  C   UNL     1       5.693 -13.900  -7.022  1.00  0.00     0.200 A 
ATOM     70  F   UNL     1       3.424 -14.543  -7.131  1.00  0.00    -0.200 F 
ATOM     71  F   UNL     1       5.811 -14.039  -8.350  1.00  0.00    -0.200 F 
ENDBRANCH  47  61
BRANCH  48  72
ATOM     72  C   UNL     1       4.262 -12.099   5.585  1.00  0.00     0.064 A 
ATOM     73  C   UNL     1       5.153 -12.639   6.524  1.00  0.00     0.173 A 
ATOM     74  C   UNL     1       3.174 -11.360   6.072  1.00  0.00     0.173 A 
ATOM     75  F   UNL     1       6.200 -13.369   6.110  1.00  0.00    -0.203 F 
ATOM     76  C   UNL     1       4.950 -12.470   7.892  1.00  0.00     0.198 A 
ATOM     77  C   UNL     1       2.989 -11.164   7.439  1.00  0.00     0.198 A 
ATOM     78  F   UNL     1       2.295 -10.816   5.218  1.00  0.00    -0.203 F 
ATOM     79  F   UNL     1       5.788 -13.042   8.767  1.00  0.00    -0.200 F 
ATOM     80  C   UNL     1       3.871 -11.728   8.348  1.00  0.00     0.200 A 
ATOM     81  F   UNL     1       1.956 -10.432   7.875  1.00  0.00    -0.200 F 
ATOM     82  F   UNL     1       3.678 -11.563   9.664  1.00  0.00    -0.200 F 
ENDBRANCH  48  72
BRANCH  60  83
ATOM     83  C   UNL     1       4.116 -17.747   1.499  1.00  0.00     0.064 A 
ATOM     84  C   UNL     1       2.866 -18.255   1.878  1.00  0.00     0.173 A 
ATOM     85  C   UNL     1       5.177 -18.655   1.352  1.00  0.00     0.173 A 
ATOM     86  F   UNL     1       1.823 -17.428   2.046  1.00  0.00    -0.203 F 
ATOM     87  C   UNL     1       2.692 -19.614   2.128  1.00  0.00     0.198 A 
ATOM     88  C   UNL     1       4.991 -20.017   1.567  1.00  0.00     0.198 A 
ATOM     89  F   UNL     1       6.392 -18.222   0.982  1.00  0.00    -0.203 F 
ATOM     90  F   UNL     1       1.501 -20.070   2.541  1.00  0.00    -0.200 F 
ATOM     91  C   UNL     1       3.751 -20.494   1.963  1.00  0.00     0.200 A 
ATOM     92  F   UNL     1       6.011 -20.867   1.390  1.00  0.00    -0.200 F 
ATOM     93  F   UNL     1       3.578 -21.803   2.194  1.00  0.00    -0.200 F 
ENDBRANCH  60  83
ENDBRANCH  34  35
ENDBRANCH  26  29
ENDBRANCH  24  25
ENDBRANCH  23  24
ENDBRANCH   1  23
TORSDOF 14
