REMARK SMILES COc1ccc(/C=C2\SC(=S)[NH+]=C2NCCCNC(=O)c2ccc(-c3c4nc(c(-c5c(F)c(F)c(F)c(F)c5F)c5ccc([nH]5)c(-c5c(F)c(F)c(F)c(F)c5F)c5nc(c(-c6c(F)c(F)c(F)c(F)c6F)c6ccc3[nH]6)C=C5)C=C4)cc2)c(C(=O)[O-])c1OC
REMARK SMILES IDX 16 1 15 2 14 3 7 4 8 5 9 6 13 7 10 8 12 9 11 10 6 13 3 14
REMARK SMILES IDX 4 15 88 16 5 17 84 18 2 19 1 20 89 21 90 22 85 23 86 24
REMARK SMILES IDX 87 25 17 26 18 27 19 28 20 30 21 31 22 32 83 33 23 34 82 35
REMARK SMILES IDX 24 36 25 37 26 38 76 39 27 40 81 41 75 42 77 43 28 44 80 45
REMARK SMILES IDX 74 46 73 47 29 49 61 50 41 51 60 52 42 53 45 54 59 55 78 56
REMARK SMILES IDX 43 57 44 58 58 60 79 61 46 62 30 63 31 64 39 65 32 66 33 67
REMARK SMILES IDX 37 68 40 69 34 70 35 71 38 72 36 73 62 74 63 75 71 76 64 77
REMARK SMILES IDX 65 78 69 79 72 80 66 81 67 82 70 83 68 84 47 85 48 86 56 87
REMARK SMILES IDX 49 88 50 89 54 90 57 91 51 92 52 93 55 94 53 95
REMARK H PARENT 12 11 14 12 18 29 77 48 45 59
REMARK Flexibility Score: inf
ROOT
ATOM      1  C   UNL     1       2.534   4.966 -10.220  1.00  0.00     0.067 C 
ENDROOT
BRANCH   1   2
ATOM      2  C   UNL     1       2.590   3.442 -10.222  1.00  0.00     0.235 C 
BRANCH   2   3
ATOM      3  N   UNL     1       2.290   2.899  -8.903  1.00  0.00    -0.273 N 
ATOM      4  C   UNL     1       1.612   1.533  -6.203  1.00  0.00     0.033 C 
ATOM      5  C   UNL     1       0.793   1.579  -7.274  1.00  0.00     0.106 C 
ATOM      6  S   UNL     1      -0.792   0.910  -7.447  1.00  0.00    -0.027 SA
ATOM      7  C   UNL     1       1.128   2.216  -8.616  1.00  0.00     0.288 C 
ATOM      8  C   UNL     1      -0.857   1.343  -9.148  1.00  0.00     0.230 C 
ATOM      9  N   UNL     1       0.224   2.081  -9.555  1.00  0.00    -0.225 N 
ATOM     10  S   UNL     1      -2.110   0.845 -10.136  1.00  0.00    -0.026 S 
ATOM     11  H   UNL     1       0.311   2.468 -10.456  1.00  0.00     0.314 HD
ATOM     12  H   UNL     1       2.949   3.025  -8.183  1.00  0.00     0.305 HD
BRANCH   4  13
ATOM     13  C   UNL     1       1.464   0.910  -4.838  1.00  0.00    -0.011 A 
ATOM     14  C   UNL     1       1.073  -0.250  -2.253  1.00  0.00     0.161 A 
ATOM     15  C   UNL     1      -0.007   0.014  -3.084  1.00  0.00     0.051 A 
ATOM     16  C   UNL     1       2.374   0.035  -2.687  1.00  0.00     0.170 A 
ATOM     17  C   UNL     1       0.188   0.600  -4.336  1.00  0.00     0.013 A 
ATOM     18  C   UNL     1       2.566   0.639  -3.967  1.00  0.00     0.050 A 
BRANCH  14  19
ATOM     19  O   UNL     1       0.831  -0.882  -1.063  1.00  0.00    -0.493 OA
ATOM     20  C   UNL     1       0.123  -0.041  -0.147  1.00  0.00     0.278 C 
ENDBRANCH  14  19
BRANCH  16  21
ATOM     21  O   UNL     1       3.505  -0.333  -1.992  1.00  0.00    -0.492 OA
ATOM     22  C   UNL     1       3.445  -0.320  -0.569  1.00  0.00     0.278 C 
ENDBRANCH  16  21
BRANCH  18  23
ATOM     23  C   UNL     1       3.959   0.960  -4.388  1.00  0.00     0.076 C 
ATOM     24  O   UNL     1       4.430   0.826  -5.506  1.00  0.00    -0.545 OA
ATOM     25  O   UNL     1       4.686   1.521  -3.403  1.00  0.00    -0.545 OA
ENDBRANCH  18  23
ENDBRANCH   4  13
ENDBRANCH   2   3
ENDBRANCH   1   2
BRANCH   1  26
ATOM     26  C   UNL     1       3.653   5.628  -9.424  1.00  0.00     0.120 C 
BRANCH  26  27
ATOM     27  N   UNL     1       4.978   5.362  -9.970  1.00  0.00    -0.352 N 
ATOM     28  C   UNL     1       5.977   6.223 -10.352  1.00  0.00     0.251 C 
ATOM     29  H   UNL     1       5.191   4.408 -10.084  1.00  0.00     0.163 HD
ATOM     30  O   UNL     1       6.964   5.781 -10.932  1.00  0.00    -0.269 OA
BRANCH  28  31
ATOM     31  C   UNL     1       5.872   7.676 -10.094  1.00  0.00     0.039 A 
ATOM     32  C   UNL     1       6.316   8.563 -11.079  1.00  0.00     0.014 A 
ATOM     33  C   UNL     1       5.375   8.172  -8.887  1.00  0.00     0.014 A 
ATOM     34  C   UNL     1       6.197   9.941 -10.882  1.00  0.00     0.010 A 
ATOM     35  C   UNL     1       5.181   9.542  -8.724  1.00  0.00     0.010 A 
ATOM     36  C   UNL     1       5.589  10.442  -9.720  1.00  0.00    -0.014 A 
BRANCH  36  37
ATOM     37  C   UNL     1       5.360  11.900  -9.538  1.00  0.00     0.031 A 
ATOM     38  C   UNL     1       6.021  12.641  -8.408  1.00  0.00     0.074 A 
ATOM     39  C   UNL     1       4.505  12.545 -10.355  1.00  0.00     0.049 A 
ATOM     40  N   UNL     1       5.890  13.894  -8.050  1.00  0.00    -0.248 NA
ATOM     41  C   UNL     1       6.930  11.865  -7.551  1.00  0.00     0.031 C 
ATOM     42  C   UNL     1       3.770  11.932 -11.462  1.00  0.00     0.029 A 
ATOM     43  N   UNL     1       4.101  13.857 -10.375  1.00  0.00    -0.354 N 
ATOM     44  C   UNL     1       6.689  14.053  -6.926  1.00  0.00     0.074 A 
ATOM     45  C   UNL     1       7.254  12.755  -6.625  1.00  0.00     0.031 C 
ATOM     46  C   UNL     1       3.026  12.869 -12.069  1.00  0.00     0.029 A 
ATOM     47  C   UNL     1       3.192  14.138 -11.366  1.00  0.00     0.049 A 
ATOM     48  H   UNL     1       4.430  14.533  -9.739  1.00  0.00     0.167 HD
ATOM     49  C   UNL     1       6.946  15.182  -6.222  1.00  0.00     0.037 A 
ATOM     50  C   UNL     1       2.555  15.285 -11.669  1.00  0.00     0.037 A 
ATOM     51  C   UNL     1       6.389  16.474  -6.531  1.00  0.00     0.049 A 
ATOM     52  C   UNL     1       2.832  16.518 -10.851  1.00  0.00     0.074 A 
ATOM     53  C   UNL     1       6.628  17.687  -5.910  1.00  0.00     0.029 A 
ATOM     54  N   UNL     1       5.473  16.719  -7.544  1.00  0.00    -0.354 N 
ATOM     55  N   UNL     1       3.642  16.671  -9.831  1.00  0.00    -0.248 NA
ATOM     56  C   UNL     1       2.110  17.740 -11.230  1.00  0.00     0.031 C 
ATOM     57  C   UNL     1       5.810  18.653  -6.505  1.00  0.00     0.029 A 
ATOM     58  C   UNL     1       5.113  18.058  -7.543  1.00  0.00     0.049 A 
ATOM     59  H   UNL     1       5.128  16.042  -8.170  1.00  0.00     0.167 HD
ATOM     60  C   UNL     1       3.553  18.009  -9.470  1.00  0.00     0.074 A 
ATOM     61  C   UNL     1       2.620  18.627 -10.389  1.00  0.00     0.031 C 
ATOM     62  C   UNL     1       4.188  18.666  -8.468  1.00  0.00     0.037 A 
BRANCH  49  63
ATOM     63  C   UNL     1       7.868  15.069  -5.039  1.00  0.00     0.064 A 
ATOM     64  C   UNL     1       9.234  14.785  -5.191  1.00  0.00     0.173 A 
ATOM     65  C   UNL     1       7.386  15.279  -3.738  1.00  0.00     0.173 A 
ATOM     66  F   UNL     1       9.747  14.566  -6.412  1.00  0.00    -0.203 F 
ATOM     67  C   UNL     1      10.073  14.678  -4.085  1.00  0.00     0.198 A 
ATOM     68  C   UNL     1       8.235  15.208  -2.636  1.00  0.00     0.198 A 
ATOM     69  F   UNL     1       6.091  15.562  -3.533  1.00  0.00    -0.203 F 
ATOM     70  F   UNL     1      11.361  14.346  -4.252  1.00  0.00    -0.200 F 
ATOM     71  C   UNL     1       9.575  14.896  -2.809  1.00  0.00     0.200 A 
ATOM     72  F   UNL     1       7.755  15.436  -1.406  1.00  0.00    -0.200 F 
ATOM     73  F   UNL     1      10.385  14.799  -1.746  1.00  0.00    -0.200 F 
ENDBRANCH  49  63
BRANCH  50  74
ATOM     74  C   UNL     1       1.604  15.327 -12.811  1.00  0.00     0.064 A 
ATOM     75  C   UNL     1       1.897  16.067 -13.966  1.00  0.00     0.173 A 
ATOM     76  C   UNL     1       0.383  14.637 -12.773  1.00  0.00     0.173 A 
ATOM     77  F   UNL     1       3.042  16.761 -14.042  1.00  0.00    -0.203 F 
ATOM     78  C   UNL     1       0.997  16.134 -15.027  1.00  0.00     0.198 A 
ATOM     79  C   UNL     1      -0.501  14.678 -13.849  1.00  0.00     0.198 A 
ATOM     80  F   UNL     1       0.055  13.911 -11.694  1.00  0.00    -0.203 F 
ATOM     81  F   UNL     1       1.281  16.890 -16.096  1.00  0.00    -0.200 F 
ATOM     82  C   UNL     1      -0.198  15.434 -14.971  1.00  0.00     0.200 A 
ATOM     83  F   UNL     1      -1.648  13.986 -13.797  1.00  0.00    -0.200 F 
ATOM     84  F   UNL     1      -1.061  15.494 -15.994  1.00  0.00    -0.200 F 
ENDBRANCH  50  74
BRANCH  62  85
ATOM     85  C   UNL     1       3.933  20.141  -8.336  1.00  0.00     0.064 A 
ATOM     86  C   UNL     1       2.696  20.645  -7.907  1.00  0.00     0.173 A 
ATOM     87  C   UNL     1       4.956  21.063  -8.609  1.00  0.00     0.173 A 
ATOM     88  F   UNL     1       1.679  19.809  -7.646  1.00  0.00    -0.203 F 
ATOM     89  C   UNL     1       2.484  22.016  -7.784  1.00  0.00     0.198 A 
ATOM     90  C   UNL     1       4.752  22.431  -8.451  1.00  0.00     0.198 A 
ATOM     91  F   UNL     1       6.161  20.636  -9.016  1.00  0.00    -0.203 F 
ATOM     92  F   UNL     1       1.278  22.476  -7.425  1.00  0.00    -0.200 F 
ATOM     93  C   UNL     1       3.514  22.907  -8.048  1.00  0.00     0.200 A 
ATOM     94  F   UNL     1       5.754  23.288  -8.688  1.00  0.00    -0.200 F 
ATOM     95  F   UNL     1       3.311  24.225  -7.920  1.00  0.00    -0.200 F 
ENDBRANCH  62  85
ENDBRANCH  36  37
ENDBRANCH  28  31
ENDBRANCH  26  27
ENDBRANCH   1  26
TORSDOF 13
