REMARK SMILES CCn1ccnc1[C@H](F)C(=O)NCCCNC(=O)c1ccc(-c2c3nc(c(-c4c(F)c(F)c(F)c(F)c4F)c4ccc([nH]4)c(-c4c(F)c(F)c(F)c(F)c4F)c4nc(c(-c5c(F)c(F)c(F)c(F)c5F)c5ccc2[nH]5)C=C4)C=C3)cc1
REMARK SMILES IDX 14 1 13 2 12 3 10 4 11 5 8 7 9 8 7 9 3 10 4 11 5 12 6 13
REMARK SMILES IDX 2 14 1 15 15 16 16 17 17 18 18 20 19 21 20 22 81 23 21 24
REMARK SMILES IDX 80 25 22 26 23 27 24 28 74 29 25 30 79 31 73 32 75 33 26 34
REMARK SMILES IDX 78 35 72 36 71 37 27 39 59 40 39 41 58 42 40 43 43 44 57 45
REMARK SMILES IDX 76 46 41 47 42 48 56 50 77 51 44 52 28 53 29 54 37 55 30 56
REMARK SMILES IDX 31 57 35 58 38 59 32 60 33 61 36 62 34 63 60 64 61 65 69 66
REMARK SMILES IDX 62 67 63 68 67 69 70 70 64 71 65 72 68 73 66 74 45 75 46 76
REMARK SMILES IDX 54 77 47 78 48 79 52 80 55 81 49 82 50 83 53 84 51 85
REMARK H PARENT 12 6 16 19 75 38 43 49
REMARK Flexibility Score: inf
ROOT
ATOM      1  C   UNL     1       3.456   0.901  -5.692  1.00  0.00     0.042 C 
ENDROOT
BRANCH   1   2
ATOM      2  C   UNL     1       2.728  -0.338  -5.193  1.00  0.00     0.117 C 
BRANCH   2   3
ATOM      3  N   UNL     1       3.311  -0.956  -4.008  1.00  0.00    -0.353 N 
ATOM      4  C   UNL     1       2.644  -1.287  -2.852  1.00  0.00     0.262 C 
ATOM      5  O   UNL     1       3.221  -2.004  -2.027  1.00  0.00    -0.271 OA
ATOM      6  H   UNL     1       4.274  -1.155  -4.039  1.00  0.00     0.163 HD
BRANCH   4   7
ATOM      7  C   UNL     1       1.216  -0.786  -2.609  1.00  0.00     0.321 C 
ATOM      8  F   UNL     1       1.086   0.543  -2.924  1.00  0.00    -0.228 F 
BRANCH   7   9
ATOM      9  C   UNL     1       0.257  -1.632  -3.404  1.00  0.00     0.153 A 
ATOM     10  N   UNL     1      -0.505  -2.687  -2.947  1.00  0.00    -0.332 N 
ATOM     11  C   UNL     1      -1.095  -3.268  -4.051  1.00  0.00     0.107 A 
ATOM     12  C   UNL     1      -0.742  -2.494  -5.121  1.00  0.00     0.131 A 
ATOM     13  N   UNL     1       0.054  -1.476  -4.706  1.00  0.00    -0.238 NA
BRANCH  10  14
ATOM     14  C   UNL     1      -0.716  -3.232  -1.619  1.00  0.00     0.120 C 
ATOM     15  C   UNL     1      -0.605  -2.307  -0.422  1.00  0.00     0.027 C 
ENDBRANCH  10  14
ENDBRANCH   7   9
ENDBRANCH   4   7
ENDBRANCH   2   3
ENDBRANCH   1   2
BRANCH   1  16
ATOM     16  C   UNL     1       4.801   0.582  -6.298  1.00  0.00     0.118 C 
BRANCH  16  17
ATOM     17  N   UNL     1       4.729  -0.181  -7.549  1.00  0.00    -0.352 N 
ATOM     18  C   UNL     1       5.783  -0.514  -8.392  1.00  0.00     0.251 C 
ATOM     19  H   UNL     1       3.835  -0.491  -7.821  1.00  0.00     0.163 HD
ATOM     20  O   UNL     1       5.612  -0.888  -9.532  1.00  0.00    -0.269 OA
BRANCH  18  21
ATOM     21  C   UNL     1       7.140  -0.400  -7.826  1.00  0.00     0.039 A 
ATOM     22  C   UNL     1       8.171   0.267  -8.489  1.00  0.00     0.014 A 
ATOM     23  C   UNL     1       7.297  -0.863  -6.527  1.00  0.00     0.014 A 
ATOM     24  C   UNL     1       9.336   0.549  -7.780  1.00  0.00     0.010 A 
ATOM     25  C   UNL     1       8.320  -0.368  -5.775  1.00  0.00     0.010 A 
ATOM     26  C   UNL     1       9.387   0.254  -6.408  1.00  0.00    -0.014 A 
BRANCH  26  27
ATOM     27  C   UNL     1      10.493   0.687  -5.563  1.00  0.00     0.031 A 
ATOM     28  C   UNL     1      10.773   2.144  -5.641  1.00  0.00     0.074 A 
ATOM     29  C   UNL     1      11.030  -0.127  -4.623  1.00  0.00     0.049 A 
ATOM     30  N   UNL     1      11.810   2.718  -6.154  1.00  0.00    -0.248 NA
ATOM     31  C   UNL     1       9.707   3.087  -5.261  1.00  0.00     0.031 C 
ATOM     32  C   UNL     1      10.602  -1.487  -4.258  1.00  0.00     0.029 A 
ATOM     33  N   UNL     1      12.010   0.123  -3.710  1.00  0.00    -0.354 N 
ATOM     34  C   UNL     1      11.635   4.085  -5.938  1.00  0.00     0.074 A 
ATOM     35  C   UNL     1      10.250   4.259  -5.602  1.00  0.00     0.031 C 
ATOM     36  C   UNL     1      11.133  -1.835  -3.067  1.00  0.00     0.029 A 
ATOM     37  C   UNL     1      12.091  -0.818  -2.686  1.00  0.00     0.049 A 
ATOM     38  H   UNL     1      12.609   0.902  -3.769  1.00  0.00     0.167 HD
ATOM     39  C   UNL     1      12.723   4.880  -5.729  1.00  0.00     0.037 A 
ATOM     40  C   UNL     1      12.897  -0.768  -1.599  1.00  0.00     0.037 A 
ATOM     41  C   UNL     1      13.924   4.179  -6.122  1.00  0.00     0.049 A 
ATOM     42  C   UNL     1      14.004   0.152  -1.934  1.00  0.00     0.074 A 
ATOM     43  C   UNL     1      14.505   3.763  -7.300  1.00  0.00     0.029 A 
ATOM     44  N   UNL     1      14.481   3.441  -5.111  1.00  0.00    -0.354 N 
ATOM     45  N   UNL     1      14.895  -0.103  -2.853  1.00  0.00    -0.248 NA
ATOM     46  C   UNL     1      13.908   1.547  -1.526  1.00  0.00     0.031 C 
ATOM     47  C   UNL     1      15.257   2.592  -6.972  1.00  0.00     0.029 A 
ATOM     48  C   UNL     1      15.158   2.361  -5.600  1.00  0.00     0.049 A 
ATOM     49  H   UNL     1      14.403   3.662  -4.155  1.00  0.00     0.167 HD
ATOM     50  C   UNL     1      15.149   1.125  -3.435  1.00  0.00     0.074 A 
ATOM     51  C   UNL     1      14.661   2.110  -2.475  1.00  0.00     0.031 C 
ATOM     52  C   UNL     1      15.430   1.209  -4.769  1.00  0.00     0.037 A 
BRANCH  39  53
ATOM     53  C   UNL     1      12.803   5.992  -4.685  1.00  0.00     0.064 A 
ATOM     54  C   UNL     1      14.040   6.659  -4.518  1.00  0.00     0.173 A 
ATOM     55  C   UNL     1      11.880   6.183  -3.634  1.00  0.00     0.173 A 
ATOM     56  F   UNL     1      14.997   6.571  -5.454  1.00  0.00    -0.203 F 
ATOM     57  C   UNL     1      14.366   7.343  -3.342  1.00  0.00     0.198 A 
ATOM     58  C   UNL     1      12.195   6.902  -2.480  1.00  0.00     0.198 A 
ATOM     59  F   UNL     1      10.674   5.609  -3.616  1.00  0.00    -0.203 F 
ATOM     60  F   UNL     1      15.602   7.834  -3.177  1.00  0.00    -0.200 F 
ATOM     61  C   UNL     1      13.448   7.448  -2.316  1.00  0.00     0.200 A 
ATOM     62  F   UNL     1      11.293   6.981  -1.490  1.00  0.00    -0.200 F 
ATOM     63  F   UNL     1      13.781   8.032  -1.158  1.00  0.00    -0.200 F 
ENDBRANCH  39  53
BRANCH  40  64
ATOM     64  C   UNL     1      12.646  -1.256  -0.223  1.00  0.00     0.064 A 
ATOM     65  C   UNL     1      13.698  -1.430   0.691  1.00  0.00     0.173 A 
ATOM     66  C   UNL     1      11.343  -1.274   0.310  1.00  0.00     0.173 A 
ATOM     67  F   UNL     1      14.971  -1.388   0.270  1.00  0.00    -0.203 F 
ATOM     68  C   UNL     1      13.462  -1.575   2.063  1.00  0.00     0.198 A 
ATOM     69  C   UNL     1      11.109  -1.420   1.679  1.00  0.00     0.198 A 
ATOM     70  F   UNL     1      10.279  -1.050  -0.474  1.00  0.00    -0.203 F 
ATOM     71  F   UNL     1      14.494  -1.669   2.913  1.00  0.00    -0.200 F 
ATOM     72  C   UNL     1      12.168  -1.554   2.557  1.00  0.00     0.200 A 
ATOM     73  F   UNL     1       9.854  -1.360   2.149  1.00  0.00    -0.200 F 
ATOM     74  F   UNL     1      11.945  -1.619   3.877  1.00  0.00    -0.200 F 
ENDBRANCH  40  64
BRANCH  52  75
ATOM     75  C   UNL     1      15.899  -0.041  -5.452  1.00  0.00     0.064 A 
ATOM     76  C   UNL     1      15.102  -1.175  -5.677  1.00  0.00     0.173 A 
ATOM     77  C   UNL     1      17.194  -0.045  -5.985  1.00  0.00     0.173 A 
ATOM     78  F   UNL     1      13.829  -1.216  -5.268  1.00  0.00    -0.203 F 
ATOM     79  C   UNL     1      15.596  -2.277  -6.373  1.00  0.00     0.198 A 
ATOM     80  C   UNL     1      17.673  -1.131  -6.710  1.00  0.00     0.198 A 
ATOM     81  F   UNL     1      17.983   1.030  -5.837  1.00  0.00    -0.203 F 
ATOM     82  F   UNL     1      14.821  -3.356  -6.562  1.00  0.00    -0.200 F 
ATOM     83  C   UNL     1      16.878  -2.251  -6.895  1.00  0.00     0.200 A 
ATOM     84  F   UNL     1      18.898  -1.081  -7.249  1.00  0.00    -0.200 F 
ATOM     85  F   UNL     1      17.342  -3.295  -7.595  1.00  0.00    -0.200 F 
ENDBRANCH  52  75
ENDBRANCH  26  27
ENDBRANCH  18  21
ENDBRANCH  16  17
ENDBRANCH   1  16
TORSDOF 12
