REMARK SMILES O=C(CCc1ccc(S(=O)(=O)Nc2cccc(I)c2)cc1)NCCCNC(=O)c1ccc(-c2c3nc(c(-c4c(F)c(F)c(F)c(F)c4F)c4ccc([nH]4)c(-c4c(F)c(F)c(F)c(F)c4F)c4nc(c(-c5c(F)c(F)c(F)c(F)c5F)c5ccc2[nH]5)C=C4)C=C3)cc1
REMARK SMILES IDX 1 1 2 2 22 3 3 5 4 6 5 7 6 8 21 9 7 10 20 11 8 12 9 13 10 14
REMARK SMILES IDX 11 15 12 16 13 18 14 19 19 20 15 21 17 22 16 23 18 24 23 25
REMARK SMILES IDX 24 26 25 27 26 28 27 29 28 31 29 32 30 33 91 34 31 35 90 36
REMARK SMILES IDX 32 37 33 38 34 39 84 40 35 41 89 42 83 43 85 44 36 45 88 46
REMARK SMILES IDX 82 47 81 48 37 50 69 51 49 52 68 53 50 54 53 55 67 56 86 57
REMARK SMILES IDX 51 58 52 59 66 61 87 62 54 63 38 64 39 65 47 66 40 67 41 68
REMARK SMILES IDX 45 69 48 70 42 71 43 72 46 73 44 74 70 75 71 76 79 77 72 78
REMARK SMILES IDX 73 79 77 80 80 81 74 82 75 83 78 84 76 85 55 86 56 87 64 88
REMARK SMILES IDX 57 89 58 90 62 91 65 92 59 93 60 94 63 95 61 96
REMARK H PARENT 22 4 12 17 26 30 85 49 53 60
REMARK Flexibility Score: inf
ROOT
ATOM      1  O   UNL     1       0.513  -0.361   0.026  1.00  0.00    -0.275 OA
ATOM      2  C   UNL     1       1.735  -0.323  -0.087  1.00  0.00     0.220 C 
ATOM      3  N   UNL     1       2.382  -0.477  -1.290  1.00  0.00    -0.356 N 
ATOM      4  H   UNL     1       3.362  -0.392  -1.299  1.00  0.00     0.163 HD
ENDROOT
BRANCH   2   5
ATOM      5  C   UNL     1       2.631  -0.007   1.102  1.00  0.00     0.105 C 
BRANCH   5   6
ATOM      6  C   UNL     1       3.686  -1.074   1.428  1.00  0.00     0.045 C 
BRANCH   6   7
ATOM      7  C   UNL     1       4.841  -1.197   0.458  1.00  0.00    -0.047 A 
ATOM      8  C   UNL     1       5.361  -2.460   0.137  1.00  0.00     0.005 A 
ATOM      9  C   UNL     1       5.407  -0.070  -0.146  1.00  0.00     0.005 A 
ATOM     10  C   UNL     1       6.415  -2.589  -0.775  1.00  0.00     0.022 A 
ATOM     11  C   UNL     1       6.396  -0.204  -1.119  1.00  0.00     0.022 A 
ATOM     12  C   UNL     1       6.944  -1.454  -1.397  1.00  0.00     0.087 A 
BRANCH  12  13
ATOM     13  S   UNL     1       8.372  -1.679  -2.447  1.00  0.00     0.261 S 
ATOM     14  O   UNL     1       9.500  -1.921  -1.575  1.00  0.00    -0.201 OA
ATOM     15  O   UNL     1       7.985  -2.636  -3.456  1.00  0.00    -0.201 OA
BRANCH  13  16
ATOM     16  N   UNL     1       8.627  -0.248  -3.282  1.00  0.00    -0.280 N 
ATOM     17  H   UNL     1       8.578  -0.292  -4.264  1.00  0.00     0.180 HD
BRANCH  16  18
ATOM     18  C   UNL     1       8.909   1.025  -2.710  1.00  0.00     0.050 A 
ATOM     19  C   UNL     1       8.676   2.141  -3.521  1.00  0.00     0.027 A 
ATOM     20  C   UNL     1       9.247   1.215  -1.369  1.00  0.00     0.041 A 
ATOM     21  C   UNL     1       8.650   3.424  -2.971  1.00  0.00     0.003 A 
ATOM     22  C   UNL     1       9.191   2.497  -0.816  1.00  0.00     0.015 A 
ATOM     23  C   UNL     1       8.877   3.600  -1.608  1.00  0.00     0.015 A 
ATOM     24  I   UNL     1       9.461   2.742   1.232  1.00  0.00    -0.044 I 
ENDBRANCH  16  18
ENDBRANCH  13  16
ENDBRANCH  12  13
ENDBRANCH   6   7
ENDBRANCH   5   6
ENDBRANCH   2   5
BRANCH   3  25
ATOM     25  C   UNL     1       1.715  -0.755  -2.544  1.00  0.00     0.117 C 
BRANCH  25  26
ATOM     26  C   UNL     1       2.039   0.286  -3.613  1.00  0.00     0.042 C 
BRANCH  26  27
ATOM     27  C   UNL     1       3.521   0.441  -3.958  1.00  0.00     0.118 C 
BRANCH  27  28
ATOM     28  N   UNL     1       4.116  -0.746  -4.554  1.00  0.00    -0.352 N 
ATOM     29  C   UNL     1       4.847  -0.883  -5.711  1.00  0.00     0.251 C 
ATOM     30  H   UNL     1       3.974  -1.580  -4.051  1.00  0.00     0.163 HD
ATOM     31  O   UNL     1       5.134  -2.002  -6.124  1.00  0.00    -0.269 OA
BRANCH  29  32
ATOM     32  C   UNL     1       5.281   0.304  -6.484  1.00  0.00     0.039 A 
ATOM     33  C   UNL     1       5.189   0.268  -7.881  1.00  0.00     0.014 A 
ATOM     34  C   UNL     1       5.798   1.437  -5.853  1.00  0.00     0.014 A 
ATOM     35  C   UNL     1       5.526   1.397  -8.635  1.00  0.00     0.010 A 
ATOM     36  C   UNL     1       6.091   2.578  -6.599  1.00  0.00     0.010 A 
ATOM     37  C   UNL     1       5.938   2.575  -7.994  1.00  0.00    -0.014 A 
BRANCH  37  38
ATOM     38  C   UNL     1       6.153   3.839  -8.742  1.00  0.00     0.031 A 
ATOM     39  C   UNL     1       7.524   4.439  -8.846  1.00  0.00     0.074 A 
ATOM     40  C   UNL     1       5.087   4.505  -9.224  1.00  0.00     0.049 A 
ATOM     41  N   UNL     1       7.881   5.614  -9.299  1.00  0.00    -0.248 NA
ATOM     42  C   UNL     1       8.639   3.619  -8.349  1.00  0.00     0.031 C 
ATOM     43  C   UNL     1       3.700   4.042  -9.156  1.00  0.00     0.029 A 
ATOM     44  N   UNL     1       4.999   5.731  -9.837  1.00  0.00    -0.354 N 
ATOM     45  C   UNL     1       9.256   5.684  -9.127  1.00  0.00     0.074 A 
ATOM     46  C   UNL     1       9.667   4.444  -8.500  1.00  0.00     0.031 C 
ATOM     47  C   UNL     1       2.899   4.972  -9.700  1.00  0.00     0.029 A 
ATOM     48  C   UNL     1       3.710   6.112 -10.119  1.00  0.00     0.049 A 
ATOM     49  H   UNL     1       5.784   6.283 -10.054  1.00  0.00     0.167 HD
ATOM     50  C   UNL     1      10.098   6.687  -9.473  1.00  0.00     0.037 A 
ATOM     51  C   UNL     1       3.231   7.259 -10.637  1.00  0.00     0.037 A 
ATOM     52  C   UNL     1       9.691   7.906 -10.124  1.00  0.00     0.049 A 
ATOM     53  C   UNL     1       4.188   8.357 -11.010  1.00  0.00     0.074 A 
ATOM     54  C   UNL     1      10.480   8.957 -10.559  1.00  0.00     0.029 A 
ATOM     55  N   UNL     1       8.381   8.235 -10.436  1.00  0.00    -0.354 N 
ATOM     56  N   UNL     1       5.491   8.396 -10.880  1.00  0.00    -0.248 NA
ATOM     57  C   UNL     1       3.607   9.570 -11.604  1.00  0.00     0.031 C 
ATOM     58  C   UNL     1       9.644   9.937 -11.105  1.00  0.00     0.029 A 
ATOM     59  C   UNL     1       8.338   9.479 -11.046  1.00  0.00     0.049 A 
ATOM     60  H   UNL     1       7.597   7.669 -10.251  1.00  0.00     0.167 HD
ATOM     61  C   UNL     1       5.890   9.616 -11.406  1.00  0.00     0.074 A 
ATOM     62  C   UNL     1       4.691  10.291 -11.857  1.00  0.00     0.031 C 
ATOM     63  C   UNL     1       7.140  10.128 -11.509  1.00  0.00     0.037 A 
BRANCH  50  64
ATOM     64  C   UNL     1      11.554   6.513  -9.155  1.00  0.00     0.064 A 
ATOM     65  C   UNL     1      12.362   5.624  -9.879  1.00  0.00     0.173 A 
ATOM     66  C   UNL     1      12.159   7.282  -8.149  1.00  0.00     0.173 A 
ATOM     67  F   UNL     1      11.827   4.859 -10.842  1.00  0.00    -0.203 F 
ATOM     68  C   UNL     1      13.718   5.495  -9.592  1.00  0.00     0.198 A 
ATOM     69  C   UNL     1      13.520   7.169  -7.883  1.00  0.00     0.198 A 
ATOM     70  F   UNL     1      11.430   8.150  -7.432  1.00  0.00    -0.203 F 
ATOM     71  F   UNL     1      14.463   4.611 -10.270  1.00  0.00    -0.200 F 
ATOM     72  C   UNL     1      14.298   6.272  -8.600  1.00  0.00     0.200 A 
ATOM     73  F   UNL     1      14.081   7.928  -6.931  1.00  0.00    -0.200 F 
ATOM     74  F   UNL     1      15.605   6.152  -8.331  1.00  0.00    -0.200 F 
ENDBRANCH  50  64
BRANCH  51  75
ATOM     75  C   UNL     1       1.771   7.419 -10.846  1.00  0.00     0.064 A 
ATOM     76  C   UNL     1       1.226   7.395 -12.137  1.00  0.00     0.173 A 
ATOM     77  C   UNL     1       0.892   7.590  -9.767  1.00  0.00     0.173 A 
ATOM     78  F   UNL     1       2.032   7.255 -13.200  1.00  0.00    -0.203 F 
ATOM     79  C   UNL     1      -0.143   7.550 -12.342  1.00  0.00     0.198 A 
ATOM     80  C   UNL     1      -0.479   7.721  -9.972  1.00  0.00     0.198 A 
ATOM     81  F   UNL     1       1.366   7.615  -8.513  1.00  0.00    -0.203 F 
ATOM     82  F   UNL     1      -0.634   7.559 -13.589  1.00  0.00    -0.200 F 
ATOM     83  C   UNL     1      -0.995   7.707 -11.260  1.00  0.00     0.200 A 
ATOM     84  F   UNL     1      -1.301   7.861  -8.923  1.00  0.00    -0.200 F 
ATOM     85  F   UNL     1      -2.312   7.851 -11.457  1.00  0.00    -0.200 F 
ENDBRANCH  51  75
BRANCH  63  86
ATOM     86  C   UNL     1       7.286  11.461 -12.180  1.00  0.00     0.064 A 
ATOM     87  C   UNL     1       6.937  12.653 -11.531  1.00  0.00     0.173 A 
ATOM     88  C   UNL     1       7.831  11.545 -13.470  1.00  0.00     0.173 A 
ATOM     89  F   UNL     1       6.397  12.621 -10.304  1.00  0.00    -0.203 F 
ATOM     90  C   UNL     1       7.117  13.884 -12.157  1.00  0.00     0.198 A 
ATOM     91  C   UNL     1       8.030  12.779 -14.083  1.00  0.00     0.198 A 
ATOM     92  F   UNL     1       8.184  10.431 -14.129  1.00  0.00    -0.203 F 
ATOM     93  F   UNL     1       6.747  15.011 -11.532  1.00  0.00    -0.200 F 
ATOM     94  C   UNL     1       7.670  13.947 -13.428  1.00  0.00     0.200 A 
ATOM     95  F   UNL     1       8.573  12.838 -15.307  1.00  0.00    -0.200 F 
ATOM     96  F   UNL     1       7.851  15.133 -14.023  1.00  0.00    -0.200 F 
ENDBRANCH  63  86
ENDBRANCH  37  38
ENDBRANCH  29  32
ENDBRANCH  27  28
ENDBRANCH  26  27
ENDBRANCH  25  26
ENDBRANCH   3  25
TORSDOF 15
