REMARK SMILES COc1cccc([C@@H]2CN(C(=O)CSc3nc(C)n[nH]3)C[C@H]2C(=O)NCCCNC(=O)c2ccc(-c3c4nc(c(-c5c(F)c(F)c(F)c(F)c5F)c5ccc([nH]5)c(-c5c(F)c(F)c(F)c(F)c5F)c5nc(c(-c6c(F)c(F)c(F)c(F)c6F)c6ccc3[nH]6)C=C5)C=C4)cc2)c1
REMARK SMILES IDX 26 1 25 2 23 3 24 4 22 6 8 7 9 8 10 9 21 10 7 11 3 12 4 13
REMARK SMILES IDX 95 14 5 15 6 16 2 17 1 18 11 19 12 20 13 21 14 22 15 23
REMARK SMILES IDX 16 24 20 25 17 26 19 27 18 29 27 30 28 31 29 32 30 33 31 35
REMARK SMILES IDX 32 36 33 37 94 38 34 39 93 40 35 41 36 42 37 43 87 44 38 45
REMARK SMILES IDX 92 46 86 47 88 48 39 49 91 50 85 51 84 52 40 54 72 55 52 56
REMARK SMILES IDX 71 57 53 58 56 59 70 60 89 61 54 62 55 63 69 65 90 66 57 67
REMARK SMILES IDX 41 68 42 69 50 70 43 71 44 72 48 73 51 74 45 75 46 76 49 77
REMARK SMILES IDX 47 78 73 79 74 80 82 81 75 82 76 83 80 84 83 85 77 86 78 87
REMARK SMILES IDX 81 88 79 89 58 90 59 91 67 92 60 93 61 94 65 95 68 96 62 97
REMARK SMILES IDX 63 98 66 99 64 100
REMARK H PARENT 25 5 20 28 29 34 88 53 56 64
REMARK Flexibility Score: inf
ROOT
ATOM      1  C   UNL     1       5.931   1.494   6.324  1.00  0.00     0.117 C 
ENDROOT
BRANCH   1   2
ATOM      2  N   UNL     1       5.006   0.383   6.137  1.00  0.00    -0.356 N 
ATOM      3  C   UNL     1       4.415  -0.139   5.027  1.00  0.00     0.225 C 
ATOM      4  O   UNL     1       3.749  -1.167   5.175  1.00  0.00    -0.275 OA
ATOM      5  H   UNL     1       4.763  -0.078   6.973  1.00  0.00     0.163 HD
BRANCH   3   6
ATOM      6  C   UNL     1       4.524   0.498   3.654  1.00  0.00     0.107 C 
ATOM      7  C   UNL     1       3.924   1.915   3.614  1.00  0.00     0.053 C 
ATOM      8  C   UNL     1       4.850   2.695   2.683  1.00  0.00     0.128 C 
ATOM      9  N   UNL     1       6.139   2.039   2.831  1.00  0.00    -0.341 N 
ATOM     10  C   UNL     1       5.964   0.631   3.164  1.00  0.00     0.133 C 
BRANCH   7  11
ATOM     11  C   UNL     1       2.467   2.006   3.223  1.00  0.00    -0.039 A 
ATOM     12  C   UNL     1       0.654   1.612   1.647  1.00  0.00     0.119 A 
ATOM     13  C   UNL     1      -0.221   2.298   2.489  1.00  0.00     0.046 A 
ATOM     14  C   UNL     1       1.995   1.475   2.011  1.00  0.00     0.050 A 
ATOM     15  C   UNL     1       0.228   2.816   3.702  1.00  0.00     0.004 A 
ATOM     16  C   UNL     1       1.564   2.669   4.069  1.00  0.00     0.004 A 
BRANCH  12  17
ATOM     17  O   UNL     1       0.108   1.166   0.475  1.00  0.00    -0.497 OA
ATOM     18  C   UNL     1       0.743   0.038  -0.117  1.00  0.00     0.278 C 
ENDBRANCH  12  17
ENDBRANCH   7  11
BRANCH   9  19
ATOM     19  C   UNL     1       7.393   2.595   2.704  1.00  0.00     0.233 C 
ATOM     20  O   UNL     1       8.402   1.905   2.864  1.00  0.00    -0.274 OA
BRANCH  19  21
ATOM     21  C   UNL     1       7.519   4.070   2.367  1.00  0.00     0.178 C 
BRANCH  21  22
ATOM     22  S   UNL     1       6.869   4.461   0.722  1.00  0.00    -0.077 SA
BRANCH  22  23
ATOM     23  C   UNL     1       7.853   3.494  -0.304  1.00  0.00     0.184 A 
ATOM     24  N   UNL     1       8.687   3.924  -1.215  1.00  0.00    -0.206 NA
ATOM     25  N   UNL     1       7.757   2.138  -0.365  1.00  0.00    -0.254 N 
ATOM     26  C   UNL     1       9.087   2.764  -1.828  1.00  0.00     0.148 A 
ATOM     27  N   UNL     1       8.535   1.643  -1.342  1.00  0.00    -0.158 NA
ATOM     28  H   UNL     1       7.192   1.592   0.228  1.00  0.00     0.192 HD
ATOM     29  C   UNL     1      10.028   2.767  -2.964  1.00  0.00     0.092 C 
ENDBRANCH  22  23
ENDBRANCH  21  22
ENDBRANCH  19  21
ENDBRANCH   9  19
ENDBRANCH   3   6
ENDBRANCH   1   2
BRANCH   1  30
ATOM     30  C   UNL     1       5.316   2.708   7.024  1.00  0.00     0.042 C 
BRANCH  30  31
ATOM     31  C   UNL     1       4.995   2.447   8.481  1.00  0.00     0.118 C 
BRANCH  31  32
ATOM     32  N   UNL     1       6.186   2.247   9.300  1.00  0.00    -0.352 N 
ATOM     33  C   UNL     1       6.258   2.003  10.660  1.00  0.00     0.251 C 
ATOM     34  H   UNL     1       7.047   2.292   8.825  1.00  0.00     0.163 HD
ATOM     35  O   UNL     1       7.294   2.185  11.272  1.00  0.00    -0.269 OA
BRANCH  33  36
ATOM     36  C   UNL     1       5.043   1.545  11.361  1.00  0.00     0.039 A 
ATOM     37  C   UNL     1       4.728   2.032  12.630  1.00  0.00     0.014 A 
ATOM     38  C   UNL     1       4.192   0.653  10.714  1.00  0.00     0.014 A 
ATOM     39  C   UNL     1       3.505   1.683  13.196  1.00  0.00     0.010 A 
ATOM     40  C   UNL     1       2.921   0.454  11.189  1.00  0.00     0.010 A 
ATOM     41  C   UNL     1       2.587   0.920  12.453  1.00  0.00    -0.014 A 
BRANCH  41  42
ATOM     42  C   UNL     1       1.229   0.716  12.945  1.00  0.00     0.031 A 
ATOM     43  C   UNL     1       0.545   1.964  13.371  1.00  0.00     0.074 A 
ATOM     44  C   UNL     1       0.559  -0.454  12.862  1.00  0.00     0.049 A 
ATOM     45  N   UNL     1       0.221   2.299  14.575  1.00  0.00    -0.248 NA
ATOM     46  C   UNL     1       0.327   3.027  12.377  1.00  0.00     0.031 C 
ATOM     47  C   UNL     1       0.975  -1.695  12.202  1.00  0.00     0.029 A 
ATOM     48  N   UNL     1      -0.706  -0.750  13.275  1.00  0.00    -0.354 N 
ATOM     49  C   UNL     1      -0.439   3.518  14.469  1.00  0.00     0.074 A 
ATOM     50  C   UNL     1      -0.173   4.003  13.140  1.00  0.00     0.031 C 
ATOM     51  C   UNL     1      -0.091  -2.510  12.051  1.00  0.00     0.029 A 
ATOM     52  C   UNL     1      -1.222  -1.930  12.750  1.00  0.00     0.049 A 
ATOM     53  H   UNL     1      -1.213  -0.176  13.893  1.00  0.00     0.167 HD
ATOM     54  C   UNL     1      -1.375   3.869  15.393  1.00  0.00     0.037 A 
ATOM     55  C   UNL     1      -2.493  -2.391  12.863  1.00  0.00     0.037 A 
ATOM     56  C   UNL     1      -1.231   3.081  16.598  1.00  0.00     0.049 A 
ATOM     57  C   UNL     1      -3.113  -1.702  14.020  1.00  0.00     0.074 A 
ATOM     58  C   UNL     1      -0.195   2.834  17.480  1.00  0.00     0.029 A 
ATOM     59  N   UNL     1      -2.150   2.087  16.834  1.00  0.00    -0.354 N 
ATOM     60  N   UNL     1      -2.775  -1.921  15.259  1.00  0.00    -0.248 NA
ATOM     61  C   UNL     1      -3.796  -0.441  13.773  1.00  0.00     0.031 C 
ATOM     62  C   UNL     1      -0.316   1.451  17.817  1.00  0.00     0.029 A 
ATOM     63  C   UNL     1      -1.459   0.959  17.189  1.00  0.00     0.049 A 
ATOM     64  H   UNL     1      -3.128   2.171  16.761  1.00  0.00     0.167 HD
ATOM     65  C   UNL     1      -2.763  -0.663  15.839  1.00  0.00     0.074 A 
ATOM     66  C   UNL     1      -3.506   0.189  14.914  1.00  0.00     0.031 C 
ATOM     67  C   UNL     1      -1.901  -0.373  16.858  1.00  0.00     0.037 A 
BRANCH  54  68
ATOM     68  C   UNL     1      -2.669   4.581  15.056  1.00  0.00     0.064 A 
ATOM     69  C   UNL     1      -3.542   4.924  16.110  1.00  0.00     0.173 A 
ATOM     70  C   UNL     1      -3.235   4.630  13.763  1.00  0.00     0.173 A 
ATOM     71  F   UNL     1      -3.115   4.912  17.382  1.00  0.00    -0.203 F 
ATOM     72  C   UNL     1      -4.901   5.166  15.895  1.00  0.00     0.198 A 
ATOM     73  C   UNL     1      -4.580   4.927  13.548  1.00  0.00     0.198 A 
ATOM     74  F   UNL     1      -2.557   4.285  12.665  1.00  0.00    -0.203 F 
ATOM     75  F   UNL     1      -5.720   5.327  16.942  1.00  0.00    -0.200 F 
ATOM     76  C   UNL     1      -5.421   5.153  14.615  1.00  0.00     0.200 A 
ATOM     77  F   UNL     1      -5.067   4.896  12.300  1.00  0.00    -0.200 F 
ATOM     78  F   UNL     1      -6.736   5.305  14.411  1.00  0.00    -0.200 F 
ENDBRANCH  54  68
BRANCH  55  79
ATOM     79  C   UNL     1      -3.286  -3.217  11.921  1.00  0.00     0.064 A 
ATOM     80  C   UNL     1      -4.481  -3.833  12.330  1.00  0.00     0.173 A 
ATOM     81  C   UNL     1      -3.045  -3.183  10.534  1.00  0.00     0.173 A 
ATOM     82  F   UNL     1      -4.809  -3.876  13.630  1.00  0.00    -0.203 F 
ATOM     83  C   UNL     1      -5.397  -4.346  11.406  1.00  0.00     0.198 A 
ATOM     84  C   UNL     1      -3.955  -3.704   9.614  1.00  0.00     0.198 A 
ATOM     85  F   UNL     1      -1.969  -2.555  10.038  1.00  0.00    -0.203 F 
ATOM     86  F   UNL     1      -6.561  -4.859  11.833  1.00  0.00    -0.200 F 
ATOM     87  C   UNL     1      -5.139  -4.270  10.048  1.00  0.00     0.200 A 
ATOM     88  F   UNL     1      -3.709  -3.593   8.301  1.00  0.00    -0.200 F 
ATOM     89  F   UNL     1      -6.047  -4.698   9.160  1.00  0.00    -0.200 F 
ENDBRANCH  55  79
BRANCH  67  90
ATOM     90  C   UNL     1      -1.208  -1.522  17.537  1.00  0.00     0.064 A 
ATOM     91  C   UNL     1      -0.367  -2.446  16.889  1.00  0.00     0.173 A 
ATOM     92  C   UNL     1      -1.333  -1.636  18.928  1.00  0.00     0.173 A 
ATOM     93  F   UNL     1      -0.102  -2.343  15.581  1.00  0.00    -0.203 F 
ATOM     94  C   UNL     1       0.256  -3.474  17.594  1.00  0.00     0.198 A 
ATOM     95  C   UNL     1      -0.674  -2.638  19.636  1.00  0.00     0.198 A 
ATOM     96  F   UNL     1      -2.075  -0.751  19.612  1.00  0.00    -0.203 F 
ATOM     97  F   UNL     1       1.023  -4.364  16.946  1.00  0.00    -0.200 F 
ATOM     98  C   UNL     1       0.104  -3.567  18.967  1.00  0.00     0.200 A 
ATOM     99  F   UNL     1      -0.784  -2.692  20.970  1.00  0.00    -0.200 F 
ATOM    100  F   UNL     1       0.725  -4.540  19.649  1.00  0.00    -0.200 F 
ENDBRANCH  67  90
ENDBRANCH  41  42
ENDBRANCH  33  36
ENDBRANCH  31  32
ENDBRANCH  30  31
ENDBRANCH   1  30
TORSDOF 16
