REMARK SMILES Cc1ccc(C(=O)NCCCNC(=O)c2ccc(-c3c4nc(c(-c5c(F)c(F)c(F)c(F)c5F)c5ccc([nH]5)c(-c5c(F)c(F)c(F)c(F)c5F)c5nc(c(-c6c(F)c(F)c(F)c(F)c6F)c6ccc3[nH]6)C=C5)C=C4)cc2)c2c1N[C@H](c1ccccc1F)[C@H]1CC=C[C@@H]21
REMARK SMILES IDX 10 1 9 2 8 3 6 4 7 5 5 7 1 8 2 9 3 10 79 11 4 12 78 13 80 14
REMARK SMILES IDX 93 15 81 16 89 18 92 19 90 20 91 21 82 22 83 23 87 24 84 25
REMARK SMILES IDX 86 26 88 27 85 28 11 29 12 30 13 31 14 33 15 34 16 35 77 36
REMARK SMILES IDX 17 37 76 38 18 39 19 40 20 41 70 42 21 43 75 44 69 45 71 46
REMARK SMILES IDX 22 47 74 48 68 49 67 50 23 52 55 53 35 54 54 55 36 56 39 57
REMARK SMILES IDX 53 58 72 59 37 60 38 61 52 63 73 64 40 65 24 66 25 67 33 68
REMARK SMILES IDX 26 69 27 70 31 71 34 72 28 73 29 74 32 75 30 76 56 77 57 78
REMARK SMILES IDX 65 79 58 80 59 81 63 82 66 83 60 84 61 85 64 86 62 87 41 88
REMARK SMILES IDX 42 89 50 90 43 91 44 92 48 93 51 94 45 95 46 96 49 97 47 98
REMARK H PARENT 8 6 80 17 12 32 71 51 39 62
REMARK Flexibility Score: inf
ROOT
ATOM      1  C   UNL     1      -0.764  -6.846   0.018  1.00  0.00     0.042 C 
ENDROOT
BRANCH   1   2
ATOM      2  C   UNL     1       0.397  -6.414  -0.881  1.00  0.00     0.118 C 
BRANCH   2   3
ATOM      3  N   UNL     1      -0.117  -5.945  -2.152  1.00  0.00    -0.352 N 
ATOM      4  C   UNL     1      -0.529  -4.732  -2.638  1.00  0.00     0.251 C 
ATOM      5  O   UNL     1      -1.183  -4.811  -3.678  1.00  0.00    -0.269 OA
ATOM      6  H   UNL     1      -0.186  -6.664  -2.821  1.00  0.00     0.163 HD
BRANCH   4   7
ATOM      7  C   UNL     1      -0.209  -3.401  -2.009  1.00  0.00     0.045 A 
ATOM      8  C   UNL     1       0.963   0.311  -0.101  1.00  0.00     0.046 C 
ATOM      9  C   UNL     1       0.452  -0.923  -0.798  1.00  0.00    -0.028 A 
ATOM     10  C   UNL     1       0.325  -2.087  -0.035  1.00  0.00     0.006 A 
ATOM     11  C   UNL     1       0.175  -0.965  -2.182  1.00  0.00     0.042 A 
ATOM     12  C   UNL     1      -0.049  -3.290  -0.626  1.00  0.00     0.014 A 
ATOM     13  C   UNL     1      -0.116  -2.212  -2.798  1.00  0.00    -0.005 A 
ATOM     14  N   UNL     1       0.207   0.206  -2.924  1.00  0.00    -0.377 N 
ATOM     15  C   UNL     1      -0.390  -2.235  -4.288  1.00  0.00     0.050 C 
ATOM     16  C   UNL     1       0.303   0.211  -4.375  1.00  0.00     0.117 C 
ATOM     17  H   UNL     1       0.163   1.067  -2.450  1.00  0.00     0.161 HD
ATOM     18  C   UNL     1      -0.614  -0.870  -4.963  1.00  0.00     0.031 C 
ATOM     19  C   UNL     1       0.700  -2.825  -5.145  1.00  0.00    -0.023 C 
ATOM     20  C   UNL     1      -0.279  -1.145  -6.443  1.00  0.00     0.034 C 
ATOM     21  C   UNL     1       0.743  -2.233  -6.346  1.00  0.00    -0.030 C 
BRANCH  16  22
ATOM     22  C   UNL     1       0.085   1.638  -4.879  1.00  0.00     0.010 A 
ATOM     23  C   UNL     1       1.075   2.603  -4.602  1.00  0.00     0.009 A 
ATOM     24  C   UNL     1      -1.024   2.058  -5.626  1.00  0.00     0.128 A 
ATOM     25  C   UNL     1       0.963   3.916  -5.072  1.00  0.00     0.001 A 
ATOM     26  C   UNL     1      -1.137   3.364  -6.103  1.00  0.00     0.039 A 
ATOM     27  F   UNL     1      -2.017   1.217  -5.940  1.00  0.00    -0.207 F 
ATOM     28  C   UNL     1      -0.141   4.295  -5.830  1.00  0.00     0.003 A 
ENDBRANCH  16  22
ENDBRANCH   4   7
ENDBRANCH   2   3
ENDBRANCH   1   2
BRANCH   1  29
ATOM     29  C   UNL     1      -1.468  -8.103  -0.496  1.00  0.00     0.118 C 
BRANCH  29  30
ATOM     30  N   UNL     1      -0.610  -9.275  -0.389  1.00  0.00    -0.352 N 
ATOM     31  C   UNL     1      -0.696 -10.330   0.482  1.00  0.00     0.251 C 
ATOM     32  H   UNL     1       0.136  -9.315  -1.031  1.00  0.00     0.163 HD
ATOM     33  O   UNL     1       0.255 -11.084   0.647  1.00  0.00    -0.269 OA
BRANCH  31  34
ATOM     34  C   UNL     1      -1.954 -10.557   1.217  1.00  0.00     0.039 A 
ATOM     35  C   UNL     1      -1.909 -10.812   2.589  1.00  0.00     0.014 A 
ATOM     36  C   UNL     1      -3.173 -10.553   0.531  1.00  0.00     0.014 A 
ATOM     37  C   UNL     1      -3.099 -11.026   3.286  1.00  0.00     0.010 A 
ATOM     38  C   UNL     1      -4.361 -10.708   1.236  1.00  0.00     0.010 A 
ATOM     39  C   UNL     1      -4.330 -10.964   2.614  1.00  0.00    -0.014 A 
BRANCH  39  40
ATOM     40  C   UNL     1      -5.601 -11.225   3.327  1.00  0.00     0.031 A 
ATOM     41  C   UNL     1      -6.366 -12.482   3.034  1.00  0.00     0.074 A 
ATOM     42  C   UNL     1      -6.078 -10.320   4.199  1.00  0.00     0.049 A 
ATOM     43  N   UNL     1      -7.509 -12.889   3.526  1.00  0.00    -0.248 NA
ATOM     44  C   UNL     1      -5.778 -13.396   2.042  1.00  0.00     0.031 C 
ATOM     45  C   UNL     1      -5.429  -9.054   4.538  1.00  0.00     0.029 A 
ATOM     46  N   UNL     1      -7.222 -10.325   4.956  1.00  0.00    -0.354 N 
ATOM     47  C   UNL     1      -7.769 -14.104   2.909  1.00  0.00     0.074 A 
ATOM     48  C   UNL     1      -6.706 -14.337   1.957  1.00  0.00     0.031 C 
ATOM     49  C   UNL     1      -6.173  -8.413   5.454  1.00  0.00     0.029 A 
ATOM     50  C   UNL     1      -7.364  -9.209   5.743  1.00  0.00     0.049 A 
ATOM     51  H   UNL     1      -7.878 -11.058   4.936  1.00  0.00     0.167 HD
ATOM     52  C   UNL     1      -8.787 -14.965   3.142  1.00  0.00     0.037 A 
ATOM     53  C   UNL     1      -8.345  -8.873   6.602  1.00  0.00     0.037 A 
ATOM     54  C   UNL     1      -9.839 -14.726   4.094  1.00  0.00     0.049 A 
ATOM     55  C   UNL     1      -9.498  -9.820   6.804  1.00  0.00     0.074 A 
ATOM     56  C   UNL     1     -10.899 -15.546   4.431  1.00  0.00     0.029 A 
ATOM     57  N   UNL     1      -9.964 -13.572   4.856  1.00  0.00    -0.354 N 
ATOM     58  N   UNL     1      -9.705 -10.996   6.264  1.00  0.00    -0.248 NA
ATOM     59  C   UNL     1     -10.549  -9.395   7.738  1.00  0.00     0.031 C 
ATOM     60  C   UNL     1     -11.696 -14.869   5.359  1.00  0.00     0.029 A 
ATOM     61  C   UNL     1     -11.102 -13.648   5.642  1.00  0.00     0.049 A 
ATOM     62  H   UNL     1      -9.338 -12.813   4.840  1.00  0.00     0.167 HD
ATOM     63  C   UNL     1     -10.895 -11.463   6.806  1.00  0.00     0.074 A 
ATOM     64  C   UNL     1     -11.357 -10.448   7.731  1.00  0.00     0.031 C 
ATOM     65  C   UNL     1     -11.546 -12.627   6.559  1.00  0.00     0.037 A 
BRANCH  52  66
ATOM     66  C   UNL     1      -8.803 -16.247   2.363  1.00  0.00     0.064 A 
ATOM     67  C   UNL     1      -7.846 -17.250   2.586  1.00  0.00     0.173 A 
ATOM     68  C   UNL     1      -9.801 -16.496   1.410  1.00  0.00     0.173 A 
ATOM     69  F   UNL     1      -6.862 -17.058   3.478  1.00  0.00    -0.203 F 
ATOM     70  C   UNL     1      -7.872 -18.441   1.865  1.00  0.00     0.198 A 
ATOM     71  C   UNL     1      -9.844 -17.701   0.714  1.00  0.00     0.198 A 
ATOM     72  F   UNL     1     -10.742 -15.573   1.160  1.00  0.00    -0.203 F 
ATOM     73  F   UNL     1      -6.919 -19.362   2.062  1.00  0.00    -0.200 F 
ATOM     74  C   UNL     1      -8.876 -18.669   0.936  1.00  0.00     0.200 A 
ATOM     75  F   UNL     1     -10.822 -17.926  -0.174  1.00  0.00    -0.200 F 
ATOM     76  F   UNL     1      -8.906 -19.820   0.251  1.00  0.00    -0.200 F 
ENDBRANCH  52  66
BRANCH  53  77
ATOM     77  C   UNL     1      -8.246  -7.603   7.366  1.00  0.00     0.064 A 
ATOM     78  C   UNL     1      -7.986  -7.617   8.743  1.00  0.00     0.173 A 
ATOM     79  C   UNL     1      -8.366  -6.355   6.737  1.00  0.00     0.173 A 
ATOM     80  F   UNL     1      -7.881  -8.785   9.393  1.00  0.00    -0.203 F 
ATOM     81  C   UNL     1      -7.851  -6.431   9.462  1.00  0.00     0.198 A 
ATOM     82  C   UNL     1      -8.206  -5.170   7.452  1.00  0.00     0.198 A 
ATOM     83  F   UNL     1      -8.610  -6.288   5.420  1.00  0.00    -0.203 F 
ATOM     84  F   UNL     1      -7.627  -6.473  10.783  1.00  0.00    -0.200 F 
ATOM     85  C   UNL     1      -7.952  -5.209   8.815  1.00  0.00     0.200 A 
ATOM     86  F   UNL     1      -8.288  -3.991   6.820  1.00  0.00    -0.200 F 
ATOM     87  F   UNL     1      -7.805  -4.069   9.504  1.00  0.00    -0.200 F 
ENDBRANCH  53  77
BRANCH  65  88
ATOM     88  C   UNL     1     -12.825 -12.882   7.302  1.00  0.00     0.064 A 
ATOM     89  C   UNL     1     -14.002 -12.186   6.992  1.00  0.00     0.173 A 
ATOM     90  C   UNL     1     -12.896 -13.896   8.270  1.00  0.00     0.173 A 
ATOM     91  F   UNL     1     -13.984 -11.199   6.083  1.00  0.00    -0.203 F 
ATOM     92  C   UNL     1     -15.201 -12.489   7.630  1.00  0.00     0.198 A 
ATOM     93  C   UNL     1     -14.103 -14.218   8.883  1.00  0.00     0.198 A 
ATOM     94  F   UNL     1     -11.800 -14.597   8.596  1.00  0.00    -0.203 F 
ATOM     95  F   UNL     1     -16.308 -11.791   7.341  1.00  0.00    -0.200 F 
ATOM     96  C   UNL     1     -15.254 -13.512   8.566  1.00  0.00     0.200 A 
ATOM     97  F   UNL     1     -14.155 -15.219   9.772  1.00  0.00    -0.200 F 
ATOM     98  F   UNL     1     -16.414 -13.819   9.162  1.00  0.00    -0.200 F 
ENDBRANCH  65  88
ENDBRANCH  39  40
ENDBRANCH  31  34
ENDBRANCH  29  30
ENDBRANCH   1  29
TORSDOF 11
