REMARK SMILES CSc1ncccc1C(=O)N1CSC[C@H]1C(=O)NCCCNC(=O)c1ccc(-c2c3nc(c(-c4c(F)c(F)c(F)c(F)c4F)c4ccc([nH]4)c(-c4c(F)c(F)c(F)c(F)c4F)c4nc(c(-c5c(F)c(F)c(F)c(F)c5F)c5ccc2[nH]5)C=C4)C=C3)cc1
REMARK SMILES IDX 19 1 18 2 16 3 17 4 15 6 11 7 12 8 13 9 14 10 9 11 10 12
REMARK SMILES IDX 8 13 3 14 4 15 5 16 7 17 6 18 2 19 1 20 20 21 21 22 22 23
REMARK SMILES IDX 23 24 24 26 25 27 26 28 87 29 27 30 86 31 28 32 29 33 30 34
REMARK SMILES IDX 80 35 31 36 85 37 79 38 81 39 32 40 84 41 78 42 77 43 33 45
REMARK SMILES IDX 65 46 45 47 64 48 46 49 49 50 63 51 82 52 47 53 48 54 62 56
REMARK SMILES IDX 83 57 50 58 34 59 35 60 43 61 36 62 37 63 41 64 44 65 38 66
REMARK SMILES IDX 39 67 42 68 40 69 66 70 67 71 75 72 68 73 69 74 73 75 76 76
REMARK SMILES IDX 70 77 71 78 74 79 72 80 51 81 52 82 60 83 53 84 54 85 58 86
REMARK SMILES IDX 61 87 55 88 56 89 59 90 57 91
REMARK H PARENT 18 5 22 25 81 44 49 55
REMARK Flexibility Score: inf
ROOT
ATOM      1  C   UNL     1      -3.043  -5.470   5.475  1.00  0.00     0.117 C 
ENDROOT
BRANCH   1   2
ATOM      2  N   UNL     1      -3.777  -4.555   4.631  1.00  0.00    -0.354 N 
ATOM      3  C   UNL     1      -3.858  -4.456   3.276  1.00  0.00     0.243 C 
ATOM      4  O   UNL     1      -4.777  -3.754   2.840  1.00  0.00    -0.273 OA
ATOM      5  H   UNL     1      -4.310  -3.887   5.120  1.00  0.00     0.163 HD
BRANCH   3   6
ATOM      6  C   UNL     1      -2.974  -5.275   2.311  1.00  0.00     0.185 C 
ATOM      7  N   UNL     1      -1.518  -5.062   2.370  1.00  0.00    -0.316 N 
ATOM      8  C   UNL     1      -0.758  -6.170   2.903  1.00  0.00     0.190 C 
ATOM      9  S   UNL     1      -1.704  -7.652   2.506  1.00  0.00    -0.138 SA
ATOM     10  C   UNL     1      -3.291  -6.770   2.371  1.00  0.00     0.106 C 
BRANCH   7  11
ATOM     11  C   UNL     1      -1.020  -3.936   1.711  1.00  0.00     0.257 C 
ATOM     12  O   UNL     1      -1.726  -2.945   1.545  1.00  0.00    -0.269 OA
BRANCH  11  13
ATOM     13  C   UNL     1       0.300  -3.988   1.025  1.00  0.00     0.072 A 
ATOM     14  C   UNL     1       1.150  -2.885   0.896  1.00  0.00     0.108 A 
ATOM     15  N   UNL     1       2.300  -2.939   0.164  1.00  0.00    -0.249 NA
ATOM     16  C   UNL     1       2.595  -4.079  -0.491  1.00  0.00     0.112 A 
ATOM     17  C   UNL     1       0.623  -5.141   0.287  1.00  0.00     0.018 A 
ATOM     18  C   UNL     1       1.793  -5.200  -0.461  1.00  0.00     0.021 A 
BRANCH  14  19
ATOM     19  S   UNL     1       0.880  -1.298   1.670  1.00  0.00    -0.109 SA
ATOM     20  C   UNL     1       1.189  -0.237   0.228  1.00  0.00     0.092 C 
ENDBRANCH  14  19
ENDBRANCH  11  13
ENDBRANCH   7  11
ENDBRANCH   3   6
ENDBRANCH   1   2
BRANCH   1  21
ATOM     21  C   UNL     1      -1.874  -4.802   6.179  1.00  0.00     0.042 C 
BRANCH  21  22
ATOM     22  C   UNL     1      -2.302  -3.862   7.297  1.00  0.00     0.118 C 
BRANCH  22  23
ATOM     23  N   UNL     1      -2.976  -4.567   8.383  1.00  0.00    -0.352 N 
ATOM     24  C   UNL     1      -2.629  -4.702   9.700  1.00  0.00     0.251 C 
ATOM     25  H   UNL     1      -3.813  -5.018   8.127  1.00  0.00     0.163 HD
ATOM     26  O   UNL     1      -3.218  -5.529  10.402  1.00  0.00    -0.269 OA
BRANCH  24  27
ATOM     27  C   UNL     1      -1.559  -3.875  10.289  1.00  0.00     0.039 A 
ATOM     28  C   UNL     1      -0.702  -4.444  11.235  1.00  0.00     0.014 A 
ATOM     29  C   UNL     1      -1.424  -2.527   9.946  1.00  0.00     0.014 A 
ATOM     30  C   UNL     1       0.319  -3.676  11.798  1.00  0.00     0.010 A 
ATOM     31  C   UNL     1      -0.352  -1.790  10.435  1.00  0.00     0.010 A 
ATOM     32  C   UNL     1       0.518  -2.351  11.382  1.00  0.00    -0.014 A 
BRANCH  32  33
ATOM     33  C   UNL     1       1.603  -1.515  11.950  1.00  0.00     0.031 A 
ATOM     34  C   UNL     1       1.261  -0.280  12.737  1.00  0.00     0.074 A 
ATOM     35  C   UNL     1       2.888  -1.831  11.704  1.00  0.00     0.049 A 
ATOM     36  N   UNL     1       2.056   0.626  13.248  1.00  0.00    -0.248 NA
ATOM     37  C   UNL     1      -0.170  -0.010  12.951  1.00  0.00     0.031 C 
ATOM     38  C   UNL     1       3.341  -2.980  10.919  1.00  0.00     0.029 A 
ATOM     39  N   UNL     1       4.049  -1.207  12.083  1.00  0.00    -0.354 N 
ATOM     40  C   UNL     1       1.224   1.575  13.825  1.00  0.00     0.074 A 
ATOM     41  C   UNL     1      -0.137   1.172  13.547  1.00  0.00     0.031 C 
ATOM     42  C   UNL     1       4.684  -2.996  10.899  1.00  0.00     0.029 A 
ATOM     43  C   UNL     1       5.183  -1.838  11.633  1.00  0.00     0.049 A 
ATOM     44  H   UNL     1       4.068  -0.386  12.625  1.00  0.00     0.167 HD
ATOM     45  C   UNL     1       1.562   2.670  14.548  1.00  0.00     0.037 A 
ATOM     46  C   UNL     1       6.479  -1.513  11.796  1.00  0.00     0.037 A 
ATOM     47  C   UNL     1       2.918   3.054  14.838  1.00  0.00     0.049 A 
ATOM     48  C   UNL     1       6.830  -0.284  12.591  1.00  0.00     0.074 A 
ATOM     49  C   UNL     1       3.373   4.119  15.595  1.00  0.00     0.029 A 
ATOM     50  N   UNL     1       4.042   2.379  14.380  1.00  0.00    -0.354 N 
ATOM     51  N   UNL     1       6.037   0.575  13.184  1.00  0.00    -0.248 NA
ATOM     52  C   UNL     1       8.261   0.013  12.748  1.00  0.00     0.031 C 
ATOM     53  C   UNL     1       4.771   4.115  15.559  1.00  0.00     0.029 A 
ATOM     54  C   UNL     1       5.189   3.015  14.827  1.00  0.00     0.049 A 
ATOM     55  H   UNL     1       4.026   1.569  13.821  1.00  0.00     0.167 HD
ATOM     56  C   UNL     1       6.868   1.491  13.814  1.00  0.00     0.074 A 
ATOM     57  C   UNL     1       8.228   1.076  13.539  1.00  0.00     0.031 C 
ATOM     58  C   UNL     1       6.535   2.576  14.556  1.00  0.00     0.037 A 
BRANCH  45  59
ATOM     59  C   UNL     1       0.443   3.524  15.073  1.00  0.00     0.064 A 
ATOM     60  C   UNL     1      -0.429   3.062  16.072  1.00  0.00     0.173 A 
ATOM     61  C   UNL     1       0.245   4.823  14.583  1.00  0.00     0.173 A 
ATOM     62  F   UNL     1      -0.292   1.822  16.568  1.00  0.00    -0.203 F 
ATOM     63  C   UNL     1      -1.479   3.852  16.531  1.00  0.00     0.198 A 
ATOM     64  C   UNL     1      -0.786   5.624  15.069  1.00  0.00     0.198 A 
ATOM     65  F   UNL     1       1.051   5.319  13.632  1.00  0.00    -0.203 F 
ATOM     66  F   UNL     1      -2.335   3.365  17.440  1.00  0.00    -0.200 F 
ATOM     67  C   UNL     1      -1.653   5.135  16.034  1.00  0.00     0.200 A 
ATOM     68  F   UNL     1      -0.944   6.869  14.598  1.00  0.00    -0.200 F 
ATOM     69  F   UNL     1      -2.663   5.896  16.478  1.00  0.00    -0.200 F 
ENDBRANCH  45  59
BRANCH  46  70
ATOM     70  C   UNL     1       7.540  -2.386  11.230  1.00  0.00     0.064 A 
ATOM     71  C   UNL     1       8.368  -3.142  12.072  1.00  0.00     0.173 A 
ATOM     72  C   UNL     1       7.750  -2.487   9.848  1.00  0.00     0.173 A 
ATOM     73  F   UNL     1       8.218  -3.066  13.403  1.00  0.00    -0.203 F 
ATOM     74  C   UNL     1       9.380  -3.948  11.554  1.00  0.00     0.198 A 
ATOM     75  C   UNL     1       8.743  -3.316   9.329  1.00  0.00     0.198 A 
ATOM     76  F   UNL     1       6.980  -1.790   8.999  1.00  0.00    -0.203 F 
ATOM     77  F   UNL     1      10.185  -4.625  12.384  1.00  0.00    -0.200 F 
ATOM     78  C   UNL     1       9.562  -4.039  10.183  1.00  0.00     0.200 A 
ATOM     79  F   UNL     1       8.906  -3.414   8.003  1.00  0.00    -0.200 F 
ATOM     80  F   UNL     1      10.531  -4.818   9.684  1.00  0.00    -0.200 F 
ENDBRANCH  46  70
BRANCH  58  81
ATOM     81  C   UNL     1       7.660   3.358  15.171  1.00  0.00     0.064 A 
ATOM     82  C   UNL     1       8.517   4.155  14.398  1.00  0.00     0.173 A 
ATOM     83  C   UNL     1       7.857   3.336  16.560  1.00  0.00     0.173 A 
ATOM     84  F   UNL     1       8.380   4.198  13.064  1.00  0.00    -0.203 F 
ATOM     85  C   UNL     1       9.550   4.877  14.991  1.00  0.00     0.198 A 
ATOM     86  C   UNL     1       8.869   4.085  17.153  1.00  0.00     0.198 A 
ATOM     87  F   UNL     1       7.059   2.596  17.345  1.00  0.00    -0.203 F 
ATOM     88  F   UNL     1      10.391   5.588  14.228  1.00  0.00    -0.200 F 
ATOM     89  C   UNL     1       9.720   4.847  16.367  1.00  0.00     0.200 A 
ATOM     90  F   UNL     1       9.022   4.067  18.484  1.00  0.00    -0.200 F 
ATOM     91  F   UNL     1      10.710   5.548  16.936  1.00  0.00    -0.200 F 
ENDBRANCH  58  81
ENDBRANCH  32  33
ENDBRANCH  24  27
ENDBRANCH  22  23
ENDBRANCH  21  22
ENDBRANCH   1  21
TORSDOF 13
