REMARK SMILES Cc1cc(Cl)cc2c1O[C@H](C(F)(F)F)C(C(=O)NCCCNC(=O)c1ccc(-c3c4nc(c(-c5c(F)c(F)c(F)c(F)c5F)c5ccc([nH]5)c(-c5c(F)c(F)c(F)c(F)c5F)c5nc(c(-c6c(F)c(F)c(F)c(F)c6F)c6ccc3[nH]6)C=C5)C=C4)cc1)=C2
REMARK SMILES IDX 20 1 19 2 18 3 16 4 17 5 15 7 1 8 2 9 3 10 8 11 4 12 7 13
REMARK SMILES IDX 9 14 5 15 6 16 88 17 10 18 11 19 12 20 13 21 14 22 21 23
REMARK SMILES IDX 22 24 23 25 24 27 25 28 26 29 87 30 27 31 86 32 28 33 29 34
REMARK SMILES IDX 30 35 80 36 31 37 85 38 79 39 81 40 32 41 84 42 78 43 77 44
REMARK SMILES IDX 33 46 65 47 45 48 64 49 46 50 49 51 63 52 82 53 47 54 48 55
REMARK SMILES IDX 62 57 83 58 50 59 34 60 35 61 43 62 36 63 37 64 41 65 44 66
REMARK SMILES IDX 38 67 39 68 42 69 40 70 66 71 67 72 75 73 68 74 69 75 73 76
REMARK SMILES IDX 76 77 70 78 71 79 74 80 72 81 51 82 52 83 60 84 53 85 54 86
REMARK SMILES IDX 58 87 61 88 55 89 56 90 59 91 57 92
REMARK H PARENT 18 6 22 26 81 45 49 56
REMARK Flexibility Score: inf
ROOT
ATOM      1  C   UNL     1       6.213  -4.154   3.244  1.00  0.00     0.042 C 
ENDROOT
BRANCH   1   2
ATOM      2  C   UNL     1       6.004  -4.401   1.758  1.00  0.00     0.118 C 
BRANCH   2   3
ATOM      3  N   UNL     1       5.055  -5.477   1.518  1.00  0.00    -0.352 N 
ATOM      4  C   UNL     1       3.783  -5.597   1.073  1.00  0.00     0.251 C 
ATOM      5  O   UNL     1       3.348  -6.752   1.030  1.00  0.00    -0.270 OA
ATOM      6  H   UNL     1       5.443  -6.354   1.739  1.00  0.00     0.163 HD
BRANCH   4   7
ATOM      7  C   UNL     1       2.914  -4.461   0.654  1.00  0.00     0.067 C 
ATOM      8  C   UNL     1       0.741   0.118  -0.144  1.00  0.00     0.048 C 
ATOM      9  C   UNL     1       0.328  -1.310  -0.357  1.00  0.00    -0.007 A 
ATOM     10  C   UNL     1      -0.918  -1.607  -0.921  1.00  0.00     0.027 A 
ATOM     11  C   UNL     1       1.152  -2.371   0.041  1.00  0.00     0.131 A 
ATOM     12  C   UNL     1      -1.312  -2.935  -1.096  1.00  0.00     0.042 A 
ATOM     13  C   UNL     1       0.763  -3.704  -0.137  1.00  0.00     0.019 A 
ATOM     14  O   UNL     1       2.328  -2.046   0.658  1.00  0.00    -0.475 OA
ATOM     15  Cl  UNL     1      -2.850  -3.280  -1.788  1.00  0.00    -0.084 Cl
ATOM     16  C   UNL     1      -0.478  -3.985  -0.710  1.00  0.00     0.032 A 
ATOM     17  C   UNL     1       1.651  -4.773   0.308  1.00  0.00     0.025 C 
ATOM     18  C   UNL     1       3.381  -3.038   0.577  1.00  0.00     0.314 C 
BRANCH  18  19
ATOM     19  C   UNL     1       4.256  -2.760  -0.661  1.00  0.00     0.429 C 
ATOM     20  F   UNL     1       4.966  -1.616  -0.486  1.00  0.00    -0.167 F 
ATOM     21  F   UNL     1       5.163  -3.740  -0.889  1.00  0.00    -0.167 F 
ATOM     22  F   UNL     1       3.536  -2.623  -1.795  1.00  0.00    -0.167 F 
ENDBRANCH  18  19
ENDBRANCH   4   7
ENDBRANCH   2   3
ENDBRANCH   1   2
BRANCH   1  23
ATOM     23  C   UNL     1       7.146  -5.184   3.864  1.00  0.00     0.118 C 
BRANCH  23  24
ATOM     24  N   UNL     1       8.493  -5.099   3.304  1.00  0.00    -0.352 N 
ATOM     25  C   UNL     1       9.646  -4.591   3.843  1.00  0.00     0.251 C 
ATOM     26  H   UNL     1       8.588  -5.465   2.395  1.00  0.00     0.163 HD
ATOM     27  O   UNL     1      10.608  -4.344   3.118  1.00  0.00    -0.269 OA
BRANCH  25  28
ATOM     28  C   UNL     1       9.732  -4.339   5.293  1.00  0.00     0.039 A 
ATOM     29  C   UNL     1      10.396  -3.200   5.755  1.00  0.00     0.014 A 
ATOM     30  C   UNL     1       9.173  -5.245   6.197  1.00  0.00     0.014 A 
ATOM     31  C   UNL     1      10.443  -2.943   7.125  1.00  0.00     0.010 A 
ATOM     32  C   UNL     1       9.126  -4.933   7.546  1.00  0.00     0.010 A 
ATOM     33  C   UNL     1       9.777  -3.790   8.026  1.00  0.00    -0.014 A 
BRANCH  33  34
ATOM     34  C   UNL     1       9.783  -3.524   9.483  1.00  0.00     0.031 A 
ATOM     35  C   UNL     1      10.424  -4.511  10.417  1.00  0.00     0.074 A 
ATOM     36  C   UNL     1       9.165  -2.427   9.961  1.00  0.00     0.049 A 
ATOM     37  N   UNL     1      10.484  -4.493  11.724  1.00  0.00    -0.248 NA
ATOM     38  C   UNL     1      11.056  -5.693   9.807  1.00  0.00     0.031 C 
ATOM     39  C   UNL     1       8.470  -1.427   9.148  1.00  0.00     0.029 A 
ATOM     40  N   UNL     1       9.021  -1.969  11.246  1.00  0.00    -0.354 N 
ATOM     41  C   UNL     1      11.149  -5.656  12.085  1.00  0.00     0.074 A 
ATOM     42  C   UNL     1      11.409  -6.396  10.872  1.00  0.00     0.031 C 
ATOM     43  C   UNL     1       8.008  -0.454   9.949  1.00  0.00     0.029 A 
ATOM     44  C   UNL     1       8.337  -0.781  11.333  1.00  0.00     0.049 A 
ATOM     45  H   UNL     1       9.374  -2.447  12.031  1.00  0.00     0.167 HD
ATOM     46  C   UNL     1      11.542  -6.052  13.317  1.00  0.00     0.037 A 
ATOM     47  C   UNL     1       8.015  -0.042  12.412  1.00  0.00     0.037 A 
ATOM     48  C   UNL     1      11.309  -5.292  14.515  1.00  0.00     0.049 A 
ATOM     49  C   UNL     1       8.445  -0.515  13.774  1.00  0.00     0.074 A 
ATOM     50  C   UNL     1      11.713  -5.575  15.806  1.00  0.00     0.029 A 
ATOM     51  N   UNL     1      10.609  -4.095  14.564  1.00  0.00    -0.354 N 
ATOM     52  N   UNL     1       9.132  -1.584  14.097  1.00  0.00    -0.248 NA
ATOM     53  C   UNL     1       8.058   0.319  14.920  1.00  0.00     0.031 C 
ATOM     54  C   UNL     1      11.215  -4.576  16.645  1.00  0.00     0.029 A 
ATOM     55  C   UNL     1      10.547  -3.641  15.870  1.00  0.00     0.049 A 
ATOM     56  H   UNL     1      10.216  -3.636  13.787  1.00  0.00     0.167 HD
ATOM     57  C   UNL     1       9.279  -1.541  15.477  1.00  0.00     0.074 A 
ATOM     58  C   UNL     1       8.624  -0.331  15.928  1.00  0.00     0.031 C 
ATOM     59  C   UNL     1       9.896  -2.427  16.296  1.00  0.00     0.037 A 
BRANCH  46  60
ATOM     60  C   UNL     1      12.287  -7.349  13.433  1.00  0.00     0.064 A 
ATOM     61  C   UNL     1      13.595  -7.488  12.942  1.00  0.00     0.173 A 
ATOM     62  C   UNL     1      11.715  -8.445  14.094  1.00  0.00     0.173 A 
ATOM     63  F   UNL     1      14.183  -6.475  12.289  1.00  0.00    -0.203 F 
ATOM     64  C   UNL     1      14.294  -8.682  13.094  1.00  0.00     0.198 A 
ATOM     65  C   UNL     1      12.430  -9.627  14.272  1.00  0.00     0.198 A 
ATOM     66  F   UNL     1      10.469  -8.365  14.585  1.00  0.00    -0.203 F 
ATOM     67  F   UNL     1      15.527  -8.804  12.581  1.00  0.00    -0.200 F 
ATOM     68  C   UNL     1      13.716  -9.746  13.768  1.00  0.00     0.200 A 
ATOM     69  F   UNL     1      11.874 -10.651  14.936  1.00  0.00    -0.200 F 
ATOM     70  F   UNL     1      14.398 -10.889  13.929  1.00  0.00    -0.200 F 
ENDBRANCH  46  60
BRANCH  47  71
ATOM     71  C   UNL     1       7.283   1.240  12.235  1.00  0.00     0.064 A 
ATOM     72  C   UNL     1       7.917   2.467  12.477  1.00  0.00     0.173 A 
ATOM     73  C   UNL     1       5.951   1.271  11.796  1.00  0.00     0.173 A 
ATOM     74  F   UNL     1       9.185   2.489  12.914  1.00  0.00    -0.203 F 
ATOM     75  C   UNL     1       7.245   3.674  12.297  1.00  0.00     0.198 A 
ATOM     76  C   UNL     1       5.288   2.480  11.589  1.00  0.00     0.198 A 
ATOM     77  F   UNL     1       5.300   0.126  11.543  1.00  0.00    -0.203 F 
ATOM     78  F   UNL     1       7.865   4.830  12.569  1.00  0.00    -0.200 F 
ATOM     79  C   UNL     1       5.934   3.680  11.845  1.00  0.00     0.200 A 
ATOM     80  F   UNL     1       4.028   2.481  11.135  1.00  0.00    -0.200 F 
ATOM     81  F   UNL     1       5.292   4.841  11.659  1.00  0.00    -0.200 F 
ENDBRANCH  47  71
BRANCH  59  82
ATOM     82  C   UNL     1       9.910  -2.126  17.765  1.00  0.00     0.064 A 
ATOM     83  C   UNL     1       8.754  -2.258  18.548  1.00  0.00     0.173 A 
ATOM     84  C   UNL     1      11.112  -1.802  18.413  1.00  0.00     0.173 A 
ATOM     85  F   UNL     1       7.579  -2.555  17.972  1.00  0.00    -0.203 F 
ATOM     86  C   UNL     1       8.800  -2.069  19.926  1.00  0.00     0.198 A 
ATOM     87  C   UNL     1      11.160  -1.644  19.795  1.00  0.00     0.198 A 
ATOM     88  F   UNL     1      12.247  -1.675  17.709  1.00  0.00    -0.203 F 
ATOM     89  F   UNL     1       7.678  -2.173  20.652  1.00  0.00    -0.200 F 
ATOM     90  C   UNL     1      10.004  -1.776  20.549  1.00  0.00     0.200 A 
ATOM     91  F   UNL     1      12.328  -1.381  20.398  1.00  0.00    -0.200 F 
ATOM     92  F   UNL     1      10.050  -1.620  21.880  1.00  0.00    -0.200 F 
ENDBRANCH  59  82
ENDBRANCH  33  34
ENDBRANCH  25  28
ENDBRANCH  23  24
ENDBRANCH   1  23
TORSDOF 11
