REMARK SMILES COc1ccc(-n2c(=O)[nH]c3cc(C(=O)NCCCNC(=O)c4ccc(-c5c6nc(c(-c7c(F)c(F)c(F)c(F)c7F)c7ccc([nH]7)c(-c7c(F)c(F)c(F)c(F)c7F)c7nc(c(-c8c(F)c(F)c(F)c(F)c8F)c8ccc5[nH]8)C=C7)C=C6)cc4)ccc3c2=O)cc1
REMARK SMILES IDX 18 1 17 2 16 3 14 4 15 5 13 7 7 8 8 9 89 10 9 11 10 12 88 13
REMARK SMILES IDX 90 14 11 15 87 17 12 18 86 19 6 20 3 21 4 22 92 23 5 24
REMARK SMILES IDX 91 25 2 26 1 27 19 28 20 29 21 30 22 32 23 33 24 34 85 35
REMARK SMILES IDX 25 36 84 37 26 38 27 39 28 40 78 41 29 42 83 43 77 44 79 45
REMARK SMILES IDX 30 46 82 47 76 48 75 49 31 51 63 52 43 53 62 54 44 55 47 56
REMARK SMILES IDX 61 57 80 58 45 59 46 60 60 62 81 63 48 64 32 65 33 66 41 67
REMARK SMILES IDX 34 68 35 69 39 70 42 71 36 72 37 73 40 74 38 75 64 76 65 77
REMARK SMILES IDX 73 78 66 79 67 80 71 81 74 82 68 83 69 84 72 85 70 86 49 87
REMARK SMILES IDX 50 88 58 89 51 90 52 91 56 92 59 93 53 94 54 95 57 96 55 97
REMARK H PARENT 16 6 10 16 20 31 79 50 47 61
REMARK Flexibility Score: inf
ROOT
ATOM      1  C   UNL     1      -0.229  14.674  -1.859  1.00  0.00     0.042 C 
ENDROOT
BRANCH   1   2
ATOM      2  C   UNL     1      -0.146  13.487  -2.801  1.00  0.00     0.118 C 
BRANCH   2   3
ATOM      3  N   UNL     1       1.183  13.303  -3.366  1.00  0.00    -0.352 N 
ATOM      4  C   UNL     1       2.056  12.247  -3.334  1.00  0.00     0.251 C 
ATOM      5  O   UNL     1       3.193  12.418  -3.772  1.00  0.00    -0.269 OA
ATOM      6  H   UNL     1       1.517  14.083  -3.864  1.00  0.00     0.163 HD
BRANCH   4   7
ATOM      7  C   UNL     1       1.688  10.916  -2.789  1.00  0.00     0.041 A 
ATOM      8  N   UNL     1       1.899   6.131  -1.268  1.00  0.00    -0.228 N 
ATOM      9  C   UNL     1       3.223   6.590  -1.224  1.00  0.00     0.333 A 
ATOM     10  C   UNL     1       0.839   7.047  -1.254  1.00  0.00     0.268 A 
ATOM     11  O   UNL     1       4.238   5.932  -0.998  1.00  0.00    -0.247 OA
ATOM     12  N   UNL     1       3.428   7.926  -1.482  1.00  0.00    -0.306 N 
ATOM     13  C   UNL     1       1.114   8.382  -1.790  1.00  0.00     0.064 A 
ATOM     14  O   UNL     1      -0.291   6.868  -0.801  1.00  0.00    -0.268 OA
ATOM     15  C   UNL     1       2.425   8.811  -1.849  1.00  0.00     0.056 A 
ATOM     16  H   UNL     1       4.345   8.277  -1.400  1.00  0.00     0.171 HD
ATOM     17  C   UNL     1       0.079   9.181  -2.269  1.00  0.00     0.017 A 
ATOM     18  C   UNL     1       2.722  10.094  -2.306  1.00  0.00     0.040 A 
ATOM     19  C   UNL     1       0.381  10.417  -2.831  1.00  0.00     0.015 A 
BRANCH   8  20
ATOM     20  C   UNL     1       1.573   4.713  -1.224  1.00  0.00     0.054 A 
ATOM     21  C   UNL     1       0.851   1.958  -1.154  1.00  0.00     0.119 A 
ATOM     22  C   UNL     1      -0.068   2.909  -1.568  1.00  0.00     0.048 A 
ATOM     23  C   UNL     1       2.143   2.359  -0.837  1.00  0.00     0.048 A 
ATOM     24  C   UNL     1       0.291   4.261  -1.604  1.00  0.00     0.031 A 
ATOM     25  C   UNL     1       2.496   3.718  -0.871  1.00  0.00     0.031 A 
BRANCH  21  26
ATOM     26  O   UNL     1       0.415   0.663  -1.140  1.00  0.00    -0.497 OA
ATOM     27  C   UNL     1       0.897  -0.094  -0.033  1.00  0.00     0.278 C 
ENDBRANCH  21  26
ENDBRANCH   8  20
ENDBRANCH   4   7
ENDBRANCH   2   3
ENDBRANCH   1   2
BRANCH   1  28
ATOM     28  C   UNL     1       0.058  16.012  -2.515  1.00  0.00     0.118 C 
BRANCH  28  29
ATOM     29  N   UNL     1      -0.921  16.366  -3.536  1.00  0.00    -0.352 N 
ATOM     30  C   UNL     1      -1.923  17.306  -3.529  1.00  0.00     0.251 C 
ATOM     31  H   UNL     1      -0.852  15.844  -4.368  1.00  0.00     0.163 HD
ATOM     32  O   UNL     1      -2.765  17.303  -4.421  1.00  0.00    -0.269 OA
BRANCH  30  33
ATOM     33  C   UNL     1      -2.010  18.303  -2.439  1.00  0.00     0.039 A 
ATOM     34  C   UNL     1      -3.267  18.661  -1.942  1.00  0.00     0.014 A 
ATOM     35  C   UNL     1      -0.863  18.895  -1.912  1.00  0.00     0.014 A 
ATOM     36  C   UNL     1      -3.360  19.547  -0.865  1.00  0.00     0.010 A 
ATOM     37  C   UNL     1      -0.949  19.676  -0.766  1.00  0.00     0.010 A 
ATOM     38  C   UNL     1      -2.199  20.024  -0.237  1.00  0.00    -0.014 A 
BRANCH  38  39
ATOM     39  C   UNL     1      -2.261  20.902   0.961  1.00  0.00     0.031 A 
ATOM     40  C   UNL     1      -1.638  22.272   0.919  1.00  0.00     0.074 A 
ATOM     41  C   UNL     1      -2.799  20.435   2.105  1.00  0.00     0.049 A 
ATOM     42  N   UNL     1      -1.494  23.146   1.884  1.00  0.00    -0.248 NA
ATOM     43  C   UNL     1      -1.065  22.706  -0.367  1.00  0.00     0.031 C 
ATOM     44  C   UNL     1      -3.376  19.102   2.290  1.00  0.00     0.029 A 
ATOM     45  N   UNL     1      -2.931  21.024   3.339  1.00  0.00    -0.354 N 
ATOM     46  C   UNL     1      -0.792  24.209   1.329  1.00  0.00     0.074 A 
ATOM     47  C   UNL     1      -0.493  23.855  -0.039  1.00  0.00     0.031 C 
ATOM     48  C   UNL     1      -3.815  18.982   3.553  1.00  0.00     0.029 A 
ATOM     49  C   UNL     1      -3.511  20.209   4.281  1.00  0.00     0.049 A 
ATOM     50  H   UNL     1      -2.638  21.945   3.530  1.00  0.00     0.167 HD
ATOM     51  C   UNL     1      -0.450  25.385   1.905  1.00  0.00     0.037 A 
ATOM     52  C   UNL     1      -3.754  20.421   5.589  1.00  0.00     0.037 A 
ATOM     53  C   UNL     1      -0.795  25.753   3.252  1.00  0.00     0.049 A 
ATOM     54  C   UNL     1      -3.383  21.749   6.194  1.00  0.00     0.074 A 
ATOM     55  C   UNL     1      -0.581  26.958   3.897  1.00  0.00     0.029 A 
ATOM     56  N   UNL     1      -1.425  24.917   4.162  1.00  0.00    -0.354 N 
ATOM     57  N   UNL     1      -2.804  22.783   5.632  1.00  0.00    -0.248 NA
ATOM     58  C   UNL     1      -3.707  21.946   7.614  1.00  0.00     0.031 C 
ATOM     59  C   UNL     1      -1.023  26.831   5.216  1.00  0.00     0.029 A 
ATOM     60  C   UNL     1      -1.577  25.571   5.373  1.00  0.00     0.049 A 
ATOM     61  H   UNL     1      -1.720  23.997   3.974  1.00  0.00     0.167 HD
ATOM     62  C   UNL     1      -2.726  23.759   6.616  1.00  0.00     0.074 A 
ATOM     63  C   UNL     1      -3.333  23.202   7.806  1.00  0.00     0.031 C 
ATOM     64  C   UNL     1      -2.198  25.005   6.543  1.00  0.00     0.037 A 
BRANCH  51  65
ATOM     65  C   UNL     1       0.335  26.372   1.088  1.00  0.00     0.064 A 
ATOM     66  C   UNL     1      -0.236  27.058   0.006  1.00  0.00     0.173 A 
ATOM     67  C   UNL     1       1.655  26.689   1.443  1.00  0.00     0.173 A 
ATOM     68  F   UNL     1      -1.490  26.785  -0.382  1.00  0.00    -0.203 F 
ATOM     69  C   UNL     1       0.492  28.013  -0.700  1.00  0.00     0.198 A 
ATOM     70  C   UNL     1       2.368  27.666   0.755  1.00  0.00     0.198 A 
ATOM     71  F   UNL     1       2.248  26.064   2.472  1.00  0.00    -0.203 F 
ATOM     72  F   UNL     1      -0.062  28.629  -1.754  1.00  0.00    -0.200 F 
ATOM     73  C   UNL     1       1.788  28.324  -0.319  1.00  0.00     0.200 A 
ATOM     74  F   UNL     1       3.615  27.977   1.135  1.00  0.00    -0.200 F 
ATOM     75  F   UNL     1       2.479  29.258  -0.987  1.00  0.00    -0.200 F 
ENDBRANCH  51  65
BRANCH  52  76
ATOM     76  C   UNL     1      -4.379  19.356   6.420  1.00  0.00     0.064 A 
ATOM     77  C   UNL     1      -5.662  19.519   6.963  1.00  0.00     0.173 A 
ATOM     78  C   UNL     1      -3.695  18.168   6.717  1.00  0.00     0.173 A 
ATOM     79  F   UNL     1      -6.352  20.644   6.723  1.00  0.00    -0.203 F 
ATOM     80  C   UNL     1      -6.219  18.555   7.801  1.00  0.00     0.198 A 
ATOM     81  C   UNL     1      -4.267  17.188   7.526  1.00  0.00     0.198 A 
ATOM     82  F   UNL     1      -2.468  17.956   6.217  1.00  0.00    -0.203 F 
ATOM     83  F   UNL     1      -7.418  18.768   8.360  1.00  0.00    -0.200 F 
ATOM     84  C   UNL     1      -5.522  17.388   8.079  1.00  0.00     0.200 A 
ATOM     85  F   UNL     1      -3.598  16.055   7.777  1.00  0.00    -0.200 F 
ATOM     86  F   UNL     1      -6.056  16.463   8.888  1.00  0.00    -0.200 F 
ENDBRANCH  52  76
BRANCH  64  87
ATOM     87  C   UNL     1      -2.294  25.870   7.766  1.00  0.00     0.064 A 
ATOM     88  C   UNL     1      -1.539  25.608   8.919  1.00  0.00     0.173 A 
ATOM     89  C   UNL     1      -3.121  27.005   7.766  1.00  0.00     0.173 A 
ATOM     90  F   UNL     1      -0.743  24.530   8.975  1.00  0.00    -0.203 F 
ATOM     91  C   UNL     1      -1.631  26.434  10.037  1.00  0.00     0.198 A 
ATOM     92  C   UNL     1      -3.183  27.847   8.871  1.00  0.00     0.198 A 
ATOM     93  F   UNL     1      -3.856  27.306   6.685  1.00  0.00    -0.203 F 
ATOM     94  F   UNL     1      -0.942  26.134  11.146  1.00  0.00    -0.200 F 
ATOM     95  C   UNL     1      -2.446  27.556  10.009  1.00  0.00     0.200 A 
ATOM     96  F   UNL     1      -3.955  28.942   8.835  1.00  0.00    -0.200 F 
ATOM     97  F   UNL     1      -2.524  28.355  11.082  1.00  0.00    -0.200 F 
ENDBRANCH  64  87
ENDBRANCH  38  39
ENDBRANCH  30  33
ENDBRANCH  28  29
ENDBRANCH   1  28
TORSDOF 12
