REMARK SMILES Cc1nc(-c2ccc3c(c2)CCN3S(=O)(=O)c2ccc(F)c(C(=O)NCCCNC(=O)c3ccc(-c4c5nc(c(-c6c(F)c(F)c(F)c(F)c6F)c6ccc([nH]6)c(-c6c(F)c(F)c(F)c(F)c6F)c6nc(c(-c7c(F)c(F)c(F)c(F)c7F)c7ccc4[nH]7)C=C6)C=C5)cc3)c2)cs1
REMARK SMILES IDX 26 1 25 2 23 3 24 4 22 6 17 7 18 8 95 9 19 10 20 11 21 12
REMARK SMILES IDX 14 13 15 14 16 15 13 16 5 17 6 18 10 19 7 20 9 21 8 22 11 23
REMARK SMILES IDX 12 24 4 25 1 26 2 27 3 28 97 29 96 30 27 31 28 32 29 33
REMARK SMILES IDX 30 34 31 36 32 37 33 38 94 39 34 40 93 41 35 42 36 43 37 44
REMARK SMILES IDX 87 45 38 46 92 47 86 48 88 49 39 50 91 51 85 52 84 53 40 55
REMARK SMILES IDX 72 56 52 57 71 58 53 59 56 60 70 61 89 62 54 63 55 64 69 66
REMARK SMILES IDX 90 67 57 68 41 69 42 70 50 71 43 72 44 73 48 74 51 75 45 76
REMARK SMILES IDX 46 77 49 78 47 79 73 80 74 81 82 82 75 83 76 84 80 85 83 86
REMARK SMILES IDX 77 87 78 88 81 89 79 90 58 91 59 92 67 93 60 94 61 95 65 96
REMARK SMILES IDX 68 97 62 98 63 99 66 100 64 101
REMARK H PARENT 25 5 29 35 88 54 56 65
REMARK Flexibility Score: inf
ROOT
ATOM      1  C   UNL     1      -0.689  -7.855  -5.399  1.00  0.00     0.118 C 
ENDROOT
BRANCH   1   2
ATOM      2  N   UNL     1      -0.072  -8.749  -4.439  1.00  0.00    -0.352 N 
ATOM      3  C   UNL     1       1.048  -8.710  -3.658  1.00  0.00     0.254 C 
ATOM      4  O   UNL     1       1.173  -9.669  -2.889  1.00  0.00    -0.269 OA
ATOM      5  H   UNL     1      -0.582  -9.582  -4.322  1.00  0.00     0.163 HD
BRANCH   3   6
ATOM      6  C   UNL     1       2.098  -7.649  -3.620  1.00  0.00     0.076 A 
ATOM      7  C   UNL     1       4.035  -6.796  -2.387  1.00  0.00     0.089 A 
ATOM      8  C   UNL     1       4.218  -5.785  -3.332  1.00  0.00     0.025 A 
ATOM      9  C   UNL     1       3.012  -7.740  -2.542  1.00  0.00     0.039 A 
ATOM     10  C   UNL     1       3.325  -5.680  -4.388  1.00  0.00     0.041 A 
ATOM     11  C   UNL     1       2.287  -6.608  -4.535  1.00  0.00     0.136 A 
ATOM     12  F   UNL     1       1.529  -6.448  -5.622  1.00  0.00    -0.206 F 
BRANCH   7  13
ATOM     13  S   UNL     1       5.124  -6.838  -0.989  1.00  0.00     0.264 S 
ATOM     14  O   UNL     1       6.349  -6.192  -1.415  1.00  0.00    -0.201 OA
ATOM     15  O   UNL     1       5.166  -8.203  -0.500  1.00  0.00    -0.201 OA
BRANCH  13  16
ATOM     16  N   UNL     1       4.412  -5.887   0.238  1.00  0.00    -0.266 N 
ATOM     17  C   UNL     1       2.079  -2.375   0.065  1.00  0.00     0.001 A 
ATOM     18  C   UNL     1       1.771  -3.410  -0.830  1.00  0.00     0.012 A 
ATOM     19  C   UNL     1       3.133  -2.546   0.972  1.00  0.00     0.016 A 
ATOM     20  C   UNL     1       2.512  -4.595  -0.843  1.00  0.00     0.028 A 
ATOM     21  C   UNL     1       3.869  -3.730   0.929  1.00  0.00    -0.021 A 
ATOM     22  C   UNL     1       3.612  -4.723  -0.015  1.00  0.00     0.055 A 
ATOM     23  C   UNL     1       4.862  -4.204   1.943  1.00  0.00     0.060 C 
ATOM     24  C   UNL     1       5.421  -5.473   1.285  1.00  0.00     0.140 C 
BRANCH  17  25
ATOM     25  C   UNL     1       1.213  -1.208   0.096  1.00  0.00     0.081 A 
ATOM     26  C   UNL     1      -2.216   0.033  -0.010  1.00  0.00     0.079 C 
ATOM     27  C   UNL     1      -0.743  -0.174   0.041  1.00  0.00     0.090 A 
ATOM     28  N   UNL     1      -0.161  -1.352  -0.015  1.00  0.00    -0.242 NA
ATOM     29  S   UNL     1       0.321   1.168   0.174  1.00  0.00    -0.127 S 
ATOM     30  C   UNL     1       1.660   0.093   0.191  1.00  0.00     0.095 A 
ENDBRANCH  17  25
ENDBRANCH  13  16
ENDBRANCH   7  13
ENDBRANCH   3   6
ENDBRANCH   1   2
BRANCH   1  31
ATOM     31  C   UNL     1      -0.364  -8.265  -6.836  1.00  0.00     0.042 C 
BRANCH  31  32
ATOM     32  C   UNL     1      -1.252  -9.403  -7.346  1.00  0.00     0.118 C 
BRANCH  32  33
ATOM     33  N   UNL     1      -2.658  -9.009  -7.427  1.00  0.00    -0.352 N 
ATOM     34  C   UNL     1      -3.465  -8.781  -8.512  1.00  0.00     0.251 C 
ATOM     35  H   UNL     1      -3.099  -8.888  -6.556  1.00  0.00     0.163 HD
ATOM     36  O   UNL     1      -4.533  -8.194  -8.366  1.00  0.00    -0.269 OA
BRANCH  34  37
ATOM     37  C   UNL     1      -3.057  -9.234  -9.856  1.00  0.00     0.039 A 
ATOM     38  C   UNL     1      -3.296  -8.406 -10.957  1.00  0.00     0.014 A 
ATOM     39  C   UNL     1      -2.469 -10.487 -10.035  1.00  0.00     0.014 A 
ATOM     40  C   UNL     1      -2.865  -8.801 -12.225  1.00  0.00     0.010 A 
ATOM     41  C   UNL     1      -1.965 -10.842 -11.280  1.00  0.00     0.010 A 
ATOM     42  C   UNL     1      -2.150  -9.999 -12.386  1.00  0.00    -0.014 A 
BRANCH  42  43
ATOM     43  C   UNL     1      -1.559 -10.382 -13.691  1.00  0.00     0.031 A 
ATOM     44  C   UNL     1      -1.995 -11.644 -14.378  1.00  0.00     0.074 A 
ATOM     45  C   UNL     1      -0.565  -9.634 -14.209  1.00  0.00     0.049 A 
ATOM     46  N   UNL     1      -1.514 -12.205 -15.458  1.00  0.00    -0.248 NA
ATOM     47  C   UNL     1      -3.099 -12.392 -13.754  1.00  0.00     0.031 C 
ATOM     48  C   UNL     1      -0.032  -8.409 -13.611  1.00  0.00     0.029 A 
ATOM     49  N   UNL     1       0.185  -9.800 -15.347  1.00  0.00    -0.354 N 
ATOM     50  C   UNL     1      -2.246 -13.371 -15.634  1.00  0.00     0.074 A 
ATOM     51  C   UNL     1      -3.166 -13.469 -14.523  1.00  0.00     0.031 C 
ATOM     52  C   UNL     1       0.939  -7.920 -14.398  1.00  0.00     0.029 A 
ATOM     53  C   UNL     1       1.135  -8.823 -15.528  1.00  0.00     0.049 A 
ATOM     54  H   UNL     1       0.055 -10.547 -15.974  1.00  0.00     0.167 HD
ATOM     55  C   UNL     1      -2.171 -14.263 -16.649  1.00  0.00     0.037 A 
ATOM     56  C   UNL     1       2.071  -8.680 -16.486  1.00  0.00     0.037 A 
ATOM     57  C   UNL     1      -1.270 -14.142 -17.763  1.00  0.00     0.049 A 
ATOM     58  C   UNL     1       2.155  -9.705 -17.584  1.00  0.00     0.074 A 
ATOM     59  C   UNL     1      -1.160 -14.962 -18.872  1.00  0.00     0.029 A 
ATOM     60  N   UNL     1      -0.322 -13.140 -17.909  1.00  0.00    -0.354 N 
ATOM     61  N   UNL     1       1.418 -10.772 -17.773  1.00  0.00    -0.248 NA
ATOM     62  C   UNL     1       3.201  -9.511 -18.598  1.00  0.00     0.031 C 
ATOM     63  C   UNL     1      -0.107 -14.492 -19.659  1.00  0.00     0.029 A 
ATOM     64  C   UNL     1       0.400 -13.341 -19.075  1.00  0.00     0.049 A 
ATOM     65  H   UNL     1      -0.182 -12.397 -17.279  1.00  0.00     0.167 HD
ATOM     66  C   UNL     1       1.893 -11.364 -18.935  1.00  0.00     0.074 A 
ATOM     67  C   UNL     1       2.974 -10.530 -19.417  1.00  0.00     0.031 C 
ATOM     68  C   UNL     1       1.469 -12.497 -19.545  1.00  0.00     0.037 A 
BRANCH  55  69
ATOM     69  C   UNL     1      -3.096 -15.446 -16.619  1.00  0.00     0.064 A 
ATOM     70  C   UNL     1      -2.587 -16.744 -16.464  1.00  0.00     0.173 A 
ATOM     71  C   UNL     1      -4.476 -15.304 -16.829  1.00  0.00     0.173 A 
ATOM     72  F   UNL     1      -1.274 -16.938 -16.267  1.00  0.00    -0.203 F 
ATOM     73  C   UNL     1      -3.422 -17.856 -16.540  1.00  0.00     0.198 A 
ATOM     74  C   UNL     1      -5.312 -16.415 -16.872  1.00  0.00     0.198 A 
ATOM     75  F   UNL     1      -5.015 -14.084 -16.973  1.00  0.00    -0.203 F 
ATOM     76  F   UNL     1      -2.906 -19.088 -16.430  1.00  0.00    -0.200 F 
ATOM     77  C   UNL     1      -4.784 -17.691 -16.741  1.00  0.00     0.200 A 
ATOM     78  F   UNL     1      -6.632 -16.252 -17.042  1.00  0.00    -0.200 F 
ATOM     79  F   UNL     1      -5.587 -18.761 -16.807  1.00  0.00    -0.200 F 
ENDBRANCH  55  69
BRANCH  56  80
ATOM     80  C   UNL     1       2.980  -7.505 -16.454  1.00  0.00     0.064 A 
ATOM     81  C   UNL     1       3.948  -7.352 -15.450  1.00  0.00     0.173 A 
ATOM     82  C   UNL     1       2.869  -6.486 -17.411  1.00  0.00     0.173 A 
ATOM     83  F   UNL     1       4.091  -8.295 -14.506  1.00  0.00    -0.203 F 
ATOM     84  C   UNL     1       4.751  -6.215 -15.389  1.00  0.00     0.198 A 
ATOM     85  C   UNL     1       3.693  -5.363 -17.367  1.00  0.00     0.198 A 
ATOM     86  F   UNL     1       1.972  -6.594 -18.402  1.00  0.00    -0.203 F 
ATOM     87  F   UNL     1       5.637  -6.075 -14.394  1.00  0.00    -0.200 F 
ATOM     88  C   UNL     1       4.626  -5.224 -16.350  1.00  0.00     0.200 A 
ATOM     89  F   UNL     1       3.585  -4.419 -18.311  1.00  0.00    -0.200 F 
ATOM     90  F   UNL     1       5.405  -4.135 -16.298  1.00  0.00    -0.200 F 
ENDBRANCH  56  80
BRANCH  68  91
ATOM     91  C   UNL     1       2.154 -12.911 -20.815  1.00  0.00     0.064 A 
ATOM     92  C   UNL     1       1.465 -12.868 -22.037  1.00  0.00     0.173 A 
ATOM     93  C   UNL     1       3.444 -13.457 -20.804  1.00  0.00     0.173 A 
ATOM     94  F   UNL     1       0.224 -12.362 -22.098  1.00  0.00    -0.203 F 
ATOM     95  C   UNL     1       2.033 -13.387 -23.197  1.00  0.00     0.198 A 
ATOM     96  C   UNL     1       4.021 -13.947 -21.973  1.00  0.00     0.198 A 
ATOM     97  F   UNL     1       4.147 -13.508 -19.663  1.00  0.00    -0.203 F 
ATOM     98  F   UNL     1       1.337 -13.383 -24.342  1.00  0.00    -0.200 F 
ATOM     99  C   UNL     1       3.310 -13.925 -23.164  1.00  0.00     0.200 A 
ATOM    100  F   UNL     1       5.264 -14.448 -21.945  1.00  0.00    -0.200 F 
ATOM    101  F   UNL     1       3.856 -14.427 -24.280  1.00  0.00    -0.200 F 
ENDBRANCH  68  91
ENDBRANCH  42  43
ENDBRANCH  34  37
ENDBRANCH  32  33
ENDBRANCH  31  32
ENDBRANCH   1  31
TORSDOF 13
