REMARK SMILES CC[C@](C)(C(=O)NCCCNC(=O)c1ccc(-c2c3nc(c(-c4c(F)c(F)c(F)c(F)c4F)c4ccc([nH]4)c(-c4c(F)c(F)c(F)c(F)c4F)c4nc(c(-c5c(F)c(F)c(F)c(F)c5F)c5ccc2[nH]5)C=C4)C=C3)cc1)n1nnnc1-c1ccco1
REMARK SMILES IDX 9 1 8 2 7 3 5 4 6 5 3 7 4 8 2 9 1 10 77 11 78 12 81 13 79 14
REMARK SMILES IDX 80 15 82 16 83 17 86 18 84 19 85 20 10 21 11 22 12 23 13 25
REMARK SMILES IDX 14 26 15 27 76 28 16 29 75 30 17 31 18 32 19 33 69 34 20 35
REMARK SMILES IDX 74 36 68 37 70 38 21 39 73 40 67 41 66 42 22 44 54 45 34 46
REMARK SMILES IDX 53 47 35 48 38 49 52 50 71 51 36 52 37 53 51 55 72 56 39 57
REMARK SMILES IDX 23 58 24 59 32 60 25 61 26 62 30 63 33 64 27 65 28 66 31 67
REMARK SMILES IDX 29 68 55 69 56 70 64 71 57 72 58 73 62 74 65 75 59 76 60 77
REMARK SMILES IDX 63 78 61 79 40 80 41 81 49 82 42 83 43 84 47 85 50 86 44 87
REMARK SMILES IDX 45 88 48 89 46 90
REMARK H PARENT 7 6 11 24 70 43 38 54
REMARK Flexibility Score: inf
ROOT
ATOM      1  C   UNL     1      -2.926   2.143   2.006  1.00  0.00     0.042 C 
ENDROOT
BRANCH   1   2
ATOM      2  C   UNL     1      -2.048   3.117   1.226  1.00  0.00     0.117 C 
BRANCH   2   3
ATOM      3  N   UNL     1      -0.854   3.481   1.973  1.00  0.00    -0.354 N 
ATOM      4  C   UNL     1       0.445   3.058   1.934  1.00  0.00     0.247 C 
ATOM      5  O   UNL     1       1.108   3.373   2.927  1.00  0.00    -0.272 OA
ATOM      6  H   UNL     1      -1.015   4.178   2.649  1.00  0.00     0.163 HD
BRANCH   4   7
ATOM      7  C   UNL     1       1.032   2.193   0.777  1.00  0.00     0.142 C 
ATOM      8  C   UNL     1       0.330   0.825   0.864  1.00  0.00     0.048 C 
BRANCH   7   9
ATOM      9  C   UNL     1       0.768   2.878  -0.601  1.00  0.00     0.037 C 
ATOM     10  C   UNL     1       1.479   2.253  -1.800  1.00  0.00     0.007 C 
ENDBRANCH   7   9
BRANCH   7  11
ATOM     11  N   UNL     1       2.498   2.112   0.964  1.00  0.00    -0.207 N 
ATOM     12  N   UNL     1       3.224   3.260   0.904  1.00  0.00    -0.044 NA
ATOM     13  C   UNL     1       3.378   1.053   0.984  1.00  0.00     0.218 A 
ATOM     14  N   UNL     1       4.493   2.891   0.960  1.00  0.00    -0.023 NA
ATOM     15  N   UNL     1       4.606   1.529   0.994  1.00  0.00    -0.105 NA
BRANCH  13  16
ATOM     16  C   UNL     1       3.081  -0.338   0.934  1.00  0.00     0.172 A 
ATOM     17  C   UNL     1       2.854  -1.135  -0.178  1.00  0.00     0.054 A 
ATOM     18  O   UNL     1       2.949  -1.110   2.058  1.00  0.00    -0.461 OA
ATOM     19  C   UNL     1       2.527  -2.429   0.295  1.00  0.00     0.043 A 
ATOM     20  C   UNL     1       2.629  -2.367   1.663  1.00  0.00     0.196 A 
ENDBRANCH  13  16
ENDBRANCH   7  11
ENDBRANCH   4   7
ENDBRANCH   2   3
ENDBRANCH   1   2
BRANCH   1  21
ATOM     21  C   UNL     1      -3.638   2.779   3.190  1.00  0.00     0.118 C 
BRANCH  21  22
ATOM     22  N   UNL     1      -4.641   3.745   2.770  1.00  0.00    -0.352 N 
ATOM     23  C   UNL     1      -5.998   3.749   2.946  1.00  0.00     0.251 C 
ATOM     24  H   UNL     1      -4.286   4.521   2.279  1.00  0.00     0.163 HD
ATOM     25  O   UNL     1      -6.681   4.553   2.307  1.00  0.00    -0.269 OA
BRANCH  23  26
ATOM     26  C   UNL     1      -6.659   2.814   3.882  1.00  0.00     0.039 A 
ATOM     27  C   UNL     1      -7.941   2.348   3.571  1.00  0.00     0.014 A 
ATOM     28  C   UNL     1      -6.069   2.452   5.097  1.00  0.00     0.014 A 
ATOM     29  C   UNL     1      -8.616   1.512   4.462  1.00  0.00     0.010 A 
ATOM     30  C   UNL     1      -6.701   1.541   5.939  1.00  0.00     0.010 A 
ATOM     31  C   UNL     1      -7.997   1.093   5.649  1.00  0.00    -0.014 A 
BRANCH  31  32
ATOM     32  C   UNL     1      -8.721   0.256   6.638  1.00  0.00     0.031 A 
ATOM     33  C   UNL     1      -9.029   0.810   8.004  1.00  0.00     0.074 A 
ATOM     34  C   UNL     1      -9.068  -1.006   6.327  1.00  0.00     0.049 A 
ATOM     35  N   UNL     1      -9.610   0.231   9.024  1.00  0.00    -0.248 NA
ATOM     36  C   UNL     1      -8.593   2.191   8.271  1.00  0.00     0.031 C 
ATOM     37  C   UNL     1      -8.776  -1.675   5.059  1.00  0.00     0.029 A 
ATOM     38  N   UNL     1      -9.736  -1.954   7.059  1.00  0.00    -0.354 N 
ATOM     39  C   UNL     1      -9.591   1.166  10.051  1.00  0.00     0.074 A 
ATOM     40  C   UNL     1      -8.883   2.325   9.555  1.00  0.00     0.031 C 
ATOM     41  C   UNL     1      -9.283  -2.918   5.093  1.00  0.00     0.029 A 
ATOM     42  C   UNL     1      -9.912  -3.140   6.391  1.00  0.00     0.049 A 
ATOM     43  H   UNL     1     -10.060  -1.798   7.976  1.00  0.00     0.167 HD
ATOM     44  C   UNL     1     -10.141   1.082  11.286  1.00  0.00     0.037 A 
ATOM     45  C   UNL     1     -10.519  -4.277   6.784  1.00  0.00     0.037 A 
ATOM     46  C   UNL     1     -10.875  -0.058  11.764  1.00  0.00     0.049 A 
ATOM     47  C   UNL     1     -11.163  -4.332   8.142  1.00  0.00     0.074 A 
ATOM     48  C   UNL     1     -11.507  -0.233  12.982  1.00  0.00     0.029 A 
ATOM     49  N   UNL     1     -11.082  -1.221  11.035  1.00  0.00    -0.354 N 
ATOM     50  N   UNL     1     -11.188  -3.421   9.084  1.00  0.00    -0.248 NA
ATOM     51  C   UNL     1     -11.882  -5.567   8.483  1.00  0.00     0.031 C 
ATOM     52  C   UNL     1     -12.073  -1.513  13.001  1.00  0.00     0.029 A 
ATOM     53  C   UNL     1     -11.831  -2.118  11.778  1.00  0.00     0.049 A 
ATOM     54  H   UNL     1     -10.746  -1.384  10.124  1.00  0.00     0.167 HD
ATOM     55  C   UNL     1     -11.946  -3.957  10.115  1.00  0.00     0.074 A 
ATOM     56  C   UNL     1     -12.375  -5.269   9.677  1.00  0.00     0.031 C 
ATOM     57  C   UNL     1     -12.259  -3.414  11.317  1.00  0.00     0.037 A 
BRANCH  44  58
ATOM     58  C   UNL     1      -9.976   2.267  12.194  1.00  0.00     0.064 A 
ATOM     59  C   UNL     1     -10.626   3.485  11.938  1.00  0.00     0.173 A 
ATOM     60  C   UNL     1      -9.166   2.185  13.337  1.00  0.00     0.173 A 
ATOM     61  F   UNL     1     -11.399   3.621  10.850  1.00  0.00    -0.203 F 
ATOM     62  C   UNL     1     -10.439   4.587  12.768  1.00  0.00     0.198 A 
ATOM     63  C   UNL     1      -9.008   3.280  14.183  1.00  0.00     0.198 A 
ATOM     64  F   UNL     1      -8.526   1.044  13.633  1.00  0.00    -0.203 F 
ATOM     65  F   UNL     1     -11.020   5.756  12.466  1.00  0.00    -0.200 F 
ATOM     66  C   UNL     1      -9.636   4.482  13.893  1.00  0.00     0.200 A 
ATOM     67  F   UNL     1      -8.240   3.174  15.277  1.00  0.00    -0.200 F 
ATOM     68  F   UNL     1      -9.457   5.543  14.691  1.00  0.00    -0.200 F 
ENDBRANCH  44  58
BRANCH  45  69
ATOM     69  C   UNL     1     -10.586  -5.433   5.855  1.00  0.00     0.064 A 
ATOM     70  C   UNL     1     -11.794  -5.799   5.247  1.00  0.00     0.173 A 
ATOM     71  C   UNL     1      -9.444  -6.186   5.545  1.00  0.00     0.173 A 
ATOM     72  F   UNL     1     -12.916  -5.119   5.525  1.00  0.00    -0.203 F 
ATOM     73  C   UNL     1     -11.863  -6.886   4.378  1.00  0.00     0.198 A 
ATOM     74  C   UNL     1      -9.508  -7.256   4.656  1.00  0.00     0.198 A 
ATOM     75  F   UNL     1      -8.262  -5.869   6.093  1.00  0.00    -0.203 F 
ATOM     76  F   UNL     1     -13.038  -7.238   3.840  1.00  0.00    -0.200 F 
ATOM     77  C   UNL     1     -10.718  -7.610   4.078  1.00  0.00     0.200 A 
ATOM     78  F   UNL     1      -8.397  -7.943   4.356  1.00  0.00    -0.200 F 
ATOM     79  F   UNL     1     -10.783  -8.650   3.236  1.00  0.00    -0.200 F 
ENDBRANCH  45  69
BRANCH  57  80
ATOM     80  C   UNL     1     -13.141  -4.219  12.225  1.00  0.00     0.064 A 
ATOM     81  C   UNL     1     -12.671  -5.364  12.885  1.00  0.00     0.173 A 
ATOM     82  C   UNL     1     -14.466  -3.820  12.460  1.00  0.00     0.173 A 
ATOM     83  F   UNL     1     -11.416  -5.793  12.682  1.00  0.00    -0.203 F 
ATOM     84  C   UNL     1     -13.505  -6.097  13.725  1.00  0.00     0.198 A 
ATOM     85  C   UNL     1     -15.288  -4.539  13.322  1.00  0.00     0.198 A 
ATOM     86  F   UNL     1     -14.960  -2.728  11.857  1.00  0.00    -0.203 F 
ATOM     87  F   UNL     1     -13.051  -7.215  14.306  1.00  0.00    -0.200 F 
ATOM     88  C   UNL     1     -14.810  -5.681  13.947  1.00  0.00     0.200 A 
ATOM     89  F   UNL     1     -16.544  -4.130  13.545  1.00  0.00    -0.200 F 
ATOM     90  F   UNL     1     -15.610  -6.387  14.758  1.00  0.00    -0.200 F 
ENDBRANCH  57  80
ENDBRANCH  31  32
ENDBRANCH  23  26
ENDBRANCH  21  22
ENDBRANCH   1  21
TORSDOF 13
