REMARK SMILES CCOCCS(=O)(=O)NCC(=O)NCCCNC(=O)c1ccc(-c2c3nc(c(-c4c(F)c(F)c(F)c(F)c4F)c4ccc([nH]4)c(-c4c(F)c(F)c(F)c(F)c4F)c4nc(c(-c5c(F)c(F)c(F)c(F)c5F)c5ccc2[nH]5)C=C4)C=C3)cc1
REMARK SMILES IDX 11 1 12 2 13 3 10 5 9 6 6 8 7 9 8 10 5 11 4 12 3 13 2 14
REMARK SMILES IDX 1 15 14 16 15 17 16 18 17 19 18 20 19 22 20 23 21 24 82 25
REMARK SMILES IDX 22 26 81 27 23 28 24 29 25 30 75 31 26 32 80 33 74 34 76 35
REMARK SMILES IDX 27 36 79 37 73 38 72 39 28 41 60 42 40 43 59 44 41 45 44 46
REMARK SMILES IDX 58 47 77 48 42 49 43 50 57 52 78 53 45 54 29 55 30 56 38 57
REMARK SMILES IDX 31 58 32 59 36 60 39 61 33 62 34 63 37 64 35 65 61 66 62 67
REMARK SMILES IDX 70 68 63 69 64 70 68 71 71 72 65 73 66 74 69 75 67 76 46 77
REMARK SMILES IDX 47 78 55 79 48 80 49 81 53 82 56 83 50 84 51 85 54 86 52 87
REMARK H PARENT 13 4 9 7 17 21 76 40 44 51
REMARK Flexibility Score: inf
ROOT
ATOM      1  C   UNL     1       0.452  -1.641  -1.164  1.00  0.00     0.235 C 
ATOM      2  O   UNL     1      -0.230  -1.910  -2.166  1.00  0.00    -0.274 OA
ATOM      3  N   UNL     1       1.643  -1.062  -1.441  1.00  0.00    -0.355 N 
ATOM      4  H   UNL     1       1.798  -0.870  -2.394  1.00  0.00     0.163 HD
ENDROOT
BRANCH   1   5
ATOM      5  C   UNL     1      -0.187  -1.788   0.196  1.00  0.00     0.198 C 
BRANCH   5   6
ATOM      6  N   UNL     1       0.186  -2.023   1.597  1.00  0.00    -0.206 NA
ATOM      7  H   UNL     1       0.190  -1.094   2.017  1.00  0.00     0.141 HD
BRANCH   6   8
ATOM      8  S   UNL     1       1.534  -2.753   2.202  1.00  0.00     0.214 S 
ATOM      9  O   UNL     1       2.469  -3.021   1.137  1.00  0.00    -0.212 OA
ATOM     10  O   UNL     1       1.021  -3.848   2.993  1.00  0.00    -0.212 OA
BRANCH   8  11
ATOM     11  C   UNL     1       2.226  -1.573   3.367  1.00  0.00     0.182 C 
BRANCH  11  12
ATOM     12  C   UNL     1       2.386  -0.108   2.985  1.00  0.00     0.177 C 
BRANCH  12  13
ATOM     13  O   UNL     1       1.357   0.757   3.464  1.00  0.00    -0.381 OA
BRANCH  13  14
ATOM     14  C   UNL     1       0.260   1.044   2.604  1.00  0.00     0.156 C 
ATOM     15  C   UNL     1       0.628   1.747   1.308  1.00  0.00     0.035 C 
ENDBRANCH  13  14
ENDBRANCH  12  13
ENDBRANCH  11  12
ENDBRANCH   8  11
ENDBRANCH   6   8
ENDBRANCH   5   6
ENDBRANCH   1   5
BRANCH   3  16
ATOM     16  C   UNL     1       2.717  -0.683  -0.568  1.00  0.00     0.117 C 
BRANCH  16  17
ATOM     17  C   UNL     1       3.946  -1.555  -0.744  1.00  0.00     0.042 C 
BRANCH  17  18
ATOM     18  C   UNL     1       4.785  -1.128  -1.927  1.00  0.00     0.118 C 
BRANCH  18  19
ATOM     19  N   UNL     1       5.721  -0.063  -1.591  1.00  0.00    -0.352 N 
ATOM     20  C   UNL     1       7.094  -0.094  -1.498  1.00  0.00     0.251 C 
ATOM     21  H   UNL     1       5.309   0.811  -1.401  1.00  0.00     0.163 HD
ATOM     22  O   UNL     1       7.696   0.861  -1.016  1.00  0.00    -0.269 OA
BRANCH  20  23
ATOM     23  C   UNL     1       7.842  -1.295  -1.936  1.00  0.00     0.039 A 
ATOM     24  C   UNL     1       8.925  -1.743  -1.175  1.00  0.00     0.014 A 
ATOM     25  C   UNL     1       7.457  -2.004  -3.074  1.00  0.00     0.014 A 
ATOM     26  C   UNL     1       9.546  -2.951  -1.502  1.00  0.00     0.010 A 
ATOM     27  C   UNL     1       7.976  -3.270  -3.308  1.00  0.00     0.010 A 
ATOM     28  C   UNL     1       9.037  -3.756  -2.534  1.00  0.00    -0.014 A 
BRANCH  28  29
ATOM     29  C   UNL     1       9.604  -5.098  -2.833  1.00  0.00     0.031 A 
ATOM     30  C   UNL     1      10.138  -5.400  -4.210  1.00  0.00     0.074 A 
ATOM     31  C   UNL     1       9.571  -6.066  -1.894  1.00  0.00     0.049 A 
ATOM     32  N   UNL     1      10.598  -6.528  -4.692  1.00  0.00    -0.248 NA
ATOM     33  C   UNL     1      10.120  -4.301  -5.191  1.00  0.00     0.031 C 
ATOM     34  C   UNL     1       9.015  -5.922  -0.546  1.00  0.00     0.029 A 
ATOM     35  N   UNL     1      10.008  -7.367  -1.930  1.00  0.00    -0.354 N 
ATOM     36  C   UNL     1      10.895  -6.276  -6.026  1.00  0.00     0.074 A 
ATOM     37  C   UNL     1      10.507  -4.912  -6.299  1.00  0.00     0.031 C 
ATOM     38  C   UNL     1       9.178  -7.073   0.125  1.00  0.00     0.029 A 
ATOM     39  C   UNL     1       9.803  -8.053  -0.756  1.00  0.00     0.049 A 
ATOM     40  H   UNL     1      10.428  -7.772  -2.723  1.00  0.00     0.167 HD
ATOM     41  C   UNL     1      11.472  -7.099  -6.933  1.00  0.00     0.037 A 
ATOM     42  C   UNL     1      10.081  -9.330  -0.431  1.00  0.00     0.037 A 
ATOM     43  C   UNL     1      11.902  -8.440  -6.644  1.00  0.00     0.049 A 
ATOM     44  C   UNL     1      10.730 -10.218  -1.460  1.00  0.00     0.074 A 
ATOM     45  C   UNL     1      12.574  -9.325  -7.468  1.00  0.00     0.029 A 
ATOM     46  N   UNL     1      11.702  -9.089  -5.434  1.00  0.00    -0.354 N 
ATOM     47  N   UNL     1      11.091  -9.937  -2.689  1.00  0.00    -0.248 NA
ATOM     48  C   UNL     1      11.016 -11.602  -1.054  1.00  0.00     0.031 C 
ATOM     49  C   UNL     1      12.731 -10.530  -6.776  1.00  0.00     0.029 A 
ATOM     50  C   UNL     1      12.211 -10.375  -5.501  1.00  0.00     0.049 A 
ATOM     51  H   UNL     1      11.263  -8.694  -4.646  1.00  0.00     0.167 HD
ATOM     52  C   UNL     1      11.669 -11.095  -3.191  1.00  0.00     0.074 A 
ATOM     53  C   UNL     1      11.634 -12.075  -2.126  1.00  0.00     0.031 C 
ATOM     54  C   UNL     1      12.177 -11.331  -4.426  1.00  0.00     0.037 A 
BRANCH  41  55
ATOM     55  C   UNL     1      11.691  -6.572  -8.322  1.00  0.00     0.064 A 
ATOM     56  C   UNL     1      12.644  -5.577  -8.591  1.00  0.00     0.173 A 
ATOM     57  C   UNL     1      10.988  -7.117  -9.407  1.00  0.00     0.173 A 
ATOM     58  F   UNL     1      13.335  -5.014  -7.589  1.00  0.00    -0.203 F 
ATOM     59  C   UNL     1      12.870  -5.135  -9.892  1.00  0.00     0.198 A 
ATOM     60  C   UNL     1      11.239  -6.694 -10.710  1.00  0.00     0.198 A 
ATOM     61  F   UNL     1      10.068  -8.073  -9.206  1.00  0.00    -0.203 F 
ATOM     62  F   UNL     1      13.756  -4.155 -10.120  1.00  0.00    -0.200 F 
ATOM     63  C   UNL     1      12.176  -5.701 -10.951  1.00  0.00     0.200 A 
ATOM     64  F   UNL     1      10.578  -7.253 -11.733  1.00  0.00    -0.200 F 
ATOM     65  F   UNL     1      12.409  -5.287 -12.204  1.00  0.00    -0.200 F 
ENDBRANCH  41  55
BRANCH  42  66
ATOM     66  C   UNL     1       9.760  -9.852   0.926  1.00  0.00     0.064 A 
ATOM     67  C   UNL     1      10.778 -10.236   1.811  1.00  0.00     0.173 A 
ATOM     68  C   UNL     1       8.434 -10.016   1.353  1.00  0.00     0.173 A 
ATOM     69  F   UNL     1      12.063 -10.119   1.444  1.00  0.00    -0.203 F 
ATOM     70  C   UNL     1      10.483 -10.797   3.052  1.00  0.00     0.198 A 
ATOM     71  C   UNL     1       8.140 -10.544   2.609  1.00  0.00     0.198 A 
ATOM     72  F   UNL     1       7.421  -9.661   0.549  1.00  0.00    -0.203 F 
ATOM     73  F   UNL     1      11.476 -11.216   3.848  1.00  0.00    -0.200 F 
ATOM     74  C   UNL     1       9.164 -10.947   3.452  1.00  0.00     0.200 A 
ATOM     75  F   UNL     1       6.864 -10.673   2.997  1.00  0.00    -0.200 F 
ATOM     76  F   UNL     1       8.881 -11.491   4.643  1.00  0.00    -0.200 F 
ENDBRANCH  42  66
BRANCH  54  77
ATOM     77  C   UNL     1      12.767 -12.688  -4.679  1.00  0.00     0.064 A 
ATOM     78  C   UNL     1      11.963 -13.833  -4.778  1.00  0.00     0.173 A 
ATOM     79  C   UNL     1      14.149 -12.836  -4.867  1.00  0.00     0.173 A 
ATOM     80  F   UNL     1      10.637 -13.746  -4.594  1.00  0.00    -0.203 F 
ATOM     81  C   UNL     1      12.526 -15.082  -5.025  1.00  0.00     0.198 A 
ATOM     82  C   UNL     1      14.705 -14.081  -5.149  1.00  0.00     0.198 A 
ATOM     83  F   UNL     1      14.961 -11.771  -4.792  1.00  0.00    -0.203 F 
ATOM     84  F   UNL     1      11.746 -16.171  -5.061  1.00  0.00    -0.200 F 
ATOM     85  C   UNL     1      13.894 -15.204  -5.218  1.00  0.00     0.200 A 
ATOM     86  F   UNL     1      16.024 -14.193  -5.353  1.00  0.00    -0.200 F 
ATOM     87  F   UNL     1      14.433 -16.405  -5.464  1.00  0.00    -0.200 F 
ENDBRANCH  54  77
ENDBRANCH  28  29
ENDBRANCH  20  23
ENDBRANCH  18  19
ENDBRANCH  17  18
ENDBRANCH  16  17
ENDBRANCH   3  16
TORSDOF 16
