REMARK SMILES CC(C)(C)c1cc(NC(=O)CSC[C@H]([NH3+])C(=O)NCCCNC(=O)c2ccc(-c3c4nc(c(-c5c(F)c(F)c(F)c(F)c5F)c5ccc([nH]5)c(-c5c(F)c(F)c(F)c(F)c5F)c5nc(c(-c6c(F)c(F)c(F)c(F)c6F)c6ccc3[nH]6)C=C5)C=C4)cc2)on1
REMARK SMILES IDX 16 1 17 2 18 3 14 5 13 6 12 7 11 8 9 9 8 10 10 12 7 13 5 14
REMARK SMILES IDX 6 15 89 16 88 17 2 18 1 19 3 20 4 21 15 22 19 26 20 27 21 28
REMARK SMILES IDX 22 29 23 30 24 32 25 33 26 34 87 35 27 36 86 37 28 38 29 39
REMARK SMILES IDX 30 40 80 41 31 42 85 43 79 44 81 45 32 46 84 47 78 48 77 49
REMARK SMILES IDX 33 51 65 52 45 53 64 54 46 55 49 56 63 57 82 58 47 59 48 60
REMARK SMILES IDX 62 62 83 63 50 64 34 65 35 66 43 67 36 68 37 69 41 70 44 71
REMARK SMILES IDX 38 72 39 73 42 74 40 75 66 76 67 77 75 78 68 79 69 80 73 81
REMARK SMILES IDX 76 82 70 83 71 84 74 85 72 86 51 87 52 88 60 89 53 90 54 91
REMARK SMILES IDX 58 92 61 93 55 94 56 95 59 96 57 97
REMARK H PARENT 18 4 8 11 15 23 15 24 15 25 22 31 81 50 49 61
REMARK Flexibility Score: inf
ROOT
ATOM      1  C   UNL     1       5.969  -7.068  -4.637  1.00  0.00     0.279 C 
ATOM      2  O   UNL     1       6.736  -7.965  -4.279  1.00  0.00    -0.268 OA
ATOM      3  N   UNL     1       6.505  -6.010  -5.305  1.00  0.00    -0.351 N 
ATOM      4  H   UNL     1       7.478  -6.076  -5.443  1.00  0.00     0.163 HD
ENDROOT
BRANCH   1   5
ATOM      5  C   UNL     1       4.469  -7.144  -4.323  1.00  0.00     0.280 C 
BRANCH   5   6
ATOM      6  C   UNL     1       3.608  -7.197  -5.597  1.00  0.00     0.145 C 
BRANCH   6   7
ATOM      7  S   UNL     1       3.381  -8.861  -6.322  1.00  0.00    -0.145 SA
BRANCH   7   8
ATOM      8  C   UNL     1       4.981  -9.197  -7.137  1.00  0.00     0.170 C 
BRANCH   8   9
ATOM      9  C   UNL     1       5.514  -8.087  -8.028  1.00  0.00     0.236 C 
ATOM     10  N   UNL     1       4.941  -7.706  -9.199  1.00  0.00    -0.294 N 
ATOM     11  H   UNL     1       5.378  -6.952  -9.657  1.00  0.00     0.173 HD
ATOM     12  O   UNL     1       6.552  -7.484  -7.720  1.00  0.00    -0.274 OA
BRANCH  10  13
ATOM     13  C   UNL     1       3.845  -8.218  -9.832  1.00  0.00     0.231 A 
ATOM     14  C   UNL     1       2.131  -8.670 -11.147  1.00  0.00     0.091 A 
ATOM     15  C   UNL     1       3.224  -7.785 -10.976  1.00  0.00     0.097 A 
ATOM     16  N   UNL     1       2.125  -9.599 -10.180  1.00  0.00    -0.082 NA
ATOM     17  O   UNL     1       3.204  -9.315  -9.370  1.00  0.00    -0.338 OA
BRANCH  14  18
ATOM     18  C   UNL     1       1.056  -8.678 -12.214  1.00  0.00     0.008 C 
ATOM     19  C   UNL     1       1.295  -7.586 -13.277  1.00  0.00     0.018 C 
ATOM     20  C   UNL     1      -0.324  -8.422 -11.573  1.00  0.00     0.018 C 
ATOM     21  C   UNL     1       1.035 -10.043 -12.931  1.00  0.00     0.018 C 
ENDBRANCH  14  18
ENDBRANCH  10  13
ENDBRANCH   8   9
ENDBRANCH   7   8
ENDBRANCH   6   7
ENDBRANCH   5   6
BRANCH   5  22
ATOM     22  N   UNL     1       4.090  -6.037  -3.408  1.00  0.00    -0.347 N 
ATOM     23  H   UNL     1       4.269  -5.142  -3.865  1.00  0.00     0.345 HD
ATOM     24  H   UNL     1       4.643  -6.098  -2.553  1.00  0.00     0.345 HD
ATOM     25  H   UNL     1       3.099  -6.109  -3.178  1.00  0.00     0.345 HD
ENDBRANCH   5  22
ENDBRANCH   1   5
BRANCH   3  26
ATOM     26  C   UNL     1       5.915  -4.802  -5.851  1.00  0.00     0.118 C 
BRANCH  26  27
ATOM     27  C   UNL     1       6.480  -3.558  -5.186  1.00  0.00     0.042 C 
BRANCH  27  28
ATOM     28  C   UNL     1       7.964  -3.349  -5.453  1.00  0.00     0.118 C 
BRANCH  28  29
ATOM     29  N   UNL     1       8.246  -3.077  -6.855  1.00  0.00    -0.352 N 
ATOM     30  C   UNL     1       8.913  -2.024  -7.425  1.00  0.00     0.251 C 
ATOM     31  H   UNL     1       7.907  -3.749  -7.488  1.00  0.00     0.163 HD
ATOM     32  O   UNL     1       8.883  -1.873  -8.646  1.00  0.00    -0.269 OA
BRANCH  30  33
ATOM     33  C   UNL     1       9.660  -1.063  -6.585  1.00  0.00     0.039 A 
ATOM     34  C   UNL     1       9.636   0.292  -6.925  1.00  0.00     0.014 A 
ATOM     35  C   UNL     1      10.418  -1.495  -5.492  1.00  0.00     0.014 A 
ATOM     36  C   UNL     1      10.342   1.216  -6.150  1.00  0.00     0.010 A 
ATOM     37  C   UNL     1      11.047  -0.566  -4.670  1.00  0.00     0.010 A 
ATOM     38  C   UNL     1      11.039   0.795  -5.006  1.00  0.00    -0.014 A 
BRANCH  38  39
ATOM     39  C   UNL     1      11.823   1.753  -4.187  1.00  0.00     0.031 A 
ATOM     40  C   UNL     1      13.319   1.609  -4.101  1.00  0.00     0.074 A 
ATOM     41  C   UNL     1      11.193   2.714  -3.486  1.00  0.00     0.049 A 
ATOM     42  N   UNL     1      14.180   2.297  -3.395  1.00  0.00    -0.248 NA
ATOM     43  C   UNL     1      13.925   0.525  -4.891  1.00  0.00     0.031 C 
ATOM     44  C   UNL     1       9.746   2.925  -3.449  1.00  0.00     0.029 A 
ATOM     45  N   UNL     1      11.694   3.692  -2.664  1.00  0.00    -0.354 N 
ATOM     46  C   UNL     1      15.417   1.715  -3.637  1.00  0.00     0.074 A 
ATOM     47  C   UNL     1      15.191   0.584  -4.508  1.00  0.00     0.031 C 
ATOM     48  C   UNL     1       9.477   3.984  -2.667  1.00  0.00     0.029 A 
ATOM     49  C   UNL     1      10.728   4.506  -2.126  1.00  0.00     0.049 A 
ATOM     50  H   UNL     1      12.655   3.800  -2.478  1.00  0.00     0.167 HD
ATOM     51  C   UNL     1      16.637   2.104  -3.196  1.00  0.00     0.037 A 
ATOM     52  C   UNL     1      10.845   5.558  -1.294  1.00  0.00     0.037 A 
ATOM     53  C   UNL     1      16.865   3.255  -2.364  1.00  0.00     0.049 A 
ATOM     54  C   UNL     1      12.214   5.992  -0.846  1.00  0.00     0.074 A 
ATOM     55  C   UNL     1      18.065   3.763  -1.900  1.00  0.00     0.029 A 
ATOM     56  N   UNL     1      15.864   4.084  -1.880  1.00  0.00    -0.354 N 
ATOM     57  N   UNL     1      13.382   5.468  -1.127  1.00  0.00    -0.248 NA
ATOM     58  C   UNL     1      12.282   7.176   0.022  1.00  0.00     0.031 C 
ATOM     59  C   UNL     1      17.788   4.886  -1.111  1.00  0.00     0.029 A 
ATOM     60  C   UNL     1      16.419   5.100  -1.120  1.00  0.00     0.049 A 
ATOM     61  H   UNL     1      14.901   3.968  -2.051  1.00  0.00     0.167 HD
ATOM     62  C   UNL     1      14.323   6.276  -0.504  1.00  0.00     0.074 A 
ATOM     63  C   UNL     1      13.590   7.332   0.164  1.00  0.00     0.031 C 
ATOM     64  C   UNL     1      15.673   6.156  -0.486  1.00  0.00     0.037 A 
BRANCH  51  65
ATOM     65  C   UNL     1      17.820   1.282  -3.620  1.00  0.00     0.064 A 
ATOM     66  C   UNL     1      18.273   1.278  -4.948  1.00  0.00     0.173 A 
ATOM     67  C   UNL     1      18.522   0.507  -2.685  1.00  0.00     0.173 A 
ATOM     68  F   UNL     1      17.627   1.991  -5.884  1.00  0.00    -0.203 F 
ATOM     69  C   UNL     1      19.364   0.503  -5.331  1.00  0.00     0.198 A 
ATOM     70  C   UNL     1      19.632  -0.243  -3.066  1.00  0.00     0.198 A 
ATOM     71  F   UNL     1      18.134   0.478  -1.401  1.00  0.00    -0.203 F 
ATOM     72  F   UNL     1      19.744   0.473  -6.616  1.00  0.00    -0.200 F 
ATOM     73  C   UNL     1      20.046  -0.252  -4.389  1.00  0.00     0.200 A 
ATOM     74  F   UNL     1      20.298  -0.963  -2.152  1.00  0.00    -0.200 F 
ATOM     75  F   UNL     1      21.099  -0.994  -4.759  1.00  0.00    -0.200 F 
ENDBRANCH  51  65
BRANCH  52  76
ATOM     76  C   UNL     1       9.634   6.307  -0.870  1.00  0.00     0.064 A 
ATOM     77  C   UNL     1       9.387   7.601  -1.350  1.00  0.00     0.173 A 
ATOM     78  C   UNL     1       8.705   5.754   0.023  1.00  0.00     0.173 A 
ATOM     79  F   UNL     1      10.257   8.179  -2.192  1.00  0.00    -0.203 F 
ATOM     80  C   UNL     1       8.270   8.323  -0.936  1.00  0.00     0.198 A 
ATOM     81  C   UNL     1       7.575   6.466   0.417  1.00  0.00     0.198 A 
ATOM     82  F   UNL     1       8.892   4.517   0.505  1.00  0.00    -0.203 F 
ATOM     83  F   UNL     1       8.083   9.575  -1.375  1.00  0.00    -0.200 F 
ATOM     84  C   UNL     1       7.362   7.753  -0.056  1.00  0.00     0.200 A 
ATOM     85  F   UNL     1       6.692   5.908   1.256  1.00  0.00    -0.200 F 
ATOM     86  F   UNL     1       6.287   8.447   0.342  1.00  0.00    -0.200 F 
ENDBRANCH  52  76
BRANCH  64  87
ATOM     87  C   UNL     1      16.449   7.223   0.228  1.00  0.00     0.064 A 
ATOM     88  C   UNL     1      16.468   7.311   1.627  1.00  0.00     0.173 A 
ATOM     89  C   UNL     1      17.211   8.148  -0.502  1.00  0.00     0.173 A 
ATOM     90  F   UNL     1      15.744   6.458   2.367  1.00  0.00    -0.203 F 
ATOM     91  C   UNL     1      17.202   8.305   2.269  1.00  0.00     0.198 A 
ATOM     92  C   UNL     1      17.965   9.123   0.144  1.00  0.00     0.198 A 
ATOM     93  F   UNL     1      17.230   8.101  -1.843  1.00  0.00    -0.203 F 
ATOM     94  F   UNL     1      17.169   8.401   3.605  1.00  0.00    -0.200 F 
ATOM     95  C   UNL     1      17.954   9.205   1.528  1.00  0.00     0.200 A 
ATOM     96  F   UNL     1      18.701   9.984  -0.573  1.00  0.00    -0.200 F 
ATOM     97  F   UNL     1      18.663  10.158   2.149  1.00  0.00    -0.200 F 
ENDBRANCH  64  87
ENDBRANCH  38  39
ENDBRANCH  30  33
ENDBRANCH  28  29
ENDBRANCH  27  28
ENDBRANCH  26  27
ENDBRANCH   3  26
TORSDOF 17
