REMARK SMILES COc1cccc(C(=O)/C=C(/Nc2cc(C)c(C)cc2[N+](=O)[O-])C(=O)NCCCNC(=O)c2ccc(-c3c4nc(c(-c5c(F)c(F)c(F)c(F)c5F)c5ccc([nH]5)c(-c5c(F)c(F)c(F)c(F)c5F)c5nc(c(-c6c(F)c(F)c(F)c(F)c6F)c6ccc3[nH]6)C=C5)C=C4)cc2)c1
REMARK SMILES IDX 27 1 26 2 24 3 25 4 11 6 10 7 8 8 9 9 7 10 3 11 4 12 96 13
REMARK SMILES IDX 5 14 6 15 2 16 1 17 12 18 13 20 14 21 20 22 15 23 19 24
REMARK SMILES IDX 16 25 17 26 18 27 21 28 22 29 23 30 28 31 29 32 30 33 31 34
REMARK SMILES IDX 32 36 33 37 34 38 95 39 35 40 94 41 36 42 37 43 38 44 88 45
REMARK SMILES IDX 39 46 93 47 87 48 89 49 40 50 92 51 86 52 85 53 41 55 73 56
REMARK SMILES IDX 53 57 72 58 54 59 57 60 71 61 90 62 55 63 56 64 70 66 91 67
REMARK SMILES IDX 58 68 42 69 43 70 51 71 44 72 45 73 49 74 52 75 46 76 47 77
REMARK SMILES IDX 50 78 48 79 74 80 75 81 83 82 76 83 77 84 81 85 84 86 78 87
REMARK SMILES IDX 79 88 82 89 80 90 59 91 60 92 68 93 61 94 62 95 66 96 69 97
REMARK SMILES IDX 63 98 64 99 67 100 65 101
REMARK H PARENT 26 5 12 19 30 35 89 54 57 65
REMARK Flexibility Score: inf
ROOT
ATOM      1  C   UNL     1       3.399   0.756   0.568  1.00  0.00     0.118 C 
ENDROOT
BRANCH   1   2
ATOM      2  N   UNL     1       2.791  -0.439   0.036  1.00  0.00    -0.351 N 
ATOM      3  C   UNL     1       3.385  -1.381  -0.767  1.00  0.00     0.267 C 
ATOM      4  O   UNL     1       2.823  -2.453  -0.970  1.00  0.00    -0.268 OA
ATOM      5  H   UNL     1       1.848  -0.596   0.274  1.00  0.00     0.163 HD
BRANCH   3   6
ATOM      6  C   UNL     1       4.703  -1.070  -1.415  1.00  0.00     0.108 C 
ATOM      7  C   UNL     1       4.704  -0.884  -2.750  1.00  0.00     0.084 C 
BRANCH   7   8
ATOM      8  C   UNL     1       3.703  -0.932  -3.860  1.00  0.00     0.188 C 
ATOM      9  O   UNL     1       4.115  -0.717  -5.002  1.00  0.00    -0.289 OA
BRANCH   8  10
ATOM     10  C   UNL     1       2.271  -1.248  -3.707  1.00  0.00     0.026 A 
ATOM     11  C   UNL     1       0.047  -0.775  -2.879  1.00  0.00     0.119 A 
ATOM     12  C   UNL     1      -0.450  -1.840  -3.635  1.00  0.00     0.046 A 
ATOM     13  C   UNL     1       1.408  -0.459  -2.936  1.00  0.00     0.058 A 
ATOM     14  C   UNL     1       0.396  -2.587  -4.451  1.00  0.00     0.005 A 
ATOM     15  C   UNL     1       1.755  -2.286  -4.494  1.00  0.00     0.012 A 
BRANCH  11  16
ATOM     16  O   UNL     1      -0.911  -0.080  -2.194  1.00  0.00    -0.497 OA
ATOM     17  C   UNL     1      -0.486   0.598  -1.025  1.00  0.00     0.278 C 
ENDBRANCH  11  16
ENDBRANCH   8  10
ENDBRANCH   7   8
BRANCH   6  18
ATOM     18  N   UNL     1       5.883  -0.950  -0.657  1.00  0.00    -0.345 N 
ATOM     19  H   UNL     1       6.718  -0.904  -1.178  1.00  0.00     0.167 HD
BRANCH  18  20
ATOM     20  C   UNL     1       6.038  -0.887   0.748  1.00  0.00     0.118 A 
ATOM     21  C   UNL     1       6.565   0.319   1.262  1.00  0.00     0.037 A 
ATOM     22  C   UNL     1       5.487  -1.782   1.674  1.00  0.00     0.292 A 
ATOM     23  C   UNL     1       6.376   0.709   2.607  1.00  0.00    -0.046 A 
ATOM     24  C   UNL     1       5.301  -1.421   3.021  1.00  0.00     0.091 A 
ATOM     25  C   UNL     1       6.810   2.096   3.005  1.00  0.00     0.045 C 
ATOM     26  C   UNL     1       5.674  -0.146   3.476  1.00  0.00    -0.041 A 
ATOM     27  C   UNL     1       5.255   0.285   4.856  1.00  0.00     0.045 C 
BRANCH  22  28
ATOM     28  N   UNL     1       5.104  -3.132   1.277  1.00  0.00     0.064 N 
ATOM     29  O   UNL     1       4.083  -3.604   1.798  1.00  0.00    -0.258 OA
ATOM     30  O   UNL     1       5.859  -3.737   0.503  1.00  0.00    -0.258 OA
ENDBRANCH  22  28
ENDBRANCH  18  20
ENDBRANCH   6  18
ENDBRANCH   3   6
ENDBRANCH   1   2
BRANCH   1  31
ATOM     31  C   UNL     1       2.506   1.940   0.836  1.00  0.00     0.042 C 
BRANCH  31  32
ATOM     32  C   UNL     1       1.397   1.759   1.859  1.00  0.00     0.118 C 
BRANCH  32  33
ATOM     33  N   UNL     1       1.670   0.893   2.997  1.00  0.00    -0.352 N 
ATOM     34  C   UNL     1       1.421   1.081   4.339  1.00  0.00     0.251 C 
ATOM     35  H   UNL     1       2.102   0.037   2.772  1.00  0.00     0.163 HD
ATOM     36  O   UNL     1       1.700   0.193   5.141  1.00  0.00    -0.269 OA
BRANCH  34  37
ATOM     37  C   UNL     1       0.909   2.380   4.832  1.00  0.00     0.039 A 
ATOM     38  C   UNL     1       1.497   2.940   5.970  1.00  0.00     0.014 A 
ATOM     39  C   UNL     1      -0.074   3.087   4.142  1.00  0.00     0.014 A 
ATOM     40  C   UNL     1       1.199   4.257   6.328  1.00  0.00     0.010 A 
ATOM     41  C   UNL     1      -0.269   4.435   4.417  1.00  0.00     0.010 A 
ATOM     42  C   UNL     1       0.371   5.041   5.509  1.00  0.00    -0.014 A 
BRANCH  42  43
ATOM     43  C   UNL     1       0.158   6.490   5.762  1.00  0.00     0.031 A 
ATOM     44  C   UNL     1      -1.236   7.019   5.965  1.00  0.00     0.074 A 
ATOM     45  C   UNL     1       1.201   7.344   5.707  1.00  0.00     0.049 A 
ATOM     46  N   UNL     1      -1.647   8.258   6.061  1.00  0.00    -0.248 NA
ATOM     47  C   UNL     1      -2.318   6.024   6.020  1.00  0.00     0.031 C 
ATOM     48  C   UNL     1       2.593   6.972   5.446  1.00  0.00     0.029 A 
ATOM     49  N   UNL     1       1.249   8.709   5.854  1.00  0.00    -0.354 N 
ATOM     50  C   UNL     1      -3.032   8.188   6.148  1.00  0.00     0.074 A 
ATOM     51  C   UNL     1      -3.395   6.794   6.032  1.00  0.00     0.031 C 
ATOM     52  C   UNL     1       3.360   8.074   5.485  1.00  0.00     0.029 A 
ATOM     53  C   UNL     1       2.512   9.235   5.732  1.00  0.00     0.049 A 
ATOM     54  H   UNL     1       0.452   9.259   6.031  1.00  0.00     0.167 HD
ATOM     55  C   UNL     1      -3.920   9.192   6.340  1.00  0.00     0.037 A 
ATOM     56  C   UNL     1       2.938  10.511   5.808  1.00  0.00     0.037 A 
ATOM     57  C   UNL     1      -3.553  10.571   6.518  1.00  0.00     0.049 A 
ATOM     58  C   UNL     1       1.936  11.603   6.069  1.00  0.00     0.074 A 
ATOM     59  C   UNL     1      -4.369  11.652   6.799  1.00  0.00     0.029 A 
ATOM     60  N   UNL     1      -2.256  11.056   6.442  1.00  0.00    -0.354 N 
ATOM     61  N   UNL     1       0.637  11.516   6.215  1.00  0.00    -0.248 NA
ATOM     62  C   UNL     1       2.463  12.970   6.184  1.00  0.00     0.031 C 
ATOM     63  C   UNL     1      -3.568  12.798   6.863  1.00  0.00     0.029 A 
ATOM     64  C   UNL     1      -2.249  12.423   6.663  1.00  0.00     0.049 A 
ATOM     65  H   UNL     1      -1.457  10.509   6.260  1.00  0.00     0.167 HD
ATOM     66  C   UNL     1       0.194  12.807   6.465  1.00  0.00     0.074 A 
ATOM     67  C   UNL     1       1.365  13.658   6.466  1.00  0.00     0.031 C 
ATOM     68  C   UNL     1      -1.071  13.250   6.672  1.00  0.00     0.037 A 
BRANCH  55  69
ATOM     69  C   UNL     1      -5.375   8.828   6.387  1.00  0.00     0.064 A 
ATOM     70  C   UNL     1      -5.916   8.094   7.455  1.00  0.00     0.173 A 
ATOM     71  C   UNL     1      -6.245   9.231   5.363  1.00  0.00     0.173 A 
ATOM     72  F   UNL     1      -5.124   7.671   8.452  1.00  0.00    -0.203 F 
ATOM     73  C   UNL     1      -7.264   7.747   7.477  1.00  0.00     0.198 A 
ATOM     74  C   UNL     1      -7.599   8.910   5.405  1.00  0.00     0.198 A 
ATOM     75  F   UNL     1      -5.782   9.937   4.321  1.00  0.00    -0.203 F 
ATOM     76  F   UNL     1      -7.743   6.995   8.478  1.00  0.00    -0.200 F 
ATOM     77  C   UNL     1      -8.105   8.161   6.456  1.00  0.00     0.200 A 
ATOM     78  F   UNL     1      -8.414   9.320   4.423  1.00  0.00    -0.200 F 
ATOM     79  F   UNL     1      -9.403   7.828   6.481  1.00  0.00    -0.200 F 
ENDBRANCH  55  69
BRANCH  56  80
ATOM     80  C   UNL     1       4.385  10.823   5.674  1.00  0.00     0.064 A 
ATOM     81  C   UNL     1       5.131  11.245   6.784  1.00  0.00     0.173 A 
ATOM     82  C   UNL     1       5.050  10.714   4.445  1.00  0.00     0.173 A 
ATOM     83  F   UNL     1       4.535  11.382   7.977  1.00  0.00    -0.203 F 
ATOM     84  C   UNL     1       6.481  11.566   6.665  1.00  0.00     0.198 A 
ATOM     85  C   UNL     1       6.407  11.011   4.332  1.00  0.00     0.198 A 
ATOM     86  F   UNL     1       4.383  10.307   3.354  1.00  0.00    -0.203 F 
ATOM     87  F   UNL     1       7.160  12.008   7.733  1.00  0.00    -0.200 F 
ATOM     88  C   UNL     1       7.120  11.444   5.440  1.00  0.00     0.200 A 
ATOM     89  F   UNL     1       7.024  10.876   3.150  1.00  0.00    -0.200 F 
ATOM     90  F   UNL     1       8.420  11.748   5.326  1.00  0.00    -0.200 F 
ENDBRANCH  56  80
BRANCH  68  91
ATOM     91  C   UNL     1      -1.248  14.713   6.953  1.00  0.00     0.064 A 
ATOM     92  C   UNL     1      -1.105  15.677   5.945  1.00  0.00     0.173 A 
ATOM     93  C   UNL     1      -1.603  15.149   8.238  1.00  0.00     0.173 A 
ATOM     94  F   UNL     1      -0.752  15.309   4.704  1.00  0.00    -0.203 F 
ATOM     95  C   UNL     1      -1.289  17.029   6.220  1.00  0.00     0.198 A 
ATOM     96  C   UNL     1      -1.813  16.499   8.502  1.00  0.00     0.198 A 
ATOM     97  F   UNL     1      -1.756  14.264   9.235  1.00  0.00    -0.203 F 
ATOM     98  F   UNL     1      -1.104  17.938   5.252  1.00  0.00    -0.200 F 
ATOM     99  C   UNL     1      -1.649  17.438   7.495  1.00  0.00     0.200 A 
ATOM    100  F   UNL     1      -2.172  16.892   9.732  1.00  0.00    -0.200 F 
ATOM    101  F   UNL     1      -1.831  18.740   7.756  1.00  0.00    -0.200 F 
ENDBRANCH  68  91
ENDBRANCH  42  43
ENDBRANCH  34  37
ENDBRANCH  32  33
ENDBRANCH  31  32
ENDBRANCH   1  31
TORSDOF 16
