REMARK SMILES O=C(NCCCNC(=O)c1ccc(-c2c3nc(c(-c4c(F)c(F)c(F)c(F)c4F)c4ccc([nH]4)c(-c4c(F)c(F)c(F)c(F)c4F)c4nc(c(-c5c(F)c(F)c(F)c(F)c5F)c5ccc2[nH]5)C=C4)C=C3)cc1)c1ccc(/C=C2\SC(=S)N(NC(=O)c3ccc(Cl)cc3)C2=O)cc1
REMARK SMILES IDX 4 1 3 2 1 3 2 4 73 6 74 7 96 8 75 9 95 10 76 11 77 12 78 13
REMARK SMILES IDX 79 14 93 15 80 16 82 17 94 18 81 19 83 20 84 21 85 23 86 24
REMARK SMILES IDX 87 25 92 26 88 27 91 28 89 29 90 30 5 31 6 32 7 33 8 34 9 36
REMARK SMILES IDX 10 37 11 38 72 39 12 40 71 41 13 42 14 43 15 44 65 45 16 46
REMARK SMILES IDX 70 47 64 48 66 49 17 50 69 51 63 52 62 53 18 55 50 56 30 57
REMARK SMILES IDX 49 58 31 59 34 60 48 61 67 62 32 63 33 64 47 66 68 67 35 68
REMARK SMILES IDX 19 69 20 70 28 71 21 72 22 73 26 74 29 75 23 76 24 77 27 78
REMARK SMILES IDX 25 79 51 80 52 81 60 82 53 83 54 84 58 85 61 86 55 87 56 88
REMARK SMILES IDX 59 89 57 90 36 91 37 92 45 93 38 94 39 95 43 96 46 97 40 98
REMARK SMILES IDX 41 99 44 100 42 101
REMARK H PARENT 3 5 83 22 7 35 66 54 34 65
REMARK Flexibility Score: inf
ROOT
ATOM      1  C   UNL     1       4.525   1.280  -0.503  1.00  0.00     0.118 C 
ENDROOT
BRANCH   1   2
ATOM      2  N   UNL     1       3.090   1.146  -0.282  1.00  0.00    -0.352 N 
ATOM      3  O   UNL     1       1.160   0.119   0.293  1.00  0.00    -0.269 OA
ATOM      4  C   UNL     1       2.385   0.135   0.329  1.00  0.00     0.251 C 
ATOM      5  H   UNL     1       2.543   1.891  -0.622  1.00  0.00     0.163 HD
BRANCH   4   6
ATOM      6  C   UNL     1       3.120  -0.962   0.987  1.00  0.00     0.039 A 
ATOM      7  C   UNL     1       4.119  -0.692   1.923  1.00  0.00     0.014 A 
ATOM      8  C   UNL     1       2.844  -2.276   0.616  1.00  0.00     0.014 A 
ATOM      9  C   UNL     1       4.972  -1.716   2.329  1.00  0.00     0.009 A 
ATOM     10  C   UNL     1       3.674  -3.306   1.064  1.00  0.00     0.009 A 
ATOM     11  C   UNL     1       4.804  -3.021   1.842  1.00  0.00    -0.024 A 
BRANCH  11  12
ATOM     12  C   UNL     1       5.859  -3.994   2.167  1.00  0.00     0.029 C 
ATOM     13  C   UNL     1       6.334  -5.002   1.421  1.00  0.00     0.082 C 
ATOM     14  S   UNL     1       5.788  -5.604  -0.095  1.00  0.00    -0.052 SA
ATOM     15  C   UNL     1       7.488  -5.817   1.890  1.00  0.00     0.285 C 
ATOM     16  C   UNL     1       6.705  -7.093   0.066  1.00  0.00     0.168 C 
ATOM     17  N   UNL     1       7.480  -7.022   1.209  1.00  0.00    -0.198 N 
ATOM     18  O   UNL     1       8.304  -5.420   2.714  1.00  0.00    -0.266 OA
ATOM     19  S   UNL     1       6.624  -8.344  -1.032  1.00  0.00    -0.050 S 
BRANCH  17  20
ATOM     20  N   UNL     1       8.349  -8.072   1.538  1.00  0.00    -0.255 N 
ATOM     21  C   UNL     1       8.529  -8.644   2.780  1.00  0.00     0.270 C 
ATOM     22  H   UNL     1       8.889  -8.441   0.802  1.00  0.00     0.192 HD
ATOM     23  O   UNL     1       9.237  -9.642   2.898  1.00  0.00    -0.267 OA
BRANCH  21  24
ATOM     24  C   UNL     1       7.958  -8.036   3.999  1.00  0.00     0.041 A 
ATOM     25  C   UNL     1       8.861  -7.662   5.004  1.00  0.00     0.015 A 
ATOM     26  C   UNL     1       6.588  -7.797   4.156  1.00  0.00     0.015 A 
ATOM     27  C   UNL     1       8.406  -6.988   6.137  1.00  0.00     0.021 A 
ATOM     28  C   UNL     1       6.137  -7.115   5.291  1.00  0.00     0.021 A 
ATOM     29  C   UNL     1       7.048  -6.704   6.268  1.00  0.00     0.041 A 
ATOM     30  Cl  UNL     1       6.490  -5.832   7.643  1.00  0.00    -0.084 Cl
ENDBRANCH  21  24
ENDBRANCH  17  20
ENDBRANCH  11  12
ENDBRANCH   4   6
ENDBRANCH   1   2
BRANCH   1  31
ATOM     31  C   UNL     1       4.915   1.165  -1.971  1.00  0.00     0.042 C 
BRANCH  31  32
ATOM     32  C   UNL     1       4.372   2.281  -2.852  1.00  0.00     0.118 C 
BRANCH  32  33
ATOM     33  N   UNL     1       4.868   3.597  -2.471  1.00  0.00    -0.352 N 
ATOM     34  C   UNL     1       5.690   4.476  -3.131  1.00  0.00     0.251 C 
ATOM     35  H   UNL     1       4.560   3.910  -1.589  1.00  0.00     0.163 HD
ATOM     36  O   UNL     1       6.119   5.463  -2.539  1.00  0.00    -0.269 OA
BRANCH  34  37
ATOM     37  C   UNL     1       6.089   4.237  -4.535  1.00  0.00     0.039 A 
ATOM     38  C   UNL     1       7.410   4.499  -4.914  1.00  0.00     0.014 A 
ATOM     39  C   UNL     1       5.171   3.785  -5.485  1.00  0.00     0.014 A 
ATOM     40  C   UNL     1       7.829   4.222  -6.218  1.00  0.00     0.010 A 
ATOM     41  C   UNL     1       5.607   3.434  -6.760  1.00  0.00     0.010 A 
ATOM     42  C   UNL     1       6.942   3.641  -7.137  1.00  0.00    -0.014 A 
BRANCH  42  43
ATOM     43  C   UNL     1       7.382   3.227  -8.493  1.00  0.00     0.031 A 
ATOM     44  C   UNL     1       6.781   3.872  -9.710  1.00  0.00     0.074 A 
ATOM     45  C   UNL     1       8.254   2.209  -8.630  1.00  0.00     0.049 A 
ATOM     46  N   UNL     1       6.917   3.549 -10.972  1.00  0.00    -0.248 NA
ATOM     47  C   UNL     1       5.888   5.017  -9.476  1.00  0.00     0.031 C 
ATOM     48  C   UNL     1       8.887   1.482  -7.528  1.00  0.00     0.029 A 
ATOM     49  N   UNL     1       8.745   1.597  -9.756  1.00  0.00    -0.354 N 
ATOM     50  C   UNL     1       6.113   4.434 -11.676  1.00  0.00     0.074 A 
ATOM     51  C   UNL     1       5.460   5.282 -10.702  1.00  0.00     0.031 C 
ATOM     52  C   UNL     1       9.693   0.533  -8.032  1.00  0.00     0.029 A 
ATOM     53  C   UNL     1       9.598   0.554  -9.488  1.00  0.00     0.049 A 
ATOM     54  H   UNL     1       8.508   1.878 -10.669  1.00  0.00     0.167 HD
ATOM     55  C   UNL     1       5.949   4.542 -13.016  1.00  0.00     0.037 A 
ATOM     56  C   UNL     1      10.218  -0.302 -10.322  1.00  0.00     0.037 A 
ATOM     57  C   UNL     1       6.624   3.721 -13.986  1.00  0.00     0.049 A 
ATOM     58  C   UNL     1       9.999  -0.175 -11.805  1.00  0.00     0.074 A 
ATOM     59  C   UNL     1       6.564   3.790 -15.367  1.00  0.00     0.029 A 
ATOM     60  N   UNL     1       7.487   2.681 -13.674  1.00  0.00    -0.354 N 
ATOM     61  N   UNL     1       9.266   0.690 -12.461  1.00  0.00    -0.248 NA
ATOM     62  C   UNL     1      10.690  -1.149 -12.662  1.00  0.00     0.031 C 
ATOM     63  C   UNL     1       7.367   2.772 -15.891  1.00  0.00     0.029 A 
ATOM     64  C   UNL     1       7.953   2.091 -14.837  1.00  0.00     0.049 A 
ATOM     65  H   UNL     1       7.731   2.404 -12.762  1.00  0.00     0.167 HD
ATOM     66  C   UNL     1       9.424   0.382 -13.804  1.00  0.00     0.074 A 
ATOM     67  C   UNL     1      10.332  -0.744 -13.873  1.00  0.00     0.031 C 
ATOM     68  C   UNL     1       8.865   0.978 -14.885  1.00  0.00     0.037 A 
BRANCH  55  69
ATOM     69  C   UNL     1       5.009   5.598 -13.516  1.00  0.00     0.064 A 
ATOM     70  C   UNL     1       5.344   6.959 -13.465  1.00  0.00     0.173 A 
ATOM     71  C   UNL     1       3.779   5.244 -14.091  1.00  0.00     0.173 A 
ATOM     72  F   UNL     1       6.503   7.348 -12.913  1.00  0.00    -0.203 F 
ATOM     73  C   UNL     1       4.472   7.929 -13.951  1.00  0.00     0.198 A 
ATOM     74  C   UNL     1       2.921   6.215 -14.599  1.00  0.00     0.198 A 
ATOM     75  F   UNL     1       3.414   3.955 -14.168  1.00  0.00    -0.203 F 
ATOM     76  F   UNL     1       4.795   9.226 -13.855  1.00  0.00    -0.200 F 
ATOM     77  C   UNL     1       3.265   7.557 -14.524  1.00  0.00     0.200 A 
ATOM     78  F   UNL     1       1.760   5.854 -15.162  1.00  0.00    -0.200 F 
ATOM     79  F   UNL     1       2.430   8.492 -14.997  1.00  0.00    -0.200 F 
ENDBRANCH  55  69
BRANCH  56  80
ATOM     80  C   UNL     1      11.115  -1.353  -9.778  1.00  0.00     0.064 A 
ATOM     81  C   UNL     1      12.503  -1.273  -9.962  1.00  0.00     0.173 A 
ATOM     82  C   UNL     1      10.611  -2.456  -9.075  1.00  0.00     0.173 A 
ATOM     83  F   UNL     1      13.028  -0.247 -10.647  1.00  0.00    -0.203 F 
ATOM     84  C   UNL     1      13.350  -2.267  -9.478  1.00  0.00     0.198 A 
ATOM     85  C   UNL     1      11.461  -3.437  -8.570  1.00  0.00     0.198 A 
ATOM     86  F   UNL     1       9.291  -2.575  -8.871  1.00  0.00    -0.203 F 
ATOM     87  F   UNL     1      14.669  -2.188  -9.704  1.00  0.00    -0.200 F 
ATOM     88  C   UNL     1      12.830  -3.345  -8.779  1.00  0.00     0.200 A 
ATOM     89  F   UNL     1      10.956  -4.471  -7.885  1.00  0.00    -0.200 F 
ATOM     90  F   UNL     1      13.645  -4.301  -8.312  1.00  0.00    -0.200 F 
ENDBRANCH  56  80
BRANCH  68  91
ATOM     91  C   UNL     1       9.242   0.445 -16.234  1.00  0.00     0.064 A 
ATOM     92  C   UNL     1       8.718  -0.763 -16.715  1.00  0.00     0.173 A 
ATOM     93  C   UNL     1      10.098   1.174 -17.072  1.00  0.00     0.173 A 
ATOM     94  F   UNL     1       7.909  -1.504 -15.941  1.00  0.00    -0.203 F 
ATOM     95  C   UNL     1       9.049  -1.230 -17.984  1.00  0.00     0.198 A 
ATOM     96  C   UNL     1      10.408   0.717 -18.349  1.00  0.00     0.198 A 
ATOM     97  F   UNL     1      10.621   2.337 -16.657  1.00  0.00    -0.203 F 
ATOM     98  F   UNL     1       8.565  -2.404 -18.412  1.00  0.00    -0.200 F 
ATOM     99  C   UNL     1       9.887  -0.486 -18.802  1.00  0.00     0.200 A 
ATOM    100  F   UNL     1      11.211   1.440 -19.142  1.00  0.00    -0.200 F 
ATOM    101  F   UNL     1      10.198  -0.933 -20.027  1.00  0.00    -0.200 F 
ENDBRANCH  68  91
ENDBRANCH  42  43
ENDBRANCH  34  37
ENDBRANCH  32  33
ENDBRANCH  31  32
ENDBRANCH   1  31
TORSDOF 13
