REMARK SMILES Cc1cccc(CC(=O)N2CCC3(CCC(=O)N([C@H](C)C(=O)NCCCNC(=O)c4ccc(-c5c6nc(c(-c7c(F)c(F)c(F)c(F)c7F)c7ccc([nH]7)c(-c7c(F)c(F)c(F)c(F)c7F)c7nc(c(-c8c(F)c(F)c(F)c(F)c8F)c8ccc5[nH]8)C=C7)C=C6)cc4)C3)CC2)c1
REMARK SMILES IDX 24 1 23 2 21 3 22 4 19 6 20 7 18 8 8 9 9 10 10 11 11 12
REMARK SMILES IDX 95 13 12 14 94 15 13 16 14 17 93 18 15 19 16 20 17 21 7 22
REMARK SMILES IDX 6 23 1 24 2 25 3 26 96 27 4 28 5 29 25 30 26 31 27 32 28 33
REMARK SMILES IDX 29 35 30 36 31 37 92 38 32 39 91 40 33 41 34 42 35 43 85 44
REMARK SMILES IDX 36 45 90 46 84 47 86 48 37 49 89 50 83 51 82 52 38 54 70 55
REMARK SMILES IDX 50 56 69 57 51 58 54 59 68 60 87 61 52 62 53 63 67 65 88 66
REMARK SMILES IDX 55 67 39 68 40 69 48 70 41 71 42 72 46 73 49 74 43 75 44 76
REMARK SMILES IDX 47 77 45 78 71 79 72 80 80 81 73 82 74 83 78 84 81 85 75 86
REMARK SMILES IDX 76 87 79 88 77 89 56 90 57 91 65 92 58 93 59 94 63 95 66 96
REMARK SMILES IDX 60 97 61 98 64 99 62 100
REMARK H PARENT 23 5 27 34 86 53 54 64
REMARK Flexibility Score: inf
ROOT
ATOM      1  C   UNL     1      -1.042   5.714  -8.745  1.00  0.00     0.117 C 
ENDROOT
BRANCH   1   2
ATOM      2  N   UNL     1      -1.472   6.585  -7.663  1.00  0.00    -0.354 N 
ATOM      3  C   UNL     1      -0.711   7.255  -6.743  1.00  0.00     0.242 C 
ATOM      4  O   UNL     1      -1.281   8.083  -6.024  1.00  0.00    -0.273 OA
ATOM      5  H   UNL     1      -2.445   6.710  -7.581  1.00  0.00     0.163 HD
BRANCH   3   6
ATOM      6  C   UNL     1       0.789   6.919  -6.522  1.00  0.00     0.171 C 
ATOM      7  C   UNL     1       0.964   5.449  -6.123  1.00  0.00     0.042 C 
BRANCH   6   8
ATOM      8  N   UNL     1       1.779   7.340  -7.535  1.00  0.00    -0.330 N 
ATOM      9  C   UNL     1       7.944   5.239  -6.960  1.00  0.00     0.226 C 
ATOM     10  O   UNL     1       8.117   4.041  -6.700  1.00  0.00    -0.275 OA
ATOM     11  N   UNL     1       6.843   5.641  -7.702  1.00  0.00    -0.342 N 
ATOM     12  C   UNL     1       5.689   4.753  -7.829  1.00  0.00     0.120 C 
ATOM     13  C   UNL     1       6.692   6.892  -8.424  1.00  0.00     0.120 C 
ATOM     14  C   UNL     1       4.415   5.473  -7.348  1.00  0.00     0.030 C 
ATOM     15  C   UNL     1       5.551   7.683  -7.811  1.00  0.00     0.030 C 
ATOM     16  C   UNL     1       4.221   6.901  -7.942  1.00  0.00    -0.008 C 
ATOM     17  C   UNL     1       3.845   6.862  -9.448  1.00  0.00     0.019 C 
ATOM     18  C   UNL     1       3.138   7.663  -7.139  1.00  0.00     0.127 C 
ATOM     19  C   UNL     1       2.397   6.523  -9.702  1.00  0.00     0.101 C 
ATOM     20  C   UNL     1       1.493   7.407  -8.883  1.00  0.00     0.223 C 
ATOM     21  O   UNL     1       0.520   7.973  -9.364  1.00  0.00    -0.275 OA
BRANCH   9  22
ATOM     22  C   UNL     1       8.829   6.266  -6.248  1.00  0.00     0.135 C 
BRANCH  22  23
ATOM     23  C   UNL     1       9.389   7.425  -7.031  1.00  0.00    -0.038 A 
ATOM     24  C   UNL     1       8.856  11.201  -7.240  1.00  0.00     0.044 C 
ATOM     25  C   UNL     1       9.365   9.818  -7.521  1.00  0.00    -0.051 A 
ATOM     26  C   UNL     1      10.190   9.583  -8.626  1.00  0.00     0.003 A 
ATOM     27  C   UNL     1       8.991   8.738  -6.713  1.00  0.00     0.007 A 
ATOM     28  C   UNL     1      10.635   8.292  -8.918  1.00  0.00     0.001 A 
ATOM     29  C   UNL     1      10.239   7.215  -8.123  1.00  0.00     0.004 A 
ENDBRANCH  22  23
ENDBRANCH   9  22
ENDBRANCH   6   8
ENDBRANCH   3   6
ENDBRANCH   1   2
BRANCH   1  30
ATOM     30  C   UNL     1      -1.668   4.338  -8.704  1.00  0.00     0.042 C 
BRANCH  30  31
ATOM     31  C   UNL     1      -2.917   4.265  -9.557  1.00  0.00     0.118 C 
BRANCH  31  32
ATOM     32  N   UNL     1      -2.665   4.053 -10.984  1.00  0.00    -0.352 N 
ATOM     33  C   UNL     1      -3.596   3.962 -12.013  1.00  0.00     0.251 C 
ATOM     34  H   UNL     1      -1.721   3.963 -11.248  1.00  0.00     0.163 HD
ATOM     35  O   UNL     1      -3.255   3.829 -13.172  1.00  0.00    -0.269 OA
BRANCH  33  36
ATOM     36  C   UNL     1      -5.022   4.164 -11.659  1.00  0.00     0.039 A 
ATOM     37  C   UNL     1      -5.681   5.257 -12.225  1.00  0.00     0.014 A 
ATOM     38  C   UNL     1      -5.537   3.515 -10.542  1.00  0.00     0.014 A 
ATOM     39  C   UNL     1      -6.696   5.871 -11.500  1.00  0.00     0.010 A 
ATOM     40  C   UNL     1      -6.444   4.203  -9.761  1.00  0.00     0.010 A 
ATOM     41  C   UNL     1      -6.965   5.424 -10.207  1.00  0.00    -0.014 A 
BRANCH  41  42
ATOM     42  C   UNL     1      -7.673   6.230  -9.216  1.00  0.00     0.031 A 
ATOM     43  C   UNL     1      -8.988   5.788  -8.705  1.00  0.00     0.074 A 
ATOM     44  C   UNL     1      -7.096   7.343  -8.701  1.00  0.00     0.049 A 
ATOM     45  N   UNL     1      -9.789   6.555  -8.046  1.00  0.00    -0.248 NA
ATOM     46  C   UNL     1      -9.551   4.460  -8.955  1.00  0.00     0.031 C 
ATOM     47  C   UNL     1      -7.514   8.089  -7.513  1.00  0.00     0.029 A 
ATOM     48  N   UNL     1      -6.133   8.176  -9.303  1.00  0.00    -0.354 N 
ATOM     49  C   UNL     1     -10.782   5.767  -7.530  1.00  0.00     0.074 A 
ATOM     50  C   UNL     1     -10.673   4.513  -8.228  1.00  0.00     0.031 C 
ATOM     51  C   UNL     1      -7.099   9.358  -7.630  1.00  0.00     0.029 A 
ATOM     52  C   UNL     1      -6.513   9.498  -8.949  1.00  0.00     0.049 A 
ATOM     53  H   UNL     1      -5.363   7.902  -9.851  1.00  0.00     0.167 HD
ATOM     54  C   UNL     1     -11.501   6.231  -6.473  1.00  0.00     0.037 A 
ATOM     55  C   UNL     1      -6.906  10.400  -9.895  1.00  0.00     0.037 A 
ATOM     56  C   UNL     1     -11.360   7.677  -6.319  1.00  0.00     0.049 A 
ATOM     57  C   UNL     1      -8.326  10.906  -9.745  1.00  0.00     0.074 A 
ATOM     58  C   UNL     1     -10.790   8.533  -5.395  1.00  0.00     0.029 A 
ATOM     59  N   UNL     1     -11.713   8.467  -7.401  1.00  0.00    -0.354 N 
ATOM     60  N   UNL     1      -9.150  10.535  -8.804  1.00  0.00    -0.248 NA
ATOM     61  C   UNL     1      -8.965  11.793 -10.722  1.00  0.00     0.031 C 
ATOM     62  C   UNL     1     -10.739   9.838  -5.982  1.00  0.00     0.029 A 
ATOM     63  C   UNL     1     -11.311   9.774  -7.240  1.00  0.00     0.049 A 
ATOM     64  H   UNL     1     -12.194   8.132  -8.193  1.00  0.00     0.167 HD
ATOM     65  C   UNL     1     -10.399  11.023  -9.080  1.00  0.00     0.074 A 
ATOM     66  C   UNL     1     -10.233  11.819 -10.281  1.00  0.00     0.031 C 
ATOM     67  C   UNL     1     -11.500  10.695  -8.348  1.00  0.00     0.037 A 
BRANCH  54  68
ATOM     68  C   UNL     1     -12.267   5.354  -5.516  1.00  0.00     0.064 A 
ATOM     69  C   UNL     1     -13.163   5.926  -4.591  1.00  0.00     0.173 A 
ATOM     70  C   UNL     1     -12.067   3.963  -5.373  1.00  0.00     0.173 A 
ATOM     71  F   UNL     1     -13.417   7.242  -4.597  1.00  0.00    -0.203 F 
ATOM     72  C   UNL     1     -13.812   5.163  -3.613  1.00  0.00     0.198 A 
ATOM     73  C   UNL     1     -12.763   3.194  -4.438  1.00  0.00     0.198 A 
ATOM     74  F   UNL     1     -11.143   3.300  -6.079  1.00  0.00    -0.203 F 
ATOM     75  F   UNL     1     -14.609   5.766  -2.720  1.00  0.00    -0.200 F 
ATOM     76  C   UNL     1     -13.626   3.796  -3.549  1.00  0.00     0.200 A 
ATOM     77  F   UNL     1     -12.561   1.869  -4.388  1.00  0.00    -0.200 F 
ATOM     78  F   UNL     1     -14.255   3.064  -2.620  1.00  0.00    -0.200 F 
ENDBRANCH  54  68
BRANCH  55  79
ATOM     79  C   UNL     1      -6.193  10.217 -11.186  1.00  0.00     0.064 A 
ATOM     80  C   UNL     1      -4.795  10.391 -11.208  1.00  0.00     0.173 A 
ATOM     81  C   UNL     1      -6.778   9.532 -12.255  1.00  0.00     0.173 A 
ATOM     82  F   UNL     1      -4.187  11.047 -10.207  1.00  0.00    -0.203 F 
ATOM     83  C   UNL     1      -4.008   9.794 -12.189  1.00  0.00     0.198 A 
ATOM     84  C   UNL     1      -5.987   8.950 -13.246  1.00  0.00     0.198 A 
ATOM     85  F   UNL     1      -8.101   9.313 -12.280  1.00  0.00    -0.203 F 
ATOM     86  F   UNL     1      -2.672   9.879 -12.120  1.00  0.00    -0.200 F 
ATOM     87  C   UNL     1      -4.604   9.048 -13.191  1.00  0.00     0.200 A 
ATOM     88  F   UNL     1      -6.562   8.203 -14.199  1.00  0.00    -0.200 F 
ATOM     89  F   UNL     1      -3.848   8.387 -14.078  1.00  0.00    -0.200 F 
ENDBRANCH  55  79
BRANCH  67  90
ATOM     90  C   UNL     1     -12.869  11.213  -8.669  1.00  0.00     0.064 A 
ATOM     91  C   UNL     1     -13.123  12.584  -8.825  1.00  0.00     0.173 A 
ATOM     92  C   UNL     1     -13.987  10.356  -8.713  1.00  0.00     0.173 A 
ATOM     93  F   UNL     1     -12.119  13.473  -8.780  1.00  0.00    -0.203 F 
ATOM     94  C   UNL     1     -14.418  13.067  -9.022  1.00  0.00     0.198 A 
ATOM     95  C   UNL     1     -15.283  10.845  -8.862  1.00  0.00     0.198 A 
ATOM     96  F   UNL     1     -13.844   9.024  -8.638  1.00  0.00    -0.203 F 
ATOM     97  F   UNL     1     -14.618  14.379  -9.206  1.00  0.00    -0.200 F 
ATOM     98  C   UNL     1     -15.498  12.200  -9.022  1.00  0.00     0.200 A 
ATOM     99  F   UNL     1     -16.320   9.995  -8.854  1.00  0.00    -0.200 F 
ATOM    100  F   UNL     1     -16.743  12.669  -9.182  1.00  0.00    -0.200 F 
ENDBRANCH  67  90
ENDBRANCH  41  42
ENDBRANCH  33  36
ENDBRANCH  31  32
ENDBRANCH  30  31
ENDBRANCH   1  30
TORSDOF 13
