REMARK SMILES O=C(NCCCNC(=O)c1nccnc1C(=O)Nc1n[nH]c2ncccc12)c1ccc(-c2c3nc(c(-c4c(F)c(F)c(F)c(F)c4F)c4ccc([nH]4)c(-c4c(F)c(F)c(F)c(F)c4F)c4nc(c(-c5c(F)c(F)c(F)c(F)c5F)c5ccc2[nH]5)C=C4)C=C3)cc1
REMARK SMILES IDX 5 1 4 2 3 3 1 4 2 5 28 7 29 8 90 9 30 10 89 11 31 12 32 13
REMARK SMILES IDX 33 14 83 15 34 16 88 17 82 18 84 19 35 20 87 21 81 22 80 23
REMARK SMILES IDX 36 25 68 26 48 27 67 28 49 29 52 30 66 31 85 32 50 33 51 34
REMARK SMILES IDX 65 36 86 37 53 38 37 39 38 40 46 41 39 42 40 43 44 44 47 45
REMARK SMILES IDX 41 46 42 47 45 48 43 49 69 50 70 51 78 52 71 53 72 54 76 55
REMARK SMILES IDX 79 56 73 57 74 58 77 59 75 60 54 61 55 62 63 63 56 64 57 65
REMARK SMILES IDX 61 66 64 67 58 68 59 69 62 70 60 71 6 72 7 73 8 74 9 76
REMARK SMILES IDX 10 77 11 78 15 79 12 80 14 81 13 82 16 83 17 84 18 85 19 87
REMARK SMILES IDX 20 88 27 89 21 90 22 91 26 92 23 94 25 95 24 96
REMARK H PARENT 3 6 84 24 52 35 7 75 18 86 21 93
REMARK Flexibility Score: inf
ROOT
ATOM      1  C   UNL     1       4.080  -2.857   1.764  1.00  0.00     0.042 C 
ENDROOT
BRANCH   1   2
ATOM      2  C   UNL     1       3.866  -1.533   1.028  1.00  0.00     0.118 C 
BRANCH   2   3
ATOM      3  N   UNL     1       2.538  -1.222   0.544  1.00  0.00    -0.352 N 
ATOM      4  O   UNL     1       0.921   0.172  -0.220  1.00  0.00    -0.269 OA
ATOM      5  C   UNL     1       2.034   0.036   0.249  1.00  0.00     0.251 C 
ATOM      6  H   UNL     1       1.928  -1.983   0.410  1.00  0.00     0.163 HD
BRANCH   5   7
ATOM      7  C   UNL     1       2.854   1.237   0.555  1.00  0.00     0.039 A 
ATOM      8  C   UNL     1       4.076   1.469  -0.083  1.00  0.00     0.014 A 
ATOM      9  C   UNL     1       2.374   2.150   1.497  1.00  0.00     0.014 A 
ATOM     10  C   UNL     1       4.861   2.567   0.292  1.00  0.00     0.010 A 
ATOM     11  C   UNL     1       3.144   3.266   1.845  1.00  0.00     0.010 A 
ATOM     12  C   UNL     1       4.409   3.472   1.268  1.00  0.00    -0.014 A 
BRANCH  12  13
ATOM     13  C   UNL     1       5.241   4.641   1.675  1.00  0.00     0.031 A 
ATOM     14  C   UNL     1       5.832   4.725   3.058  1.00  0.00     0.074 A 
ATOM     15  C   UNL     1       5.448   5.650   0.808  1.00  0.00     0.049 A 
ATOM     16  N   UNL     1       6.546   5.682   3.602  1.00  0.00    -0.248 NA
ATOM     17  C   UNL     1       5.578   3.587   3.952  1.00  0.00     0.031 C 
ATOM     18  C   UNL     1       4.930   5.705  -0.557  1.00  0.00     0.029 A 
ATOM     19  N   UNL     1       6.144   6.827   0.949  1.00  0.00    -0.354 N 
ATOM     20  C   UNL     1       6.810   5.271   4.903  1.00  0.00     0.074 A 
ATOM     21  C   UNL     1       6.155   3.990   5.076  1.00  0.00     0.031 C 
ATOM     22  C   UNL     1       5.339   6.845  -1.136  1.00  0.00     0.029 A 
ATOM     23  C   UNL     1       6.111   7.622  -0.170  1.00  0.00     0.049 A 
ATOM     24  H   UNL     1       6.620   7.076   1.774  1.00  0.00     0.167 HD
ATOM     25  C   UNL     1       7.534   5.899   5.864  1.00  0.00     0.037 A 
ATOM     26  C   UNL     1       6.628   8.846  -0.392  1.00  0.00     0.037 A 
ATOM     27  C   UNL     1       8.191   7.172   5.692  1.00  0.00     0.049 A 
ATOM     28  C   UNL     1       7.397   9.539   0.700  1.00  0.00     0.074 A 
ATOM     29  C   UNL     1       8.984   7.864   6.593  1.00  0.00     0.029 A 
ATOM     30  N   UNL     1       8.120   7.953   4.548  1.00  0.00    -0.354 N 
ATOM     31  N   UNL     1       7.680   9.119   1.909  1.00  0.00    -0.248 NA
ATOM     32  C   UNL     1       7.919  10.878   0.393  1.00  0.00     0.031 C 
ATOM     33  C   UNL     1       9.347   9.086   6.015  1.00  0.00     0.029 A 
ATOM     34  C   UNL     1       8.831   9.131   4.730  1.00  0.00     0.049 A 
ATOM     35  H   UNL     1       7.635   7.708   3.726  1.00  0.00     0.167 HD
ATOM     36  C   UNL     1       8.438  10.124   2.495  1.00  0.00     0.074 A 
ATOM     37  C   UNL     1       8.578  11.172   1.505  1.00  0.00     0.031 C 
ATOM     38  C   UNL     1       8.973  10.169   3.740  1.00  0.00     0.037 A 
BRANCH  25  39
ATOM     39  C   UNL     1       7.635   5.229   7.207  1.00  0.00     0.064 A 
ATOM     40  C   UNL     1       8.367   4.046   7.392  1.00  0.00     0.173 A 
ATOM     41  C   UNL     1       7.012   5.794   8.331  1.00  0.00     0.173 A 
ATOM     42  F   UNL     1       8.977   3.460   6.351  1.00  0.00    -0.203 F 
ATOM     43  C   UNL     1       8.439   3.434   8.642  1.00  0.00     0.198 A 
ATOM     44  C   UNL     1       7.112   5.196   9.585  1.00  0.00     0.198 A 
ATOM     45  F   UNL     1       6.309   6.930   8.216  1.00  0.00    -0.203 F 
ATOM     46  F   UNL     1       9.095   2.273   8.780  1.00  0.00    -0.200 F 
ATOM     47  C   UNL     1       7.816   4.012   9.738  1.00  0.00     0.200 A 
ATOM     48  F   UNL     1       6.522   5.764  10.646  1.00  0.00    -0.200 F 
ATOM     49  F   UNL     1       7.885   3.420  10.938  1.00  0.00    -0.200 F 
ENDBRANCH  25  39
BRANCH  26  50
ATOM     50  C   UNL     1       6.452   9.487  -1.721  1.00  0.00     0.064 A 
ATOM     51  C   UNL     1       7.540   9.643  -2.591  1.00  0.00     0.173 A 
ATOM     52  C   UNL     1       5.198   9.937  -2.156  1.00  0.00     0.173 A 
ATOM     53  F   UNL     1       8.764   9.251  -2.208  1.00  0.00    -0.203 F 
ATOM     54  C   UNL     1       7.381  10.233  -3.843  1.00  0.00     0.198 A 
ATOM     55  C   UNL     1       5.035  10.501  -3.419  1.00  0.00     0.198 A 
ATOM     56  F   UNL     1       4.126   9.810  -1.360  1.00  0.00    -0.203 F 
ATOM     57  F   UNL     1       8.444  10.402  -4.641  1.00  0.00    -0.200 F 
ATOM     58  C   UNL     1       6.127  10.652  -4.260  1.00  0.00     0.200 A 
ATOM     59  F   UNL     1       3.819  10.893  -3.824  1.00  0.00    -0.200 F 
ATOM     60  F   UNL     1       5.972  11.208  -5.469  1.00  0.00    -0.200 F 
ENDBRANCH  26  50
BRANCH  38  61
ATOM     61  C   UNL     1       9.803  11.372   4.092  1.00  0.00     0.064 A 
ATOM     62  C   UNL     1       9.228  12.635   4.298  1.00  0.00     0.173 A 
ATOM     63  C   UNL     1      11.192  11.251   4.249  1.00  0.00     0.173 A 
ATOM     64  F   UNL     1       7.907  12.809   4.144  1.00  0.00    -0.203 F 
ATOM     65  C   UNL     1      10.017  13.738   4.620  1.00  0.00     0.198 A 
ATOM     66  C   UNL     1      11.974  12.348   4.602  1.00  0.00     0.198 A 
ATOM     67  F   UNL     1      11.793  10.065   4.069  1.00  0.00    -0.203 F 
ATOM     68  F   UNL     1       9.453  14.945   4.761  1.00  0.00    -0.200 F 
ATOM     69  C   UNL     1      11.387  13.592   4.778  1.00  0.00     0.200 A 
ATOM     70  F   UNL     1      13.296  12.203   4.766  1.00  0.00    -0.200 F 
ATOM     71  F   UNL     1      12.144  14.653   5.092  1.00  0.00    -0.200 F 
ENDBRANCH  38  61
ENDBRANCH  12  13
ENDBRANCH   5   7
ENDBRANCH   2   3
ENDBRANCH   1   2
BRANCH   1  72
ATOM     72  C   UNL     1       3.591  -4.162   1.137  1.00  0.00     0.118 C 
BRANCH  72  73
ATOM     73  N   UNL     1       4.204  -4.569  -0.120  1.00  0.00    -0.351 N 
ATOM     74  C   UNL     1       5.022  -5.657  -0.404  1.00  0.00     0.272 C 
ATOM     75  H   UNL     1       4.009  -3.984  -0.887  1.00  0.00     0.163 HD
ATOM     76  O   UNL     1       4.918  -6.181  -1.511  1.00  0.00    -0.267 OA
BRANCH  74  77
ATOM     77  C   UNL     1       5.959  -6.261   0.577  1.00  0.00     0.159 A 
ATOM     78  N   UNL     1       5.348  -6.621   1.752  1.00  0.00    -0.247 NA
ATOM     79  C   UNL     1       7.306  -6.568   0.327  1.00  0.00     0.159 A 
ATOM     80  C   UNL     1       6.107  -7.279   2.653  1.00  0.00     0.132 A 
ATOM     81  N   UNL     1       8.053  -7.222   1.278  1.00  0.00    -0.247 NA
ATOM     82  C   UNL     1       7.433  -7.572   2.422  1.00  0.00     0.132 A 
BRANCH  79  83
ATOM     83  C   UNL     1       8.183  -6.136  -0.824  1.00  0.00     0.277 C 
ATOM     84  O   UNL     1       9.280  -5.628  -0.585  1.00  0.00    -0.267 OA
ATOM     85  N   UNL     1       7.826  -6.455  -2.107  1.00  0.00    -0.303 N 
ATOM     86  H   UNL     1       8.006  -7.364  -2.440  1.00  0.00     0.172 HD
BRANCH  85  87
ATOM     87  C   UNL     1       7.224  -5.545  -2.945  1.00  0.00     0.164 A 
ATOM     88  N   UNL     1       6.805  -5.921  -4.158  1.00  0.00    -0.155 NA
ATOM     89  C   UNL     1       6.847  -4.212  -2.637  1.00  0.00     0.063 A 
ATOM     90  N   UNL     1       5.925  -4.946  -4.483  1.00  0.00    -0.259 N 
ATOM     91  C   UNL     1       5.883  -3.917  -3.587  1.00  0.00     0.157 A 
ATOM     92  C   UNL     1       7.085  -3.272  -1.624  1.00  0.00     0.017 A 
ATOM     93  H   UNL     1       5.365  -4.976  -5.293  1.00  0.00     0.192 HD
ATOM     94  N   UNL     1       5.051  -2.859  -3.602  1.00  0.00    -0.237 NA
ATOM     95  C   UNL     1       6.281  -2.139  -1.616  1.00  0.00     0.021 A 
ATOM     96  C   UNL     1       5.277  -2.011  -2.571  1.00  0.00     0.113 A 
ENDBRANCH  85  87
ENDBRANCH  79  83
ENDBRANCH  74  77
ENDBRANCH  72  73
ENDBRANCH   1  72
TORSDOF 12
