REMARK SMILES O=C(NCCCNC(=O)c1cn(C2C[NH+](Cc3cc(F)ccc3F)C2)nn1)c1ccc(-c2c3nc(c(-c4c(F)c(F)c(F)c(F)c4F)c4ccc([nH]4)c(-c4c(F)c(F)c(F)c(F)c4F)c4nc(c(-c5c(F)c(F)c(F)c(F)c5F)c5ccc2[nH]5)C=C4)C=C3)cc1
REMARK SMILES IDX 5 1 4 2 3 3 1 4 2 5 28 7 29 8 90 9 30 10 89 11 31 12 32 13
REMARK SMILES IDX 33 14 83 15 34 16 88 17 82 18 84 19 35 20 87 21 81 22 80 23
REMARK SMILES IDX 36 25 68 26 48 27 67 28 49 29 52 30 66 31 85 32 50 33 51 34
REMARK SMILES IDX 65 36 86 37 53 38 37 39 38 40 46 41 39 42 40 43 44 44 47 45
REMARK SMILES IDX 41 46 42 47 45 48 43 49 69 50 70 51 78 52 71 53 72 54 76 55
REMARK SMILES IDX 79 56 73 57 74 58 77 59 75 60 54 61 55 62 63 63 56 64 57 65
REMARK SMILES IDX 61 66 64 67 58 68 59 69 62 70 60 71 6 72 7 73 8 74 9 76
REMARK SMILES IDX 10 77 11 78 27 79 12 80 26 81 13 82 14 83 25 84 15 85 16 87
REMARK SMILES IDX 17 88 18 89 23 90 19 91 22 92 24 93 20 94 21 95
REMARK H PARENT 3 6 84 24 52 35 7 75 15 86
REMARK Flexibility Score: inf
ROOT
ATOM      1  C   UNL     1       5.028  -0.345   2.105  1.00  0.00     0.042 C 
ENDROOT
BRANCH   1   2
ATOM      2  C   UNL     1       4.740  -0.768   0.668  1.00  0.00     0.118 C 
BRANCH   2   3
ATOM      3  N   UNL     1       3.338  -0.961   0.357  1.00  0.00    -0.352 N 
ATOM      4  O   UNL     1       1.271  -0.699  -0.369  1.00  0.00    -0.269 OA
ATOM      5  C   UNL     1       2.311  -0.140  -0.010  1.00  0.00     0.251 C 
ATOM      6  H   UNL     1       3.063  -1.903   0.427  1.00  0.00     0.163 HD
BRANCH   5   7
ATOM      7  C   UNL     1       2.325   1.343   0.079  1.00  0.00     0.039 A 
ATOM      8  C   UNL     1       3.458   2.153   0.184  1.00  0.00     0.014 A 
ATOM      9  C   UNL     1       1.057   1.955   0.072  1.00  0.00     0.014 A 
ATOM     10  C   UNL     1       3.321   3.529   0.375  1.00  0.00     0.010 A 
ATOM     11  C   UNL     1       0.915   3.323   0.252  1.00  0.00     0.010 A 
ATOM     12  C   UNL     1       2.049   4.105   0.441  1.00  0.00    -0.014 A 
BRANCH  12  13
ATOM     13  C   UNL     1       1.932   5.561   0.515  1.00  0.00     0.031 A 
ATOM     14  C   UNL     1       2.390   6.273  -0.716  1.00  0.00     0.074 A 
ATOM     15  C   UNL     1       1.290   6.200   1.516  1.00  0.00     0.049 A 
ATOM     16  N   UNL     1       3.283   7.202  -0.824  1.00  0.00    -0.248 NA
ATOM     17  C   UNL     1       1.847   5.819  -2.010  1.00  0.00     0.031 C 
ATOM     18  C   UNL     1       0.533   5.606   2.621  1.00  0.00     0.029 A 
ATOM     19  N   UNL     1       1.092   7.538   1.702  1.00  0.00    -0.354 N 
ATOM     20  C   UNL     1       3.295   7.572  -2.170  1.00  0.00     0.074 A 
ATOM     21  C   UNL     1       2.505   6.596  -2.870  1.00  0.00     0.031 C 
ATOM     22  C   UNL     1      -0.215   6.562   3.220  1.00  0.00     0.029 A 
ATOM     23  C   UNL     1       0.104   7.851   2.632  1.00  0.00     0.049 A 
ATOM     24  H   UNL     1       1.605   8.225   1.219  1.00  0.00     0.167 HD
ATOM     25  C   UNL     1       3.765   8.787  -2.568  1.00  0.00     0.037 A 
ATOM     26  C   UNL     1      -0.449   9.073   2.854  1.00  0.00     0.037 A 
ATOM     27  C   UNL     1       4.663   9.341  -1.589  1.00  0.00     0.049 A 
ATOM     28  C   UNL     1       0.477  10.086   2.292  1.00  0.00     0.074 A 
ATOM     29  C   UNL     1       5.866   8.942  -1.039  1.00  0.00     0.029 A 
ATOM     30  N   UNL     1       4.193  10.328  -0.762  1.00  0.00    -0.354 N 
ATOM     31  N   UNL     1       1.661  10.342   2.773  1.00  0.00    -0.248 NA
ATOM     32  C   UNL     1       0.247  10.511   0.921  1.00  0.00     0.031 C 
ATOM     33  C   UNL     1       5.794   9.339   0.329  1.00  0.00     0.029 A 
ATOM     34  C   UNL     1       4.586  10.011   0.511  1.00  0.00     0.049 A 
ATOM     35  H   UNL     1       3.671  11.118  -1.032  1.00  0.00     0.167 HD
ATOM     36  C   UNL     1       2.450  10.551   1.654  1.00  0.00     0.074 A 
ATOM     37  C   UNL     1       1.511  10.722   0.548  1.00  0.00     0.031 C 
ATOM     38  C   UNL     1       3.787  10.283   1.681  1.00  0.00     0.037 A 
BRANCH  25  39
ATOM     39  C   UNL     1       3.119   9.633  -3.646  1.00  0.00     0.064 A 
ATOM     40  C   UNL     1       1.799   9.445  -4.114  1.00  0.00     0.173 A 
ATOM     41  C   UNL     1       3.711  10.864  -3.999  1.00  0.00     0.173 A 
ATOM     42  F   UNL     1       1.073   8.367  -3.800  1.00  0.00    -0.203 F 
ATOM     43  C   UNL     1       1.115  10.421  -4.838  1.00  0.00     0.198 A 
ATOM     44  C   UNL     1       3.004  11.860  -4.680  1.00  0.00     0.198 A 
ATOM     45  F   UNL     1       4.957  11.164  -3.601  1.00  0.00    -0.203 F 
ATOM     46  F   UNL     1      -0.152  10.194  -5.212  1.00  0.00    -0.200 F 
ATOM     47  C   UNL     1       1.703  11.640  -5.091  1.00  0.00     0.200 A 
ATOM     48  F   UNL     1       3.565  13.062  -4.869  1.00  0.00    -0.200 F 
ATOM     49  F   UNL     1       1.000  12.615  -5.682  1.00  0.00    -0.200 F 
ENDBRANCH  25  39
BRANCH  26  50
ATOM     50  C   UNL     1      -1.856   9.420   3.190  1.00  0.00     0.064 A 
ATOM     51  C   UNL     1      -2.925   8.589   2.804  1.00  0.00     0.173 A 
ATOM     52  C   UNL     1      -2.200  10.717   3.613  1.00  0.00     0.173 A 
ATOM     53  F   UNL     1      -2.701   7.361   2.317  1.00  0.00    -0.203 F 
ATOM     54  C   UNL     1      -4.248   9.038   2.809  1.00  0.00     0.198 A 
ATOM     55  C   UNL     1      -3.526  11.168   3.610  1.00  0.00     0.198 A 
ATOM     56  F   UNL     1      -1.242  11.591   3.957  1.00  0.00    -0.203 F 
ATOM     57  F   UNL     1      -5.224   8.230   2.369  1.00  0.00    -0.200 F 
ATOM     58  C   UNL     1      -4.547  10.331   3.195  1.00  0.00     0.200 A 
ATOM     59  F   UNL     1      -3.804  12.435   3.949  1.00  0.00    -0.200 F 
ATOM     60  F   UNL     1      -5.808  10.782   3.123  1.00  0.00    -0.200 F 
ENDBRANCH  26  50
BRANCH  38  61
ATOM     61  C   UNL     1       4.429  10.015   3.013  1.00  0.00     0.064 A 
ATOM     62  C   UNL     1       5.519  10.811   3.389  1.00  0.00     0.173 A 
ATOM     63  C   UNL     1       4.115   8.918   3.834  1.00  0.00     0.173 A 
ATOM     64  F   UNL     1       5.895  11.842   2.616  1.00  0.00    -0.203 F 
ATOM     65  C   UNL     1       6.268  10.521   4.524  1.00  0.00     0.198 A 
ATOM     66  C   UNL     1       4.845   8.651   4.992  1.00  0.00     0.198 A 
ATOM     67  F   UNL     1       3.148   8.055   3.498  1.00  0.00    -0.203 F 
ATOM     68  F   UNL     1       7.345  11.262   4.818  1.00  0.00    -0.200 F 
ATOM     69  C   UNL     1       5.928   9.446   5.329  1.00  0.00     0.200 A 
ATOM     70  F   UNL     1       4.527   7.598   5.760  1.00  0.00    -0.200 F 
ATOM     71  F   UNL     1       6.662   9.158   6.413  1.00  0.00    -0.200 F 
ENDBRANCH  38  61
ENDBRANCH  12  13
ENDBRANCH   5   7
ENDBRANCH   2   3
ENDBRANCH   1   2
BRANCH   1  72
ATOM     72  C   UNL     1       4.485  -1.297   3.172  1.00  0.00     0.118 C 
BRANCH  72  73
ATOM     73  N   UNL     1       4.998  -2.651   3.030  1.00  0.00    -0.351 N 
ATOM     74  C   UNL     1       5.775  -3.396   3.878  1.00  0.00     0.273 C 
ATOM     75  H   UNL     1       4.746  -3.104   2.193  1.00  0.00     0.163 HD
ATOM     76  O   UNL     1       6.254  -4.455   3.447  1.00  0.00    -0.267 OA
BRANCH  74  77
ATOM     77  C   UNL     1       6.016  -2.932   5.227  1.00  0.00     0.170 A 
ATOM     78  C   UNL     1       5.114  -2.410   6.138  1.00  0.00     0.145 A 
ATOM     79  N   UNL     1       7.255  -2.985   5.814  1.00  0.00    -0.125 NA
ATOM     80  N   UNL     1       5.890  -2.064   7.205  1.00  0.00    -0.237 N 
ATOM     81  N   UNL     1       7.168  -2.437   7.016  1.00  0.00    -0.066 NA
BRANCH  80  82
ATOM     82  C   UNL     1       5.535  -1.283   8.346  1.00  0.00     0.218 C 
ATOM     83  C   UNL     1       4.674  -0.033   8.020  1.00  0.00     0.296 C 
ATOM     84  C   UNL     1       4.287  -1.745   9.133  1.00  0.00     0.296 C 
ATOM     85  N   UNL     1       3.812  -0.343   9.175  1.00  0.00    -0.327 N 
ATOM     86  H   UNL     1       2.812  -0.139   9.158  1.00  0.00     0.348 HD
BRANCH  85  87
ATOM     87  C   UNL     1       4.155   0.407  10.410  1.00  0.00     0.302 C 
BRANCH  87  88
ATOM     88  C   UNL     1       5.539   0.271  11.011  1.00  0.00     0.045 A 
ATOM     89  C   UNL     1       6.648   0.939  10.465  1.00  0.00     0.051 A 
ATOM     90  C   UNL     1       5.760  -0.594  12.090  1.00  0.00     0.132 A 
ATOM     91  C   UNL     1       7.934   0.632  10.905  1.00  0.00     0.123 A 
ATOM     92  C   UNL     1       7.045  -0.867  12.556  1.00  0.00     0.043 A 
ATOM     93  F   UNL     1       4.723  -1.209  12.676  1.00  0.00    -0.206 F 
ATOM     94  F   UNL     1       8.986   1.188  10.290  1.00  0.00    -0.207 F 
ATOM     95  C   UNL     1       8.143  -0.275  11.937  1.00  0.00     0.042 A 
ENDBRANCH  87  88
ENDBRANCH  85  87
ENDBRANCH  80  82
ENDBRANCH  74  77
ENDBRANCH  72  73
ENDBRANCH   1  72
TORSDOF 13
