REMARK SMILES CCCCN(C)c1ccc([N+](=O)[O-])c(C(=O)NCCCNC(=O)c2ccc(-c3c4nc(c(-c5c(F)c(F)c(F)c(F)c5F)c5ccc([nH]5)c(-c5c(F)c(F)c(F)c(F)c5F)c5nc(c(-c6c(F)c(F)c(F)c(F)c6F)c6ccc3[nH]6)C=C5)C=C4)cc2)c1
REMARK SMILES IDX 18 1 17 2 15 3 16 4 14 6 7 7 8 8 87 9 9 10 10 11 5 12 6 13
REMARK SMILES IDX 4 14 3 15 2 16 1 17 11 18 12 19 13 20 19 21 20 22 21 23
REMARK SMILES IDX 22 24 23 26 24 27 25 28 86 29 26 30 85 31 27 32 28 33 29 34
REMARK SMILES IDX 79 35 30 36 84 37 78 38 80 39 31 40 83 41 77 42 76 43 32 45
REMARK SMILES IDX 64 46 44 47 63 48 45 49 48 50 62 51 81 52 46 53 47 54 61 56
REMARK SMILES IDX 82 57 49 58 33 59 34 60 42 61 35 62 36 63 40 64 43 65 37 66
REMARK SMILES IDX 38 67 41 68 39 69 65 70 66 71 74 72 67 73 68 74 72 75 75 76
REMARK SMILES IDX 69 77 70 78 73 79 71 80 50 81 51 82 59 83 52 84 53 85 57 86
REMARK SMILES IDX 60 87 54 88 55 89 58 90 56 91
REMARK H PARENT 17 5 21 25 80 44 48 55
REMARK Flexibility Score: inf
ROOT
ATOM      1  C   UNL     1       0.128   1.521   2.675  1.00  0.00     0.118 C 
ENDROOT
BRANCH   1   2
ATOM      2  N   UNL     1      -1.196   1.354   3.243  1.00  0.00    -0.352 N 
ATOM      3  C   UNL     1      -2.394   1.055   2.641  1.00  0.00     0.258 C 
ATOM      4  O   UNL     1      -3.392   0.917   3.342  1.00  0.00    -0.269 OA
ATOM      5  H   UNL     1      -1.244   1.476   4.219  1.00  0.00     0.163 HD
BRANCH   3   6
ATOM      6  C   UNL     1      -2.519   0.871   1.175  1.00  0.00     0.119 A 
ATOM      7  C   UNL     1      -1.948   1.526  -1.114  1.00  0.00     0.038 A 
ATOM      8  C   UNL     1      -2.751   0.488  -1.605  1.00  0.00     0.033 A 
ATOM      9  C   UNL     1      -1.899   1.746   0.272  1.00  0.00     0.047 A 
ATOM     10  C   UNL     1      -3.450  -0.344  -0.732  1.00  0.00     0.088 A 
ATOM     11  C   UNL     1      -3.308  -0.155   0.649  1.00  0.00     0.282 A 
BRANCH   7  12
ATOM     12  N   UNL     1      -1.166   2.322  -1.954  1.00  0.00    -0.375 N 
ATOM     13  C   UNL     1      -1.914   3.102  -2.938  1.00  0.00     0.143 C 
BRANCH  12  14
ATOM     14  C   UNL     1       0.105   1.731  -2.421  1.00  0.00     0.116 C 
BRANCH  14  15
ATOM     15  C   UNL     1       1.206   1.776  -1.352  1.00  0.00     0.021 C 
BRANCH  15  16
ATOM     16  C   UNL     1       1.355   0.495  -0.527  1.00  0.00    -0.002 C 
ATOM     17  C   UNL     1       1.995  -0.664  -1.269  1.00  0.00     0.004 C 
ENDBRANCH  15  16
ENDBRANCH  14  15
ENDBRANCH  12  14
ENDBRANCH   7  12
BRANCH  11  18
ATOM     18  N   UNL     1      -3.942  -1.126   1.515  1.00  0.00     0.063 N 
ATOM     19  O   UNL     1      -5.180  -1.164   1.505  1.00  0.00    -0.258 OA
ATOM     20  O   UNL     1      -3.193  -1.920   2.102  1.00  0.00    -0.258 OA
ENDBRANCH  11  18
ENDBRANCH   3   6
ENDBRANCH   1   2
BRANCH   1  21
ATOM     21  C   UNL     1       0.569   2.979   2.694  1.00  0.00     0.042 C 
BRANCH  21  22
ATOM     22  C   UNL     1       1.384   3.317   3.933  1.00  0.00     0.118 C 
BRANCH  22  23
ATOM     23  N   UNL     1       2.739   2.779   3.872  1.00  0.00    -0.352 N 
ATOM     24  C   UNL     1       3.954   3.408   4.026  1.00  0.00     0.251 C 
ATOM     25  H   UNL     1       2.793   1.812   3.692  1.00  0.00     0.163 HD
ATOM     26  O   UNL     1       4.988   2.804   3.780  1.00  0.00    -0.269 OA
BRANCH  24  27
ATOM     27  C   UNL     1       4.011   4.826   4.453  1.00  0.00     0.039 A 
ATOM     28  C   UNL     1       4.963   5.671   3.875  1.00  0.00     0.014 A 
ATOM     29  C   UNL     1       3.127   5.327   5.409  1.00  0.00     0.014 A 
ATOM     30  C   UNL     1       4.968   7.032   4.196  1.00  0.00     0.010 A 
ATOM     31  C   UNL     1       3.055   6.696   5.635  1.00  0.00     0.010 A 
ATOM     32  C   UNL     1       3.983   7.564   5.042  1.00  0.00    -0.014 A 
BRANCH  32  33
ATOM     33  C   UNL     1       3.908   9.019   5.337  1.00  0.00     0.031 A 
ATOM     34  C   UNL     1       4.012   9.505   6.758  1.00  0.00     0.074 A 
ATOM     35  C   UNL     1       3.663   9.893   4.342  1.00  0.00     0.049 A 
ATOM     36  N   UNL     1       3.885  10.719   7.232  1.00  0.00    -0.248 NA
ATOM     37  C   UNL     1       4.245   8.484   7.792  1.00  0.00     0.031 C 
ATOM     38  C   UNL     1       3.467   9.542   2.934  1.00  0.00     0.029 A 
ATOM     39  N   UNL     1       3.527  11.259   4.363  1.00  0.00    -0.354 N 
ATOM     40  C   UNL     1       3.987  10.598   8.612  1.00  0.00     0.074 A 
ATOM     41  C   UNL     1       4.117   9.188   8.905  1.00  0.00     0.031 C 
ATOM     42  C   UNL     1       3.279  10.664   2.222  1.00  0.00     0.029 A 
ATOM     43  C   UNL     1       3.301  11.810   3.125  1.00  0.00     0.049 A 
ATOM     44  H   UNL     1       3.585  11.793   5.188  1.00  0.00     0.167 HD
ATOM     45  C   UNL     1       4.005  11.575   9.550  1.00  0.00     0.037 A 
ATOM     46  C   UNL     1       3.135  13.095   2.761  1.00  0.00     0.037 A 
ATOM     47  C   UNL     1       3.929  12.979   9.248  1.00  0.00     0.049 A 
ATOM     48  C   UNL     1       3.197  14.168   3.814  1.00  0.00     0.074 A 
ATOM     49  C   UNL     1       4.026  14.055  10.111  1.00  0.00     0.029 A 
ATOM     50  N   UNL     1       3.740  13.501   7.976  1.00  0.00    -0.354 N 
ATOM     51  N   UNL     1       3.377  14.048   5.107  1.00  0.00    -0.248 NA
ATOM     52  C   UNL     1       3.039  15.555   3.356  1.00  0.00     0.031 C 
ATOM     53  C   UNL     1       3.854  15.228   9.368  1.00  0.00     0.029 A 
ATOM     54  C   UNL     1       3.699  14.884   8.034  1.00  0.00     0.049 A 
ATOM     55  H   UNL     1       3.649  12.967   7.154  1.00  0.00     0.167 HD
ATOM     56  C   UNL     1       3.384  15.340   5.614  1.00  0.00     0.074 A 
ATOM     57  C   UNL     1       3.203  16.230   4.485  1.00  0.00     0.031 C 
ATOM     58  C   UNL     1       3.527  15.753   6.897  1.00  0.00     0.037 A 
BRANCH  45  59
ATOM     59  C   UNL     1       4.124  11.152  10.987  1.00  0.00     0.064 A 
ATOM     60  C   UNL     1       5.296  10.564  11.489  1.00  0.00     0.173 A 
ATOM     61  C   UNL     1       3.057  11.344  11.877  1.00  0.00     0.173 A 
ATOM     62  F   UNL     1       6.343  10.346  10.678  1.00  0.00    -0.203 F 
ATOM     63  C   UNL     1       5.378  10.143  12.813  1.00  0.00     0.198 A 
ATOM     64  C   UNL     1       3.155  10.954  13.210  1.00  0.00     0.198 A 
ATOM     65  F   UNL     1       1.916  11.908  11.454  1.00  0.00    -0.203 F 
ATOM     66  F   UNL     1       6.483   9.522  13.249  1.00  0.00    -0.200 F 
ATOM     67  C   UNL     1       4.311  10.343  13.674  1.00  0.00     0.200 A 
ATOM     68  F   UNL     1       2.128  11.161  14.045  1.00  0.00    -0.200 F 
ATOM     69  F   UNL     1       4.391   9.938  14.949  1.00  0.00    -0.200 F 
ENDBRANCH  45  59
BRANCH  46  70
ATOM     70  C   UNL     1       2.953  13.441   1.327  1.00  0.00     0.064 A 
ATOM     71  C   UNL     1       3.972  14.086   0.613  1.00  0.00     0.173 A 
ATOM     72  C   UNL     1       1.774  13.122   0.638  1.00  0.00     0.173 A 
ATOM     73  F   UNL     1       5.111  14.427   1.233  1.00  0.00    -0.203 F 
ATOM     74  C   UNL     1       3.813  14.413  -0.732  1.00  0.00     0.198 A 
ATOM     75  C   UNL     1       1.627  13.427  -0.714  1.00  0.00     0.198 A 
ATOM     76  F   UNL     1       0.772  12.497   1.274  1.00  0.00    -0.203 F 
ATOM     77  F   UNL     1       4.789  15.063  -1.381  1.00  0.00    -0.200 F 
ATOM     78  C   UNL     1       2.643  14.077  -1.396  1.00  0.00     0.200 A 
ATOM     79  F   UNL     1       0.501  13.086  -1.357  1.00  0.00    -0.200 F 
ATOM     80  F   UNL     1       2.495  14.384  -2.692  1.00  0.00    -0.200 F 
ENDBRANCH  46  70
BRANCH  58  81
ATOM     81  C   UNL     1       3.530  17.232   7.147  1.00  0.00     0.064 A 
ATOM     82  C   UNL     1       2.359  17.997   7.053  1.00  0.00     0.173 A 
ATOM     83  C   UNL     1       4.713  17.883   7.531  1.00  0.00     0.173 A 
ATOM     84  F   UNL     1       1.207  17.423   6.675  1.00  0.00    -0.203 F 
ATOM     85  C   UNL     1       2.376  19.364   7.312  1.00  0.00     0.198 A 
ATOM     86  C   UNL     1       4.720  19.244   7.818  1.00  0.00     0.198 A 
ATOM     87  F   UNL     1       5.859  17.194   7.641  1.00  0.00    -0.203 F 
ATOM     88  F   UNL     1       1.254  20.084   7.173  1.00  0.00    -0.200 F 
ATOM     89  C   UNL     1       3.554  19.985   7.702  1.00  0.00     0.200 A 
ATOM     90  F   UNL     1       5.856  19.839   8.208  1.00  0.00    -0.200 F 
ATOM     91  F   UNL     1       3.566  21.300   7.960  1.00  0.00    -0.200 F 
ENDBRANCH  58  81
ENDBRANCH  32  33
ENDBRANCH  24  27
ENDBRANCH  22  23
ENDBRANCH  21  22
ENDBRANCH   1  21
TORSDOF 15
