REMARK SMILES O=C(CC[NH+]1CC[NH+]([C@@H]2CCO[C@@]3(CCOC3)C2)CC1)NCCCNC(=O)c1ccc(-c2c3nc(c(-c4c(F)c(F)c(F)c(F)c4F)c4ccc([nH]4)c(-c4c(F)c(F)c(F)c(F)c4F)c4nc(c(-c5c(F)c(F)c(F)c(F)c5F)c5ccc2[nH]5)C=C4)C=C3)cc1
REMARK SMILES IDX 22 1 21 2 1 3 2 4 3 6 4 7 5 8 6 9 20 10 7 12 19 13 8 14 9 16
REMARK SMILES IDX 10 17 18 18 11 19 13 20 12 21 14 22 17 23 15 24 16 25 23 26
REMARK SMILES IDX 24 27 25 28 26 29 27 31 28 32 29 33 90 34 30 35 89 36 31 37
REMARK SMILES IDX 32 38 33 39 83 40 34 41 88 42 82 43 84 44 35 45 87 46 81 47
REMARK SMILES IDX 80 48 36 50 68 51 48 52 67 53 49 54 52 55 66 56 85 57 50 58
REMARK SMILES IDX 51 59 65 61 86 62 53 63 37 64 38 65 46 66 39 67 40 68 44 69
REMARK SMILES IDX 47 70 41 71 42 72 45 73 43 74 69 75 70 76 78 77 71 78 72 79
REMARK SMILES IDX 76 80 79 81 73 82 74 83 77 84 75 85 54 86 55 87 63 88 56 89
REMARK SMILES IDX 57 90 61 91 64 92 58 93 59 94 62 95 60 96
REMARK H PARENT 21 5 5 11 8 15 25 30 84 49 52 60
REMARK Flexibility Score: inf
ROOT
ATOM      1  C   UNL     1       1.863   0.779   2.294  1.00  0.00     0.117 C 
ENDROOT
BRANCH   1   2
ATOM      2  N   UNL     1       2.368  -0.255   1.397  1.00  0.00    -0.356 N 
ATOM      3  O   UNL     1       0.895   0.251  -0.292  1.00  0.00    -0.275 OA
ATOM      4  C   UNL     1       1.885  -0.364   0.097  1.00  0.00     0.225 C 
ATOM      5  H   UNL     1       3.058  -0.882   1.714  1.00  0.00     0.163 HD
BRANCH   4   6
ATOM      6  C   UNL     1       2.694  -1.262  -0.849  1.00  0.00     0.161 C 
BRANCH   6   7
ATOM      7  C   UNL     1       3.296  -0.531  -2.093  1.00  0.00     0.272 C 
BRANCH   7   8
ATOM      8  N   UNL     1       4.625   0.111  -1.897  1.00  0.00    -0.325 N 
ATOM      9  C   UNL     1       5.023   1.049  -2.989  1.00  0.00     0.324 C 
ATOM     10  C   UNL     1       4.663   0.910  -0.681  1.00  0.00     0.324 C 
ATOM     11  H   UNL     1       5.264  -0.683  -1.867  1.00  0.00     0.348 HD
ATOM     12  C   UNL     1       4.508   2.554  -2.968  1.00  0.00     0.324 C 
ATOM     13  C   UNL     1       3.671   2.071  -0.808  1.00  0.00     0.324 C 
ATOM     14  N   UNL     1       4.064   3.165  -1.689  1.00  0.00    -0.323 N 
ATOM     15  H   UNL     1       3.238   3.746  -1.835  1.00  0.00     0.348 HD
BRANCH  14  16
ATOM     16  C   UNL     1       4.888   4.274  -1.154  1.00  0.00     0.189 C 
ATOM     17  C   UNL     1       6.120   3.853  -0.370  1.00  0.00     0.093 C 
ATOM     18  C   UNL     1       4.161   5.323  -0.236  1.00  0.00     0.103 C 
ATOM     19  C   UNL     1       5.787   3.634   1.099  1.00  0.00     0.167 C 
ATOM     20  C   UNL     1       3.561   4.695   1.029  1.00  0.00     0.099 C 
ATOM     21  O   UNL     1       4.375   3.555   1.393  1.00  0.00    -0.372 OA
ATOM     22  C   UNL     1       3.422   5.542   2.303  1.00  0.00     0.066 C 
ATOM     23  C   UNL     1       2.058   4.363   0.746  1.00  0.00     0.195 C 
ATOM     24  C   UNL     1       1.942   5.767   2.520  1.00  0.00     0.163 C 
ATOM     25  O   UNL     1       1.313   4.628   1.944  1.00  0.00    -0.378 OA
ENDBRANCH  14  16
ENDBRANCH   7   8
ENDBRANCH   6   7
ENDBRANCH   4   6
ENDBRANCH   1   2
BRANCH   1  26
ATOM     26  C   UNL     1       2.349   0.726   3.743  1.00  0.00     0.042 C 
BRANCH  26  27
ATOM     27  C   UNL     1       3.851   0.874   3.986  1.00  0.00     0.118 C 
BRANCH  27  28
ATOM     28  N   UNL     1       4.407   2.173   3.633  1.00  0.00    -0.352 N 
ATOM     29  C   UNL     1       5.238   3.023   4.310  1.00  0.00     0.251 C 
ATOM     30  H   UNL     1       4.134   2.499   2.745  1.00  0.00     0.163 HD
ATOM     31  O   UNL     1       5.710   4.059   3.823  1.00  0.00    -0.269 OA
BRANCH  29  32
ATOM     32  C   UNL     1       5.615   2.802   5.684  1.00  0.00     0.039 A 
ATOM     33  C   UNL     1       5.564   3.913   6.539  1.00  0.00     0.014 A 
ATOM     34  C   UNL     1       6.107   1.568   6.089  1.00  0.00     0.014 A 
ATOM     35  C   UNL     1       5.961   3.769   7.848  1.00  0.00     0.010 A 
ATOM     36  C   UNL     1       6.408   1.399   7.419  1.00  0.00     0.010 A 
ATOM     37  C   UNL     1       6.341   2.499   8.290  1.00  0.00    -0.014 A 
BRANCH  37  38
ATOM     38  C   UNL     1       6.698   2.281   9.690  1.00  0.00     0.031 A 
ATOM     39  C   UNL     1       8.103   1.897  10.006  1.00  0.00     0.074 A 
ATOM     40  C   UNL     1       5.709   2.321  10.596  1.00  0.00     0.049 A 
ATOM     41  N   UNL     1       8.602   1.460  11.127  1.00  0.00    -0.248 NA
ATOM     42  C   UNL     1       9.067   1.953   8.892  1.00  0.00     0.031 C 
ATOM     43  C   UNL     1       4.308   2.649  10.307  1.00  0.00     0.029 A 
ATOM     44  N   UNL     1       5.723   2.059  11.933  1.00  0.00    -0.354 N 
ATOM     45  C   UNL     1       9.925   1.156  10.845  1.00  0.00     0.074 A 
ATOM     46  C   UNL     1      10.138   1.399   9.437  1.00  0.00     0.031 C 
ATOM     47  C   UNL     1       3.599   2.581  11.443  1.00  0.00     0.029 A 
ATOM     48  C   UNL     1       4.487   2.162  12.518  1.00  0.00     0.049 A 
ATOM     49  H   UNL     1       6.539   1.821  12.430  1.00  0.00     0.167 HD
ATOM     50  C   UNL     1      10.871   0.729  11.710  1.00  0.00     0.037 A 
ATOM     51  C   UNL     1       4.131   1.924  13.790  1.00  0.00     0.037 A 
ATOM     52  C   UNL     1      10.603   0.533  13.110  1.00  0.00     0.049 A 
ATOM     53  C   UNL     1       5.215   1.495  14.737  1.00  0.00     0.074 A 
ATOM     54  C   UNL     1      11.471   0.157  14.116  1.00  0.00     0.029 A 
ATOM     55  N   UNL     1       9.354   0.713  13.697  1.00  0.00    -0.354 N 
ATOM     56  N   UNL     1       6.481   1.251  14.487  1.00  0.00    -0.248 NA
ATOM     57  C   UNL     1       4.831   1.324  16.139  1.00  0.00     0.031 C 
ATOM     58  C   UNL     1      10.738   0.073  15.305  1.00  0.00     0.029 A 
ATOM     59  C   UNL     1       9.425   0.449  15.053  1.00  0.00     0.049 A 
ATOM     60  H   UNL     1       8.540   0.989  13.218  1.00  0.00     0.167 HD
ATOM     61  C   UNL     1       7.055   0.922  15.704  1.00  0.00     0.074 A 
ATOM     62  C   UNL     1       5.996   1.022  16.693  1.00  0.00     0.031 C 
ATOM     63  C   UNL     1       8.333   0.566  15.989  1.00  0.00     0.037 A 
BRANCH  50  64
ATOM     64  C   UNL     1      12.240   0.454  11.162  1.00  0.00     0.064 A 
ATOM     65  C   UNL     1      13.051   1.478  10.645  1.00  0.00     0.173 A 
ATOM     66  C   UNL     1      12.750  -0.853  11.141  1.00  0.00     0.173 A 
ATOM     67  F   UNL     1      12.605   2.744  10.617  1.00  0.00    -0.203 F 
ATOM     68  C   UNL     1      14.301   1.200  10.097  1.00  0.00     0.198 A 
ATOM     69  C   UNL     1      14.016  -1.122  10.625  1.00  0.00     0.198 A 
ATOM     70  F   UNL     1      12.018  -1.873  11.613  1.00  0.00    -0.203 F 
ATOM     71  F   UNL     1      15.025   2.187   9.550  1.00  0.00    -0.200 F 
ATOM     72  C   UNL     1      14.786  -0.098  10.095  1.00  0.00     0.200 A 
ATOM     73  F   UNL     1      14.486  -2.377  10.630  1.00  0.00    -0.200 F 
ATOM     74  F   UNL     1      15.990  -0.364   9.570  1.00  0.00    -0.200 F 
ENDBRANCH  50  64
BRANCH  51  75
ATOM     75  C   UNL     1       2.728   2.140  14.222  1.00  0.00     0.064 A 
ATOM     76  C   UNL     1       2.400   3.205  15.072  1.00  0.00     0.173 A 
ATOM     77  C   UNL     1       1.682   1.324  13.767  1.00  0.00     0.173 A 
ATOM     78  F   UNL     1       3.365   4.014  15.534  1.00  0.00    -0.203 F 
ATOM     79  C   UNL     1       1.084   3.430  15.471  1.00  0.00     0.198 A 
ATOM     80  C   UNL     1       0.362   1.567  14.143  1.00  0.00     0.198 A 
ATOM     81  F   UNL     1       1.938   0.305  12.932  1.00  0.00    -0.203 F 
ATOM     82  F   UNL     1       0.806   4.432  16.316  1.00  0.00    -0.200 F 
ATOM     83  C   UNL     1       0.066   2.614  15.003  1.00  0.00     0.200 A 
ATOM     84  F   UNL     1      -0.622   0.791  13.669  1.00  0.00    -0.200 F 
ATOM     85  F   UNL     1      -1.200   2.836  15.381  1.00  0.00    -0.200 F 
ENDBRANCH  51  75
BRANCH  63  86
ATOM     86  C   UNL     1       8.639   0.296  17.430  1.00  0.00     0.064 A 
ATOM     87  C   UNL     1       8.155  -0.846  18.082  1.00  0.00     0.173 A 
ATOM     88  C   UNL     1       9.445   1.185  18.157  1.00  0.00     0.173 A 
ATOM     89  F   UNL     1       7.367  -1.714  17.429  1.00  0.00    -0.203 F 
ATOM     90  C   UNL     1       8.434  -1.069  19.426  1.00  0.00     0.198 A 
ATOM     91  C   UNL     1       9.753   0.938  19.490  1.00  0.00     0.198 A 
ATOM     92  F   UNL     1       9.939   2.286  17.572  1.00  0.00    -0.203 F 
ATOM     93  F   UNL     1       7.908  -2.133  20.048  1.00  0.00    -0.200 F 
ATOM     94  C   UNL     1       9.238  -0.182  20.126  1.00  0.00     0.200 A 
ATOM     95  F   UNL     1      10.543   1.787  20.161  1.00  0.00    -0.200 F 
ATOM     96  F   UNL     1       9.508  -0.401  21.419  1.00  0.00    -0.200 F 
ENDBRANCH  63  86
ENDBRANCH  37  38
ENDBRANCH  29  32
ENDBRANCH  27  28
ENDBRANCH  26  27
ENDBRANCH   1  26
TORSDOF 13
