REMARK SMILES O=C(NCCCNC(=O)c1cc(-c2ccc[nH]c2=O)ccc1Cl)c1ccc(-c2c3nc(c(-c4c(F)c(F)c(F)c(F)c4F)c4ccc([nH]4)c(-c4c(F)c(F)c(F)c(F)c4F)c4nc(c(-c5c(F)c(F)c(F)c(F)c5F)c5ccc2[nH]5)C=C4)C=C3)cc1
REMARK SMILES IDX 4 1 3 2 1 3 2 4 24 6 25 7 86 8 26 9 85 10 27 11 28 12 29 13
REMARK SMILES IDX 79 14 30 15 84 16 78 17 80 18 31 19 83 20 77 21 76 22 32 24
REMARK SMILES IDX 64 25 44 26 63 27 45 28 48 29 62 30 81 31 46 32 47 33 61 35
REMARK SMILES IDX 82 36 49 37 33 38 34 39 42 40 35 41 36 42 40 43 43 44 37 45
REMARK SMILES IDX 38 46 41 47 39 48 65 49 66 50 74 51 67 52 68 53 72 54 75 55
REMARK SMILES IDX 69 56 70 57 73 58 71 59 50 60 51 61 59 62 52 63 53 64 57 65
REMARK SMILES IDX 60 66 54 67 55 68 58 69 56 70 5 71 6 72 7 73 8 74 9 76 10 77
REMARK SMILES IDX 11 78 22 79 12 80 21 81 23 82 20 83 13 84 14 85 18 86 15 87
REMARK SMILES IDX 17 88 19 89 16 90
REMARK H PARENT 3 5 80 23 48 34 7 75 17 91
REMARK Flexibility Score: inf
ROOT
ATOM      1  C   UNL     1       4.598  -1.173   0.546  1.00  0.00     0.118 C 
ENDROOT
BRANCH   1   2
ATOM      2  N   UNL     1       3.156  -1.052   0.373  1.00  0.00    -0.352 N 
ATOM      3  O   UNL     1       1.165  -0.052   0.052  1.00  0.00    -0.269 OA
ATOM      4  C   UNL     1       2.390   0.009  -0.039  1.00  0.00     0.251 C 
ATOM      5  H   UNL     1       2.648  -1.867   0.588  1.00  0.00     0.163 HD
BRANCH   4   6
ATOM      6  C   UNL     1       3.021   1.238  -0.564  1.00  0.00     0.039 A 
ATOM      7  C   UNL     1       4.108   1.177  -1.438  1.00  0.00     0.014 A 
ATOM      8  C   UNL     1       2.493   2.480  -0.198  1.00  0.00     0.014 A 
ATOM      9  C   UNL     1       4.771   2.342  -1.805  1.00  0.00     0.010 A 
ATOM     10  C   UNL     1       3.097   3.655  -0.651  1.00  0.00     0.010 A 
ATOM     11  C   UNL     1       4.265   3.595  -1.428  1.00  0.00    -0.014 A 
BRANCH  11  12
ATOM     12  C   UNL     1       4.938   4.835  -1.890  1.00  0.00     0.031 A 
ATOM     13  C   UNL     1       5.541   5.796  -0.906  1.00  0.00     0.074 A 
ATOM     14  C   UNL     1       4.997   5.093  -3.210  1.00  0.00     0.049 A 
ATOM     15  N   UNL     1       6.115   6.953  -1.124  1.00  0.00    -0.248 NA
ATOM     16  C   UNL     1       5.485   5.413   0.513  1.00  0.00     0.031 C 
ATOM     17  C   UNL     1       4.448   4.234  -4.261  1.00  0.00     0.029 A 
ATOM     18  N   UNL     1       5.540   6.149  -3.895  1.00  0.00    -0.354 N 
ATOM     19  C   UNL     1       6.465   7.446   0.126  1.00  0.00     0.074 A 
ATOM     20  C   UNL     1       6.014   6.476   1.101  1.00  0.00     0.031 C 
ATOM     21  C   UNL     1       4.702   4.783  -5.456  1.00  0.00     0.029 A 
ATOM     22  C   UNL     1       5.368   6.065  -5.254  1.00  0.00     0.049 A 
ATOM     23  H   UNL     1       6.008   6.895  -3.455  1.00  0.00     0.167 HD
ATOM     24  C   UNL     1       7.109   8.600   0.427  1.00  0.00     0.037 A 
ATOM     25  C   UNL     1       5.680   6.937  -6.230  1.00  0.00     0.037 A 
ATOM     26  C   UNL     1       7.558   9.556  -0.554  1.00  0.00     0.049 A 
ATOM     27  C   UNL     1       6.352   8.230  -5.867  1.00  0.00     0.074 A 
ATOM     28  C   UNL     1       8.248  10.739  -0.354  1.00  0.00     0.029 A 
ATOM     29  N   UNL     1       7.349   9.443  -1.922  1.00  0.00    -0.354 N 
ATOM     30  N   UNL     1       6.706   8.673  -4.685  1.00  0.00    -0.248 NA
ATOM     31  C   UNL     1       6.667   9.144  -6.972  1.00  0.00     0.031 C 
ATOM     32  C   UNL     1       8.404  11.370  -1.593  1.00  0.00     0.029 A 
ATOM     33  C   UNL     1       7.873  10.549  -2.575  1.00  0.00     0.049 A 
ATOM     34  H   UNL     1       6.896   8.689  -2.364  1.00  0.00     0.167 HD
ATOM     35  C   UNL     1       7.311   9.902  -4.905  1.00  0.00     0.074 A 
ATOM     36  C   UNL     1       7.282  10.131  -6.335  1.00  0.00     0.031 C 
ATOM     37  C   UNL     1       7.846  10.760  -4.001  1.00  0.00     0.037 A 
BRANCH  24  38
ATOM     38  C   UNL     1       7.337   8.910   1.881  1.00  0.00     0.064 A 
ATOM     39  C   UNL     1       8.229   8.166   2.668  1.00  0.00     0.173 A 
ATOM     40  C   UNL     1       6.668   9.984   2.490  1.00  0.00     0.173 A 
ATOM     41  F   UNL     1       8.888   7.124   2.141  1.00  0.00    -0.203 F 
ATOM     42  C   UNL     1       8.413   8.461   4.018  1.00  0.00     0.198 A 
ATOM     43  C   UNL     1       6.880  10.297   3.831  1.00  0.00     0.198 A 
ATOM     44  F   UNL     1       5.810  10.736   1.784  1.00  0.00    -0.203 F 
ATOM     45  F   UNL     1       9.225   7.698   4.763  1.00  0.00    -0.200 F 
ATOM     46  C   UNL     1       7.743   9.529   4.596  1.00  0.00     0.200 A 
ATOM     47  F   UNL     1       6.243  11.339   4.383  1.00  0.00    -0.200 F 
ATOM     48  F   UNL     1       7.922   9.811   5.894  1.00  0.00    -0.200 F 
ENDBRANCH  24  38
BRANCH  25  49
ATOM     49  C   UNL     1       5.348   6.605  -7.639  1.00  0.00     0.064 A 
ATOM     50  C   UNL     1       6.354   6.315  -8.569  1.00  0.00     0.173 A 
ATOM     51  C   UNL     1       4.015   6.535  -8.074  1.00  0.00     0.173 A 
ATOM     52  F   UNL     1       7.643   6.385  -8.204  1.00  0.00    -0.203 F 
ATOM     53  C   UNL     1       6.042   5.979  -9.884  1.00  0.00     0.198 A 
ATOM     54  C   UNL     1       3.703   6.167  -9.380  1.00  0.00     0.198 A 
ATOM     55  F   UNL     1       3.015   6.794  -7.219  1.00  0.00    -0.203 F 
ATOM     56  F   UNL     1       7.024   5.740 -10.764  1.00  0.00    -0.200 F 
ATOM     57  C   UNL     1       4.716   5.896 -10.286  1.00  0.00     0.200 A 
ATOM     58  F   UNL     1       2.421   6.069  -9.758  1.00  0.00    -0.200 F 
ATOM     59  F   UNL     1       4.417   5.557 -11.547  1.00  0.00    -0.200 F 
ENDBRANCH  25  49
BRANCH  37  60
ATOM     60  C   UNL     1       8.493  12.006  -4.533  1.00  0.00     0.064 A 
ATOM     61  C   UNL     1       7.742  13.061  -5.070  1.00  0.00     0.173 A 
ATOM     62  C   UNL     1       9.886  12.163  -4.458  1.00  0.00     0.173 A 
ATOM     63  F   UNL     1       6.409  12.954  -5.180  1.00  0.00    -0.203 F 
ATOM     64  C   UNL     1       8.364  14.219  -5.532  1.00  0.00     0.198 A 
ATOM     65  C   UNL     1      10.501  13.334  -4.890  1.00  0.00     0.198 A 
ATOM     66  F   UNL     1      10.651  11.185  -3.949  1.00  0.00    -0.203 F 
ATOM     67  F   UNL     1       7.631  15.196  -6.083  1.00  0.00    -0.200 F 
ATOM     68  C   UNL     1       9.740  14.358  -5.433  1.00  0.00     0.200 A 
ATOM     69  F   UNL     1      11.829  13.472  -4.779  1.00  0.00    -0.200 F 
ATOM     70  F   UNL     1      10.335  15.479  -5.866  1.00  0.00    -0.200 F 
ENDBRANCH  37  60
ENDBRANCH  11  12
ENDBRANCH   4   6
ENDBRANCH   1   2
BRANCH   1  71
ATOM     71  C   UNL     1       5.018  -1.261   2.006  1.00  0.00     0.042 C 
BRANCH  71  72
ATOM     72  C   UNL     1       4.502  -2.496   2.726  1.00  0.00     0.118 C 
BRANCH  72  73
ATOM     73  N   UNL     1       4.987  -3.733   2.135  1.00  0.00    -0.352 N 
ATOM     74  C   UNL     1       5.695  -4.758   2.710  1.00  0.00     0.252 C 
ATOM     75  H   UNL     1       4.776  -3.854   1.181  1.00  0.00     0.163 HD
ATOM     76  O   UNL     1       6.101  -5.686   2.018  1.00  0.00    -0.269 OA
BRANCH  74  77
ATOM     77  C   UNL     1       6.043  -4.710   4.141  1.00  0.00     0.059 A 
ATOM     78  C   UNL     1       7.409  -4.794   4.463  1.00  0.00     0.024 A 
ATOM     79  C   UNL     1       5.085  -4.636   5.158  1.00  0.00     0.053 A 
ATOM     80  C   UNL     1       7.826  -4.739   5.799  1.00  0.00    -0.012 A 
ATOM     81  C   UNL     1       5.501  -4.509   6.483  1.00  0.00     0.022 A 
ATOM     82  Cl  UNL     1       3.385  -4.754   4.867  1.00  0.00    -0.083 Cl
ATOM     83  C   UNL     1       6.861  -4.550   6.798  1.00  0.00     0.010 A 
BRANCH  80  84
ATOM     84  C   UNL     1       9.235  -4.960   6.173  1.00  0.00     0.047 A 
ATOM     85  C   UNL     1      10.236  -4.229   5.643  1.00  0.00     0.016 A 
ATOM     86  C   UNL     1       9.598  -6.030   7.176  1.00  0.00     0.255 A 
ATOM     87  C   UNL     1      11.616  -4.453   6.015  1.00  0.00     0.019 A 
ATOM     88  N   UNL     1      10.936  -6.168   7.461  1.00  0.00    -0.329 N 
ATOM     89  O   UNL     1       8.759  -6.744   7.718  1.00  0.00    -0.269 OA
ATOM     90  C   UNL     1      11.924  -5.406   6.902  1.00  0.00     0.086 A 
ATOM     91  H   UNL     1      11.199  -6.860   8.110  1.00  0.00     0.169 HD
ENDBRANCH  80  84
ENDBRANCH  74  77
ENDBRANCH  72  73
ENDBRANCH  71  72
ENDBRANCH   1  71
TORSDOF 11
