REMARK SMILES CC(C)C[C@H](NC(=O)CNC(=O)[C@@H]([NH3+])C(C)C)C(=O)NCCCNC(=O)c1ccc(-c2c3nc(c(-c4c(F)c(F)c(F)c(F)c4F)c4ccc([nH]4)c(-c4c(F)c(F)c(F)c(F)c4F)c4nc(c(-c5c(F)c(F)c(F)c(F)c5F)c5ccc2[nH]5)C=C4)C=C3)cc1
REMARK SMILES IDX 18 1 19 2 20 3 5 5 4 6 2 7 1 8 3 9 6 10 7 11 8 13 9 14 10 15
REMARK SMILES IDX 11 16 12 18 13 19 14 20 15 24 16 25 17 26 21 27 22 28 23 29
REMARK SMILES IDX 24 30 25 31 26 33 27 34 28 35 89 36 29 37 88 38 30 39 31 40
REMARK SMILES IDX 32 41 82 42 33 43 87 44 81 45 83 46 34 47 86 48 80 49 79 50
REMARK SMILES IDX 35 52 67 53 47 54 66 55 48 56 51 57 65 58 84 59 49 60 50 61
REMARK SMILES IDX 64 63 85 64 52 65 36 66 37 67 45 68 38 69 39 70 43 71 46 72
REMARK SMILES IDX 40 73 41 74 44 75 42 76 68 77 69 78 77 79 70 80 71 81 75 82
REMARK SMILES IDX 78 83 72 84 73 85 76 86 74 87 53 88 54 89 62 90 55 91 56 92
REMARK SMILES IDX 60 93 63 94 57 95 58 96 61 97 59 98
REMARK H PARENT 20 4 6 12 10 17 14 21 14 22 14 23 24 32 83 51 51 62
REMARK Flexibility Score: inf
ROOT
ATOM      1  C   UNL     1      -2.720  -0.169  -1.952  1.00  0.00     0.242 C 
ATOM      2  O   UNL     1      -3.442   0.808  -1.716  1.00  0.00    -0.273 OA
ATOM      3  N   UNL     1      -3.340  -1.306  -2.365  1.00  0.00    -0.354 N 
ATOM      4  H   UNL     1      -4.322  -1.282  -2.293  1.00  0.00     0.163 HD
ENDROOT
BRANCH   1   5
ATOM      5  C   UNL     1      -1.186  -0.033  -1.909  1.00  0.00     0.171 C 
BRANCH   5   6
ATOM      6  C   UNL     1      -0.569  -0.006  -3.314  1.00  0.00     0.038 C 
BRANCH   6   7
ATOM      7  C   UNL     1      -1.035   1.187  -4.179  1.00  0.00    -0.015 C 
ATOM      8  C   UNL     1      -0.557   2.525  -3.618  1.00  0.00     0.007 C 
ATOM      9  C   UNL     1      -0.529   1.016  -5.611  1.00  0.00     0.007 C 
ENDBRANCH   6   7
ENDBRANCH   5   6
BRANCH   5  10
ATOM     10  N   UNL     1      -0.562  -1.041  -1.053  1.00  0.00    -0.343 N 
ATOM     11  C   UNL     1      -0.039  -0.923   0.201  1.00  0.00     0.240 C 
ATOM     12  H   UNL     1      -0.511  -1.944  -1.442  1.00  0.00     0.164 HD
ATOM     13  O   UNL     1       0.176  -1.981   0.804  1.00  0.00    -0.273 OA
BRANCH  11  14
ATOM     14  C   UNL     1       0.155   0.427   0.914  1.00  0.00     0.216 C 
BRANCH  14  15
ATOM     15  N   UNL     1       0.679   1.507   0.093  1.00  0.00    -0.342 N 
ATOM     16  C   UNL     1       0.205   2.767  -0.121  1.00  0.00     0.278 C 
ATOM     17  H   UNL     1       1.512   1.293  -0.387  1.00  0.00     0.164 HD
ATOM     18  O   UNL     1       0.874   3.495  -0.863  1.00  0.00    -0.268 OA
BRANCH  16  19
ATOM     19  C   UNL     1      -1.083   3.310   0.552  1.00  0.00     0.273 C 
BRANCH  19  20
ATOM     20  N   UNL     1      -2.185   2.331   0.472  1.00  0.00    -0.347 N 
ATOM     21  H   UNL     1      -1.924   1.484   0.977  1.00  0.00     0.345 HD
ATOM     22  H   UNL     1      -2.367   2.103  -0.505  1.00  0.00     0.345 HD
ATOM     23  H   UNL     1      -3.026   2.731   0.890  1.00  0.00     0.345 HD
ENDBRANCH  19  20
BRANCH  19  24
ATOM     24  C   UNL     1      -0.797   3.771   2.001  1.00  0.00     0.051 C 
ATOM     25  C   UNL     1       0.195   4.943   2.005  1.00  0.00     0.014 C 
ATOM     26  C   UNL     1      -2.071   4.210   2.735  1.00  0.00     0.014 C 
ENDBRANCH  19  24
ENDBRANCH  16  19
ENDBRANCH  14  15
ENDBRANCH  11  14
ENDBRANCH   5  10
ENDBRANCH   1   5
BRANCH   3  27
ATOM     27  C   UNL     1      -2.811  -2.549  -2.892  1.00  0.00     0.117 C 
BRANCH  27  28
ATOM     28  C   UNL     1      -3.256  -3.756  -2.081  1.00  0.00     0.042 C 
BRANCH  28  29
ATOM     29  C   UNL     1      -4.768  -3.923  -1.992  1.00  0.00     0.118 C 
BRANCH  29  30
ATOM     30  N   UNL     1      -5.402  -4.018  -3.300  1.00  0.00    -0.352 N 
ATOM     31  C   UNL     1      -6.060  -5.059  -3.898  1.00  0.00     0.251 C 
ATOM     32  H   UNL     1      -5.348  -3.199  -3.844  1.00  0.00     0.163 HD
ATOM     33  O   UNL     1      -6.336  -4.992  -5.096  1.00  0.00    -0.269 OA
BRANCH  31  34
ATOM     34  C   UNL     1      -6.436  -6.262  -3.128  1.00  0.00     0.039 A 
ATOM     35  C   UNL     1      -6.352  -7.513  -3.746  1.00  0.00     0.014 A 
ATOM     36  C   UNL     1      -6.925  -6.162  -1.823  1.00  0.00     0.014 A 
ATOM     37  C   UNL     1      -6.720  -8.661  -3.044  1.00  0.00     0.010 A 
ATOM     38  C   UNL     1      -7.200  -7.312  -1.092  1.00  0.00     0.010 A 
ATOM     39  C   UNL     1      -7.130  -8.571  -1.704  1.00  0.00    -0.014 A 
BRANCH  39  40
ATOM     40  C   UNL     1      -7.552  -9.776  -0.949  1.00  0.00     0.031 A 
ATOM     41  C   UNL     1      -8.975  -9.902  -0.475  1.00  0.00     0.074 A 
ATOM     42  C   UNL     1      -6.651 -10.731  -0.653  1.00  0.00     0.049 A 
ATOM     43  N   UNL     1      -9.534 -10.854   0.228  1.00  0.00    -0.248 NA
ATOM     44  C   UNL     1      -9.883  -8.792  -0.806  1.00  0.00     0.031 C 
ATOM     45  C   UNL     1      -5.230 -10.693  -1.003  1.00  0.00     0.029 A 
ATOM     46  N   UNL     1      -6.797 -11.920   0.015  1.00  0.00    -0.354 N 
ATOM     47  C   UNL     1     -10.845 -10.444   0.441  1.00  0.00     0.074 A 
ATOM     48  C   UNL     1     -10.983  -9.134  -0.153  1.00  0.00     0.031 C 
ATOM     49  C   UNL     1      -4.642 -11.821  -0.575  1.00  0.00     0.029 A 
ATOM     50  C   UNL     1      -5.637 -12.650   0.099  1.00  0.00     0.049 A 
ATOM     51  H   UNL     1      -7.653 -12.222   0.397  1.00  0.00     0.167 HD
ATOM     52  C   UNL     1     -11.852 -11.114   1.051  1.00  0.00     0.037 A 
ATOM     53  C   UNL     1      -5.410 -13.857   0.650  1.00  0.00     0.037 A 
ATOM     54  C   UNL     1     -11.722 -12.437   1.600  1.00  0.00     0.049 A 
ATOM     55  C   UNL     1      -6.557 -14.604   1.272  1.00  0.00     0.074 A 
ATOM     56  C   UNL     1     -12.691 -13.228   2.191  1.00  0.00     0.029 A 
ATOM     57  N   UNL     1     -10.543 -13.168   1.615  1.00  0.00    -0.354 N 
ATOM     58  N   UNL     1      -7.808 -14.237   1.409  1.00  0.00    -0.248 NA
ATOM     59  C   UNL     1      -6.264 -15.944   1.799  1.00  0.00     0.031 C 
ATOM     60  C   UNL     1     -12.092 -14.429   2.587  1.00  0.00     0.029 A 
ATOM     61  C   UNL     1     -10.760 -14.401   2.206  1.00  0.00     0.049 A 
ATOM     62  H   UNL     1      -9.680 -12.856   1.257  1.00  0.00     0.167 HD
ATOM     63  C   UNL     1      -8.458 -15.309   2.003  1.00  0.00     0.074 A 
ATOM     64  C   UNL     1      -7.465 -16.347   2.191  1.00  0.00     0.031 C 
ATOM     65  C   UNL     1      -9.760 -15.426   2.362  1.00  0.00     0.037 A 
BRANCH  52  66
ATOM     66  C   UNL     1     -13.184 -10.428   1.139  1.00  0.00     0.064 A 
ATOM     67  C   UNL     1     -13.976 -10.211   0.001  1.00  0.00     0.173 A 
ATOM     68  C   UNL     1     -13.683  -9.995   2.377  1.00  0.00     0.173 A 
ATOM     69  F   UNL     1     -13.538 -10.591  -1.209  1.00  0.00    -0.203 F 
ATOM     70  C   UNL     1     -15.202  -9.557   0.093  1.00  0.00     0.198 A 
ATOM     71  C   UNL     1     -14.924  -9.369   2.470  1.00  0.00     0.198 A 
ATOM     72  F   UNL     1     -12.969 -10.180   3.497  1.00  0.00    -0.203 F 
ATOM     73  F   UNL     1     -15.914  -9.312  -1.015  1.00  0.00    -0.200 F 
ATOM     74  C   UNL     1     -15.678  -9.143   1.328  1.00  0.00     0.200 A 
ATOM     75  F   UNL     1     -15.387  -8.978   3.665  1.00  0.00    -0.200 F 
ATOM     76  F   UNL     1     -16.859  -8.516   1.416  1.00  0.00    -0.200 F 
ENDBRANCH  52  66
BRANCH  53  77
ATOM     77  C   UNL     1      -4.053 -14.459   0.582  1.00  0.00     0.064 A 
ATOM     78  C   UNL     1      -3.797 -15.554  -0.255  1.00  0.00     0.173 A 
ATOM     79  C   UNL     1      -2.991 -13.957   1.346  1.00  0.00     0.173 A 
ATOM     80  F   UNL     1      -4.787 -16.078  -0.993  1.00  0.00    -0.203 F 
ATOM     81  C   UNL     1      -2.534 -16.139  -0.308  1.00  0.00     0.198 A 
ATOM     82  C   UNL     1      -1.721 -14.527   1.273  1.00  0.00     0.198 A 
ATOM     83  F   UNL     1      -3.183 -12.906   2.156  1.00  0.00    -0.203 F 
ATOM     84  F   UNL     1      -2.327 -17.212  -1.084  1.00  0.00    -0.200 F 
ATOM     85  C   UNL     1      -1.496 -15.623   0.452  1.00  0.00     0.200 A 
ATOM     86  F   UNL     1      -0.717 -14.017   1.999  1.00  0.00    -0.200 F 
ATOM     87  F   UNL     1      -0.281 -16.184   0.399  1.00  0.00    -0.200 F 
ENDBRANCH  53  77
BRANCH  65  88
ATOM     88  C   UNL     1     -10.194 -16.738   2.944  1.00  0.00     0.064 A 
ATOM     89  C   UNL     1      -9.825 -17.129   4.239  1.00  0.00     0.173 A 
ATOM     90  C   UNL     1     -11.017 -17.602   2.204  1.00  0.00     0.173 A 
ATOM     91  F   UNL     1      -9.029 -16.343   4.980  1.00  0.00    -0.203 F 
ATOM     92  C   UNL     1     -10.239 -18.351   4.761  1.00  0.00     0.198 A 
ATOM     93  C   UNL     1     -11.451 -18.810   2.740  1.00  0.00     0.198 A 
ATOM     94  F   UNL     1     -11.403 -17.269   0.963  1.00  0.00    -0.203 F 
ATOM     95  F   UNL     1      -9.833 -18.728   5.982  1.00  0.00    -0.200 F 
ATOM     96  C   UNL     1     -11.055 -19.188   4.014  1.00  0.00     0.200 A 
ATOM     97  F   UNL     1     -12.250 -19.611   2.022  1.00  0.00    -0.200 F 
ATOM     98  F   UNL     1     -11.454 -20.363   4.520  1.00  0.00    -0.200 F 
ENDBRANCH  65  88
ENDBRANCH  39  40
ENDBRANCH  31  34
ENDBRANCH  29  30
ENDBRANCH  28  29
ENDBRANCH  27  28
ENDBRANCH   3  27
TORSDOF 18
