REMARK SMILES O=C(C[C@H](c1ccc(C2CC2)cc1)[NH+]1CCOCC1)NCCCNC(=O)c1ccc(-c2c3nc(c(-c4c(F)c(F)c(F)c(F)c4F)c4ccc([nH]4)c(-c4c(F)c(F)c(F)c(F)c4F)c4nc(c(-c5c(F)c(F)c(F)c(F)c5F)c5ccc2[nH]5)C=C4)C=C3)cc1
REMARK SMILES IDX 21 1 20 2 1 3 2 4 3 6 4 7 14 8 15 9 19 10 16 12 18 13 17 14
REMARK SMILES IDX 5 15 6 16 13 17 7 18 12 19 8 20 9 21 10 22 11 23 22 24 23 25
REMARK SMILES IDX 24 26 25 27 26 29 27 30 28 31 89 32 29 33 88 34 30 35 31 36
REMARK SMILES IDX 32 37 82 38 33 39 87 40 81 41 83 42 34 43 86 44 80 45 79 46
REMARK SMILES IDX 35 48 67 49 47 50 66 51 48 52 51 53 65 54 84 55 49 56 50 57
REMARK SMILES IDX 64 59 85 60 52 61 36 62 37 63 45 64 38 65 39 66 43 67 46 68
REMARK SMILES IDX 40 69 41 70 44 71 42 72 68 73 69 74 77 75 70 76 71 77 75 78
REMARK SMILES IDX 78 79 72 80 73 81 76 82 74 83 53 84 54 85 62 86 55 87 56 88
REMARK SMILES IDX 60 89 63 90 57 91 58 92 61 93 59 94
REMARK H PARENT 20 5 14 11 24 28 83 47 51 58
REMARK Flexibility Score: inf
ROOT
ATOM      1  C   UNL     1       6.239  -1.289   1.993  1.00  0.00     0.117 C 
ENDROOT
BRANCH   1   2
ATOM      2  N   UNL     1       5.486  -0.378   1.155  1.00  0.00    -0.356 N 
ATOM      3  O   UNL     1       7.116  -0.211  -0.444  1.00  0.00    -0.275 OA
ATOM      4  C   UNL     1       5.958  -0.011  -0.087  1.00  0.00     0.226 C 
ATOM      5  H   UNL     1       4.628  -0.017   1.477  1.00  0.00     0.163 HD
BRANCH   4   6
ATOM      6  C   UNL     1       4.937   0.649  -0.986  1.00  0.00     0.170 C 
BRANCH   6   7
ATOM      7  C   UNL     1       3.972  -0.279  -1.771  1.00  0.00     0.224 C 
BRANCH   7   8
ATOM      8  N   UNL     1       4.586  -1.073  -2.849  1.00  0.00    -0.324 N 
ATOM      9  C   UNL     1       3.691  -1.425  -3.965  1.00  0.00     0.291 C 
ATOM     10  C   UNL     1       5.488  -2.190  -2.534  1.00  0.00     0.291 C 
ATOM     11  H   UNL     1       5.237  -0.346  -3.148  1.00  0.00     0.348 HD
ATOM     12  C   UNL     1       3.071  -2.824  -3.861  1.00  0.00     0.221 C 
ATOM     13  C   UNL     1       4.880  -3.608  -2.599  1.00  0.00     0.221 C 
ATOM     14  O   UNL     1       4.098  -3.817  -3.776  1.00  0.00    -0.370 OA
ENDBRANCH   7   8
BRANCH   7  15
ATOM     15  C   UNL     1       2.929  -0.989  -0.913  1.00  0.00     0.010 A 
ATOM     16  C   UNL     1       3.242  -2.065  -0.082  1.00  0.00     0.010 A 
ATOM     17  C   UNL     1       1.588  -0.578  -0.950  1.00  0.00     0.010 A 
ATOM     18  C   UNL     1       2.256  -2.723   0.659  1.00  0.00     0.004 A 
ATOM     19  C   UNL     1       0.606  -1.226  -0.184  1.00  0.00     0.004 A 
ATOM     20  C   UNL     1       0.916  -2.319   0.637  1.00  0.00    -0.045 A 
BRANCH  20  21
ATOM     21  C   UNL     1      -0.085  -3.077   1.479  1.00  0.00     0.019 C 
ATOM     22  C   UNL     1      -1.575  -2.867   1.427  1.00  0.00     0.009 C 
ATOM     23  C   UNL     1      -0.975  -4.085   0.789  1.00  0.00     0.009 C 
ENDBRANCH  20  21
ENDBRANCH   7  15
ENDBRANCH   6   7
ENDBRANCH   4   6
ENDBRANCH   1   2
BRANCH   1  24
ATOM     24  C   UNL     1       5.948  -1.158   3.480  1.00  0.00     0.042 C 
BRANCH  24  25
ATOM     25  C   UNL     1       4.495  -1.355   3.897  1.00  0.00     0.118 C 
BRANCH  25  26
ATOM     26  N   UNL     1       3.974  -2.691   3.667  1.00  0.00    -0.352 N 
ATOM     27  C   UNL     1       3.075  -3.424   4.413  1.00  0.00     0.251 C 
ATOM     28  H   UNL     1       4.312  -3.140   2.859  1.00  0.00     0.163 HD
ATOM     29  O   UNL     1       2.730  -4.533   4.031  1.00  0.00    -0.269 OA
BRANCH  27  30
ATOM     30  C   UNL     1       2.579  -2.905   5.712  1.00  0.00     0.039 A 
ATOM     31  C   UNL     1       2.573  -3.775   6.808  1.00  0.00     0.014 A 
ATOM     32  C   UNL     1       2.162  -1.583   5.875  1.00  0.00     0.014 A 
ATOM     33  C   UNL     1       2.247  -3.293   8.079  1.00  0.00     0.010 A 
ATOM     34  C   UNL     1       1.915  -1.084   7.155  1.00  0.00     0.010 A 
ATOM     35  C   UNL     1       1.969  -1.930   8.273  1.00  0.00    -0.014 A 
BRANCH  35  36
ATOM     36  C   UNL     1       1.773  -1.383   9.642  1.00  0.00     0.031 A 
ATOM     37  C   UNL     1       0.456  -0.786  10.053  1.00  0.00     0.074 A 
ATOM     38  C   UNL     1       2.807  -1.379  10.508  1.00  0.00     0.049 A 
ATOM     39  N   UNL     1       0.107  -0.264  11.203  1.00  0.00    -0.248 NA
ATOM     40  C   UNL     1      -0.601  -0.747   9.033  1.00  0.00     0.031 C 
ATOM     41  C   UNL     1       4.157  -1.863  10.214  1.00  0.00     0.029 A 
ATOM     42  N   UNL     1       2.885  -0.954  11.812  1.00  0.00    -0.354 N 
ATOM     43  C   UNL     1      -1.201   0.171  11.041  1.00  0.00     0.074 A 
ATOM     44  C   UNL     1      -1.566  -0.096   9.666  1.00  0.00     0.031 C 
ATOM     45  C   UNL     1       4.919  -1.739  11.313  1.00  0.00     0.029 A 
ATOM     46  C   UNL     1       4.122  -1.143  12.380  1.00  0.00     0.049 A 
ATOM     47  H   UNL     1       2.127  -0.551  12.293  1.00  0.00     0.167 HD
ATOM     48  C   UNL     1      -2.032   0.720  11.960  1.00  0.00     0.037 A 
ATOM     49  C   UNL     1       4.562  -0.875  13.624  1.00  0.00     0.037 A 
ATOM     50  C   UNL     1      -1.679   0.965  13.334  1.00  0.00     0.049 A 
ATOM     51  C   UNL     1       3.612  -0.288  14.632  1.00  0.00     0.074 A 
ATOM     52  C   UNL     1      -2.472   1.460  14.355  1.00  0.00     0.029 A 
ATOM     53  N   UNL     1      -0.425   0.733  13.881  1.00  0.00    -0.354 N 
ATOM     54  N   UNL     1       2.352   0.041  14.488  1.00  0.00    -0.248 NA
ATOM     55  C   UNL     1       4.144  -0.049  15.981  1.00  0.00     0.031 C 
ATOM     56  C   UNL     1      -1.688   1.565  15.509  1.00  0.00     0.029 A 
ATOM     57  C   UNL     1      -0.419   1.091  15.220  1.00  0.00     0.049 A 
ATOM     58  H   UNL     1       0.346   0.369  13.390  1.00  0.00     0.167 HD
ATOM     59  C   UNL     1       1.933   0.499  15.730  1.00  0.00     0.074 A 
ATOM     60  C   UNL     1       3.069   0.389  16.621  1.00  0.00     0.031 C 
ATOM     61  C   UNL     1       0.717   0.971  16.098  1.00  0.00     0.037 A 
BRANCH  48  62
ATOM     62  C   UNL     1      -3.417   1.083  11.509  1.00  0.00     0.064 A 
ATOM     63  C   UNL     1      -4.371   0.100  11.204  1.00  0.00     0.173 A 
ATOM     64  C   UNL     1      -3.808   2.427  11.416  1.00  0.00     0.173 A 
ATOM     65  F   UNL     1      -4.044  -1.200  11.266  1.00  0.00    -0.203 F 
ATOM     66  C   UNL     1      -5.654   0.449  10.792  1.00  0.00     0.198 A 
ATOM     67  C   UNL     1      -5.102   2.772  11.032  1.00  0.00     0.198 A 
ATOM     68  F   UNL     1      -2.938   3.407  11.702  1.00  0.00    -0.203 F 
ATOM     69  F   UNL     1      -6.532  -0.508  10.457  1.00  0.00    -0.200 F 
ATOM     70  C   UNL     1      -6.021   1.784  10.713  1.00  0.00     0.200 A 
ATOM     71  F   UNL     1      -5.459   4.062  10.967  1.00  0.00    -0.200 F 
ATOM     72  F   UNL     1      -7.258   2.118  10.322  1.00  0.00    -0.200 F 
ENDBRANCH  48  62
BRANCH  49  73
ATOM     73  C   UNL     1       5.962  -1.200  14.003  1.00  0.00     0.064 A 
ATOM     74  C   UNL     1       6.241  -2.247  14.893  1.00  0.00     0.173 A 
ATOM     75  C   UNL     1       7.045  -0.469  13.495  1.00  0.00     0.173 A 
ATOM     76  F   UNL     1       5.236  -2.961  15.422  1.00  0.00    -0.203 F 
ATOM     77  C   UNL     1       7.548  -2.538  15.276  1.00  0.00     0.198 A 
ATOM     78  C   UNL     1       8.354  -0.779  13.858  1.00  0.00     0.198 A 
ATOM     79  F   UNL     1       6.832   0.539  12.637  1.00  0.00    -0.203 F 
ATOM     80  F   UNL     1       7.782  -3.514  16.164  1.00  0.00    -0.200 F 
ATOM     81  C   UNL     1       8.604  -1.807  14.755  1.00  0.00     0.200 A 
ATOM     82  F   UNL     1       9.374  -0.078  13.342  1.00  0.00    -0.200 F 
ATOM     83  F   UNL     1       9.862  -2.087  15.122  1.00  0.00    -0.200 F 
ENDBRANCH  49  73
BRANCH  61  84
ATOM     84  C   UNL     1       0.543   1.372  17.534  1.00  0.00     0.064 A 
ATOM     85  C   UNL     1       1.144   2.527  18.054  1.00  0.00     0.173 A 
ATOM     86  C   UNL     1      -0.253   0.601  18.395  1.00  0.00     0.173 A 
ATOM     87  F   UNL     1       1.927   3.290  17.275  1.00  0.00    -0.203 F 
ATOM     88  C   UNL     1       0.980   2.880  19.391  1.00  0.00     0.198 A 
ATOM     89  C   UNL     1      -0.439   0.972  19.724  1.00  0.00     0.198 A 
ATOM     90  F   UNL     1      -0.856  -0.510  17.946  1.00  0.00    -0.203 F 
ATOM     91  F   UNL     1       1.607   3.959  19.879  1.00  0.00    -0.200 F 
ATOM     92  C   UNL     1       0.185   2.106  20.223  1.00  0.00     0.200 A 
ATOM     93  F   UNL     1      -1.217   0.230  20.523  1.00  0.00    -0.200 F 
ATOM     94  F   UNL     1       0.028   2.447  21.509  1.00  0.00    -0.200 F 
ENDBRANCH  61  84
ENDBRANCH  35  36
ENDBRANCH  27  30
ENDBRANCH  25  26
ENDBRANCH  24  25
ENDBRANCH   1  24
TORSDOF 14
