REMARK SMILES O=C(NCCCNC(=O)c1ccc([S@@](=O)[C@H]2CCOC3(CCCC3)C2)cc1)c1ccc(-c2c3nc(c(-c4c(F)c(F)c(F)c(F)c4F)c4ccc([nH]4)c(-c4c(F)c(F)c(F)c(F)c4F)c4nc(c(-c5c(F)c(F)c(F)c(F)c5F)c5ccc2[nH]5)C=C4)C=C3)cc1
REMARK SMILES IDX 5 1 4 2 3 3 1 4 2 5 28 7 29 8 90 9 30 10 89 11 31 12 32 13
REMARK SMILES IDX 33 14 83 15 34 16 88 17 82 18 84 19 35 20 87 21 81 22 80 23
REMARK SMILES IDX 36 25 68 26 48 27 67 28 49 29 52 30 66 31 85 32 50 33 51 34
REMARK SMILES IDX 65 36 86 37 53 38 37 39 38 40 46 41 39 42 40 43 44 44 47 45
REMARK SMILES IDX 41 46 42 47 45 48 43 49 69 50 70 51 78 52 71 53 72 54 76 55
REMARK SMILES IDX 79 56 73 57 74 58 77 59 75 60 54 61 55 62 63 63 56 64 57 65
REMARK SMILES IDX 61 66 64 67 58 68 59 69 62 70 60 71 6 72 7 73 8 74 9 76
REMARK SMILES IDX 10 77 11 78 27 79 12 80 26 81 13 82 14 83 15 84 16 85 17 86
REMARK SMILES IDX 25 87 18 88 20 89 19 90 21 91 24 92 22 93 23 94
REMARK H PARENT 3 6 84 24 52 35 7 75
REMARK Flexibility Score: inf
ROOT
ATOM      1  C   UNL     1       2.690 -14.306  11.773  1.00  0.00     0.042 C 
ENDROOT
BRANCH   1   2
ATOM      2  C   UNL     1       1.666 -15.423  11.886  1.00  0.00     0.118 C 
BRANCH   2   3
ATOM      3  N   UNL     1       2.247 -16.743  11.675  1.00  0.00    -0.352 N 
ATOM      4  O   UNL     1       3.101 -18.753  12.232  1.00  0.00    -0.269 OA
ATOM      5  C   UNL     1       2.416 -17.785  12.552  1.00  0.00     0.251 C 
ATOM      6  H   UNL     1       2.568 -16.914  10.760  1.00  0.00     0.163 HD
BRANCH   5   7
ATOM      7  C   UNL     1       1.792 -17.733  13.890  1.00  0.00     0.039 A 
ATOM      8  C   UNL     1       0.491 -17.254  14.046  1.00  0.00     0.014 A 
ATOM      9  C   UNL     1       2.513 -18.179  15.001  1.00  0.00     0.014 A 
ATOM     10  C   UNL     1      -0.022 -17.055  15.319  1.00  0.00     0.010 A 
ATOM     11  C   UNL     1       1.946 -18.088  16.276  1.00  0.00     0.010 A 
ATOM     12  C   UNL     1       0.686 -17.496  16.447  1.00  0.00    -0.014 A 
BRANCH  12  13
ATOM     13  C   UNL     1       0.044 -17.395  17.781  1.00  0.00     0.031 A 
ATOM     14  C   UNL     1       0.632 -16.547  18.871  1.00  0.00     0.074 A 
ATOM     15  C   UNL     1      -1.107 -18.065  17.987  1.00  0.00     0.049 A 
ATOM     16  N   UNL     1       0.187 -16.342  20.086  1.00  0.00    -0.248 NA
ATOM     17  C   UNL     1       1.886 -15.841  18.566  1.00  0.00     0.031 C 
ATOM     18  C   UNL     1      -1.764 -18.928  17.001  1.00  0.00     0.029 A 
ATOM     19  N   UNL     1      -1.938 -18.114  19.075  1.00  0.00    -0.354 N 
ATOM     20  C   UNL     1       1.111 -15.503  20.695  1.00  0.00     0.074 A 
ATOM     21  C   UNL     1       2.158 -15.257  19.726  1.00  0.00     0.031 C 
ATOM     22  C   UNL     1      -2.918 -19.378  17.509  1.00  0.00     0.029 A 
ATOM     23  C   UNL     1      -3.046 -18.901  18.880  1.00  0.00     0.049 A 
ATOM     24  H   UNL     1      -1.759 -17.632  19.914  1.00  0.00     0.167 HD
ATOM     25  C   UNL     1       1.078 -14.982  21.945  1.00  0.00     0.037 A 
ATOM     26  C   UNL     1      -4.045 -19.226  19.720  1.00  0.00     0.037 A 
ATOM     27  C   UNL     1       0.024 -15.227  22.898  1.00  0.00     0.049 A 
ATOM     28  C   UNL     1      -4.032 -18.664  21.112  1.00  0.00     0.074 A 
ATOM     29  C   UNL     1      -0.119 -14.717  24.177  1.00  0.00     0.029 A 
ATOM     30  N   UNL     1      -1.064 -16.061  22.679  1.00  0.00    -0.354 N 
ATOM     31  N   UNL     1      -3.174 -17.841  21.663  1.00  0.00    -0.248 NA
ATOM     32  C   UNL     1      -5.125 -19.079  21.999  1.00  0.00     0.031 C 
ATOM     33  C   UNL     1      -1.260 -15.286  24.752  1.00  0.00     0.029 A 
ATOM     34  C   UNL     1      -1.865 -16.103  23.810  1.00  0.00     0.049 A 
ATOM     35  H   UNL     1      -1.240 -16.551  21.843  1.00  0.00     0.167 HD
ATOM     36  C   UNL     1      -3.630 -17.624  22.954  1.00  0.00     0.074 A 
ATOM     37  C   UNL     1      -4.856 -18.384  23.095  1.00  0.00     0.031 C 
ATOM     38  C   UNL     1      -3.082 -16.867  23.936  1.00  0.00     0.037 A 
BRANCH  25  39
ATOM     39  C   UNL     1       2.227 -14.110  22.370  1.00  0.00     0.064 A 
ATOM     40  C   UNL     1       2.424 -12.830  21.832  1.00  0.00     0.173 A 
ATOM     41  C   UNL     1       3.115 -14.544  23.367  1.00  0.00     0.173 A 
ATOM     42  F   UNL     1       1.611 -12.368  20.870  1.00  0.00    -0.203 F 
ATOM     43  C   UNL     1       3.482 -12.028  22.256  1.00  0.00     0.198 A 
ATOM     44  C   UNL     1       4.153 -13.728  23.811  1.00  0.00     0.198 A 
ATOM     45  F   UNL     1       2.969 -15.756  23.923  1.00  0.00    -0.203 F 
ATOM     46  F   UNL     1       3.678 -10.827  21.694  1.00  0.00    -0.200 F 
ATOM     47  C   UNL     1       4.341 -12.474  23.250  1.00  0.00     0.200 A 
ATOM     48  F   UNL     1       4.972 -14.155  24.782  1.00  0.00    -0.200 F 
ATOM     49  F   UNL     1       5.352 -11.698  23.663  1.00  0.00    -0.200 F 
ENDBRANCH  25  39
BRANCH  26  50
ATOM     50  C   UNL     1      -5.125 -20.138  19.264  1.00  0.00     0.064 A 
ATOM     51  C   UNL     1      -6.438 -19.679  19.100  1.00  0.00     0.173 A 
ATOM     52  C   UNL     1      -4.862 -21.485  18.968  1.00  0.00     0.173 A 
ATOM     53  F   UNL     1      -6.742 -18.404  19.385  1.00  0.00    -0.203 F 
ATOM     54  C   UNL     1      -7.451 -20.535  18.675  1.00  0.00     0.198 A 
ATOM     55  C   UNL     1      -5.869 -22.331  18.510  1.00  0.00     0.198 A 
ATOM     56  F   UNL     1      -3.620 -21.972  19.101  1.00  0.00    -0.203 F 
ATOM     57  F   UNL     1      -8.708 -20.082  18.570  1.00  0.00    -0.200 F 
ATOM     58  C   UNL     1      -7.164 -21.858  18.373  1.00  0.00     0.200 A 
ATOM     59  F   UNL     1      -5.581 -23.602  18.200  1.00  0.00    -0.200 F 
ATOM     60  F   UNL     1      -8.137 -22.679  17.956  1.00  0.00    -0.200 F 
ENDBRANCH  26  50
BRANCH  38  61
ATOM     61  C   UNL     1      -3.823 -16.801  25.240  1.00  0.00     0.064 A 
ATOM     62  C   UNL     1      -3.889 -17.903  26.106  1.00  0.00     0.173 A 
ATOM     63  C   UNL     1      -4.456 -15.614  25.637  1.00  0.00     0.173 A 
ATOM     64  F   UNL     1      -3.317 -19.067  25.763  1.00  0.00    -0.203 F 
ATOM     65  C   UNL     1      -4.589 -17.827  27.307  1.00  0.00     0.198 A 
ATOM     66  C   UNL     1      -5.125 -15.531  26.854  1.00  0.00     0.198 A 
ATOM     67  F   UNL     1      -4.418 -14.530  24.847  1.00  0.00    -0.203 F 
ATOM     68  F   UNL     1      -4.688 -18.909  28.092  1.00  0.00    -0.200 F 
ATOM     69  C   UNL     1      -5.199 -16.640  27.684  1.00  0.00     0.200 A 
ATOM     70  F   UNL     1      -5.702 -14.379  27.223  1.00  0.00    -0.200 F 
ATOM     71  F   UNL     1      -5.867 -16.567  28.843  1.00  0.00    -0.200 F 
ENDBRANCH  38  61
ENDBRANCH  12  13
ENDBRANCH   5   7
ENDBRANCH   2   3
ENDBRANCH   1   2
BRANCH   1  72
ATOM     72  C   UNL     1       3.309 -14.192  10.389  1.00  0.00     0.118 C 
BRANCH  72  73
ATOM     73  N   UNL     1       2.304 -13.914   9.375  1.00  0.00    -0.352 N 
ATOM     74  C   UNL     1       2.054 -12.744   8.711  1.00  0.00     0.251 C 
ATOM     75  H   UNL     1       1.724 -14.672   9.133  1.00  0.00     0.163 HD
ATOM     76  O   UNL     1       1.010 -12.593   8.083  1.00  0.00    -0.269 OA
BRANCH  74  77
ATOM     77  C   UNL     1       3.052 -11.662   8.747  1.00  0.00     0.039 A 
ATOM     78  C   UNL     1       2.633 -10.363   9.040  1.00  0.00     0.015 A 
ATOM     79  C   UNL     1       4.389 -11.926   8.430  1.00  0.00     0.015 A 
ATOM     80  C   UNL     1       3.565  -9.327   9.041  1.00  0.00     0.018 A 
ATOM     81  C   UNL     1       5.318 -10.891   8.435  1.00  0.00     0.018 A 
ATOM     82  C   UNL     1       4.902  -9.584   8.707  1.00  0.00     0.039 A 
BRANCH  82  83
ATOM     83  S   UNL     1       6.058  -8.219   8.556  1.00  0.00     0.056 S 
ATOM     84  O   UNL     1       7.423  -8.844   8.522  1.00  0.00    -0.254 OA
BRANCH  83  85
ATOM     85  C   UNL     1       5.700  -7.622   6.849  1.00  0.00     0.089 C 
ATOM     86  C   UNL     1       4.569  -8.322   6.100  1.00  0.00     0.046 C 
ATOM     87  C   UNL     1       5.404  -6.127   6.937  1.00  0.00     0.053 C 
ATOM     88  C   UNL     1       4.320  -7.661   4.755  1.00  0.00     0.162 C 
ATOM     89  C   UNL     1       5.132  -5.527   5.555  1.00  0.00     0.069 C 
ATOM     90  O   UNL     1       4.089  -6.261   4.899  1.00  0.00    -0.375 OA
ATOM     91  C   UNL     1       4.634  -4.067   5.691  1.00  0.00     0.035 C 
ATOM     92  C   UNL     1       6.395  -5.433   4.674  1.00  0.00     0.035 C 
ATOM     93  C   UNL     1       5.640  -3.205   4.939  1.00  0.00     0.003 C 
ATOM     94  C   UNL     1       6.213  -4.140   3.893  1.00  0.00     0.003 C 
ENDBRANCH  83  85
ENDBRANCH  82  83
ENDBRANCH  74  77
ENDBRANCH  72  73
ENDBRANCH   1  72
TORSDOF 12
