REMARK SMILES CC[C@@](C)(NS(=O)(=O)c1ccc(F)c(F)c1)C(=O)NCCCNC(=O)c1ccc(-c2c3nc(c(-c4c(F)c(F)c(F)c(F)c4F)c4ccc([nH]4)c(-c4c(F)c(F)c(F)c(F)c4F)c4nc(c(-c5c(F)c(F)c(F)c(F)c5F)c5ccc2[nH]5)C=C4)C=C3)cc1
REMARK SMILES IDX 20 1 19 2 17 3 18 4 3 6 4 7 2 8 1 9 5 10 6 12 7 13 8 14 9 15
REMARK SMILES IDX 10 16 16 17 11 18 14 19 12 20 15 21 13 22 21 23 22 24 23 25
REMARK SMILES IDX 24 26 25 28 26 29 27 30 88 31 28 32 87 33 29 34 30 35 31 36
REMARK SMILES IDX 81 37 32 38 86 39 80 40 82 41 33 42 85 43 79 44 78 45 34 47
REMARK SMILES IDX 66 48 46 49 65 50 47 51 50 52 64 53 83 54 48 55 49 56 63 58
REMARK SMILES IDX 84 59 51 60 35 61 36 62 44 63 37 64 38 65 42 66 45 67 39 68
REMARK SMILES IDX 40 69 43 70 41 71 67 72 68 73 76 74 69 75 70 76 74 77 77 78
REMARK SMILES IDX 71 79 72 80 75 81 73 82 52 83 53 84 61 85 54 86 55 87 59 88
REMARK SMILES IDX 62 89 56 90 57 91 60 92 58 93
REMARK H PARENT 19 5 5 11 23 27 82 46 50 57
REMARK Flexibility Score: inf
ROOT
ATOM      1  C   UNL     1       1.855   2.780   4.614  1.00  0.00     0.117 C 
ENDROOT
BRANCH   1   2
ATOM      2  N   UNL     1       2.568   2.010   3.596  1.00  0.00    -0.354 N 
ATOM      3  C   UNL     1       2.295   1.064   2.646  1.00  0.00     0.241 C 
ATOM      4  O   UNL     1       3.253   0.845   1.887  1.00  0.00    -0.273 OA
ATOM      5  H   UNL     1       3.525   2.238   3.594  1.00  0.00     0.163 HD
BRANCH   3   6
ATOM      6  C   UNL     1       1.015   0.198   2.504  1.00  0.00     0.108 C 
ATOM      7  C   UNL     1      -0.269   1.012   2.681  1.00  0.00     0.040 C 
BRANCH   6   8
ATOM      8  C   UNL     1       0.955  -0.473   1.069  1.00  0.00     0.030 C 
ATOM      9  C   UNL     1       1.046   0.407  -0.169  1.00  0.00     0.006 C 
ENDBRANCH   6   8
BRANCH   6  10
ATOM     10  N   UNL     1       0.965  -1.014   3.362  1.00  0.00    -0.196 NA
ATOM     11  H   UNL     1       1.241  -1.769   2.734  1.00  0.00     0.142 HD
BRANCH  10  12
ATOM     12  S   UNL     1       1.736  -1.374   4.775  1.00  0.00     0.241 S 
ATOM     13  O   UNL     1       1.566  -0.253   5.678  1.00  0.00    -0.207 OA
ATOM     14  O   UNL     1       1.226  -2.669   5.140  1.00  0.00    -0.207 OA
BRANCH  12  15
ATOM     15  C   UNL     1       3.482  -1.577   4.475  1.00  0.00     0.085 A 
ATOM     16  C   UNL     1       4.071  -2.844   4.518  1.00  0.00     0.025 A 
ATOM     17  C   UNL     1       4.317  -0.462   4.472  1.00  0.00     0.064 A 
ATOM     18  C   UNL     1       5.472  -2.963   4.534  1.00  0.00     0.044 A 
ATOM     19  C   UNL     1       5.697  -0.576   4.460  1.00  0.00     0.160 A 
ATOM     20  C   UNL     1       6.277  -1.826   4.501  1.00  0.00     0.158 A 
ATOM     21  F   UNL     1       6.442   0.537   4.488  1.00  0.00    -0.204 F 
ATOM     22  F   UNL     1       7.609  -1.944   4.566  1.00  0.00    -0.204 F 
ENDBRANCH  12  15
ENDBRANCH  10  12
ENDBRANCH   6  10
ENDBRANCH   3   6
ENDBRANCH   1   2
BRANCH   1  23
ATOM     23  C   UNL     1       2.084   2.560   6.138  1.00  0.00     0.042 C 
BRANCH  23  24
ATOM     24  C   UNL     1       3.391   2.070   6.794  1.00  0.00     0.118 C 
BRANCH  24  25
ATOM     25  N   UNL     1       4.521   2.972   6.710  1.00  0.00    -0.352 N 
ATOM     26  C   UNL     1       5.612   3.066   7.551  1.00  0.00     0.251 C 
ATOM     27  H   UNL     1       4.510   3.602   5.953  1.00  0.00     0.163 HD
ATOM     28  O   UNL     1       6.396   4.004   7.417  1.00  0.00    -0.269 OA
BRANCH  26  29
ATOM     29  C   UNL     1       5.864   2.088   8.645  1.00  0.00     0.039 A 
ATOM     30  C   UNL     1       6.002   2.571   9.952  1.00  0.00     0.014 A 
ATOM     31  C   UNL     1       6.135   0.740   8.389  1.00  0.00     0.014 A 
ATOM     32  C   UNL     1       6.379   1.710  10.995  1.00  0.00     0.010 A 
ATOM     33  C   UNL     1       6.495  -0.128   9.441  1.00  0.00     0.010 A 
ATOM     34  C   UNL     1       6.626   0.345  10.758  1.00  0.00    -0.014 A 
BRANCH  34  35
ATOM     35  C   UNL     1       6.986  -0.548  11.906  1.00  0.00     0.031 A 
ATOM     36  C   UNL     1       8.378  -1.101  12.082  1.00  0.00     0.074 A 
ATOM     37  C   UNL     1       6.056  -0.831  12.843  1.00  0.00     0.049 A 
ATOM     38  N   UNL     1       8.884  -1.762  13.098  1.00  0.00    -0.248 NA
ATOM     39  C   UNL     1       9.323  -0.898  10.976  1.00  0.00     0.031 C 
ATOM     40  C   UNL     1       4.660  -0.400  12.786  1.00  0.00     0.029 A 
ATOM     41  N   UNL     1       6.142  -1.522  14.030  1.00  0.00    -0.354 N 
ATOM     42  C   UNL     1      10.205  -2.037  12.761  1.00  0.00     0.074 A 
ATOM     43  C   UNL     1      10.408  -1.519  11.424  1.00  0.00     0.031 C 
ATOM     44  C   UNL     1       4.033  -0.793  13.906  1.00  0.00     0.029 A 
ATOM     45  C   UNL     1       4.973  -1.522  14.756  1.00  0.00     0.049 A 
ATOM     46  H   UNL     1       6.963  -1.974  14.332  1.00  0.00     0.167 HD
ATOM     47  C   UNL     1      11.165  -2.640  13.506  1.00  0.00     0.037 A 
ATOM     48  C   UNL     1       4.687  -2.030  15.973  1.00  0.00     0.037 A 
ATOM     49  C   UNL     1      10.972  -3.149  14.841  1.00  0.00     0.049 A 
ATOM     50  C   UNL     1       5.764  -2.710  16.774  1.00  0.00     0.074 A 
ATOM     51  C   UNL     1      11.907  -3.722  15.688  1.00  0.00     0.029 A 
ATOM     52  N   UNL     1       9.764  -3.156  15.522  1.00  0.00    -0.354 N 
ATOM     53  N   UNL     1       7.029  -2.877  16.479  1.00  0.00    -0.248 NA
ATOM     54  C   UNL     1       5.379  -3.266  18.082  1.00  0.00     0.031 C 
ATOM     55  C   UNL     1      11.256  -4.125  16.857  1.00  0.00     0.029 A 
ATOM     56  C   UNL     1       9.925  -3.753  16.763  1.00  0.00     0.049 A 
ATOM     57  H   UNL     1       8.918  -2.791  15.175  1.00  0.00     0.167 HD
ATOM     58  C   UNL     1       7.594  -3.533  17.565  1.00  0.00     0.074 A 
ATOM     59  C   UNL     1       6.539  -3.726  18.535  1.00  0.00     0.031 C 
ATOM     60  C   UNL     1       8.876  -3.936  17.734  1.00  0.00     0.037 A 
BRANCH  47  61
ATOM     61  C   UNL     1      12.542  -2.773  12.915  1.00  0.00     0.064 A 
ATOM     62  C   UNL     1      13.070  -4.037  12.603  1.00  0.00     0.173 A 
ATOM     63  C   UNL     1      13.381  -1.659  12.765  1.00  0.00     0.173 A 
ATOM     64  F   UNL     1      12.319  -5.139  12.749  1.00  0.00    -0.203 F 
ATOM     65  C   UNL     1      14.387  -4.178  12.172  1.00  0.00     0.198 A 
ATOM     66  C   UNL     1      14.689  -1.801  12.308  1.00  0.00     0.198 A 
ATOM     67  F   UNL     1      12.928  -0.430  13.057  1.00  0.00    -0.203 F 
ATOM     68  F   UNL     1      14.881  -5.398  11.918  1.00  0.00    -0.200 F 
ATOM     69  C   UNL     1      15.194  -3.060  12.021  1.00  0.00     0.200 A 
ATOM     70  F   UNL     1      15.463  -0.719  12.150  1.00  0.00    -0.200 F 
ATOM     71  F   UNL     1      16.460  -3.197  11.603  1.00  0.00    -0.200 F 
ENDBRANCH  47  61
BRANCH  48  72
ATOM     72  C   UNL     1       3.317  -1.859  16.529  1.00  0.00     0.064 A 
ATOM     73  C   UNL     1       2.215  -2.527  15.975  1.00  0.00     0.173 A 
ATOM     74  C   UNL     1       3.080  -0.992  17.605  1.00  0.00     0.173 A 
ATOM     75  F   UNL     1       2.388  -3.368  14.945  1.00  0.00    -0.203 F 
ATOM     76  C   UNL     1       0.925  -2.311  16.456  1.00  0.00     0.198 A 
ATOM     77  C   UNL     1       1.793  -0.798  18.104  1.00  0.00     0.198 A 
ATOM     78  F   UNL     1       4.104  -0.349  18.186  1.00  0.00    -0.203 F 
ATOM     79  F   UNL     1      -0.115  -2.930  15.881  1.00  0.00    -0.200 F 
ATOM     80  C   UNL     1       0.715  -1.449  17.522  1.00  0.00     0.200 A 
ATOM     81  F   UNL     1       1.597   0.017  19.149  1.00  0.00    -0.200 F 
ATOM     82  F   UNL     1      -0.524  -1.246  17.988  1.00  0.00    -0.200 F 
ENDBRANCH  48  72
BRANCH  60  83
ATOM     83  C   UNL     1       9.243  -4.625  19.017  1.00  0.00     0.064 A 
ATOM     84  C   UNL     1      10.077  -3.991  19.951  1.00  0.00     0.173 A 
ATOM     85  C   UNL     1       8.878  -5.956  19.260  1.00  0.00     0.173 A 
ATOM     86  F   UNL     1      10.461  -2.720  19.761  1.00  0.00    -0.203 F 
ATOM     87  C   UNL     1      10.555  -4.675  21.066  1.00  0.00     0.198 A 
ATOM     88  C   UNL     1       9.339  -6.630  20.389  1.00  0.00     0.198 A 
ATOM     89  F   UNL     1       8.073  -6.603  18.403  1.00  0.00    -0.203 F 
ATOM     90  F   UNL     1      11.389  -4.064  21.919  1.00  0.00    -0.200 F 
ATOM     91  C   UNL     1      10.188  -5.994  21.282  1.00  0.00     0.200 A 
ATOM     92  F   UNL     1       8.969  -7.900  20.607  1.00  0.00    -0.200 F 
ATOM     93  F   UNL     1      10.656  -6.655  22.350  1.00  0.00    -0.200 F 
ENDBRANCH  60  83
ENDBRANCH  34  35
ENDBRANCH  26  29
ENDBRANCH  24  25
ENDBRANCH  23  24
ENDBRANCH   1  23
TORSDOF 14
