REMARK SMILES CSCC[C@H](C(=O)NCCCNC(=O)c1ccc(-c2c3nc(c(-c4c(F)c(F)c(F)c(F)c4F)c4ccc([nH]4)c(-c4c(F)c(F)c(F)c(F)c4F)c4nc(c(-c5c(F)c(F)c(F)c(F)c5F)c5ccc2[nH]5)C=C4)C=C3)cc1)N1C(=O)/C(=C/c2ccc3ncccc3c2)SC1=S
REMARK SMILES IDX 9 1 8 2 6 3 7 4 5 6 4 7 3 8 2 9 1 10 78 11 79 12 94 13 80 14
REMARK SMILES IDX 81 15 93 16 95 17 82 18 83 19 84 20 92 21 85 22 91 23 86 24
REMARK SMILES IDX 90 25 87 26 89 27 88 28 10 29 11 30 12 31 13 32 14 34 15 35
REMARK SMILES IDX 16 36 77 37 17 38 76 39 18 40 19 41 20 42 70 43 21 44 75 45
REMARK SMILES IDX 69 46 71 47 22 48 74 49 68 50 67 51 23 53 55 54 35 55 54 56
REMARK SMILES IDX 36 57 39 58 53 59 72 60 37 61 38 62 52 64 73 65 40 66 24 67
REMARK SMILES IDX 25 68 33 69 26 70 27 71 31 72 34 73 28 74 29 75 32 76 30 77
REMARK SMILES IDX 56 78 57 79 65 80 58 81 59 82 63 83 66 84 60 85 61 86 64 87
REMARK SMILES IDX 62 88 41 89 42 90 50 91 43 92 44 93 48 94 51 95 45 96 46 97
REMARK SMILES IDX 49 98 47 99
REMARK H PARENT 8 5 12 33 71 52 39 63
REMARK Flexibility Score: inf
ROOT
ATOM      1  C   UNL     1      -0.108   4.353  -3.624  1.00  0.00     0.117 C 
ENDROOT
BRANCH   1   2
ATOM      2  N   UNL     1       0.090   2.957  -3.296  1.00  0.00    -0.354 N 
ATOM      3  C   UNL     1       0.583   2.297  -2.220  1.00  0.00     0.243 C 
ATOM      4  O   UNL     1       0.694   1.072  -2.379  1.00  0.00    -0.273 OA
ATOM      5  H   UNL     1      -0.199   2.351  -4.016  1.00  0.00     0.163 HD
BRANCH   3   6
ATOM      6  C   UNL     1       1.104   2.938  -0.902  1.00  0.00     0.182 C 
BRANCH   6   7
ATOM      7  C   UNL     1       2.607   2.615  -0.761  1.00  0.00     0.046 C 
BRANCH   7   8
ATOM      8  C   UNL     1       3.325   3.022   0.529  1.00  0.00     0.072 C 
BRANCH   8   9
ATOM      9  S   UNL     1       2.673   2.295   2.066  1.00  0.00    -0.165 SA
ATOM     10  C   UNL     1       1.469   3.557   2.551  1.00  0.00     0.085 C 
ENDBRANCH   8   9
ENDBRANCH   7   8
ENDBRANCH   6   7
BRANCH   6  11
ATOM     11  N   UNL     1       0.646   4.303  -0.575  1.00  0.00    -0.280 N 
ATOM     12  C   UNL     1      -0.645   4.375  -0.042  1.00  0.00     0.266 C 
ATOM     13  C   UNL     1       1.285   5.514  -0.764  1.00  0.00     0.149 C 
ATOM     14  O   UNL     1      -1.423   3.446   0.095  1.00  0.00    -0.268 OA
ATOM     15  C   UNL     1      -0.990   5.770   0.319  1.00  0.00     0.081 C 
ATOM     16  S   UNL     1       0.293   6.818  -0.127  1.00  0.00    -0.054 SA
ATOM     17  S   UNL     1       2.749   5.884  -1.473  1.00  0.00    -0.052 S 
ATOM     18  C   UNL     1      -2.152   6.104   0.898  1.00  0.00     0.029 C 
BRANCH  18  19
ATOM     19  C   UNL     1      -2.511   7.496   1.178  1.00  0.00    -0.024 A 
ATOM     20  C   UNL     1      -2.478   8.004   2.475  1.00  0.00     0.010 A 
ATOM     21  C   UNL     1      -2.757   8.360   0.107  1.00  0.00     0.018 A 
ATOM     22  C   UNL     1      -2.626   9.381   2.682  1.00  0.00     0.029 A 
ATOM     23  C   UNL     1      -2.856   9.740   0.319  1.00  0.00     0.001 A 
ATOM     24  C   UNL     1      -2.782  10.269   1.623  1.00  0.00     0.070 A 
ATOM     25  C   UNL     1      -2.977  10.625  -0.758  1.00  0.00     0.012 A 
ATOM     26  N   UNL     1      -2.829  11.592   1.857  1.00  0.00    -0.256 NA
ATOM     27  C   UNL     1      -3.000  11.991  -0.520  1.00  0.00     0.021 A 
ATOM     28  C   UNL     1      -2.924  12.421   0.791  1.00  0.00     0.112 A 
ENDBRANCH  18  19
ENDBRANCH   6  11
ENDBRANCH   3   6
ENDBRANCH   1   2
BRANCH   1  29
ATOM     29  C   UNL     1       1.067   4.909  -4.419  1.00  0.00     0.042 C 
BRANCH  29  30
ATOM     30  C   UNL     1       0.891   4.746  -5.921  1.00  0.00     0.118 C 
BRANCH  30  31
ATOM     31  N   UNL     1      -0.143   5.640  -6.432  1.00  0.00    -0.352 N 
ATOM     32  C   UNL     1      -0.036   6.832  -7.106  1.00  0.00     0.251 C 
ATOM     33  H   UNL     1      -1.066   5.341  -6.267  1.00  0.00     0.163 HD
ATOM     34  O   UNL     1      -1.004   7.586  -7.152  1.00  0.00    -0.269 OA
BRANCH  32  35
ATOM     35  C   UNL     1       1.227   7.214  -7.776  1.00  0.00     0.039 A 
ATOM     36  C   UNL     1       1.592   8.563  -7.835  1.00  0.00     0.014 A 
ATOM     37  C   UNL     1       2.025   6.255  -8.401  1.00  0.00     0.014 A 
ATOM     38  C   UNL     1       2.781   8.937  -8.467  1.00  0.00     0.010 A 
ATOM     39  C   UNL     1       3.259   6.612  -8.930  1.00  0.00     0.010 A 
ATOM     40  C   UNL     1       3.643   7.959  -8.988  1.00  0.00    -0.014 A 
BRANCH  40  41
ATOM     41  C   UNL     1       4.936   8.309  -9.629  1.00  0.00     0.031 A 
ATOM     42  C   UNL     1       5.186   7.931 -11.065  1.00  0.00     0.074 A 
ATOM     43  C   UNL     1       5.912   8.880  -8.898  1.00  0.00     0.049 A 
ATOM     44  N   UNL     1       6.287   8.021 -11.768  1.00  0.00    -0.248 NA
ATOM     45  C   UNL     1       4.058   7.332 -11.797  1.00  0.00     0.031 C 
ATOM     46  C   UNL     1       5.808   9.246  -7.484  1.00  0.00     0.029 A 
ATOM     47  N   UNL     1       7.193   9.238  -9.239  1.00  0.00    -0.354 N 
ATOM     48  C   UNL     1       5.990   7.465 -13.007  1.00  0.00     0.074 A 
ATOM     49  C   UNL     1       4.628   6.985 -12.941  1.00  0.00     0.031 C 
ATOM     50  C   UNL     1       6.965   9.796  -7.085  1.00  0.00     0.029 A 
ATOM     51  C   UNL     1       7.908   9.781  -8.199  1.00  0.00     0.049 A 
ATOM     52  H   UNL     1       7.564   9.117 -10.143  1.00  0.00     0.167 HD
ATOM     53  C   UNL     1       6.774   7.386 -14.108  1.00  0.00     0.037 A 
ATOM     54  C   UNL     1       9.184  10.205  -8.148  1.00  0.00     0.037 A 
ATOM     55  C   UNL     1       8.114   7.904 -14.178  1.00  0.00     0.049 A 
ATOM     56  C   UNL     1      10.033  10.114  -9.388  1.00  0.00     0.074 A 
ATOM     57  C   UNL     1       8.970   7.943 -15.264  1.00  0.00     0.029 A 
ATOM     58  N   UNL     1       8.793   8.478 -13.112  1.00  0.00    -0.354 N 
ATOM     59  N   UNL     1       9.720   9.648 -10.573  1.00  0.00    -0.248 NA
ATOM     60  C   UNL     1      11.411  10.612  -9.284  1.00  0.00     0.031 C 
ATOM     61  C   UNL     1      10.183   8.497 -14.844  1.00  0.00     0.029 A 
ATOM     62  C   UNL     1      10.065   8.854 -13.510  1.00  0.00     0.049 A 
ATOM     63  H   UNL     1       8.424   8.600 -12.207  1.00  0.00     0.167 HD
ATOM     64  C   UNL     1      10.849   9.822 -11.362  1.00  0.00     0.074 A 
ATOM     65  C   UNL     1      11.850  10.451 -10.524  1.00  0.00     0.031 C 
ATOM     66  C   UNL     1      11.042   9.490 -12.662  1.00  0.00     0.037 A 
BRANCH  53  67
ATOM     67  C   UNL     1       6.199   6.724 -15.328  1.00  0.00     0.064 A 
ATOM     68  C   UNL     1       5.150   7.305 -16.059  1.00  0.00     0.173 A 
ATOM     69  C   UNL     1       6.723   5.508 -15.793  1.00  0.00     0.173 A 
ATOM     70  F   UNL     1       4.605   8.462 -15.653  1.00  0.00    -0.203 F 
ATOM     71  C   UNL     1       4.625   6.677 -17.185  1.00  0.00     0.198 A 
ATOM     72  C   UNL     1       6.218   4.900 -16.940  1.00  0.00     0.198 A 
ATOM     73  F   UNL     1       7.729   4.910 -15.137  1.00  0.00    -0.203 F 
ATOM     74  F   UNL     1       3.586   7.224 -17.832  1.00  0.00    -0.200 F 
ATOM     75  C   UNL     1       5.164   5.480 -17.629  1.00  0.00     0.200 A 
ATOM     76  F   UNL     1       6.749   3.749 -17.375  1.00  0.00    -0.200 F 
ATOM     77  F   UNL     1       4.662   4.880 -18.718  1.00  0.00    -0.200 F 
ENDBRANCH  53  67
BRANCH  54  78
ATOM     78  C   UNL     1       9.729  10.777  -6.889  1.00  0.00     0.064 A 
ATOM     79  C   UNL     1      10.038  12.141  -6.795  1.00  0.00     0.173 A 
ATOM     80  C   UNL     1       9.950   9.979  -5.756  1.00  0.00     0.173 A 
ATOM     81  F   UNL     1       9.862  12.942  -7.856  1.00  0.00    -0.203 F 
ATOM     82  C   UNL     1      10.568  12.681  -5.625  1.00  0.00     0.198 A 
ATOM     83  C   UNL     1      10.452  10.527  -4.577  1.00  0.00     0.198 A 
ATOM     84  F   UNL     1       9.664   8.670  -5.790  1.00  0.00    -0.203 F 
ATOM     85  F   UNL     1      10.899  13.979  -5.579  1.00  0.00    -0.200 F 
ATOM     86  C   UNL     1      10.769  11.875  -4.515  1.00  0.00     0.200 A 
ATOM     87  F   UNL     1      10.630   9.747  -3.502  1.00  0.00    -0.200 F 
ATOM     88  F   UNL     1      11.275  12.396  -3.389  1.00  0.00    -0.200 F 
ENDBRANCH  54  78
BRANCH  66  89
ATOM     89  C   UNL     1      12.369   9.834 -13.271  1.00  0.00     0.064 A 
ATOM     90  C   UNL     1      13.538   9.137 -12.932  1.00  0.00     0.173 A 
ATOM     91  C   UNL     1      12.462  10.843 -14.243  1.00  0.00     0.173 A 
ATOM     92  F   UNL     1      13.504   8.175 -11.998  1.00  0.00    -0.203 F 
ATOM     93  C   UNL     1      14.756   9.454 -13.528  1.00  0.00     0.198 A 
ATOM     94  C   UNL     1      13.675  11.134 -14.859  1.00  0.00     0.198 A 
ATOM     95  F   UNL     1      11.371  11.533 -14.607  1.00  0.00    -0.203 F 
ATOM     96  F   UNL     1      15.869   8.807 -13.156  1.00  0.00    -0.200 F 
ATOM     97  C   UNL     1      14.822  10.445 -14.496  1.00  0.00     0.200 A 
ATOM     98  F   UNL     1      13.733  12.081 -15.806  1.00  0.00    -0.200 F 
ATOM     99  F   UNL     1      15.993  10.740 -15.077  1.00  0.00    -0.200 F 
ENDBRANCH  66  89
ENDBRANCH  40  41
ENDBRANCH  32  35
ENDBRANCH  30  31
ENDBRANCH  29  30
ENDBRANCH   1  29
TORSDOF 15
