REMARK SMILES C[NH2+]C[C@H](C)C(=O)Nc1snc(C)c1C(=O)NCCCNC(=O)c1ccc(-c2c3nc(c(-c4c(F)c(F)c(F)c(F)c4F)c4ccc([nH]4)c(-c4c(F)c(F)c(F)c(F)c4F)c4nc(c(-c5c(F)c(F)c(F)c(F)c5F)c5ccc2[nH]5)C=C4)C=C3)cc1
REMARK SMILES IDX 18 1 17 2 15 3 16 4 14 6 9 7 10 8 11 9 12 10 13 11 8 12 6 13
REMARK SMILES IDX 7 14 4 16 5 17 3 18 2 19 1 20 19 23 20 24 21 25 22 26 23 28
REMARK SMILES IDX 24 29 25 30 86 31 26 32 85 33 27 34 28 35 29 36 79 37 30 38
REMARK SMILES IDX 84 39 78 40 80 41 31 42 83 43 77 44 76 45 32 47 64 48 44 49
REMARK SMILES IDX 63 50 45 51 48 52 62 53 81 54 46 55 47 56 61 58 82 59 49 60
REMARK SMILES IDX 33 61 34 62 42 63 35 64 36 65 40 66 43 67 37 68 38 69 41 70
REMARK SMILES IDX 39 71 65 72 66 73 74 74 67 75 68 76 72 77 75 78 69 79 70 80
REMARK SMILES IDX 73 81 71 82 50 83 51 84 59 85 52 86 53 87 57 88 60 89 54 90
REMARK SMILES IDX 55 91 58 92 56 93
REMARK H PARENT 17 5 8 15 2 21 2 22 21 27 80 46 48 57
REMARK Flexibility Score: inf
ROOT
ATOM      1  C   UNL     1      -3.774   0.094  -1.362  1.00  0.00     0.118 C 
ENDROOT
BRANCH   1   2
ATOM      2  N   UNL     1      -2.662  -0.114  -2.271  1.00  0.00    -0.352 N 
ATOM      3  C   UNL     1      -1.845   0.816  -2.892  1.00  0.00     0.256 C 
ATOM      4  O   UNL     1      -0.895   0.360  -3.529  1.00  0.00    -0.269 OA
ATOM      5  H   UNL     1      -2.458  -1.055  -2.475  1.00  0.00     0.163 HD
BRANCH   3   6
ATOM      6  C   UNL     1      -2.134   2.255  -2.874  1.00  0.00     0.097 A 
ATOM      7  C   UNL     1      -2.843   3.010  -1.953  1.00  0.00     0.129 A 
ATOM      8  S   UNL     1      -3.450   4.394  -2.759  1.00  0.00    -0.017 S 
ATOM      9  N   UNL     1      -2.334   4.354  -3.969  1.00  0.00    -0.195 NA
ATOM     10  C   UNL     1      -1.670   3.196  -3.896  1.00  0.00     0.066 A 
ATOM     11  C   UNL     1      -0.569   3.017  -4.889  1.00  0.00     0.069 C 
BRANCH   7  12
ATOM     12  N   UNL     1      -3.285   2.917  -0.661  1.00  0.00    -0.315 N 
ATOM     13  C   UNL     1      -2.687   2.458   0.471  1.00  0.00     0.233 C 
ATOM     14  O   UNL     1      -3.452   2.228   1.419  1.00  0.00    -0.274 OA
ATOM     15  H   UNL     1      -4.205   3.241  -0.526  1.00  0.00     0.170 HD
BRANCH  13  16
ATOM     16  C   UNL     1      -1.179   2.359   0.704  1.00  0.00     0.130 C 
ATOM     17  C   UNL     1      -0.327   1.499  -0.211  1.00  0.00     0.024 C 
BRANCH  16  18
ATOM     18  C   UNL     1      -0.573   3.748   0.973  1.00  0.00     0.273 C 
BRANCH  18  19
ATOM     19  N   UNL     1      -0.481   4.655  -0.171  1.00  0.00    -0.348 N 
ATOM     20  C   UNL     1      -1.441   5.747  -0.086  1.00  0.00     0.330 C 
ATOM     21  H   UNL     1       0.460   5.047  -0.203  1.00  0.00     0.346 HD
ATOM     22  H   UNL     1      -0.690   4.119  -1.013  1.00  0.00     0.346 HD
ENDBRANCH  18  19
ENDBRANCH  16  18
ENDBRANCH  13  16
ENDBRANCH   7  12
ENDBRANCH   3   6
ENDBRANCH   1   2
BRANCH   1  23
ATOM     23  C   UNL     1      -4.710  -1.079  -1.109  1.00  0.00     0.042 C 
BRANCH  23  24
ATOM     24  C   UNL     1      -4.099  -2.145  -0.214  1.00  0.00     0.118 C 
BRANCH  24  25
ATOM     25  N   UNL     1      -3.957  -1.781   1.201  1.00  0.00    -0.352 N 
ATOM     26  C   UNL     1      -3.460  -2.609   2.203  1.00  0.00     0.251 C 
ATOM     27  H   UNL     1      -4.237  -0.874   1.463  1.00  0.00     0.163 HD
ATOM     28  O   UNL     1      -3.588  -2.372   3.390  1.00  0.00    -0.269 OA
BRANCH  26  29
ATOM     29  C   UNL     1      -2.756  -3.820   1.743  1.00  0.00     0.039 A 
ATOM     30  C   UNL     1      -3.329  -5.080   1.917  1.00  0.00     0.014 A 
ATOM     31  C   UNL     1      -1.709  -3.610   0.853  1.00  0.00     0.014 A 
ATOM     32  C   UNL     1      -2.940  -6.110   1.062  1.00  0.00     0.010 A 
ATOM     33  C   UNL     1      -1.446  -4.587  -0.082  1.00  0.00     0.010 A 
ATOM     34  C   UNL     1      -2.047  -5.846   0.008  1.00  0.00    -0.014 A 
BRANCH  34  35
ATOM     35  C   UNL     1      -1.854  -6.836  -1.061  1.00  0.00     0.031 A 
ATOM     36  C   UNL     1      -3.069  -7.550  -1.575  1.00  0.00     0.074 A 
ATOM     37  C   UNL     1      -0.694  -7.016  -1.730  1.00  0.00     0.049 A 
ATOM     38  N   UNL     1      -3.315  -8.820  -1.520  1.00  0.00    -0.248 NA
ATOM     39  C   UNL     1      -4.150  -6.770  -2.196  1.00  0.00     0.031 C 
ATOM     40  C   UNL     1       0.568  -6.277  -1.623  1.00  0.00     0.029 A 
ATOM     41  N   UNL     1      -0.445  -7.888  -2.748  1.00  0.00    -0.354 N 
ATOM     42  C   UNL     1      -4.510  -9.035  -2.207  1.00  0.00     0.074 A 
ATOM     43  C   UNL     1      -5.025  -7.726  -2.525  1.00  0.00     0.031 C 
ATOM     44  C   UNL     1       1.356  -6.568  -2.678  1.00  0.00     0.029 A 
ATOM     45  C   UNL     1       0.745  -7.655  -3.416  1.00  0.00     0.049 A 
ATOM     46  H   UNL     1      -1.058  -8.620  -2.988  1.00  0.00     0.167 HD
ATOM     47  C   UNL     1      -4.907 -10.284  -2.590  1.00  0.00     0.037 A 
ATOM     48  C   UNL     1       1.224  -8.316  -4.493  1.00  0.00     0.037 A 
ATOM     49  C   UNL     1      -4.173 -11.309  -1.895  1.00  0.00     0.049 A 
ATOM     50  C   UNL     1       0.586  -9.652  -4.511  1.00  0.00     0.074 A 
ATOM     51  C   UNL     1      -4.006 -11.645  -0.565  1.00  0.00     0.029 A 
ATOM     52  N   UNL     1      -3.168 -11.969  -2.558  1.00  0.00    -0.354 N 
ATOM     53  N   UNL     1       0.821 -10.578  -3.622  1.00  0.00    -0.248 NA
ATOM     54  C   UNL     1      -0.644  -9.815  -5.270  1.00  0.00     0.031 C 
ATOM     55  C   UNL     1      -2.631 -12.011  -0.453  1.00  0.00     0.029 A 
ATOM     56  C   UNL     1      -2.074 -11.933  -1.730  1.00  0.00     0.049 A 
ATOM     57  H   UNL     1      -3.221 -12.384  -3.449  1.00  0.00     0.167 HD
ATOM     58  C   UNL     1      -0.410 -11.174  -3.402  1.00  0.00     0.074 A 
ATOM     59  C   UNL     1      -1.245 -10.743  -4.520  1.00  0.00     0.031 C 
ATOM     60  C   UNL     1      -0.723 -11.736  -2.197  1.00  0.00     0.037 A 
BRANCH  47  61
ATOM     61  C   UNL     1      -5.767 -10.605  -3.788  1.00  0.00     0.064 A 
ATOM     62  C   UNL     1      -6.292 -11.906  -3.948  1.00  0.00     0.173 A 
ATOM     63  C   UNL     1      -5.852  -9.773  -4.922  1.00  0.00     0.173 A 
ATOM     64  F   UNL     1      -6.244 -12.792  -2.942  1.00  0.00    -0.203 F 
ATOM     65  C   UNL     1      -6.801 -12.355  -5.171  1.00  0.00     0.198 A 
ATOM     66  C   UNL     1      -6.407 -10.208  -6.126  1.00  0.00     0.198 A 
ATOM     67  F   UNL     1      -5.305  -8.551  -4.939  1.00  0.00    -0.203 F 
ATOM     68  F   UNL     1      -7.180 -13.634  -5.307  1.00  0.00    -0.200 F 
ATOM     69  C   UNL     1      -6.853 -11.507  -6.261  1.00  0.00     0.200 A 
ATOM     70  F   UNL     1      -6.431  -9.378  -7.178  1.00  0.00    -0.200 F 
ATOM     71  F   UNL     1      -7.285 -11.950  -7.449  1.00  0.00    -0.200 F 
ENDBRANCH  47  61
BRANCH  48  72
ATOM     72  C   UNL     1       2.054  -7.780  -5.590  1.00  0.00     0.064 A 
ATOM     73  C   UNL     1       2.780  -8.626  -6.439  1.00  0.00     0.173 A 
ATOM     74  C   UNL     1       1.946  -6.430  -5.984  1.00  0.00     0.173 A 
ATOM     75  F   UNL     1       2.893  -9.931  -6.154  1.00  0.00    -0.203 F 
ATOM     76  C   UNL     1       3.345  -8.155  -7.628  1.00  0.00     0.198 A 
ATOM     77  C   UNL     1       2.518  -5.960  -7.165  1.00  0.00     0.198 A 
ATOM     78  F   UNL     1       1.207  -5.564  -5.276  1.00  0.00    -0.203 F 
ATOM     79  F   UNL     1       3.980  -9.005  -8.446  1.00  0.00    -0.200 F 
ATOM     80  C   UNL     1       3.205  -6.826  -7.994  1.00  0.00     0.200 A 
ATOM     81  F   UNL     1       2.346  -4.680  -7.523  1.00  0.00    -0.200 F 
ATOM     82  F   UNL     1       3.694  -6.390  -9.163  1.00  0.00    -0.200 F 
ENDBRANCH  48  72
BRANCH  60  83
ATOM     83  C   UNL     1       0.380 -11.913  -1.189  1.00  0.00     0.064 A 
ATOM     84  C   UNL     1       1.130 -10.853  -0.651  1.00  0.00     0.173 A 
ATOM     85  C   UNL     1       0.594 -13.186  -0.643  1.00  0.00     0.173 A 
ATOM     86  F   UNL     1       0.911  -9.589  -1.030  1.00  0.00    -0.203 F 
ATOM     87  C   UNL     1       2.086 -11.066   0.340  1.00  0.00     0.198 A 
ATOM     88  C   UNL     1       1.522 -13.392   0.375  1.00  0.00     0.198 A 
ATOM     89  F   UNL     1      -0.135 -14.231  -1.068  1.00  0.00    -0.203 F 
ATOM     90  F   UNL     1       2.799 -10.036   0.819  1.00  0.00    -0.200 F 
ATOM     91  C   UNL     1       2.278 -12.336   0.856  1.00  0.00     0.200 A 
ATOM     92  F   UNL     1       1.667 -14.613   0.907  1.00  0.00    -0.200 F 
ATOM     93  F   UNL     1       3.171 -12.537   1.835  1.00  0.00    -0.200 F 
ENDBRANCH  60  83
ENDBRANCH  34  35
ENDBRANCH  26  29
ENDBRANCH  24  25
ENDBRANCH  23  24
ENDBRANCH   1  23
TORSDOF 14
