REMARK SMILES C=CCN(CC(=O)NCCCNC(=O)c1ccc(-c2c3nc(c(-c4c(F)c(F)c(F)c(F)c4F)c4ccc([nH]4)c(-c4c(F)c(F)c(F)c(F)c4F)c4nc(c(-c5c(F)c(F)c(F)c(F)c5F)c5ccc2[nH]5)C=C4)C=C3)cc1)C(=O)N1CC[C@@H](C(=O)OC)C1
REMARK SMILES IDX 6 1 7 2 8 3 5 5 4 6 3 7 2 8 1 9 78 10 79 11 80 12 81 13
REMARK SMILES IDX 88 14 82 15 83 16 84 17 85 18 86 19 87 20 9 21 10 22 11 23
REMARK SMILES IDX 12 24 13 25 14 27 15 28 16 29 77 30 17 31 76 32 18 33 19 34
REMARK SMILES IDX 20 35 70 36 21 37 75 38 69 39 71 40 22 41 74 42 68 43 67 44
REMARK SMILES IDX 23 46 55 47 35 48 54 49 36 50 39 51 53 52 72 53 37 54 38 55
REMARK SMILES IDX 52 57 73 58 40 59 24 60 25 61 33 62 26 63 27 64 31 65 34 66
REMARK SMILES IDX 28 67 29 68 32 69 30 70 56 71 57 72 65 73 58 74 59 75 63 76
REMARK SMILES IDX 66 77 60 78 61 79 64 80 62 81 41 82 42 83 50 84 43 85 44 86
REMARK SMILES IDX 48 87 51 88 45 89 46 90 49 91 47 92
REMARK H PARENT 8 4 12 26 71 45 39 56
REMARK Flexibility Score: inf
ROOT
ATOM      1  C   UNL     1      -3.828   1.853  -2.740  1.00  0.00     0.239 C 
ATOM      2  O   UNL     1      -4.380   2.505  -3.636  1.00  0.00    -0.273 OA
ATOM      3  N   UNL     1      -4.650   1.132  -1.928  1.00  0.00    -0.354 N 
ATOM      4  H   UNL     1      -5.581   1.452  -1.888  1.00  0.00     0.163 HD
ENDROOT
BRANCH   1   5
ATOM      5  C   UNL     1      -2.289   1.813  -2.656  1.00  0.00     0.221 C 
BRANCH   5   6
ATOM      6  N   UNL     1      -1.651   1.796  -1.332  1.00  0.00    -0.312 N 
BRANCH   6   7
ATOM      7  C   UNL     1      -1.046   0.534  -0.910  1.00  0.00     0.149 C 
BRANCH   7   8
ATOM      8  C   UNL     1       0.429   0.506  -1.179  1.00  0.00    -0.013 C 
ATOM      9  C   UNL     1       1.326   0.120  -0.261  1.00  0.00     0.006 C 
ENDBRANCH   7   8
ENDBRANCH   6   7
BRANCH   6  10
ATOM     10  C   UNL     1      -1.348   2.924  -0.573  1.00  0.00     0.320 C 
ATOM     11  O   UNL     1      -0.642   2.860   0.434  1.00  0.00    -0.248 OA
BRANCH  10  12
ATOM     12  N   UNL     1      -1.752   4.146  -1.045  1.00  0.00    -0.324 N 
ATOM     13  C   UNL     1      -3.108   4.590  -1.259  1.00  0.00     0.122 C 
ATOM     14  C   UNL     1      -0.902   5.327  -0.913  1.00  0.00     0.136 C 
ATOM     15  C   UNL     1      -2.897   5.744  -2.215  1.00  0.00     0.039 C 
ATOM     16  C   UNL     1      -1.697   6.469  -1.575  1.00  0.00     0.120 C 
BRANCH  16  17
ATOM     17  C   UNL     1      -2.100   7.518  -0.552  1.00  0.00     0.310 C 
ATOM     18  O   UNL     1      -1.385   7.902   0.363  1.00  0.00    -0.252 OA
BRANCH  17  19
ATOM     19  O   UNL     1      -3.336   8.022  -0.824  1.00  0.00    -0.469 OA
ATOM     20  C   UNL     1      -3.814   8.997   0.102  1.00  0.00     0.282 C 
ENDBRANCH  17  19
ENDBRANCH  16  17
ENDBRANCH  10  12
ENDBRANCH   6  10
ENDBRANCH   5   6
ENDBRANCH   1   5
BRANCH   3  21
ATOM     21  C   UNL     1      -4.369  -0.030  -1.117  1.00  0.00     0.117 C 
BRANCH  21  22
ATOM     22  C   UNL     1      -4.220   0.259   0.372  1.00  0.00     0.042 C 
BRANCH  22  23
ATOM     23  C   UNL     1      -5.493   0.721   1.075  1.00  0.00     0.118 C 
BRANCH  23  24
ATOM     24  N   UNL     1      -6.589  -0.229   0.957  1.00  0.00    -0.352 N 
ATOM     25  C   UNL     1      -7.266  -0.964   1.896  1.00  0.00     0.251 C 
ATOM     26  H   UNL     1      -6.902  -0.369   0.035  1.00  0.00     0.163 HD
ATOM     27  O   UNL     1      -8.040  -1.839   1.514  1.00  0.00    -0.269 OA
BRANCH  25  28
ATOM     28  C   UNL     1      -7.086  -0.741   3.350  1.00  0.00     0.039 A 
ATOM     29  C   UNL     1      -7.150  -1.849   4.203  1.00  0.00     0.014 A 
ATOM     30  C   UNL     1      -6.937   0.536   3.894  1.00  0.00     0.014 A 
ATOM     31  C   UNL     1      -7.014  -1.683   5.584  1.00  0.00     0.010 A 
ATOM     32  C   UNL     1      -6.723   0.694   5.264  1.00  0.00     0.010 A 
ATOM     33  C   UNL     1      -6.768  -0.412   6.125  1.00  0.00    -0.014 A 
BRANCH  33  34
ATOM     34  C   UNL     1      -6.564  -0.229   7.587  1.00  0.00     0.031 A 
ATOM     35  C   UNL     1      -7.533   0.588   8.398  1.00  0.00     0.074 A 
ATOM     36  C   UNL     1      -5.476  -0.760   8.177  1.00  0.00     0.049 A 
ATOM     37  N   UNL     1      -7.497   0.894   9.671  1.00  0.00    -0.248 NA
ATOM     38  C   UNL     1      -8.683   1.157   7.679  1.00  0.00     0.031 C 
ATOM     39  C   UNL     1      -4.437  -1.532   7.494  1.00  0.00     0.029 A 
ATOM     40  N   UNL     1      -5.058  -0.725   9.485  1.00  0.00    -0.354 N 
ATOM     41  C   UNL     1      -8.605   1.700   9.900  1.00  0.00     0.074 A 
ATOM     42  C   UNL     1      -9.266   1.879   8.625  1.00  0.00     0.031 C 
ATOM     43  C   UNL     1      -3.514  -1.916   8.390  1.00  0.00     0.029 A 
ATOM     44  C   UNL     1      -3.876  -1.389   9.702  1.00  0.00     0.049 A 
ATOM     45  H   UNL     1      -5.558  -0.267  10.198  1.00  0.00     0.167 HD
ATOM     46  C   UNL     1      -9.044   2.224  11.070  1.00  0.00     0.037 A 
ATOM     47  C   UNL     1      -3.160  -1.550  10.831  1.00  0.00     0.037 A 
ATOM     48  C   UNL     1      -8.399   2.025  12.342  1.00  0.00     0.049 A 
ATOM     49  C   UNL     1      -3.670  -0.958  12.117  1.00  0.00     0.074 A 
ATOM     50  C   UNL     1      -8.800   2.464  13.592  1.00  0.00     0.029 A 
ATOM     51  N   UNL     1      -7.212   1.330  12.525  1.00  0.00    -0.354 N 
ATOM     52  N   UNL     1      -4.758  -0.259  12.333  1.00  0.00    -0.248 NA
ATOM     53  C   UNL     1      -2.857  -1.188  13.319  1.00  0.00     0.031 C 
ATOM     54  C   UNL     1      -7.832   2.076  14.524  1.00  0.00     0.029 A 
ATOM     55  C   UNL     1      -6.855   1.347  13.864  1.00  0.00     0.049 A 
ATOM     56  H   UNL     1      -6.699   0.890  11.809  1.00  0.00     0.167 HD
ATOM     57  C   UNL     1      -4.775   0.009  13.695  1.00  0.00     0.074 A 
ATOM     58  C   UNL     1      -3.598  -0.618  14.258  1.00  0.00     0.031 C 
ATOM     59  C   UNL     1      -5.684   0.713  14.414  1.00  0.00     0.037 A 
BRANCH  46  60
ATOM     60  C   UNL     1     -10.289   3.065  11.031  1.00  0.00     0.064 A 
ATOM     61  C   UNL     1     -11.550   2.504  10.776  1.00  0.00     0.173 A 
ATOM     62  C   UNL     1     -10.227   4.443  11.291  1.00  0.00     0.173 A 
ATOM     63  F   UNL     1     -11.665   1.194  10.512  1.00  0.00    -0.203 F 
ATOM     64  C   UNL     1     -12.696   3.294  10.752  1.00  0.00     0.198 A 
ATOM     65  C   UNL     1     -11.380   5.225  11.297  1.00  0.00     0.198 A 
ATOM     66  F   UNL     1      -9.049   5.031  11.548  1.00  0.00    -0.203 F 
ATOM     67  F   UNL     1     -13.882   2.744  10.456  1.00  0.00    -0.200 F 
ATOM     68  C   UNL     1     -12.611   4.652  11.020  1.00  0.00     0.200 A 
ATOM     69  F   UNL     1     -11.298   6.535  11.570  1.00  0.00    -0.200 F 
ATOM     70  F   UNL     1     -13.716   5.410  11.004  1.00  0.00    -0.200 F 
ENDBRANCH  46  60
BRANCH  47  71
ATOM     71  C   UNL     1      -1.895  -2.330  10.802  1.00  0.00     0.064 A 
ATOM     72  C   UNL     1      -1.805  -3.579  11.432  1.00  0.00     0.173 A 
ATOM     73  C   UNL     1      -0.751  -1.843  10.153  1.00  0.00     0.173 A 
ATOM     74  F   UNL     1      -2.866  -4.078  12.084  1.00  0.00    -0.203 F 
ATOM     75  C   UNL     1      -0.614  -4.302  11.432  1.00  0.00     0.198 A 
ATOM     76  C   UNL     1       0.431  -2.581  10.128  1.00  0.00     0.198 A 
ATOM     77  F   UNL     1      -0.785  -0.656   9.531  1.00  0.00    -0.203 F 
ATOM     78  F   UNL     1      -0.543  -5.471  12.083  1.00  0.00    -0.200 F 
ATOM     79  C   UNL     1       0.501  -3.805  10.776  1.00  0.00     0.200 A 
ATOM     80  F   UNL     1       1.503  -2.104   9.480  1.00  0.00    -0.200 F 
ATOM     81  F   UNL     1       1.645  -4.502  10.773  1.00  0.00    -0.200 F 
ENDBRANCH  47  71
BRANCH  59  82
ATOM     82  C   UNL     1      -5.462   0.809  15.896  1.00  0.00     0.064 A 
ATOM     83  C   UNL     1      -4.426   1.584  16.438  1.00  0.00     0.173 A 
ATOM     84  C   UNL     1      -6.316   0.140  16.785  1.00  0.00     0.173 A 
ATOM     85  F   UNL     1      -3.573   2.232  15.630  1.00  0.00    -0.203 F 
ATOM     86  C   UNL     1      -4.234   1.659  17.815  1.00  0.00     0.198 A 
ATOM     87  C   UNL     1      -6.141   0.243  18.163  1.00  0.00     0.198 A 
ATOM     88  F   UNL     1      -7.327  -0.609  16.319  1.00  0.00    -0.203 F 
ATOM     89  F   UNL     1      -3.204   2.361  18.309  1.00  0.00    -0.200 F 
ATOM     90  C   UNL     1      -5.095   0.994  18.676  1.00  0.00     0.200 A 
ATOM     91  F   UNL     1      -6.982  -0.388  18.993  1.00  0.00    -0.200 F 
ATOM     92  F   UNL     1      -4.911   1.071  20.001  1.00  0.00    -0.200 F 
ENDBRANCH  59  82
ENDBRANCH  33  34
ENDBRANCH  25  28
ENDBRANCH  23  24
ENDBRANCH  22  23
ENDBRANCH  21  22
ENDBRANCH   3  21
TORSDOF 17
