REMARK SMILES Cc1cccc(NC(=O)[C@H]2C=C[C@@H]([NH3+])C2)c1C(=O)NCCCNC(=O)c1ccc(-c2c3nc(c(-c4c(F)c(F)c(F)c(F)c4F)c4ccc([nH]4)c(-c4c(F)c(F)c(F)c(F)c4F)c4nc(c(-c5c(F)c(F)c(F)c(F)c5F)c5ccc2[nH]5)C=C4)C=C3)cc1
REMARK SMILES IDX 20 1 19 2 17 3 18 4 16 6 1 7 2 8 3 9 4 10 6 11 5 12 7 13
REMARK SMILES IDX 8 14 9 16 10 17 11 18 15 19 12 20 13 21 14 22 21 26 22 27
REMARK SMILES IDX 23 28 24 29 25 31 26 32 27 33 88 34 28 35 87 36 29 37 30 38
REMARK SMILES IDX 31 39 81 40 32 41 86 42 80 43 82 44 33 45 85 46 79 47 78 48
REMARK SMILES IDX 34 50 66 51 46 52 65 53 47 54 50 55 64 56 83 57 48 58 49 59
REMARK SMILES IDX 63 61 84 62 51 63 35 64 36 65 44 66 37 67 38 68 42 69 45 70
REMARK SMILES IDX 39 71 40 72 43 73 41 74 67 75 68 76 76 77 69 78 70 79 74 80
REMARK SMILES IDX 77 81 71 82 72 83 75 84 73 85 52 86 53 87 61 88 54 89 55 90
REMARK SMILES IDX 59 91 62 92 56 93 57 94 60 95 58 96
REMARK H PARENT 19 5 7 15 14 23 14 24 14 25 23 30 82 49 50 60
REMARK Flexibility Score: inf
ROOT
ATOM      1  C   UNL     1       3.616   1.342   0.463  1.00  0.00     0.118 C 
ENDROOT
BRANCH   1   2
ATOM      2  N   UNL     1       2.387   2.056   0.154  1.00  0.00    -0.352 N 
ATOM      3  C   UNL     1       1.066   1.793  -0.097  1.00  0.00     0.253 C 
ATOM      4  O   UNL     1       0.436   2.844  -0.294  1.00  0.00    -0.269 OA
ATOM      5  H   UNL     1       2.556   3.025   0.114  1.00  0.00     0.163 HD
BRANCH   3   6
ATOM      6  C   UNL     1       0.292   0.480  -0.160  1.00  0.00     0.066 A 
ATOM      7  C   UNL     1       2.209  -1.278  -0.437  1.00  0.00     0.045 C 
ATOM      8  C   UNL     1       0.806  -0.847  -0.199  1.00  0.00    -0.036 A 
ATOM      9  C   UNL     1      -0.059  -1.960  -0.191  1.00  0.00     0.004 A 
ATOM     10  C   UNL     1      -1.387  -1.804  -0.475  1.00  0.00     0.002 A 
ATOM     11  C   UNL     1      -1.138   0.596  -0.290  1.00  0.00     0.054 A 
ATOM     12  C   UNL     1      -1.874  -0.525  -0.633  1.00  0.00     0.027 A 
BRANCH  11  13
ATOM     13  N   UNL     1      -1.832   1.814  -0.093  1.00  0.00    -0.325 N 
ATOM     14  C   UNL     1      -3.125   2.211   0.064  1.00  0.00     0.231 C 
ATOM     15  H   UNL     1      -1.214   2.580  -0.060  1.00  0.00     0.169 HD
ATOM     16  O   UNL     1      -3.272   3.441   0.205  1.00  0.00    -0.274 OA
BRANCH  14  17
ATOM     17  C   UNL     1      -4.428   1.373   0.031  1.00  0.00     0.107 C 
ATOM     18  C   UNL     1      -4.934   1.185  -1.370  1.00  0.00    -0.012 C 
ATOM     19  C   UNL     1      -4.608  -0.006   0.687  1.00  0.00     0.087 C 
ATOM     20  C   UNL     1      -5.470  -0.026  -1.556  1.00  0.00     0.033 C 
ATOM     21  C   UNL     1      -5.413  -0.869  -0.324  1.00  0.00     0.205 C 
BRANCH  21  22
ATOM     22  N   UNL     1      -4.817  -2.167  -0.616  1.00  0.00    -0.352 N 
ATOM     23  H   UNL     1      -3.887  -2.033  -1.011  1.00  0.00     0.345 HD
ATOM     24  H   UNL     1      -5.402  -2.666  -1.286  1.00  0.00     0.345 HD
ATOM     25  H   UNL     1      -4.746  -2.710   0.245  1.00  0.00     0.345 HD
ENDBRANCH  21  22
ENDBRANCH  14  17
ENDBRANCH  11  13
ENDBRANCH   3   6
ENDBRANCH   1   2
BRANCH   1  26
ATOM     26  C   UNL     1       4.282   0.802  -0.800  1.00  0.00     0.042 C 
BRANCH  26  27
ATOM     27  C   UNL     1       5.606   1.419  -1.190  1.00  0.00     0.118 C 
BRANCH  27  28
ATOM     28  N   UNL     1       6.733   0.493  -1.044  1.00  0.00    -0.352 N 
ATOM     29  C   UNL     1       8.030   0.646  -1.513  1.00  0.00     0.251 C 
ATOM     30  H   UNL     1       6.546  -0.340  -0.554  1.00  0.00     0.163 HD
ATOM     31  O   UNL     1       8.895  -0.180  -1.307  1.00  0.00    -0.269 OA
BRANCH  29  32
ATOM     32  C   UNL     1       8.338   1.935  -2.168  1.00  0.00     0.039 A 
ATOM     33  C   UNL     1       9.043   2.857  -1.392  1.00  0.00     0.014 A 
ATOM     34  C   UNL     1       7.540   2.337  -3.235  1.00  0.00     0.014 A 
ATOM     35  C   UNL     1       8.716   4.202  -1.499  1.00  0.00     0.010 A 
ATOM     36  C   UNL     1       7.144   3.661  -3.271  1.00  0.00     0.010 A 
ATOM     37  C   UNL     1       7.674   4.575  -2.348  1.00  0.00    -0.014 A 
BRANCH  37  38
ATOM     38  C   UNL     1       7.043   5.889  -2.277  1.00  0.00     0.031 A 
ATOM     39  C   UNL     1       7.361   6.892  -3.310  1.00  0.00     0.074 A 
ATOM     40  C   UNL     1       6.194   6.222  -1.278  1.00  0.00     0.049 A 
ATOM     41  N   UNL     1       7.347   8.166  -3.108  1.00  0.00    -0.248 NA
ATOM     42  C   UNL     1       7.774   6.522  -4.656  1.00  0.00     0.031 C 
ATOM     43  C   UNL     1       5.380   7.435  -1.191  1.00  0.00     0.029 A 
ATOM     44  N   UNL     1       6.048   5.619  -0.016  1.00  0.00    -0.354 N 
ATOM     45  C   UNL     1       7.495   8.784  -4.326  1.00  0.00     0.074 A 
ATOM     46  C   UNL     1       7.812   7.717  -5.250  1.00  0.00     0.031 C 
ATOM     47  C   UNL     1       5.098   7.675   0.098  1.00  0.00     0.029 A 
ATOM     48  C   UNL     1       5.796   6.684   0.890  1.00  0.00     0.049 A 
ATOM     49  H   UNL     1       6.107   4.659   0.195  1.00  0.00     0.167 HD
ATOM     50  C   UNL     1       7.222  10.115  -4.440  1.00  0.00     0.037 A 
ATOM     51  C   UNL     1       6.633   6.941   1.936  1.00  0.00     0.037 A 
ATOM     52  C   UNL     1       6.852  10.707  -3.154  1.00  0.00     0.049 A 
ATOM     53  C   UNL     1       7.309   8.292   1.882  1.00  0.00     0.074 A 
ATOM     54  C   UNL     1       5.649  11.037  -2.550  1.00  0.00     0.029 A 
ATOM     55  N   UNL     1       7.806  10.777  -2.153  1.00  0.00    -0.354 N 
ATOM     56  N   UNL     1       7.104   9.188   0.957  1.00  0.00    -0.248 NA
ATOM     57  C   UNL     1       8.372   8.681   2.810  1.00  0.00     0.031 C 
ATOM     58  C   UNL     1       5.900  11.326  -1.178  1.00  0.00     0.029 A 
ATOM     59  C   UNL     1       7.254  11.171  -0.948  1.00  0.00     0.049 A 
ATOM     60  H   UNL     1       8.759  10.572  -2.283  1.00  0.00     0.167 HD
ATOM     61  C   UNL     1       8.015  10.202   1.101  1.00  0.00     0.074 A 
ATOM     62  C   UNL     1       8.790   9.837   2.272  1.00  0.00     0.031 C 
ATOM     63  C   UNL     1       8.110  11.244   0.224  1.00  0.00     0.037 A 
BRANCH  50  64
ATOM     64  C   UNL     1       7.048  10.815  -5.768  1.00  0.00     0.064 A 
ATOM     65  C   UNL     1       6.167  11.908  -5.900  1.00  0.00     0.173 A 
ATOM     66  C   UNL     1       7.680  10.422  -6.963  1.00  0.00     0.173 A 
ATOM     67  F   UNL     1       5.595  12.480  -4.833  1.00  0.00    -0.203 F 
ATOM     68  C   UNL     1       5.836  12.458  -7.141  1.00  0.00     0.198 A 
ATOM     69  C   UNL     1       7.300  10.923  -8.212  1.00  0.00     0.198 A 
ATOM     70  F   UNL     1       8.727   9.588  -6.954  1.00  0.00    -0.203 F 
ATOM     71  F   UNL     1       4.986  13.492  -7.204  1.00  0.00    -0.200 F 
ATOM     72  C   UNL     1       6.365  11.932  -8.302  1.00  0.00     0.200 A 
ATOM     73  F   UNL     1       7.850  10.419  -9.326  1.00  0.00    -0.200 F 
ATOM     74  F   UNL     1       6.001  12.417  -9.496  1.00  0.00    -0.200 F 
ENDBRANCH  50  64
BRANCH  51  75
ATOM     75  C   UNL     1       7.231   5.697   2.485  1.00  0.00     0.064 A 
ATOM     76  C   UNL     1       6.351   4.738   3.025  1.00  0.00     0.173 A 
ATOM     77  C   UNL     1       8.501   5.269   2.086  1.00  0.00     0.173 A 
ATOM     78  F   UNL     1       5.129   5.107   3.442  1.00  0.00    -0.203 F 
ATOM     79  C   UNL     1       6.659   3.383   2.982  1.00  0.00     0.198 A 
ATOM     80  C   UNL     1       8.818   3.912   2.083  1.00  0.00     0.198 A 
ATOM     81  F   UNL     1       9.382   6.138   1.570  1.00  0.00    -0.203 F 
ATOM     82  F   UNL     1       5.735   2.477   3.332  1.00  0.00    -0.200 F 
ATOM     83  C   UNL     1       7.877   2.969   2.472  1.00  0.00     0.200 A 
ATOM     84  F   UNL     1      10.002   3.512   1.600  1.00  0.00    -0.200 F 
ATOM     85  F   UNL     1       8.123   1.662   2.307  1.00  0.00    -0.200 F 
ENDBRANCH  51  75
BRANCH  63  86
ATOM     86  C   UNL     1       9.059  12.400   0.406  1.00  0.00     0.064 A 
ATOM     87  C   UNL     1       9.315  12.975   1.663  1.00  0.00     0.173 A 
ATOM     88  C   UNL     1       9.674  13.037  -0.694  1.00  0.00     0.173 A 
ATOM     89  F   UNL     1       8.694  12.528   2.765  1.00  0.00    -0.203 F 
ATOM     90  C   UNL     1      10.201  14.044   1.820  1.00  0.00     0.198 A 
ATOM     91  C   UNL     1      10.513  14.140  -0.541  1.00  0.00     0.198 A 
ATOM     92  F   UNL     1       9.500  12.600  -1.948  1.00  0.00    -0.203 F 
ATOM     93  F   UNL     1      10.472  14.507   3.048  1.00  0.00    -0.200 F 
ATOM     94  C   UNL     1      10.797  14.628   0.718  1.00  0.00     0.200 A 
ATOM     95  F   UNL     1      11.053  14.719  -1.623  1.00  0.00    -0.200 F 
ATOM     96  F   UNL     1      11.638  15.660   0.868  1.00  0.00    -0.200 F 
ENDBRANCH  63  86
ENDBRANCH  37  38
ENDBRANCH  29  32
ENDBRANCH  27  28
ENDBRANCH  26  27
ENDBRANCH   1  26
TORSDOF 13
