REMARK SMILES CCc1nc(N2CCC[C@@H](C(=O)NCCCNC(=O)c3ccc(-c4c5nc(c(-c6c(F)c(F)c(F)c(F)c6F)c6ccc([nH]6)c(-c6c(F)c(F)c(F)c(F)c6F)c6nc(c(-c7c(F)c(F)c(F)c(F)c7F)c7ccc4[nH]7)C=C6)C=C5)cc3)C2)c2c(C)c(C)oc2n1
REMARK SMILES IDX 15 1 14 2 13 3 11 4 12 5 10 7 6 8 7 9 83 10 8 11 9 12 5 13
REMARK SMILES IDX 3 14 4 15 91 16 90 17 84 18 89 19 85 20 87 21 86 22 88 23
REMARK SMILES IDX 2 24 1 25 16 26 17 27 18 28 19 30 20 31 21 32 82 33 22 34
REMARK SMILES IDX 81 35 23 36 24 37 25 38 75 39 26 40 80 41 74 42 76 43 27 44
REMARK SMILES IDX 79 45 73 46 72 47 28 49 60 50 40 51 59 52 41 53 44 54 58 55
REMARK SMILES IDX 77 56 42 57 43 58 57 60 78 61 45 62 29 63 30 64 38 65 31 66
REMARK SMILES IDX 32 67 36 68 39 69 33 70 34 71 37 72 35 73 61 74 62 75 70 76
REMARK SMILES IDX 63 77 64 78 68 79 71 80 65 81 66 82 69 83 67 84 46 85 47 86
REMARK SMILES IDX 55 87 48 88 49 89 53 90 56 91 50 92 51 93 54 94 52 95
REMARK H PARENT 13 6 17 29 76 48 44 59
REMARK Flexibility Score: inf
ROOT
ATOM      1  C   UNL     1      -0.854  -2.577  10.080  1.00  0.00     0.042 C 
ENDROOT
BRANCH   1   2
ATOM      2  C   UNL     1      -0.907  -1.969   8.666  1.00  0.00     0.117 C 
BRANCH   2   3
ATOM      3  N   UNL     1      -0.068  -0.790   8.483  1.00  0.00    -0.356 N 
ATOM      4  C   UNL     1       0.886  -0.499   7.546  1.00  0.00     0.224 C 
ATOM      5  O   UNL     1       1.250   0.679   7.457  1.00  0.00    -0.275 OA
ATOM      6  H   UNL     1      -0.212  -0.081   9.150  1.00  0.00     0.163 HD
BRANCH   4   7
ATOM      7  C   UNL     1       1.551  -1.584   6.714  1.00  0.00     0.098 C 
ATOM      8  N   UNL     1       2.308  -2.262   4.552  1.00  0.00    -0.355 N 
ATOM      9  C   UNL     1       3.718  -2.445   4.858  1.00  0.00     0.118 C 
ATOM     10  C   UNL     1       1.641  -1.163   5.237  1.00  0.00     0.131 C 
ATOM     11  C   UNL     1       3.883  -2.689   6.362  1.00  0.00     0.022 C 
ATOM     12  C   UNL     1       2.971  -1.843   7.267  1.00  0.00     0.017 C 
BRANCH   8  13
ATOM     13  C   UNL     1       1.798  -2.780   3.382  1.00  0.00     0.143 A 
ATOM     14  C   UNL     1       0.989  -2.494   1.194  1.00  0.00     0.134 A 
ATOM     15  N   UNL     1       1.449  -1.962   2.355  1.00  0.00    -0.215 NA
ATOM     16  N   UNL     1       0.814  -3.799   0.934  1.00  0.00    -0.197 NA
ATOM     17  C   UNL     1       1.105  -4.567   1.986  1.00  0.00     0.231 A 
ATOM     18  C   UNL     1       1.566  -4.158   3.225  1.00  0.00     0.086 A 
ATOM     19  O   UNL     1       0.954  -5.921   1.967  1.00  0.00    -0.443 OA
ATOM     20  C   UNL     1       1.616  -5.338   4.040  1.00  0.00     0.004 A 
ATOM     21  C   UNL     1       1.268  -6.383   3.206  1.00  0.00     0.107 A 
ATOM     22  C   UNL     1       1.924  -5.452   5.482  1.00  0.00     0.049 C 
ATOM     23  C   UNL     1       1.142  -7.840   3.416  1.00  0.00     0.088 C 
BRANCH  14  24
ATOM     24  C   UNL     1       0.544  -1.570   0.084  1.00  0.00     0.074 C 
ATOM     25  C   UNL     1       1.003  -0.127   0.203  1.00  0.00     0.012 C 
ENDBRANCH  14  24
ENDBRANCH   8  13
ENDBRANCH   4   7
ENDBRANCH   2   3
ENDBRANCH   1   2
BRANCH   1  26
ATOM     26  C   UNL     1      -1.512  -1.769  11.224  1.00  0.00     0.118 C 
BRANCH  26  27
ATOM     27  N   UNL     1      -2.962  -1.703  11.089  1.00  0.00    -0.352 N 
ATOM     28  C   UNL     1      -4.006  -1.869  11.957  1.00  0.00     0.251 C 
ATOM     29  H   UNL     1      -3.254  -1.493  10.172  1.00  0.00     0.163 HD
ATOM     30  O   UNL     1      -5.138  -1.957  11.449  1.00  0.00    -0.269 OA
BRANCH  28  31
ATOM     31  C   UNL     1      -3.917  -1.946  13.440  1.00  0.00     0.039 A 
ATOM     32  C   UNL     1      -4.865  -2.752  14.098  1.00  0.00     0.014 A 
ATOM     33  C   UNL     1      -3.088  -1.133  14.215  1.00  0.00     0.014 A 
ATOM     34  C   UNL     1      -4.968  -2.776  15.496  1.00  0.00     0.010 A 
ATOM     35  C   UNL     1      -3.193  -1.157  15.623  1.00  0.00     0.010 A 
ATOM     36  C   UNL     1      -4.121  -1.988  16.281  1.00  0.00    -0.014 A 
BRANCH  36  37
ATOM     37  C   UNL     1      -4.091  -2.247  17.748  1.00  0.00     0.031 A 
ATOM     38  C   UNL     1      -2.712  -2.410  18.302  1.00  0.00     0.074 A 
ATOM     39  C   UNL     1      -5.053  -1.906  18.639  1.00  0.00     0.049 A 
ATOM     40  N   UNL     1      -1.967  -1.396  18.637  1.00  0.00    -0.248 NA
ATOM     41  C   UNL     1      -1.993  -3.682  18.252  1.00  0.00     0.031 C 
ATOM     42  C   UNL     1      -5.858  -0.685  18.545  1.00  0.00     0.029 A 
ATOM     43  N   UNL     1      -5.330  -2.395  19.905  1.00  0.00    -0.354 N 
ATOM     44  C   UNL     1      -0.675  -1.864  18.768  1.00  0.00     0.074 A 
ATOM     45  C   UNL     1      -0.741  -3.292  18.540  1.00  0.00     0.031 C 
ATOM     46  C   UNL     1      -6.396  -0.427  19.757  1.00  0.00     0.029 A 
ATOM     47  C   UNL     1      -6.110  -1.532  20.676  1.00  0.00     0.049 A 
ATOM     48  H   UNL     1      -5.007  -3.266  20.230  1.00  0.00     0.167 HD
ATOM     49  C   UNL     1       0.376  -1.048  19.041  1.00  0.00     0.037 A 
ATOM     50  C   UNL     1      -6.044  -1.398  22.033  1.00  0.00     0.037 A 
ATOM     51  C   UNL     1       0.062   0.336  19.235  1.00  0.00     0.049 A 
ATOM     52  C   UNL     1      -4.719  -0.696  22.191  1.00  0.00     0.074 A 
ATOM     53  C   UNL     1       0.065   1.499  18.497  1.00  0.00     0.029 A 
ATOM     54  N   UNL     1      -0.416   0.713  20.468  1.00  0.00    -0.354 N 
ATOM     55  N   UNL     1      -4.487   0.576  22.008  1.00  0.00    -0.248 NA
ATOM     56  C   UNL     1      -3.525  -1.542  22.223  1.00  0.00     0.031 C 
ATOM     57  C   UNL     1      -0.844   2.379  19.169  1.00  0.00     0.029 A 
ATOM     58  C   UNL     1      -1.370   1.672  20.248  1.00  0.00     0.049 A 
ATOM     59  H   UNL     1      -0.128   0.362  21.341  1.00  0.00     0.167 HD
ATOM     60  C   UNL     1      -3.145   0.648  21.626  1.00  0.00     0.074 A 
ATOM     61  C   UNL     1      -2.607  -0.684  21.806  1.00  0.00     0.031 C 
ATOM     62  C   UNL     1      -2.596   1.732  21.008  1.00  0.00     0.037 A 
BRANCH  49  63
ATOM     63  C   UNL     1       1.747  -1.505  19.326  1.00  0.00     0.064 A 
ATOM     64  C   UNL     1       2.155  -1.538  20.667  1.00  0.00     0.173 A 
ATOM     65  C   UNL     1       2.713  -1.670  18.331  1.00  0.00     0.173 A 
ATOM     66  F   UNL     1       1.250  -1.374  21.646  1.00  0.00    -0.203 F 
ATOM     67  C   UNL     1       3.494  -1.674  21.005  1.00  0.00     0.198 A 
ATOM     68  C   UNL     1       4.057  -1.819  18.674  1.00  0.00     0.198 A 
ATOM     69  F   UNL     1       2.367  -1.633  17.036  1.00  0.00    -0.203 F 
ATOM     70  F   UNL     1       3.861  -1.640  22.293  1.00  0.00    -0.200 F 
ATOM     71  C   UNL     1       4.447  -1.803  20.008  1.00  0.00     0.200 A 
ATOM     72  F   UNL     1       4.983  -1.943  17.712  1.00  0.00    -0.200 F 
ATOM     73  F   UNL     1       5.744  -1.896  20.332  1.00  0.00    -0.200 F 
ENDBRANCH  49  63
BRANCH  50  74
ATOM     74  C   UNL     1      -6.440  -2.577  22.877  1.00  0.00     0.064 A 
ATOM     75  C   UNL     1      -7.668  -3.214  22.609  1.00  0.00     0.173 A 
ATOM     76  C   UNL     1      -5.707  -3.102  23.955  1.00  0.00     0.173 A 
ATOM     77  F   UNL     1      -8.507  -2.700  21.696  1.00  0.00    -0.203 F 
ATOM     78  C   UNL     1      -8.062  -4.379  23.272  1.00  0.00     0.198 A 
ATOM     79  C   UNL     1      -6.082  -4.287  24.596  1.00  0.00     0.198 A 
ATOM     80  F   UNL     1      -4.606  -2.489  24.411  1.00  0.00    -0.203 F 
ATOM     81  F   UNL     1      -9.225  -4.967  22.957  1.00  0.00    -0.200 F 
ATOM     82  C   UNL     1      -7.248  -4.938  24.239  1.00  0.00     0.200 A 
ATOM     83  F   UNL     1      -5.293  -4.806  25.549  1.00  0.00    -0.200 F 
ATOM     84  F   UNL     1      -7.589  -6.091  24.831  1.00  0.00    -0.200 F 
ENDBRANCH  50  74
BRANCH  62  85
ATOM     85  C   UNL     1      -3.456   2.944  20.936  1.00  0.00     0.064 A 
ATOM     86  C   UNL     1      -3.711   3.693  22.092  1.00  0.00     0.173 A 
ATOM     87  C   UNL     1      -3.987   3.402  19.721  1.00  0.00     0.173 A 
ATOM     88  F   UNL     1      -3.216   3.299  23.276  1.00  0.00    -0.203 F 
ATOM     89  C   UNL     1      -4.444   4.873  22.029  1.00  0.00     0.198 A 
ATOM     90  C   UNL     1      -4.698   4.597  19.659  1.00  0.00     0.198 A 
ATOM     91  F   UNL     1      -3.796   2.714  18.585  1.00  0.00    -0.203 F 
ATOM     92  F   UNL     1      -4.665   5.583  23.145  1.00  0.00    -0.200 F 
ATOM     93  C   UNL     1      -4.923   5.332  20.811  1.00  0.00     0.200 A 
ATOM     94  F   UNL     1      -5.143   5.050  18.477  1.00  0.00    -0.200 F 
ATOM     95  F   UNL     1      -5.590   6.494  20.746  1.00  0.00    -0.200 F 
ENDBRANCH  62  85
ENDBRANCH  36  37
ENDBRANCH  28  31
ENDBRANCH  26  27
ENDBRANCH   1  26
TORSDOF 12
