REMARK SMILES C[NH+]1CCC(NC(=O)N[C@@H]2C=C[C@H](C(=O)NCCCNC(=O)c3ccc(-c4c5nc(c(-c6c(F)c(F)c(F)c(F)c6F)c6ccc([nH]6)c(-c6c(F)c(F)c(F)c(F)c6F)c6nc(c(-c7c(F)c(F)c(F)c(F)c7F)c7ccc4[nH]7)C=C6)C=C5)cc3)C2)CC1
REMARK SMILES IDX 18 1 17 2 16 3 14 4 15 5 13 7 10 8 11 9 86 10 12 11 9 12
REMARK SMILES IDX 6 13 7 14 8 16 5 18 1 19 2 20 3 21 88 22 4 24 87 25 19 26
REMARK SMILES IDX 20 27 21 28 22 30 23 31 24 32 85 33 25 34 84 35 26 36 27 37
REMARK SMILES IDX 28 38 78 39 29 40 83 41 77 42 79 43 30 44 82 45 76 46 75 47
REMARK SMILES IDX 31 49 63 50 43 51 62 52 44 53 47 54 61 55 80 56 45 57 46 58
REMARK SMILES IDX 60 60 81 61 48 62 32 63 33 64 41 65 34 66 35 67 39 68 42 69
REMARK SMILES IDX 36 70 37 71 40 72 38 73 64 74 65 75 73 76 66 77 67 78 71 79
REMARK SMILES IDX 74 80 68 81 69 82 72 83 70 84 49 85 50 86 58 87 51 88 52 89
REMARK SMILES IDX 56 90 59 91 53 92 54 93 57 94 55 95
REMARK H PARENT 16 6 6 15 9 17 2 23 20 29 79 48 47 59
REMARK Flexibility Score: inf
ROOT
ATOM      1  C   UNL     1      -2.676   2.156   0.088  1.00  0.00     0.042 C 
ENDROOT
BRANCH   1   2
ATOM      2  C   UNL     1      -2.361   0.774  -0.472  1.00  0.00     0.117 C 
BRANCH   2   3
ATOM      3  N   UNL     1      -2.125   0.822  -1.903  1.00  0.00    -0.356 N 
ATOM      4  C   UNL     1      -0.936   0.925  -2.568  1.00  0.00     0.227 C 
ATOM      5  O   UNL     1      -0.957   1.020  -3.795  1.00  0.00    -0.274 OA
ATOM      6  H   UNL     1      -2.928   0.775  -2.470  1.00  0.00     0.163 HD
BRANCH   4   7
ATOM      7  C   UNL     1       0.350   0.860  -1.756  1.00  0.00     0.103 C 
ATOM      8  C   UNL     1       2.599   0.465  -2.684  1.00  0.00     0.107 C 
ATOM      9  C   UNL     1       1.963  -0.790  -2.183  1.00  0.00    -0.006 C 
ATOM     10  C   UNL     1       1.527   1.539  -2.471  1.00  0.00     0.047 C 
ATOM     11  C   UNL     1       0.758  -0.577  -1.655  1.00  0.00    -0.016 C 
BRANCH   8  12
ATOM     12  N   UNL     1       2.983   0.271  -4.060  1.00  0.00    -0.332 N 
ATOM     13  N   UNL     1       5.172  -0.642  -3.967  1.00  0.00    -0.335 N 
ATOM     14  C   UNL     1       4.101  -0.191  -4.649  1.00  0.00     0.315 C 
ATOM     15  H   UNL     1       5.912  -0.946  -4.541  1.00  0.00     0.165 HD
ATOM     16  O   UNL     1       4.147  -0.212  -5.881  1.00  0.00    -0.249 OA
ATOM     17  H   UNL     1       2.283   0.529  -4.701  1.00  0.00     0.165 HD
BRANCH  13  18
ATOM     18  C   UNL     1       5.438  -0.762  -2.549  1.00  0.00     0.095 C 
ATOM     19  C   UNL     1       6.630  -0.983   1.470  1.00  0.00     0.332 C 
ATOM     20  N   UNL     1       6.765  -0.915   0.011  1.00  0.00    -0.337 N 
ATOM     21  C   UNL     1       6.208   0.358  -0.474  1.00  0.00     0.264 C 
ATOM     22  C   UNL     1       6.149  -2.101  -0.609  1.00  0.00     0.264 C 
ATOM     23  H   UNL     1       7.749  -0.931  -0.259  1.00  0.00     0.347 HD
ATOM     24  C   UNL     1       6.189   0.445  -1.998  1.00  0.00     0.086 C 
ATOM     25  C   UNL     1       6.170  -2.034  -2.143  1.00  0.00     0.086 C 
ENDBRANCH  13  18
ENDBRANCH   8  12
ENDBRANCH   4   7
ENDBRANCH   2   3
ENDBRANCH   1   2
BRANCH   1  26
ATOM     26  C   UNL     1      -3.920   2.792  -0.527  1.00  0.00     0.118 C 
BRANCH  26  27
ATOM     27  N   UNL     1      -5.111   1.972  -0.348  1.00  0.00    -0.352 N 
ATOM     28  C   UNL     1      -6.306   2.264   0.258  1.00  0.00     0.251 C 
ATOM     29  H   UNL     1      -5.048   1.064  -0.722  1.00  0.00     0.163 HD
ATOM     30  O   UNL     1      -7.107   1.365   0.487  1.00  0.00    -0.269 OA
BRANCH  28  31
ATOM     31  C   UNL     1      -6.623   3.652   0.649  1.00  0.00     0.039 A 
ATOM     32  C   UNL     1      -7.255   3.878   1.874  1.00  0.00     0.014 A 
ATOM     33  C   UNL     1      -6.325   4.723  -0.196  1.00  0.00     0.014 A 
ATOM     34  C   UNL     1      -7.532   5.184   2.278  1.00  0.00     0.010 A 
ATOM     35  C   UNL     1      -6.525   6.027   0.243  1.00  0.00     0.010 A 
ATOM     36  C   UNL     1      -7.137   6.271   1.482  1.00  0.00    -0.014 A 
BRANCH  36  37
ATOM     37  C   UNL     1      -7.355   7.669   1.927  1.00  0.00     0.031 A 
ATOM     38  C   UNL     1      -8.255   8.581   1.142  1.00  0.00     0.074 A 
ATOM     39  C   UNL     1      -6.691   8.134   3.002  1.00  0.00     0.049 A 
ATOM     40  N   UNL     1      -8.523   9.848   1.335  1.00  0.00    -0.248 NA
ATOM     41  C   UNL     1      -8.921   7.999  -0.033  1.00  0.00     0.031 C 
ATOM     42  C   UNL     1      -5.758   7.358   3.819  1.00  0.00     0.029 A 
ATOM     43  N   UNL     1      -6.694   9.375   3.587  1.00  0.00    -0.354 N 
ATOM     44  C   UNL     1      -9.376  10.215   0.302  1.00  0.00     0.074 A 
ATOM     45  C   UNL     1      -9.528   9.056  -0.550  1.00  0.00     0.031 C 
ATOM     46  C   UNL     1      -5.303   8.130   4.818  1.00  0.00     0.029 A 
ATOM     47  C   UNL     1      -5.875   9.466   4.686  1.00  0.00     0.049 A 
ATOM     48  H   UNL     1      -7.232  10.129   3.252  1.00  0.00     0.167 HD
ATOM     49  C   UNL     1      -9.995  11.402   0.097  1.00  0.00     0.037 A 
ATOM     50  C   UNL     1      -5.611  10.512   5.491  1.00  0.00     0.037 A 
ATOM     51  C   UNL     1      -9.846  12.548   0.956  1.00  0.00     0.049 A 
ATOM     52  C   UNL     1      -6.287  11.829   5.226  1.00  0.00     0.074 A 
ATOM     53  C   UNL     1     -10.468  13.781   0.868  1.00  0.00     0.029 A 
ATOM     54  N   UNL     1      -9.004  12.604   2.059  1.00  0.00    -0.354 N 
ATOM     55  N   UNL     1      -7.145  12.147   4.288  1.00  0.00    -0.248 NA
ATOM     56  C   UNL     1      -5.959  12.934   6.138  1.00  0.00     0.031 C 
ATOM     57  C   UNL     1      -9.960  14.601   1.881  1.00  0.00     0.029 A 
ATOM     58  C   UNL     1      -9.069  13.861   2.642  1.00  0.00     0.049 A 
ATOM     59  H   UNL     1      -8.444  11.861   2.380  1.00  0.00     0.167 HD
ATOM     60  C   UNL     1      -7.485  13.474   4.513  1.00  0.00     0.074 A 
ATOM     61  C   UNL     1      -6.748  13.898   5.686  1.00  0.00     0.031 C 
ATOM     62  C   UNL     1      -8.332  14.268   3.812  1.00  0.00     0.037 A 
BRANCH  49  63
ATOM     63  C   UNL     1     -10.883  11.518  -1.110  1.00  0.00     0.064 A 
ATOM     64  C   UNL     1     -12.082  10.794  -1.218  1.00  0.00     0.173 A 
ATOM     65  C   UNL     1     -10.539  12.371  -2.170  1.00  0.00     0.173 A 
ATOM     66  F   UNL     1     -12.455   9.956  -0.239  1.00  0.00    -0.203 F 
ATOM     67  C   UNL     1     -12.875  10.884  -2.359  1.00  0.00     0.198 A 
ATOM     68  C   UNL     1     -11.354  12.487  -3.293  1.00  0.00     0.198 A 
ATOM     69  F   UNL     1      -9.410  13.094  -2.118  1.00  0.00    -0.203 F 
ATOM     70  F   UNL     1     -13.978  10.130  -2.466  1.00  0.00    -0.200 F 
ATOM     71  C   UNL     1     -12.514  11.735  -3.392  1.00  0.00     0.200 A 
ATOM     72  F   UNL     1     -11.012  13.322  -4.284  1.00  0.00    -0.200 F 
ATOM     73  F   UNL     1     -13.280  11.821  -4.489  1.00  0.00    -0.200 F 
ENDBRANCH  49  63
BRANCH  50  74
ATOM     74  C   UNL     1      -4.689  10.342   6.644  1.00  0.00     0.064 A 
ATOM     75  C   UNL     1      -5.172  10.375   7.960  1.00  0.00     0.173 A 
ATOM     76  C   UNL     1      -3.315  10.129   6.459  1.00  0.00     0.173 A 
ATOM     77  F   UNL     1      -6.476  10.594   8.188  1.00  0.00    -0.203 F 
ATOM     78  C   UNL     1      -4.315  10.220   9.046  1.00  0.00     0.198 A 
ATOM     79  C   UNL     1      -2.463   9.944   7.546  1.00  0.00     0.198 A 
ATOM     80  F   UNL     1      -2.803  10.081   5.221  1.00  0.00    -0.203 F 
ATOM     81  F   UNL     1      -4.797  10.297  10.294  1.00  0.00    -0.200 F 
ATOM     82  C   UNL     1      -2.962   9.997   8.839  1.00  0.00     0.200 A 
ATOM     83  F   UNL     1      -1.159   9.711   7.340  1.00  0.00    -0.200 F 
ATOM     84  F   UNL     1      -2.139   9.837   9.884  1.00  0.00    -0.200 F 
ENDBRANCH  50  74
BRANCH  62  85
ATOM     85  C   UNL     1      -8.540  15.668   4.318  1.00  0.00     0.064 A 
ATOM     86  C   UNL     1      -7.536  16.643   4.231  1.00  0.00     0.173 A 
ATOM     87  C   UNL     1      -9.778  16.047   4.862  1.00  0.00     0.173 A 
ATOM     88  F   UNL     1      -6.330  16.329   3.734  1.00  0.00    -0.203 F 
ATOM     89  C   UNL     1      -7.754  17.938   4.697  1.00  0.00     0.198 A 
ATOM     90  C   UNL     1     -10.003  17.350   5.294  1.00  0.00     0.198 A 
ATOM     91  F   UNL     1     -10.774  15.154   4.962  1.00  0.00    -0.203 F 
ATOM     92  F   UNL     1      -6.763  18.839   4.653  1.00  0.00    -0.200 F 
ATOM     93  C   UNL     1      -8.989  18.292   5.220  1.00  0.00     0.200 A 
ATOM     94  F   UNL     1     -11.202  17.694   5.784  1.00  0.00    -0.200 F 
ATOM     95  F   UNL     1      -9.199  19.541   5.659  1.00  0.00    -0.200 F 
ENDBRANCH  62  85
ENDBRANCH  36  37
ENDBRANCH  28  31
ENDBRANCH  26  27
ENDBRANCH   1  26
TORSDOF 12
