REMARK SMILES CC(C)(C)OC(=O)N1CCN(c2ccc([N+](=O)[O-])c(Br)c2)C[C@H]1C(=O)NCCCNC(=O)c1ccc(-c2c3nc(c(-c4c(F)c(F)c(F)c(F)c4F)c4ccc([nH]4)c(-c4c(F)c(F)c(F)c(F)c4F)c4nc(c(-c5c(F)c(F)c(F)c(F)c5F)c5ccc2[nH]5)C=C4)C=C3)cc1
REMARK SMILES IDX 27 1 26 2 24 3 25 4 23 6 8 7 9 8 10 9 22 10 11 11 6 12 7 13
REMARK SMILES IDX 5 14 2 15 1 16 3 17 4 18 12 19 13 20 21 21 14 22 19 23 15 24
REMARK SMILES IDX 20 25 16 26 17 27 18 28 28 29 29 30 30 31 31 32 32 34 33 35
REMARK SMILES IDX 34 36 95 37 35 38 94 39 36 40 37 41 38 42 88 43 39 44 93 45
REMARK SMILES IDX 87 46 89 47 40 48 92 49 86 50 85 51 41 53 73 54 53 55 72 56
REMARK SMILES IDX 54 57 57 58 71 59 90 60 55 61 56 62 70 64 91 65 58 66 42 67
REMARK SMILES IDX 43 68 51 69 44 70 45 71 49 72 52 73 46 74 47 75 50 76 48 77
REMARK SMILES IDX 74 78 75 79 83 80 76 81 77 82 81 83 84 84 78 85 79 86 82 87
REMARK SMILES IDX 80 88 59 89 60 90 68 91 61 92 62 93 66 94 69 95 63 96 64 97
REMARK SMILES IDX 67 98 65 99
REMARK H PARENT 26 5 30 33 89 52 57 63
REMARK Flexibility Score: inf
ROOT
ATOM      1  C   UNL     1       2.067  -0.819   3.420  1.00  0.00     0.117 C 
ENDROOT
BRANCH   1   2
ATOM      2  N   UNL     1       3.057   0.143   2.967  1.00  0.00    -0.354 N 
ATOM      3  C   UNL     1       3.227   1.467   3.230  1.00  0.00     0.244 C 
ATOM      4  O   UNL     1       4.231   1.998   2.741  1.00  0.00    -0.273 OA
ATOM      5  H   UNL     1       3.732  -0.233   2.356  1.00  0.00     0.163 HD
BRANCH   3   6
ATOM      6  C   UNL     1       2.353   2.247   4.225  1.00  0.00     0.197 C 
ATOM      7  N   UNL     1       0.892   2.290   3.990  1.00  0.00    -0.293 N 
ATOM      8  C   UNL     1       0.097   2.729   5.137  1.00  0.00     0.145 C 
ATOM      9  C   UNL     1       0.429   1.989   6.427  1.00  0.00     0.138 C 
ATOM     10  C   UNL     1       2.774   1.733   5.641  1.00  0.00     0.152 C 
ATOM     11  N   UNL     1       1.856   2.147   6.724  1.00  0.00    -0.367 N 
BRANCH   7  12
ATOM     12  C   UNL     1       0.414   2.786   2.777  1.00  0.00     0.411 C 
ATOM     13  O   UNL     1      -0.446   3.662   2.716  1.00  0.00    -0.224 OA
BRANCH  12  14
ATOM     14  O   UNL     1       0.899   2.121   1.699  1.00  0.00    -0.444 OA
BRANCH  14  15
ATOM     15  C   UNL     1       0.322   2.379   0.384  1.00  0.00     0.106 C 
ATOM     16  C   UNL     1       0.839   1.261  -0.531  1.00  0.00     0.056 C 
ATOM     17  C   UNL     1       0.823   3.718  -0.158  1.00  0.00     0.056 C 
ATOM     18  C   UNL     1      -1.215   2.288   0.379  1.00  0.00     0.056 C 
ENDBRANCH  14  15
ENDBRANCH  12  14
ENDBRANCH   7  12
BRANCH  11  19
ATOM     19  C   UNL     1       2.298   2.011   8.035  1.00  0.00     0.038 A 
ATOM     20  C   UNL     1       3.435   2.702   8.467  1.00  0.00     0.033 A 
ATOM     21  C   UNL     1       1.623   1.229   8.985  1.00  0.00     0.048 A 
ATOM     22  C   UNL     1       3.872   2.630   9.794  1.00  0.00     0.089 A 
ATOM     23  C   UNL     1       2.042   1.139  10.327  1.00  0.00     0.097 A 
ATOM     24  C   UNL     1       3.176   1.849  10.733  1.00  0.00     0.283 A 
ATOM     25  Br  UNL     1       0.934   0.063  11.439  1.00  0.00    -0.043 Br
BRANCH  24  26
ATOM     26  N   UNL     1       3.689   1.845  12.109  1.00  0.00     0.063 N 
ATOM     27  O   UNL     1       4.414   2.795  12.443  1.00  0.00    -0.258 OA
ATOM     28  O   UNL     1       3.416   0.896  12.851  1.00  0.00    -0.258 OA
ENDBRANCH  24  26
ENDBRANCH  11  19
ENDBRANCH   3   6
ENDBRANCH   1   2
BRANCH   1  29
ATOM     29  C   UNL     1       1.127  -1.282   2.309  1.00  0.00     0.042 C 
BRANCH  29  30
ATOM     30  C   UNL     1       1.827  -1.778   1.044  1.00  0.00     0.118 C 
BRANCH  30  31
ATOM     31  N   UNL     1       1.957  -3.219   0.965  1.00  0.00    -0.352 N 
ATOM     32  C   UNL     1       1.333  -4.122   0.136  1.00  0.00     0.251 C 
ATOM     33  H   UNL     1       2.592  -3.614   1.605  1.00  0.00     0.163 HD
ATOM     34  O   UNL     1       1.531  -5.322   0.311  1.00  0.00    -0.269 OA
BRANCH  32  35
ATOM     35  C   UNL     1       0.394  -3.696  -0.938  1.00  0.00     0.039 A 
ATOM     36  C   UNL     1      -0.769  -4.453  -1.121  1.00  0.00     0.014 A 
ATOM     37  C   UNL     1       0.652  -2.631  -1.806  1.00  0.00     0.014 A 
ATOM     38  C   UNL     1      -1.682  -4.118  -2.127  1.00  0.00     0.010 A 
ATOM     39  C   UNL     1      -0.300  -2.247  -2.760  1.00  0.00     0.010 A 
ATOM     40  C   UNL     1      -1.473  -2.995  -2.943  1.00  0.00    -0.014 A 
BRANCH  40  41
ATOM     41  C   UNL     1      -2.463  -2.632  -3.997  1.00  0.00     0.031 A 
ATOM     42  C   UNL     1      -2.095  -2.693  -5.457  1.00  0.00     0.074 A 
ATOM     43  C   UNL     1      -3.707  -2.244  -3.650  1.00  0.00     0.049 A 
ATOM     44  N   UNL     1      -2.834  -2.437  -6.510  1.00  0.00    -0.248 NA
ATOM     45  C   UNL     1      -0.712  -3.074  -5.779  1.00  0.00     0.031 C 
ATOM     46  C   UNL     1      -4.195  -2.101  -2.278  1.00  0.00     0.029 A 
ATOM     47  N   UNL     1      -4.791  -1.904  -4.424  1.00  0.00    -0.354 N 
ATOM     48  C   UNL     1      -2.007  -2.619  -7.611  1.00  0.00     0.074 A 
ATOM     49  C   UNL     1      -0.696  -2.957  -7.099  1.00  0.00     0.031 C 
ATOM     50  C   UNL     1      -5.487  -1.736  -2.306  1.00  0.00     0.029 A 
ATOM     51  C   UNL     1      -5.913  -1.588  -3.696  1.00  0.00     0.049 A 
ATOM     52  H   UNL     1      -4.766  -1.889  -5.408  1.00  0.00     0.167 HD
ATOM     53  C   UNL     1      -2.313  -2.540  -8.928  1.00  0.00     0.037 A 
ATOM     54  C   UNL     1      -7.146  -1.222  -4.098  1.00  0.00     0.037 A 
ATOM     55  C   UNL     1      -3.620  -2.238  -9.451  1.00  0.00     0.049 A 
ATOM     56  C   UNL     1      -7.458  -1.133  -5.567  1.00  0.00     0.074 A 
ATOM     57  C   UNL     1      -4.033  -2.202 -10.772  1.00  0.00     0.029 A 
ATOM     58  N   UNL     1      -4.726  -1.918  -8.679  1.00  0.00    -0.354 N 
ATOM     59  N   UNL     1      -6.683  -1.380  -6.595  1.00  0.00    -0.248 NA
ATOM     60  C   UNL     1      -8.822  -0.720  -5.932  1.00  0.00     0.031 C 
ATOM     61  C   UNL     1      -5.378  -1.819 -10.803  1.00  0.00     0.029 A 
ATOM     62  C   UNL     1      -5.815  -1.660  -9.498  1.00  0.00     0.049 A 
ATOM     63  H   UNL     1      -4.737  -1.880  -7.696  1.00  0.00     0.167 HD
ATOM     64  C   UNL     1      -7.469  -1.179  -7.722  1.00  0.00     0.074 A 
ATOM     65  C   UNL     1      -8.786  -0.803  -7.255  1.00  0.00     0.031 C 
ATOM     66  C   UNL     1      -7.125  -1.295  -9.028  1.00  0.00     0.037 A 
BRANCH  53  67
ATOM     67  C   UNL     1      -1.211  -2.797  -9.915  1.00  0.00     0.064 A 
ATOM     68  C   UNL     1      -0.702  -4.087 -10.126  1.00  0.00     0.173 A 
ATOM     69  C   UNL     1      -0.698  -1.752 -10.698  1.00  0.00     0.173 A 
ATOM     70  F   UNL     1      -1.154  -5.118  -9.396  1.00  0.00    -0.203 F 
ATOM     71  C   UNL     1       0.296  -4.317 -11.069  1.00  0.00     0.198 A 
ATOM     72  C   UNL     1       0.281  -1.991 -11.659  1.00  0.00     0.198 A 
ATOM     73  F   UNL     1      -1.157  -0.501 -10.541  1.00  0.00    -0.203 F 
ATOM     74  F   UNL     1       0.794  -5.551 -11.226  1.00  0.00    -0.200 F 
ATOM     75  C   UNL     1       0.781  -3.271 -11.839  1.00  0.00     0.200 A 
ATOM     76  F   UNL     1       0.739  -0.981 -12.412  1.00  0.00    -0.200 F 
ATOM     77  F   UNL     1       1.734  -3.497 -12.754  1.00  0.00    -0.200 F 
ENDBRANCH  53  67
BRANCH  54  78
ATOM     78  C   UNL     1      -8.197  -0.930  -3.089  1.00  0.00     0.064 A 
ATOM     79  C   UNL     1      -9.291  -1.790  -2.919  1.00  0.00     0.173 A 
ATOM     80  C   UNL     1      -8.140   0.221  -2.290  1.00  0.00     0.173 A 
ATOM     81  F   UNL     1      -9.402  -2.890  -3.678  1.00  0.00    -0.203 F 
ATOM     82  C   UNL     1     -10.298  -1.501  -2.000  1.00  0.00     0.198 A 
ATOM     83  C   UNL     1      -9.133   0.495  -1.352  1.00  0.00     0.198 A 
ATOM     84  F   UNL     1      -7.113   1.074  -2.415  1.00  0.00    -0.203 F 
ATOM     85  F   UNL     1     -11.355  -2.316  -1.889  1.00  0.00    -0.200 F 
ATOM     86  C   UNL     1     -10.215  -0.361  -1.214  1.00  0.00     0.200 A 
ATOM     87  F   UNL     1      -9.044   1.591  -0.587  1.00  0.00    -0.200 F 
ATOM     88  F   UNL     1     -11.182  -0.084  -0.329  1.00  0.00    -0.200 F 
ENDBRANCH  54  78
BRANCH  66  89
ATOM     89  C   UNL     1      -8.195  -1.042 -10.050  1.00  0.00     0.064 A 
ATOM     90  C   UNL     1      -8.663   0.252 -10.319  1.00  0.00     0.173 A 
ATOM     91  C   UNL     1      -8.727  -2.103 -10.800  1.00  0.00     0.173 A 
ATOM     92  F   UNL     1      -8.197   1.297  -9.619  1.00  0.00    -0.203 F 
ATOM     93  C   UNL     1      -9.640   0.473 -11.286  1.00  0.00     0.198 A 
ATOM     94  C   UNL     1      -9.685  -1.875 -11.784  1.00  0.00     0.198 A 
ATOM     95  F   UNL     1      -8.309  -3.359 -10.586  1.00  0.00    -0.203 F 
ATOM     96  F   UNL     1     -10.103   1.713 -11.497  1.00  0.00    -0.200 F 
ATOM     97  C   UNL     1     -10.145  -0.588 -12.023  1.00  0.00     0.200 A 
ATOM     98  F   UNL     1     -10.163  -2.900 -12.503  1.00  0.00    -0.200 F 
ATOM     99  F   UNL     1     -11.081  -0.372 -12.957  1.00  0.00    -0.200 F 
ENDBRANCH  66  89
ENDBRANCH  40  41
ENDBRANCH  32  35
ENDBRANCH  30  31
ENDBRANCH  29  30
ENDBRANCH   1  29
TORSDOF 15
