REMARK SMILES O=C(NCCCNC(=O)C1(CCc2ccccn2)CCCCC1)c1ccc(-c2c3nc(c(-c4c(F)c(F)c(F)c(F)c4F)c4ccc([nH]4)c(-c4c(F)c(F)c(F)c(F)c4F)c4nc(c(-c5c(F)c(F)c(F)c(F)c5F)c5ccc2[nH]5)C=C4)C=C3)cc1
REMARK SMILES IDX 5 1 4 2 3 3 1 4 2 5 24 7 25 8 86 9 26 10 85 11 27 12 28 13
REMARK SMILES IDX 29 14 79 15 30 16 84 17 78 18 80 19 31 20 83 21 77 22 76 23
REMARK SMILES IDX 32 25 64 26 44 27 63 28 45 29 48 30 62 31 81 32 46 33 47 34
REMARK SMILES IDX 61 36 82 37 49 38 33 39 34 40 42 41 35 42 36 43 40 44 43 45
REMARK SMILES IDX 37 46 38 47 41 48 39 49 65 50 66 51 74 52 67 53 68 54 72 55
REMARK SMILES IDX 75 56 69 57 70 58 73 59 71 60 50 61 51 62 59 63 52 64 53 65
REMARK SMILES IDX 57 66 60 67 54 68 55 69 58 70 56 71 6 72 7 73 8 74 9 76
REMARK SMILES IDX 10 77 19 78 23 79 20 80 22 81 21 82 11 83 12 84 13 85 14 86
REMARK SMILES IDX 18 87 15 88 17 89 16 90
REMARK H PARENT 3 6 80 24 48 35 7 75
REMARK Flexibility Score: inf
ROOT
ATOM      1  C   UNL     1       4.944   0.492  -2.134  1.00  0.00     0.042 C 
ENDROOT
BRANCH   1   2
ATOM      2  C   UNL     1       4.621   0.964  -0.725  1.00  0.00     0.118 C 
BRANCH   2   3
ATOM      3  N   UNL     1       3.187   0.919  -0.443  1.00  0.00    -0.352 N 
ATOM      4  O   UNL     1       1.236  -0.010   0.212  1.00  0.00    -0.269 OA
ATOM      5  C   UNL     1       2.455   0.004   0.281  1.00  0.00     0.251 C 
ATOM      6  H   UNL     1       2.663   1.657  -0.831  1.00  0.00     0.163 HD
BRANCH   5   7
ATOM      7  C   UNL     1       3.170  -0.969   1.132  1.00  0.00     0.039 A 
ATOM      8  C   UNL     1       4.274  -0.549   1.867  1.00  0.00     0.014 A 
ATOM      9  C   UNL     1       2.758  -2.303   1.184  1.00  0.00     0.014 A 
ATOM     10  C   UNL     1       5.099  -1.489   2.455  1.00  0.00     0.010 A 
ATOM     11  C   UNL     1       3.507  -3.230   1.919  1.00  0.00     0.010 A 
ATOM     12  C   UNL     1       4.707  -2.836   2.528  1.00  0.00    -0.014 A 
BRANCH  12  13
ATOM     13  C   UNL     1       5.559  -3.753   3.327  1.00  0.00     0.031 A 
ATOM     14  C   UNL     1       6.246  -4.936   2.709  1.00  0.00     0.074 A 
ATOM     15  C   UNL     1       5.790  -3.423   4.614  1.00  0.00     0.049 A 
ATOM     16  N   UNL     1       7.094  -5.769   3.259  1.00  0.00    -0.248 NA
ATOM     17  C   UNL     1       5.939  -5.238   1.303  1.00  0.00     0.031 C 
ATOM     18  C   UNL     1       5.155  -2.303   5.318  1.00  0.00     0.029 A 
ATOM     19  N   UNL     1       6.656  -3.942   5.540  1.00  0.00    -0.354 N 
ATOM     20  C   UNL     1       7.402  -6.703   2.279  1.00  0.00     0.074 A 
ATOM     21  C   UNL     1       6.637  -6.349   1.103  1.00  0.00     0.031 C 
ATOM     22  C   UNL     1       5.727  -2.153   6.519  1.00  0.00     0.029 A 
ATOM     23  C   UNL     1       6.697  -3.223   6.710  1.00  0.00     0.049 A 
ATOM     24  H   UNL     1       7.196  -4.750   5.382  1.00  0.00     0.167 HD
ATOM     25  C   UNL     1       8.251  -7.757   2.361  1.00  0.00     0.037 A 
ATOM     26  C   UNL     1       7.425  -3.408   7.825  1.00  0.00     0.037 A 
ATOM     27  C   UNL     1       9.023  -8.085   3.534  1.00  0.00     0.049 A 
ATOM     28  C   UNL     1       8.374  -4.567   7.872  1.00  0.00     0.074 A 
ATOM     29  C   UNL     1       9.904  -9.136   3.724  1.00  0.00     0.029 A 
ATOM     30  N   UNL     1       9.012  -7.357   4.716  1.00  0.00    -0.354 N 
ATOM     31  N   UNL     1       8.641  -5.451   6.942  1.00  0.00    -0.248 NA
ATOM     32  C   UNL     1       9.112  -4.764   9.125  1.00  0.00     0.031 C 
ATOM     33  C   UNL     1      10.402  -9.061   5.029  1.00  0.00     0.029 A 
ATOM     34  C   UNL     1       9.865  -7.940   5.640  1.00  0.00     0.049 A 
ATOM     35  H   UNL     1       8.477  -6.546   4.874  1.00  0.00     0.167 HD
ATOM     36  C   UNL     1       9.567  -6.318   7.498  1.00  0.00     0.074 A 
ATOM     37  C   UNL     1       9.852  -5.823   8.831  1.00  0.00     0.031 C 
ATOM     38  C   UNL     1      10.117  -7.435   6.965  1.00  0.00     0.037 A 
BRANCH  25  39
ATOM     39  C   UNL     1       8.383  -8.646   1.158  1.00  0.00     0.064 A 
ATOM     40  C   UNL     1       9.075  -8.234   0.010  1.00  0.00     0.173 A 
ATOM     41  C   UNL     1       7.862  -9.949   1.177  1.00  0.00     0.173 A 
ATOM     42  F   UNL     1       9.579  -6.993  -0.066  1.00  0.00    -0.203 F 
ATOM     43  C   UNL     1       9.229  -9.089  -1.080  1.00  0.00     0.198 A 
ATOM     44  C   UNL     1       8.040 -10.810   0.096  1.00  0.00     0.198 A 
ATOM     45  F   UNL     1       7.195 -10.395   2.252  1.00  0.00    -0.203 F 
ATOM     46  F   UNL     1       9.867  -8.663  -2.179  1.00  0.00    -0.200 F 
ATOM     47  C   UNL     1       8.720 -10.378  -1.032  1.00  0.00     0.200 A 
ATOM     48  F   UNL     1       7.556 -12.059   0.149  1.00  0.00    -0.200 F 
ATOM     49  F   UNL     1       8.881 -11.203  -2.076  1.00  0.00    -0.200 F 
ENDBRANCH  25  39
BRANCH  26  50
ATOM     50  C   UNL     1       7.254  -2.490   8.981  1.00  0.00     0.064 A 
ATOM     51  C   UNL     1       8.284  -1.633   9.389  1.00  0.00     0.173 A 
ATOM     52  C   UNL     1       6.043  -2.436   9.687  1.00  0.00     0.173 A 
ATOM     53  F   UNL     1       9.467  -1.658   8.757  1.00  0.00    -0.203 F 
ATOM     54  C   UNL     1       8.113  -0.767  10.467  1.00  0.00     0.198 A 
ATOM     55  C   UNL     1       5.860  -1.545  10.741  1.00  0.00     0.198 A 
ATOM     56  F   UNL     1       5.022  -3.231   9.332  1.00  0.00    -0.203 F 
ATOM     57  F   UNL     1       9.127   0.014  10.864  1.00  0.00    -0.200 F 
ATOM     58  C   UNL     1       6.899  -0.717  11.136  1.00  0.00     0.200 A 
ATOM     59  F   UNL     1       4.677  -1.485  11.367  1.00  0.00    -0.200 F 
ATOM     60  F   UNL     1       6.731   0.126  12.163  1.00  0.00    -0.200 F 
ENDBRANCH  26  50
BRANCH  38  61
ATOM     61  C   UNL     1      11.074  -8.188   7.839  1.00  0.00     0.064 A 
ATOM     62  C   UNL     1      10.624  -8.929   8.942  1.00  0.00     0.173 A 
ATOM     63  C   UNL     1      12.451  -8.163   7.576  1.00  0.00     0.173 A 
ATOM     64  F   UNL     1       9.317  -8.966   9.242  1.00  0.00    -0.203 F 
ATOM     65  C   UNL     1      11.524  -9.589   9.773  1.00  0.00     0.198 A 
ATOM     66  C   UNL     1      13.345  -8.847   8.394  1.00  0.00     0.198 A 
ATOM     67  F   UNL     1      12.928  -7.471   6.531  1.00  0.00    -0.203 F 
ATOM     68  F   UNL     1      11.078 -10.240  10.856  1.00  0.00    -0.200 F 
ATOM     69  C   UNL     1      12.883  -9.550   9.497  1.00  0.00     0.200 A 
ATOM     70  F   UNL     1      14.657  -8.816   8.123  1.00  0.00    -0.200 F 
ATOM     71  F   UNL     1      13.748 -10.179  10.303  1.00  0.00    -0.200 F 
ENDBRANCH  38  61
ENDBRANCH  12  13
ENDBRANCH   5   7
ENDBRANCH   2   3
ENDBRANCH   1   2
BRANCH   1  72
ATOM     72  C   UNL     1       4.490   1.507  -3.164  1.00  0.00     0.117 C 
BRANCH  72  73
ATOM     73  N   UNL     1       5.321   2.694  -3.105  1.00  0.00    -0.356 N 
ATOM     74  C   UNL     1       6.178   3.318  -3.943  1.00  0.00     0.226 C 
ATOM     75  H   UNL     1       5.241   3.160  -2.242  1.00  0.00     0.163 HD
ATOM     76  O   UNL     1       6.828   4.230  -3.414  1.00  0.00    -0.274 OA
BRANCH  74  77
ATOM     77  C   UNL     1       6.313   3.017  -5.456  1.00  0.00     0.050 C 
ATOM     78  C   UNL     1       7.784   3.450  -5.796  1.00  0.00     0.017 C 
ATOM     79  C   UNL     1       6.143   1.525  -5.829  1.00  0.00     0.017 C 
ATOM     80  C   UNL     1       8.314   2.996  -7.149  1.00  0.00     0.001 C 
ATOM     81  C   UNL     1       6.746   1.077  -7.159  1.00  0.00     0.001 C 
ATOM     82  C   UNL     1       8.197   1.490  -7.294  1.00  0.00     0.000 C 
BRANCH  77  83
ATOM     83  C   UNL     1       5.325   3.937  -6.250  1.00  0.00     0.023 C 
BRANCH  83  84
ATOM     84  C   UNL     1       3.811   3.847  -5.940  1.00  0.00     0.057 C 
BRANCH  84  85
ATOM     85  C   UNL     1       3.348   4.519  -4.666  1.00  0.00     0.040 A 
ATOM     86  C   UNL     1       2.316   3.966  -3.908  1.00  0.00     0.024 A 
ATOM     87  N   UNL     1       3.977   5.655  -4.288  1.00  0.00    -0.261 NA
ATOM     88  C   UNL     1       2.009   4.525  -2.668  1.00  0.00     0.003 A 
ATOM     89  C   UNL     1       3.652   6.187  -3.089  1.00  0.00     0.111 A 
ATOM     90  C   UNL     1       2.700   5.651  -2.241  1.00  0.00     0.020 A 
ENDBRANCH  84  85
ENDBRANCH  83  84
ENDBRANCH  77  83
ENDBRANCH  74  77
ENDBRANCH  72  73
ENDBRANCH   1  72
TORSDOF 13
