REMARK SMILES C/C(C(=O)NCCCNC(=O)c1ccc(-c2c3nc(c(-c4c(F)c(F)c(F)c(F)c4F)c4ccc([nH]4)c(-c4c(F)c(F)c(F)c(F)c4F)c4nc(c(-c5c(F)c(F)c(F)c(F)c5F)c5ccc2[nH]5)C=C4)C=C3)cc1)=C(\C)C(=O)NCc1cscc1C
REMARK SMILES IDX 6 1 5 2 3 3 4 4 2 6 1 7 75 8 76 9 77 10 78 11 79 12 80 14
REMARK SMILES IDX 81 15 82 16 85 17 83 18 84 19 86 20 7 21 8 22 9 23 10 24
REMARK SMILES IDX 11 26 12 27 13 28 74 29 14 30 73 31 15 32 16 33 17 34 67 35
REMARK SMILES IDX 18 36 72 37 66 38 68 39 19 40 71 41 65 42 64 43 20 45 52 46
REMARK SMILES IDX 32 47 51 48 33 49 36 50 50 51 69 52 34 53 35 54 49 56 70 57
REMARK SMILES IDX 37 58 21 59 22 60 30 61 23 62 24 63 28 64 31 65 25 66 26 67
REMARK SMILES IDX 29 68 27 69 53 70 54 71 62 72 55 73 56 74 60 75 63 76 57 77
REMARK SMILES IDX 58 78 61 79 59 80 38 81 39 82 47 83 40 84 41 85 45 86 48 87
REMARK SMILES IDX 42 88 43 89 46 90 44 91
REMARK H PARENT 5 5 79 13 9 25 68 44 36 55
REMARK Flexibility Score: inf
ROOT
ATOM      1  C   UNL     1       0.154   0.353   2.536  1.00  0.00     0.118 C 
ENDROOT
BRANCH   1   2
ATOM      2  N   UNL     1      -0.482  -0.870   2.071  1.00  0.00    -0.352 N 
ATOM      3  C   UNL     1      -0.484  -1.512   0.867  1.00  0.00     0.247 C 
ATOM      4  O   UNL     1      -1.385  -2.321   0.645  1.00  0.00    -0.270 OA
ATOM      5  H   UNL     1      -1.015  -1.325   2.762  1.00  0.00     0.163 HD
BRANCH   3   6
ATOM      6  C   UNL     1       0.528  -1.193  -0.188  1.00  0.00     0.022 C 
ATOM      7  C   UNL     1       0.685   0.251  -0.571  1.00  0.00     0.051 C 
ATOM      8  C   UNL     1       1.162  -2.182  -0.878  1.00  0.00     0.022 C 
ATOM      9  C   UNL     1       2.158  -1.839  -1.945  1.00  0.00     0.051 C 
BRANCH   8  10
ATOM     10  C   UNL     1       1.010  -3.626  -0.490  1.00  0.00     0.247 C 
ATOM     11  O   UNL     1       0.878  -3.940   0.694  1.00  0.00    -0.270 OA
ATOM     12  N   UNL     1       1.079  -4.649  -1.382  1.00  0.00    -0.348 N 
ATOM     13  H   UNL     1       0.777  -5.500  -0.992  1.00  0.00     0.164 HD
BRANCH  12  14
ATOM     14  C   UNL     1       1.485  -4.799  -2.768  1.00  0.00     0.153 C 
BRANCH  14  15
ATOM     15  C   UNL     1       2.770  -5.594  -2.761  1.00  0.00    -0.015 A 
ATOM     16  C   UNL     1       4.033  -5.027  -2.802  1.00  0.00     0.070 A 
ATOM     17  C   UNL     1       2.870  -7.041  -2.685  1.00  0.00    -0.035 A 
ATOM     18  S   UNL     1       5.297  -6.162  -2.664  1.00  0.00    -0.152 S 
ATOM     19  C   UNL     1       4.189  -7.452  -2.600  1.00  0.00     0.068 A 
ATOM     20  C   UNL     1       1.730  -8.008  -2.676  1.00  0.00     0.045 C 
ENDBRANCH  14  15
ENDBRANCH  12  14
ENDBRANCH   8  10
ENDBRANCH   3   6
ENDBRANCH   1   2
BRANCH   1  21
ATOM     21  C   UNL     1      -0.803   1.544   2.397  1.00  0.00     0.042 C 
BRANCH  21  22
ATOM     22  C   UNL     1      -1.954   1.533   3.404  1.00  0.00     0.118 C 
BRANCH  22  23
ATOM     23  N   UNL     1      -1.521   1.933   4.733  1.00  0.00    -0.352 N 
ATOM     24  C   UNL     1      -1.918   2.992   5.512  1.00  0.00     0.251 C 
ATOM     25  H   UNL     1      -0.836   1.353   5.138  1.00  0.00     0.163 HD
ATOM     26  O   UNL     1      -1.266   3.284   6.510  1.00  0.00    -0.269 OA
BRANCH  24  27
ATOM     27  C   UNL     1      -3.114   3.795   5.164  1.00  0.00     0.039 A 
ATOM     28  C   UNL     1      -3.069   5.180   5.358  1.00  0.00     0.014 A 
ATOM     29  C   UNL     1      -4.295   3.197   4.716  1.00  0.00     0.014 A 
ATOM     30  C   UNL     1      -4.185   5.967   5.059  1.00  0.00     0.010 A 
ATOM     31  C   UNL     1      -5.387   3.989   4.357  1.00  0.00     0.010 A 
ATOM     32  C   UNL     1      -5.345   5.380   4.531  1.00  0.00    -0.014 A 
BRANCH  32  33
ATOM     33  C   UNL     1      -6.519   6.208   4.151  1.00  0.00     0.031 A 
ATOM     34  C   UNL     1      -7.826   6.060   4.880  1.00  0.00     0.074 A 
ATOM     35  C   UNL     1      -6.429   7.044   3.099  1.00  0.00     0.049 A 
ATOM     36  N   UNL     1      -8.977   6.640   4.646  1.00  0.00    -0.248 NA
ATOM     37  C   UNL     1      -7.849   5.113   6.004  1.00  0.00     0.031 C 
ATOM     38  C   UNL     1      -5.234   7.239   2.278  1.00  0.00     0.029 A 
ATOM     39  N   UNL     1      -7.364   7.872   2.528  1.00  0.00    -0.354 N 
ATOM     40  C   UNL     1      -9.863   6.113   5.576  1.00  0.00     0.074 A 
ATOM     41  C   UNL     1      -9.127   5.135   6.351  1.00  0.00     0.031 C 
ATOM     42  C   UNL     1      -5.503   8.136   1.317  1.00  0.00     0.029 A 
ATOM     43  C   UNL     1      -6.897   8.554   1.432  1.00  0.00     0.049 A 
ATOM     44  H   UNL     1      -8.281   7.968   2.873  1.00  0.00     0.167 HD
ATOM     45  C   UNL     1     -11.165   6.428   5.777  1.00  0.00     0.037 A 
ATOM     46  C   UNL     1      -7.524   9.412   0.605  1.00  0.00     0.037 A 
ATOM     47  C   UNL     1     -11.885   7.422   5.023  1.00  0.00     0.049 A 
ATOM     48  C   UNL     1      -8.964   9.759   0.857  1.00  0.00     0.074 A 
ATOM     49  C   UNL     1     -13.180   7.874   5.206  1.00  0.00     0.029 A 
ATOM     50  N   UNL     1     -11.370   8.113   3.936  1.00  0.00    -0.354 N 
ATOM     51  N   UNL     1      -9.770   9.314   1.790  1.00  0.00    -0.248 NA
ATOM     52  C   UNL     1      -9.581  10.733  -0.054  1.00  0.00     0.031 C 
ATOM     53  C   UNL     1     -13.465   8.804   4.199  1.00  0.00     0.029 A 
ATOM     54  C   UNL     1     -12.332   8.968   3.419  1.00  0.00     0.049 A 
ATOM     55  H   UNL     1     -10.457   8.011   3.583  1.00  0.00     0.167 HD
ATOM     56  C   UNL     1     -10.980   9.963   1.592  1.00  0.00     0.074 A 
ATOM     57  C   UNL     1     -10.798  10.848   0.459  1.00  0.00     0.031 C 
ATOM     58  C   UNL     1     -12.138   9.838   2.286  1.00  0.00     0.037 A 
BRANCH  45  59
ATOM     59  C   UNL     1     -11.900   5.682   6.855  1.00  0.00     0.064 A 
ATOM     60  C   UNL     1     -11.614   5.876   8.215  1.00  0.00     0.173 A 
ATOM     61  C   UNL     1     -12.920   4.776   6.523  1.00  0.00     0.173 A 
ATOM     62  F   UNL     1     -10.644   6.725   8.586  1.00  0.00    -0.203 F 
ATOM     63  C   UNL     1     -12.294   5.164   9.200  1.00  0.00     0.198 A 
ATOM     64  C   UNL     1     -13.619   4.089   7.513  1.00  0.00     0.198 A 
ATOM     65  F   UNL     1     -13.241   4.559   5.239  1.00  0.00    -0.203 F 
ATOM     66  F   UNL     1     -11.965   5.326  10.489  1.00  0.00    -0.200 F 
ATOM     67  C   UNL     1     -13.299   4.276   8.849  1.00  0.00     0.200 A 
ATOM     68  F   UNL     1     -14.599   3.241   7.172  1.00  0.00    -0.200 F 
ATOM     69  F   UNL     1     -13.954   3.592   9.798  1.00  0.00    -0.200 F 
ENDBRANCH  45  59
BRANCH  46  70
ATOM     70  C   UNL     1      -6.774  10.019  -0.524  1.00  0.00     0.064 A 
ATOM     71  C   UNL     1      -6.402  11.369  -0.497  1.00  0.00     0.173 A 
ATOM     72  C   UNL     1      -6.387   9.255  -1.635  1.00  0.00     0.173 A 
ATOM     73  F   UNL     1      -6.766  12.143   0.535  1.00  0.00    -0.203 F 
ATOM     74  C   UNL     1      -5.677  11.936  -1.544  1.00  0.00     0.198 A 
ATOM     75  C   UNL     1      -5.641   9.817  -2.669  1.00  0.00     0.198 A 
ATOM     76  F   UNL     1      -6.714   7.956  -1.704  1.00  0.00    -0.203 F 
ATOM     77  F   UNL     1      -5.359  13.237  -1.508  1.00  0.00    -0.200 F 
ATOM     78  C   UNL     1      -5.291  11.158  -2.625  1.00  0.00     0.200 A 
ATOM     79  F   UNL     1      -5.256   9.058  -3.704  1.00  0.00    -0.200 F 
ATOM     80  F   UNL     1      -4.582  11.700  -3.624  1.00  0.00    -0.200 F 
ENDBRANCH  46  70
BRANCH  58  81
ATOM     81  C   UNL     1     -13.295  10.688   1.851  1.00  0.00     0.064 A 
ATOM     82  C   UNL     1     -13.999  10.419   0.668  1.00  0.00     0.173 A 
ATOM     83  C   UNL     1     -13.729  11.761   2.645  1.00  0.00     0.173 A 
ATOM     84  F   UNL     1     -13.614   9.415  -0.134  1.00  0.00    -0.203 F 
ATOM     85  C   UNL     1     -15.082  11.207   0.285  1.00  0.00     0.198 A 
ATOM     86  C   UNL     1     -14.829  12.529   2.273  1.00  0.00     0.198 A 
ATOM     87  F   UNL     1     -13.092  12.057   3.788  1.00  0.00    -0.203 F 
ATOM     88  F   UNL     1     -15.713  10.959  -0.871  1.00  0.00    -0.200 F 
ATOM     89  C   UNL     1     -15.500  12.256   1.091  1.00  0.00     0.200 A 
ATOM     90  F   UNL     1     -15.238  13.535   3.059  1.00  0.00    -0.200 F 
ATOM     91  F   UNL     1     -16.546  13.008   0.724  1.00  0.00    -0.200 F 
ENDBRANCH  58  81
ENDBRANCH  32  33
ENDBRANCH  24  27
ENDBRANCH  22  23
ENDBRANCH  21  22
ENDBRANCH   1  21
TORSDOF 13
