REMARK SMILES Cc1cc(C)n([C@H](C)[C@H](C)C(=O)NCCCNC(=O)c2ccc(-c3c4nc(c(-c5c(F)c(F)c(F)c(F)c5F)c5ccc([nH]5)c(-c5c(F)c(F)c(F)c(F)c5F)c5nc(c(-c6c(F)c(F)c(F)c(F)c6F)c6ccc3[nH]6)C=C5)C=C4)cc2)n1
REMARK SMILES IDX 15 1 14 2 13 3 11 4 12 5 9 7 10 8 7 9 8 10 6 11 1 12 2 13
REMARK SMILES IDX 3 14 83 15 4 16 5 17 16 18 17 19 18 20 19 22 20 23 21 24
REMARK SMILES IDX 82 25 22 26 81 27 23 28 24 29 25 30 75 31 26 32 80 33 74 34
REMARK SMILES IDX 76 35 27 36 79 37 73 38 72 39 28 41 60 42 40 43 59 44 41 45
REMARK SMILES IDX 44 46 58 47 77 48 42 49 43 50 57 52 78 53 45 54 29 55 30 56
REMARK SMILES IDX 38 57 31 58 32 59 36 60 39 61 33 62 34 63 37 64 35 65 61 66
REMARK SMILES IDX 62 67 70 68 63 69 64 70 68 71 71 72 65 73 66 74 69 75 67 76
REMARK SMILES IDX 46 77 47 78 55 79 48 80 49 81 53 82 56 83 50 84 51 85 54 86
REMARK SMILES IDX 52 87
REMARK H PARENT 13 6 17 21 76 40 44 51
REMARK Flexibility Score: inf
ROOT
ATOM      1  C   UNL     1       4.384   5.956  -0.614  1.00  0.00     0.042 C 
ENDROOT
BRANCH   1   2
ATOM      2  C   UNL     1       3.443   6.090   0.574  1.00  0.00     0.117 C 
BRANCH   2   3
ATOM      3  N   UNL     1       2.354   7.031   0.371  1.00  0.00    -0.356 N 
ATOM      4  C   UNL     1       1.037   6.895   0.693  1.00  0.00     0.224 C 
ATOM      5  O   UNL     1       0.307   7.883   0.581  1.00  0.00    -0.275 OA
ATOM      6  H   UNL     1       2.601   7.882  -0.057  1.00  0.00     0.163 HD
BRANCH   4   7
ATOM      7  C   UNL     1       0.452   5.553   1.116  1.00  0.00     0.100 C 
ATOM      8  C   UNL     1       0.527   4.596  -0.089  1.00  0.00     0.020 C 
BRANCH   7   9
ATOM      9  C   UNL     1       0.840   5.029   2.542  1.00  0.00     0.116 C 
ATOM     10  C   UNL     1       1.006   3.498   2.600  1.00  0.00     0.034 C 
BRANCH   9  11
ATOM     11  N   UNL     1       1.929   5.720   3.245  1.00  0.00    -0.266 N 
ATOM     12  C   UNL     1       5.260   5.572   4.483  1.00  0.00     0.069 C 
ATOM     13  C   UNL     1       3.864   5.922   4.127  1.00  0.00     0.060 A 
ATOM     14  C   UNL     1       3.188   7.132   4.368  1.00  0.00     0.048 A 
ATOM     15  N   UNL     1       3.095   5.061   3.454  1.00  0.00    -0.178 NA
ATOM     16  C   UNL     1       1.932   6.975   3.815  1.00  0.00     0.036 A 
ATOM     17  C   UNL     1       0.811   7.947   3.777  1.00  0.00     0.066 C 
ENDBRANCH   9  11
ENDBRANCH   7   9
ENDBRANCH   4   7
ENDBRANCH   2   3
ENDBRANCH   1   2
BRANCH   1  18
ATOM     18  C   UNL     1       5.355   7.122  -0.711  1.00  0.00     0.118 C 
BRANCH  18  19
ATOM     19  N   UNL     1       6.272   7.195   0.427  1.00  0.00    -0.352 N 
ATOM     20  C   UNL     1       7.109   8.238   0.783  1.00  0.00     0.251 C 
ATOM     21  H   UNL     1       6.296   6.404   1.012  1.00  0.00     0.163 HD
ATOM     22  O   UNL     1       8.011   8.095   1.575  1.00  0.00    -0.269 OA
BRANCH  20  23
ATOM     23  C   UNL     1       6.876   9.537   0.125  1.00  0.00     0.039 A 
ATOM     24  C   UNL     1       7.898  10.127  -0.616  1.00  0.00     0.014 A 
ATOM     25  C   UNL     1       5.589  10.071   0.143  1.00  0.00     0.014 A 
ATOM     26  C   UNL     1       7.583  11.201  -1.444  1.00  0.00     0.010 A 
ATOM     27  C   UNL     1       5.260  11.066  -0.757  1.00  0.00     0.010 A 
ATOM     28  C   UNL     1       6.251  11.641  -1.555  1.00  0.00    -0.014 A 
BRANCH  28  29
ATOM     29  C   UNL     1       5.912  12.613  -2.599  1.00  0.00     0.031 A 
ATOM     30  C   UNL     1       6.439  12.323  -3.967  1.00  0.00     0.074 A 
ATOM     31  C   UNL     1       5.053  13.643  -2.457  1.00  0.00     0.049 A 
ATOM     32  N   UNL     1       7.312  13.005  -4.635  1.00  0.00    -0.248 NA
ATOM     33  C   UNL     1       5.989  11.103  -4.652  1.00  0.00     0.031 C 
ATOM     34  C   UNL     1       4.171  13.958  -1.332  1.00  0.00     0.029 A 
ATOM     35  N   UNL     1       4.734  14.603  -3.374  1.00  0.00    -0.354 N 
ATOM     36  C   UNL     1       7.421  12.398  -5.885  1.00  0.00     0.074 A 
ATOM     37  C   UNL     1       6.670  11.171  -5.799  1.00  0.00     0.031 C 
ATOM     38  C   UNL     1       3.273  14.894  -1.711  1.00  0.00     0.029 A 
ATOM     39  C   UNL     1       3.632  15.370  -3.034  1.00  0.00     0.049 A 
ATOM     40  H   UNL     1       5.244  14.739  -4.206  1.00  0.00     0.167 HD
ATOM     41  C   UNL     1       7.976  13.052  -6.946  1.00  0.00     0.037 A 
ATOM     42  C   UNL     1       3.045  16.331  -3.783  1.00  0.00     0.037 A 
ATOM     43  C   UNL     1       8.738  14.196  -6.514  1.00  0.00     0.049 A 
ATOM     44  C   UNL     1       4.038  16.803  -4.774  1.00  0.00     0.074 A 
ATOM     45  C   UNL     1       9.825  14.389  -5.683  1.00  0.00     0.029 A 
ATOM     46  N   UNL     1       8.196  15.443  -6.697  1.00  0.00    -0.354 N 
ATOM     47  N   UNL     1       5.097  17.501  -4.475  1.00  0.00    -0.248 NA
ATOM     48  C   UNL     1       4.053  16.181  -6.088  1.00  0.00     0.031 C 
ATOM     49  C   UNL     1       9.566  15.627  -5.020  1.00  0.00     0.029 A 
ATOM     50  C   UNL     1       8.367  16.130  -5.525  1.00  0.00     0.049 A 
ATOM     51  H   UNL     1       7.765  15.780  -7.516  1.00  0.00     0.167 HD
ATOM     52  C   UNL     1       6.071  17.047  -5.347  1.00  0.00     0.074 A 
ATOM     53  C   UNL     1       5.341  16.345  -6.396  1.00  0.00     0.031 C 
ATOM     54  C   UNL     1       7.388  17.042  -4.987  1.00  0.00     0.037 A 
BRANCH  41  55
ATOM     55  C   UNL     1       7.567  12.880  -8.393  1.00  0.00     0.064 A 
ATOM     56  C   UNL     1       8.303  13.546  -9.399  1.00  0.00     0.173 A 
ATOM     57  C   UNL     1       6.319  12.366  -8.799  1.00  0.00     0.173 A 
ATOM     58  F   UNL     1       9.503  14.082  -9.130  1.00  0.00    -0.203 F 
ATOM     59  C   UNL     1       7.780  13.768 -10.677  1.00  0.00     0.198 A 
ATOM     60  C   UNL     1       5.824  12.543 -10.092  1.00  0.00     0.198 A 
ATOM     61  F   UNL     1       5.481  11.775  -7.939  1.00  0.00    -0.203 F 
ATOM     62  F   UNL     1       8.456  14.528 -11.549  1.00  0.00    -0.200 F 
ATOM     63  C   UNL     1       6.536  13.276 -11.018  1.00  0.00     0.200 A 
ATOM     64  F   UNL     1       4.609  12.069 -10.402  1.00  0.00    -0.200 F 
ATOM     65  F   UNL     1       6.001  13.547 -12.216  1.00  0.00    -0.200 F 
ENDBRANCH  41  55
BRANCH  42  66
ATOM     66  C   UNL     1       1.627  16.742  -3.819  1.00  0.00     0.064 A 
ATOM     67  C   UNL     1       1.244  17.981  -4.354  1.00  0.00     0.173 A 
ATOM     68  C   UNL     1       0.598  15.809  -3.585  1.00  0.00     0.173 A 
ATOM     69  F   UNL     1       2.169  18.909  -4.638  1.00  0.00    -0.203 F 
ATOM     70  C   UNL     1      -0.087  18.257  -4.674  1.00  0.00     0.198 A 
ATOM     71  C   UNL     1      -0.732  16.090  -3.896  1.00  0.00     0.198 A 
ATOM     72  F   UNL     1       0.877  14.575  -3.141  1.00  0.00    -0.203 F 
ATOM     73  F   UNL     1      -0.406  19.425  -5.250  1.00  0.00    -0.200 F 
ATOM     74  C   UNL     1      -1.072  17.307  -4.457  1.00  0.00     0.200 A 
ATOM     75  F   UNL     1      -1.670  15.151  -3.712  1.00  0.00    -0.200 F 
ATOM     76  F   UNL     1      -2.337  17.547  -4.827  1.00  0.00    -0.200 F 
ENDBRANCH  42  66
BRANCH  54  77
ATOM     77  C   UNL     1       7.792  17.852  -3.788  1.00  0.00     0.064 A 
ATOM     78  C   UNL     1       7.301  17.647  -2.487  1.00  0.00     0.173 A 
ATOM     79  C   UNL     1       8.806  18.807  -3.951  1.00  0.00     0.173 A 
ATOM     80  F   UNL     1       6.412  16.680  -2.227  1.00  0.00    -0.203 F 
ATOM     81  C   UNL     1       7.761  18.409  -1.415  1.00  0.00     0.198 A 
ATOM     82  C   UNL     1       9.293  19.537  -2.871  1.00  0.00     0.198 A 
ATOM     83  F   UNL     1       9.355  19.007  -5.160  1.00  0.00    -0.203 F 
ATOM     84  F   UNL     1       7.255  18.215  -0.187  1.00  0.00    -0.200 F 
ATOM     85  C   UNL     1       8.759  19.349  -1.607  1.00  0.00     0.200 A 
ATOM     86  F   UNL     1      10.295  20.409  -3.053  1.00  0.00    -0.200 F 
ATOM     87  F   UNL     1       9.225  20.059  -0.569  1.00  0.00    -0.200 F 
ENDBRANCH  54  77
ENDBRANCH  28  29
ENDBRANCH  20  23
ENDBRANCH  18  19
ENDBRANCH   1  18
TORSDOF 12
