REMARK SMILES COc1ccccc1C(=O)N1[C@@H](C(=O)NCCCNC(=O)c2ccc(-c3c4nc(c(-c5c(F)c(F)c(F)c(F)c5F)c5ccc([nH]5)c(-c5c(F)c(F)c(F)c(F)c5F)c5nc(c(-c6c(F)c(F)c(F)c(F)c6F)c6ccc3[nH]6)C=C5)C=C4)cc2)COC12CC[NH+](Cc1ccccc1)CC2
REMARK SMILES IDX 16 1 15 2 13 3 14 4 12 6 11 7 87 8 85 9 86 10 88 11 99 12
REMARK SMILES IDX 89 13 98 14 90 15 9 17 10 18 8 19 3 20 4 21 5 22 7 23 6 24
REMARK SMILES IDX 2 25 1 26 91 27 92 28 93 29 97 30 94 31 96 32 95 33 17 34
REMARK SMILES IDX 18 35 19 36 20 37 21 39 22 40 23 41 84 42 24 43 83 44 25 45
REMARK SMILES IDX 26 46 27 47 77 48 28 49 82 50 76 51 78 52 29 53 81 54 75 55
REMARK SMILES IDX 74 56 30 58 62 59 42 60 61 61 43 62 46 63 60 64 79 65 44 66
REMARK SMILES IDX 45 67 59 69 80 70 47 71 31 72 32 73 40 74 33 75 34 76 38 77
REMARK SMILES IDX 41 78 35 79 36 80 39 81 37 82 63 83 64 84 72 85 65 86 66 87
REMARK SMILES IDX 70 88 73 89 67 90 68 91 71 92 69 93 48 94 49 95 57 96 50 97
REMARK SMILES IDX 51 98 55 99 58 100 52 101 53 102 56 103 54 104
REMARK H PARENT 15 5 90 16 19 38 78 57 46 68
REMARK Flexibility Score: inf
ROOT
ATOM      1  C   UNL     1       0.294   1.653   1.005  1.00  0.00     0.117 C 
ENDROOT
BRANCH   1   2
ATOM      2  N   UNL     1       1.222   2.563   0.390  1.00  0.00    -0.354 N 
ATOM      3  C   UNL     1       2.510   2.333  -0.003  1.00  0.00     0.245 C 
ATOM      4  O   UNL     1       3.053   3.243  -0.639  1.00  0.00    -0.273 OA
ATOM      5  H   UNL     1       0.884   3.474   0.232  1.00  0.00     0.163 HD
BRANCH   3   6
ATOM      6  C   UNL     1       3.315   1.088   0.443  1.00  0.00     0.203 C 
ATOM      7  N   UNL     1       2.780  -0.223   0.081  1.00  0.00    -0.295 N 
ATOM      8  C   UNL     1       2.578  -1.028   1.301  1.00  0.00     0.155 C 
ATOM      9  C   UNL     1       3.418   1.048   1.952  1.00  0.00     0.198 C 
ATOM     10  O   UNL     1       2.543  -0.024   2.358  1.00  0.00    -0.352 OA
ATOM     11  C   UNL     1       1.291  -1.862   1.359  1.00  0.00     0.120 C 
ATOM     12  C   UNL     1       3.769  -1.938   1.643  1.00  0.00     0.120 C 
ATOM     13  C   UNL     1       1.123  -2.574   2.698  1.00  0.00     0.267 C 
ATOM     14  C   UNL     1       3.533  -2.662   2.985  1.00  0.00     0.267 C 
ATOM     15  N   UNL     1       2.268  -3.388   3.083  1.00  0.00    -0.331 N 
ATOM     16  H   UNL     1       2.160  -3.551   4.084  1.00  0.00     0.348 HD
BRANCH   7  17
ATOM     17  C   UNL     1       2.970  -0.636  -1.235  1.00  0.00     0.260 C 
ATOM     18  O   UNL     1       3.839  -0.111  -1.937  1.00  0.00    -0.269 OA
BRANCH  17  19
ATOM     19  C   UNL     1       2.101  -1.625  -1.927  1.00  0.00     0.082 A 
ATOM     20  C   UNL     1       0.703  -1.609  -1.872  1.00  0.00     0.131 A 
ATOM     21  C   UNL     1      -0.068  -2.521  -2.608  1.00  0.00     0.047 A 
ATOM     22  C   UNL     1       0.542  -3.345  -3.547  1.00  0.00     0.004 A 
ATOM     23  C   UNL     1       2.695  -2.439  -2.907  1.00  0.00     0.018 A 
ATOM     24  C   UNL     1       1.920  -3.273  -3.727  1.00  0.00     0.001 A 
BRANCH  20  25
ATOM     25  O   UNL     1       0.008  -0.630  -1.211  1.00  0.00    -0.496 OA
ATOM     26  C   UNL     1      -0.201   0.463  -2.116  1.00  0.00     0.278 C 
ENDBRANCH  20  25
ENDBRANCH  17  19
ENDBRANCH   7  17
BRANCH  15  27
ATOM     27  C   UNL     1       2.253  -4.784   2.633  1.00  0.00     0.299 C 
BRANCH  27  28
ATOM     28  C   UNL     1       2.825  -5.077   1.266  1.00  0.00     0.006 A 
ATOM     29  C   UNL     1       1.995  -5.218   0.149  1.00  0.00     0.009 A 
ATOM     30  C   UNL     1       4.216  -5.183   1.089  1.00  0.00     0.009 A 
ATOM     31  C   UNL     1       2.549  -5.401  -1.118  1.00  0.00     0.001 A 
ATOM     32  C   UNL     1       4.768  -5.305  -0.185  1.00  0.00     0.001 A 
ATOM     33  C   UNL     1       3.932  -5.406  -1.291  1.00  0.00     0.000 A 
ENDBRANCH  27  28
ENDBRANCH  15  27
ENDBRANCH   3   6
ENDBRANCH   1   2
BRANCH   1  34
ATOM     34  C   UNL     1      -0.285   2.120   2.323  1.00  0.00     0.042 C 
BRANCH  34  35
ATOM     35  C   UNL     1      -1.755   2.466   2.171  1.00  0.00     0.118 C 
BRANCH  35  36
ATOM     36  N   UNL     1      -2.586   1.336   1.749  1.00  0.00    -0.352 N 
ATOM     37  C   UNL     1      -3.871   1.012   2.111  1.00  0.00     0.251 C 
ATOM     38  H   UNL     1      -2.162   0.717   1.112  1.00  0.00     0.163 HD
ATOM     39  O   UNL     1      -4.398  -0.010   1.683  1.00  0.00    -0.269 OA
BRANCH  37  40
ATOM     40  C   UNL     1      -4.586   1.871   3.075  1.00  0.00     0.039 A 
ATOM     41  C   UNL     1      -5.287   1.268   4.120  1.00  0.00     0.014 A 
ATOM     42  C   UNL     1      -4.486   3.260   3.000  1.00  0.00     0.014 A 
ATOM     43  C   UNL     1      -5.805   2.063   5.142  1.00  0.00     0.010 A 
ATOM     44  C   UNL     1      -4.876   4.031   4.083  1.00  0.00     0.010 A 
ATOM     45  C   UNL     1      -5.553   3.445   5.160  1.00  0.00    -0.014 A 
BRANCH  45  46
ATOM     46  C   UNL     1      -6.010   4.297   6.284  1.00  0.00     0.031 A 
ATOM     47  C   UNL     1      -6.943   5.448   6.019  1.00  0.00     0.074 A 
ATOM     48  C   UNL     1      -5.543   4.067   7.527  1.00  0.00     0.049 A 
ATOM     49  N   UNL     1      -7.426   6.332   6.856  1.00  0.00    -0.248 NA
ATOM     50  C   UNL     1      -7.353   5.668   4.622  1.00  0.00     0.031 C 
ATOM     51  C   UNL     1      -4.564   3.039   7.891  1.00  0.00     0.029 A 
ATOM     52  N   UNL     1      -5.834   4.680   8.718  1.00  0.00    -0.354 N 
ATOM     53  C   UNL     1      -8.172   7.212   6.083  1.00  0.00     0.074 A 
ATOM     54  C   UNL     1      -8.011   6.813   4.705  1.00  0.00     0.031 C 
ATOM     55  C   UNL     1      -4.382   3.054   9.222  1.00  0.00     0.029 A 
ATOM     56  C   UNL     1      -5.206   4.109   9.799  1.00  0.00     0.049 A 
ATOM     57  H   UNL     1      -6.437   5.455   8.793  1.00  0.00     0.167 HD
ATOM     58  C   UNL     1      -8.961   8.233   6.489  1.00  0.00     0.037 A 
ATOM     59  C   UNL     1      -5.305   4.399  11.110  1.00  0.00     0.037 A 
ATOM     60  C   UNL     1      -9.161   8.592   7.866  1.00  0.00     0.049 A 
ATOM     61  C   UNL     1      -6.236   5.502  11.538  1.00  0.00     0.074 A 
ATOM     62  C   UNL     1      -9.972   9.579   8.396  1.00  0.00     0.029 A 
ATOM     63  N   UNL     1      -8.551   7.954   8.937  1.00  0.00    -0.354 N 
ATOM     64  N   UNL     1      -6.990   6.283  10.802  1.00  0.00    -0.248 NA
ATOM     65  C   UNL     1      -6.343   5.750  12.981  1.00  0.00     0.031 C 
ATOM     66  C   UNL     1      -9.838   9.551   9.788  1.00  0.00     0.029 A 
ATOM     67  C   UNL     1      -8.972   8.524  10.126  1.00  0.00     0.049 A 
ATOM     68  H   UNL     1      -7.914   7.208   8.862  1.00  0.00     0.167 HD
ATOM     69  C   UNL     1      -7.680   7.093  11.692  1.00  0.00     0.074 A 
ATOM     70  C   UNL     1      -7.275   6.690  13.023  1.00  0.00     0.031 C 
ATOM     71  C   UNL     1      -8.565   8.088  11.436  1.00  0.00     0.037 A 
BRANCH  58  72
ATOM     72  C   UNL     1      -9.696   9.001   5.430  1.00  0.00     0.064 A 
ATOM     73  C   UNL     1     -10.748   8.418   4.704  1.00  0.00     0.173 A 
ATOM     74  C   UNL     1      -9.365  10.334   5.147  1.00  0.00     0.173 A 
ATOM     75  F   UNL     1     -11.091   7.139   4.921  1.00  0.00    -0.203 F 
ATOM     76  C   UNL     1     -11.419   9.132   3.715  1.00  0.00     0.198 A 
ATOM     77  C   UNL     1     -10.060  11.055   4.179  1.00  0.00     0.198 A 
ATOM     78  F   UNL     1      -8.368  10.939   5.811  1.00  0.00    -0.203 F 
ATOM     79  F   UNL     1     -12.382   8.535   2.998  1.00  0.00    -0.200 F 
ATOM     80  C   UNL     1     -11.081  10.451   3.459  1.00  0.00     0.200 A 
ATOM     81  F   UNL     1      -9.738  12.333   3.938  1.00  0.00    -0.200 F 
ATOM     82  F   UNL     1     -11.732  11.139   2.512  1.00  0.00    -0.200 F 
ENDBRANCH  58  72
BRANCH  59  83
ATOM     83  C   UNL     1      -4.559   3.600  12.118  1.00  0.00     0.064 A 
ATOM     84  C   UNL     1      -5.240   2.748  13.000  1.00  0.00     0.173 A 
ATOM     85  C   UNL     1      -3.167   3.691  12.244  1.00  0.00     0.173 A 
ATOM     86  F   UNL     1      -6.575   2.640  12.930  1.00  0.00    -0.203 F 
ATOM     87  C   UNL     1      -4.560   2.046  13.993  1.00  0.00     0.198 A 
ATOM     88  C   UNL     1      -2.484   2.966  13.219  1.00  0.00     0.198 A 
ATOM     89  F   UNL     1      -2.467   4.484  11.419  1.00  0.00    -0.203 F 
ATOM     90  F   UNL     1      -5.243   1.287  14.861  1.00  0.00    -0.200 F 
ATOM     91  C   UNL     1      -3.182   2.154  14.101  1.00  0.00     0.200 A 
ATOM     92  F   UNL     1      -1.151   3.061  13.312  1.00  0.00    -0.200 F 
ATOM     93  F   UNL     1      -2.529   1.484  15.061  1.00  0.00    -0.200 F 
ENDBRANCH  59  83
BRANCH  71  94
ATOM     94  C   UNL     1      -9.175   8.773  12.621  1.00  0.00     0.064 A 
ATOM     95  C   UNL     1      -8.430   9.642  13.431  1.00  0.00     0.173 A 
ATOM     96  C   UNL     1     -10.525   8.567  12.940  1.00  0.00     0.173 A 
ATOM     97  F   UNL     1      -7.132   9.859  13.173  1.00  0.00    -0.203 F 
ATOM     98  C   UNL     1      -9.005  10.249  14.543  1.00  0.00     0.198 A 
ATOM     99  C   UNL     1     -11.105   9.200  14.035  1.00  0.00     0.198 A 
ATOM    100  F   UNL     1     -11.282   7.752  12.189  1.00  0.00    -0.203 F 
ATOM    101  F   UNL     1      -8.259  11.028  15.338  1.00  0.00    -0.200 F 
ATOM    102  C   UNL     1     -10.343  10.032  14.841  1.00  0.00     0.200 A 
ATOM    103  F   UNL     1     -12.400   8.999  14.315  1.00  0.00    -0.200 F 
ATOM    104  F   UNL     1     -10.894  10.616  15.913  1.00  0.00    -0.200 F 
ENDBRANCH  71  94
ENDBRANCH  45  46
ENDBRANCH  37  40
ENDBRANCH  35  36
ENDBRANCH  34  35
ENDBRANCH   1  34
TORSDOF 15
