REMARK SMILES Cc1cc(S(=O)(=O)N2CC(CC(=O)NCCCNC(=O)c3ccc(-c4c5nc(c(-c6c(F)c(F)c(F)c(F)c6F)c6ccc([nH]6)c(-c6c(F)c(F)c(F)c(F)c6F)c6nc(c(-c7c(F)c(F)c(F)c(F)c7F)c7ccc4[nH]7)C=C6)C=C5)cc3)C2)sc1Br
REMARK SMILES IDX 15 1 14 2 12 3 13 4 11 6 10 7 8 8 9 9 84 10 5 11 6 12 7 13
REMARK SMILES IDX 4 14 1 15 2 16 3 17 86 18 85 19 87 20 16 21 17 22 18 23
REMARK SMILES IDX 19 24 20 26 21 27 22 28 83 29 23 30 82 31 24 32 25 33 26 34
REMARK SMILES IDX 76 35 27 36 81 37 75 38 77 39 28 40 80 41 74 42 73 43 29 45
REMARK SMILES IDX 61 46 41 47 60 48 42 49 45 50 59 51 78 52 43 53 44 54 58 56
REMARK SMILES IDX 79 57 46 58 30 59 31 60 39 61 32 62 33 63 37 64 40 65 34 66
REMARK SMILES IDX 35 67 38 68 36 69 62 70 63 71 71 72 64 73 65 74 69 75 72 76
REMARK SMILES IDX 66 77 67 78 70 79 68 80 47 81 48 82 56 83 49 84 50 85 54 86
REMARK SMILES IDX 57 87 51 88 52 89 55 90 53 91
REMARK H PARENT 14 5 18 25 77 44 45 55
REMARK Flexibility Score: inf
ROOT
ATOM      1  C   UNL     1       4.630  -3.616   0.582  1.00  0.00     0.117 C 
ENDROOT
BRANCH   1   2
ATOM      2  N   UNL     1       4.793  -4.607  -0.478  1.00  0.00    -0.356 N 
ATOM      3  C   UNL     1       3.877  -5.248  -1.260  1.00  0.00     0.220 C 
ATOM      4  O   UNL     1       4.276  -6.120  -2.032  1.00  0.00    -0.275 OA
ATOM      5  H   UNL     1       5.728  -4.857  -0.661  1.00  0.00     0.163 HD
BRANCH   3   6
ATOM      6  C   UNL     1       2.405  -4.901  -1.181  1.00  0.00     0.106 C 
BRANCH   6   7
ATOM      7  C   UNL     1       1.594  -5.803  -0.257  1.00  0.00     0.029 C 
ATOM      8  N   UNL     1       0.378  -5.451   1.494  1.00  0.00    -0.196 NA
ATOM      9  C   UNL     1       0.120  -5.397   0.032  1.00  0.00     0.108 C 
ATOM     10  C   UNL     1       1.821  -5.593   1.244  1.00  0.00     0.108 C 
BRANCH   8  11
ATOM     11  S   UNL     1      -0.246  -4.486   2.737  1.00  0.00     0.252 S 
ATOM     12  O   UNL     1       0.610  -4.666   3.885  1.00  0.00    -0.206 OA
ATOM     13  O   UNL     1      -1.681  -4.695   2.784  1.00  0.00    -0.206 OA
BRANCH  11  14
ATOM     14  C   UNL     1      -0.033  -2.771   2.291  1.00  0.00     0.136 A 
ATOM     15  C   UNL     1       0.925   0.175   0.147  1.00  0.00     0.046 C 
ATOM     16  C   UNL     1       0.421  -0.701   1.249  1.00  0.00    -0.025 A 
ATOM     17  C   UNL     1       0.583  -2.128   1.234  1.00  0.00     0.038 A 
ATOM     18  C   UNL     1      -0.253  -0.328   2.392  1.00  0.00     0.074 A 
ATOM     19  S   UNL     1      -0.702  -1.634   3.381  1.00  0.00    -0.115 S 
ATOM     20  Br  UNL     1      -0.678   1.441   2.863  1.00  0.00    -0.039 Br
ENDBRANCH  11  14
ENDBRANCH   8  11
ENDBRANCH   6   7
ENDBRANCH   3   6
ENDBRANCH   1   2
BRANCH   1  21
ATOM     21  C   UNL     1       4.648  -4.250   1.980  1.00  0.00     0.042 C 
BRANCH  21  22
ATOM     22  C   UNL     1       6.028  -4.561   2.492  1.00  0.00     0.118 C 
BRANCH  22  23
ATOM     23  N   UNL     1       6.781  -3.405   2.978  1.00  0.00    -0.352 N 
ATOM     24  C   UNL     1       7.992  -3.429   3.664  1.00  0.00     0.251 C 
ATOM     25  H   UNL     1       6.391  -2.519   2.803  1.00  0.00     0.163 HD
ATOM     26  O   UNL     1       8.377  -2.465   4.311  1.00  0.00    -0.269 OA
BRANCH  24  27
ATOM     27  C   UNL     1       8.803  -4.661   3.587  1.00  0.00     0.039 A 
ATOM     28  C   UNL     1       9.539  -5.188   4.650  1.00  0.00     0.014 A 
ATOM     29  C   UNL     1       8.713  -5.357   2.394  1.00  0.00     0.014 A 
ATOM     30  C   UNL     1      10.143  -6.433   4.471  1.00  0.00     0.010 A 
ATOM     31  C   UNL     1       8.903  -6.698   2.414  1.00  0.00     0.010 A 
ATOM     32  C   UNL     1       9.812  -7.176   3.328  1.00  0.00    -0.014 A 
BRANCH  32  33
ATOM     33  C   UNL     1      10.337  -8.489   3.011  1.00  0.00     0.031 A 
ATOM     34  C   UNL     1      10.027  -9.513   4.023  1.00  0.00     0.074 A 
ATOM     35  C   UNL     1      10.838  -8.791   1.790  1.00  0.00     0.049 A 
ATOM     36  N   UNL     1      10.856 -10.040   4.854  1.00  0.00    -0.248 NA
ATOM     37  C   UNL     1       8.621  -9.866   4.267  1.00  0.00     0.031 C 
ATOM     38  C   UNL     1      10.922  -7.962   0.577  1.00  0.00     0.029 A 
ATOM     39  N   UNL     1      11.320  -9.985   1.353  1.00  0.00    -0.354 N 
ATOM     40  C   UNL     1      10.121 -10.951   5.600  1.00  0.00     0.074 A 
ATOM     41  C   UNL     1       8.737 -10.652   5.341  1.00  0.00     0.031 C 
ATOM     42  C   UNL     1      11.220  -8.737  -0.491  1.00  0.00     0.029 A 
ATOM     43  C   UNL     1      11.505 -10.079  -0.023  1.00  0.00     0.049 A 
ATOM     44  H   UNL     1      11.523 -10.728   1.966  1.00  0.00     0.167 HD
ATOM     45  C   UNL     1      10.737 -12.023   6.170  1.00  0.00     0.037 A 
ATOM     46  C   UNL     1      11.848 -11.202  -0.707  1.00  0.00     0.037 A 
ATOM     47  C   UNL     1      12.173 -11.861   6.134  1.00  0.00     0.049 A 
ATOM     48  C   UNL     1      12.478 -12.125   0.279  1.00  0.00     0.074 A 
ATOM     49  C   UNL     1      13.049 -10.927   6.655  1.00  0.00     0.029 A 
ATOM     50  N   UNL     1      12.861 -12.495   5.125  1.00  0.00    -0.354 N 
ATOM     51  N   UNL     1      13.624 -11.876   0.854  1.00  0.00    -0.248 NA
ATOM     52  C   UNL     1      11.599 -13.032   1.005  1.00  0.00     0.031 C 
ATOM     53  C   UNL     1      14.008 -10.706   5.622  1.00  0.00     0.029 A 
ATOM     54  C   UNL     1      13.725 -11.581   4.573  1.00  0.00     0.049 A 
ATOM     55  H   UNL     1      12.754 -13.434   4.849  1.00  0.00     0.167 HD
ATOM     56  C   UNL     1      13.435 -12.225   2.184  1.00  0.00     0.074 A 
ATOM     57  C   UNL     1      12.190 -12.993   2.205  1.00  0.00     0.031 C 
ATOM     58  C   UNL     1      14.125 -11.599   3.184  1.00  0.00     0.037 A 
BRANCH  45  59
ATOM     59  C   UNL     1      10.099 -13.366   6.412  1.00  0.00     0.064 A 
ATOM     60  C   UNL     1      10.835 -14.344   7.111  1.00  0.00     0.173 A 
ATOM     61  C   UNL     1       8.947 -13.833   5.744  1.00  0.00     0.173 A 
ATOM     62  F   UNL     1      11.947 -14.011   7.784  1.00  0.00    -0.203 F 
ATOM     63  C   UNL     1      10.503 -15.698   7.054  1.00  0.00     0.198 A 
ATOM     64  C   UNL     1       8.589 -15.180   5.735  1.00  0.00     0.198 A 
ATOM     65  F   UNL     1       8.187 -13.040   4.983  1.00  0.00    -0.203 F 
ATOM     66  F   UNL     1      11.313 -16.605   7.618  1.00  0.00    -0.200 F 
ATOM     67  C   UNL     1       9.386 -16.116   6.356  1.00  0.00     0.200 A 
ATOM     68  F   UNL     1       7.509 -15.567   5.041  1.00  0.00    -0.200 F 
ATOM     69  F   UNL     1       9.104 -17.420   6.240  1.00  0.00    -0.200 F 
ENDBRANCH  45  59
BRANCH  46  70
ATOM     70  C   UNL     1      11.385 -11.643  -2.048  1.00  0.00     0.064 A 
ATOM     71  C   UNL     1      12.007 -12.706  -2.727  1.00  0.00     0.173 A 
ATOM     72  C   UNL     1      10.147 -11.216  -2.569  1.00  0.00     0.173 A 
ATOM     73  F   UNL     1      13.167 -13.206  -2.277  1.00  0.00    -0.203 F 
ATOM     74  C   UNL     1      11.414 -13.319  -3.838  1.00  0.00     0.198 A 
ATOM     75  C   UNL     1       9.558 -11.827  -3.679  1.00  0.00     0.198 A 
ATOM     76  F   UNL     1       9.436 -10.260  -1.955  1.00  0.00    -0.203 F 
ATOM     77  F   UNL     1      12.009 -14.369  -4.422  1.00  0.00    -0.200 F 
ATOM     78  C   UNL     1      10.184 -12.887  -4.305  1.00  0.00     0.200 A 
ATOM     79  F   UNL     1       8.350 -11.421  -4.096  1.00  0.00    -0.200 F 
ATOM     80  F   UNL     1       9.585 -13.514  -5.328  1.00  0.00    -0.200 F 
ENDBRANCH  46  70
BRANCH  58  81
ATOM     81  C   UNL     1      15.254 -10.680   2.797  1.00  0.00     0.064 A 
ATOM     82  C   UNL     1      15.091  -9.498   2.050  1.00  0.00     0.173 A 
ATOM     83  C   UNL     1      16.521 -10.919   3.343  1.00  0.00     0.173 A 
ATOM     84  F   UNL     1      13.892  -9.138   1.582  1.00  0.00    -0.203 F 
ATOM     85  C   UNL     1      16.155  -8.626   1.826  1.00  0.00     0.198 A 
ATOM     86  C   UNL     1      17.574 -10.028   3.149  1.00  0.00     0.198 A 
ATOM     87  F   UNL     1      16.725 -11.997   4.116  1.00  0.00    -0.203 F 
ATOM     88  F   UNL     1      15.970  -7.511   1.104  1.00  0.00    -0.200 F 
ATOM     89  C   UNL     1      17.395  -8.889   2.382  1.00  0.00     0.200 A 
ATOM     90  F   UNL     1      18.757 -10.261   3.734  1.00  0.00    -0.200 F 
ATOM     91  F   UNL     1      18.409  -8.031   2.203  1.00  0.00    -0.200 F 
ENDBRANCH  58  81
ENDBRANCH  32  33
ENDBRANCH  24  27
ENDBRANCH  22  23
ENDBRANCH  21  22
ENDBRANCH   1  21
TORSDOF 13
