REMARK SMILES Cc1cc(SC[C@H]([NH3+])C(=O)NCCCNC(=O)c2ccc(-c3c4nc(c(-c5c(F)c(F)c(F)c(F)c5F)c5ccc([nH]5)c(-c5c(F)c(F)c(F)c(F)c5F)c5nc(c(-c6c(F)c(F)c(F)c(F)c6F)c6ccc3[nH]6)C=C5)C=C4)cc2)ccc1N
REMARK SMILES IDX 12 1 11 2 9 3 10 4 7 6 6 7 5 8 4 9 1 10 2 11 3 12 83 13
REMARK SMILES IDX 82 14 81 15 84 16 8 19 13 23 14 24 15 25 16 26 17 28 18 29
REMARK SMILES IDX 19 30 80 31 20 32 79 33 21 34 22 35 23 36 73 37 24 38 78 39
REMARK SMILES IDX 72 40 74 41 25 42 77 43 71 44 70 45 26 47 58 48 38 49 57 50
REMARK SMILES IDX 39 51 42 52 56 53 75 54 40 55 41 56 55 58 76 59 43 60 27 61
REMARK SMILES IDX 28 62 36 63 29 64 30 65 34 66 37 67 31 68 32 69 35 70 33 71
REMARK SMILES IDX 59 72 60 73 68 74 61 75 62 76 66 77 69 78 63 79 64 80 67 81
REMARK SMILES IDX 65 82 44 83 45 84 53 85 46 86 47 87 51 88 54 89 48 90 49 91
REMARK SMILES IDX 52 92 50 93
REMARK H PARENT 11 5 84 17 84 18 8 20 8 21 8 22 15 27 74 46 42 57
REMARK Flexibility Score: inf
ROOT
ATOM      1  C   UNL     1      -1.595   4.404  -1.565  1.00  0.00     0.118 C 
ENDROOT
BRANCH   1   2
ATOM      2  N   UNL     1      -2.583   4.995  -0.678  1.00  0.00    -0.351 N 
ATOM      3  C   UNL     1      -2.905   4.668   0.610  1.00  0.00     0.279 C 
ATOM      4  O   UNL     1      -3.756   5.365   1.169  1.00  0.00    -0.268 OA
ATOM      5  H   UNL     1      -3.098   5.741  -1.062  1.00  0.00     0.163 HD
BRANCH   3   6
ATOM      6  C   UNL     1      -2.297   3.438   1.320  1.00  0.00     0.281 C 
BRANCH   6   7
ATOM      7  C   UNL     1      -0.764   3.439   1.469  1.00  0.00     0.150 C 
BRANCH   7   8
ATOM      8  S   UNL     1      -0.113   4.196   3.013  1.00  0.00    -0.119 SA
BRANCH   8   9
ATOM      9  C   UNL     1      -0.017   5.955   2.718  1.00  0.00     0.008 A 
ATOM     10  C   UNL     1      -1.084   8.643   0.248  1.00  0.00     0.046 C 
ATOM     11  C   UNL     1      -0.491   8.023   1.483  1.00  0.00    -0.027 A 
ATOM     12  C   UNL     1      -0.450   6.616   1.572  1.00  0.00     0.020 A 
ATOM     13  C   UNL     1       0.016   8.794   2.536  1.00  0.00     0.034 A 
ATOM     14  C   UNL     1       0.555   8.132   3.643  1.00  0.00     0.027 A 
ATOM     15  C   UNL     1       0.512   6.737   3.747  1.00  0.00     0.017 A 
BRANCH  13  16
ATOM     16  N   UNL     1       0.110  10.175   2.460  1.00  0.00    -0.399 N 
ATOM     17  H   UNL     1      -0.266  10.652   1.685  1.00  0.00     0.156 HD
ATOM     18  H   UNL     1       0.552  10.679   3.181  1.00  0.00     0.156 HD
ENDBRANCH  13  16
ENDBRANCH   8   9
ENDBRANCH   7   8
ENDBRANCH   6   7
BRANCH   6  19
ATOM     19  N   UNL     1      -2.772   2.227   0.592  1.00  0.00    -0.347 N 
ATOM     20  H   UNL     1      -2.427   2.251  -0.367  1.00  0.00     0.345 HD
ATOM     21  H   UNL     1      -3.792   2.212   0.588  1.00  0.00     0.345 HD
ATOM     22  H   UNL     1      -2.421   1.391   1.059  1.00  0.00     0.345 HD
ENDBRANCH   6  19
ENDBRANCH   3   6
ENDBRANCH   1   2
BRANCH   1  23
ATOM     23  C   UNL     1      -1.722   4.893  -3.000  1.00  0.00     0.042 C 
BRANCH  23  24
ATOM     24  C   UNL     1      -1.417   6.378  -3.179  1.00  0.00     0.118 C 
BRANCH  24  25
ATOM     25  N   UNL     1       0.001   6.710  -3.099  1.00  0.00    -0.352 N 
ATOM     26  C   UNL     1       0.754   7.457  -3.981  1.00  0.00     0.251 C 
ATOM     27  H   UNL     1       0.481   6.357  -2.316  1.00  0.00     0.163 HD
ATOM     28  O   UNL     1       1.964   7.578  -3.833  1.00  0.00    -0.269 OA
BRANCH  26  29
ATOM     29  C   UNL     1       0.086   8.073  -5.146  1.00  0.00     0.039 A 
ATOM     30  C   UNL     1       0.553   7.778  -6.428  1.00  0.00     0.014 A 
ATOM     31  C   UNL     1      -1.058   8.856  -4.969  1.00  0.00     0.014 A 
ATOM     32  C   UNL     1      -0.193   8.177  -7.540  1.00  0.00     0.010 A 
ATOM     33  C   UNL     1      -1.836   9.189  -6.073  1.00  0.00     0.010 A 
ATOM     34  C   UNL     1      -1.423   8.833  -7.367  1.00  0.00    -0.014 A 
BRANCH  34  35
ATOM     35  C   UNL     1      -2.319   9.111  -8.520  1.00  0.00     0.031 A 
ATOM     36  C   UNL     1      -2.659  10.525  -8.891  1.00  0.00     0.074 A 
ATOM     37  C   UNL     1      -2.903   8.085  -9.170  1.00  0.00     0.049 A 
ATOM     38  N   UNL     1      -3.497  10.964  -9.796  1.00  0.00    -0.248 NA
ATOM     39  C   UNL     1      -1.992  11.586  -8.122  1.00  0.00     0.031 C 
ATOM     40  C   UNL     1      -2.706   6.666  -8.866  1.00  0.00     0.029 A 
ATOM     41  N   UNL     1      -3.798   8.078 -10.212  1.00  0.00    -0.354 N 
ATOM     42  C   UNL     1      -3.472  12.348  -9.691  1.00  0.00     0.074 A 
ATOM     43  C   UNL     1      -2.573  12.675  -8.606  1.00  0.00     0.031 C 
ATOM     44  C   UNL     1      -3.444   5.928  -9.711  1.00  0.00     0.029 A 
ATOM     45  C   UNL     1      -4.192   6.819 -10.593  1.00  0.00     0.049 A 
ATOM     46  H   UNL     1      -4.127   8.899 -10.645  1.00  0.00     0.167 HD
ATOM     47  C   UNL     1      -4.124  13.263 -10.447  1.00  0.00     0.037 A 
ATOM     48  C   UNL     1      -5.064   6.425 -11.541  1.00  0.00     0.037 A 
ATOM     49  C   UNL     1      -4.992  12.940 -11.548  1.00  0.00     0.049 A 
ATOM     50  C   UNL     1      -5.761   7.462 -12.378  1.00  0.00     0.074 A 
ATOM     51  C   UNL     1      -5.635  13.800 -12.421  1.00  0.00     0.029 A 
ATOM     52  N   UNL     1      -5.338  11.652 -11.927  1.00  0.00    -0.354 N 
ATOM     53  N   UNL     1      -5.672   8.768 -12.319  1.00  0.00    -0.248 NA
ATOM     54  C   UNL     1      -6.677   6.969 -13.417  1.00  0.00     0.031 C 
ATOM     55  C   UNL     1      -6.399  13.033 -13.307  1.00  0.00     0.029 A 
ATOM     56  C   UNL     1      -6.201  11.694 -13.010  1.00  0.00     0.049 A 
ATOM     57  H   UNL     1      -5.018  10.829 -11.492  1.00  0.00     0.167 HD
ATOM     58  C   UNL     1      -6.499   9.252 -13.322  1.00  0.00     0.074 A 
ATOM     59  C   UNL     1      -7.073   8.100 -13.985  1.00  0.00     0.031 C 
ATOM     60  C   UNL     1      -6.760  10.538 -13.662  1.00  0.00     0.037 A 
BRANCH  47  61
ATOM     61  C   UNL     1      -3.914  14.710 -10.110  1.00  0.00     0.064 A 
ATOM     62  C   UNL     1      -2.696  15.354 -10.374  1.00  0.00     0.173 A 
ATOM     63  C   UNL     1      -4.950  15.467  -9.545  1.00  0.00     0.173 A 
ATOM     64  F   UNL     1      -1.671  14.669 -10.902  1.00  0.00    -0.203 F 
ATOM     65  C   UNL     1      -2.514  16.697 -10.057  1.00  0.00     0.198 A 
ATOM     66  C   UNL     1      -4.773  16.818  -9.255  1.00  0.00     0.198 A 
ATOM     67  F   UNL     1      -6.136  14.900  -9.278  1.00  0.00    -0.203 F 
ATOM     68  F   UNL     1      -1.326  17.279 -10.273  1.00  0.00    -0.200 F 
ATOM     69  C   UNL     1      -3.553  17.429  -9.504  1.00  0.00     0.200 A 
ATOM     70  F   UNL     1      -5.782  17.527  -8.730  1.00  0.00    -0.200 F 
ATOM     71  F   UNL     1      -3.377  18.723  -9.203  1.00  0.00    -0.200 F 
ENDBRANCH  47  61
BRANCH  48  72
ATOM     72  C   UNL     1      -5.310   4.978 -11.765  1.00  0.00     0.064 A 
ATOM     73  C   UNL     1      -4.824   4.338 -12.914  1.00  0.00     0.173 A 
ATOM     74  C   UNL     1      -6.031   4.207 -10.842  1.00  0.00     0.173 A 
ATOM     75  F   UNL     1      -4.148   5.040 -13.835  1.00  0.00    -0.203 F 
ATOM     76  C   UNL     1      -5.064   2.984 -13.139  1.00  0.00     0.198 A 
ATOM     77  C   UNL     1      -6.250   2.848 -11.057  1.00  0.00     0.198 A 
ATOM     78  F   UNL     1      -6.512   4.773  -9.726  1.00  0.00    -0.203 F 
ATOM     79  F   UNL     1      -4.622   2.405 -14.264  1.00  0.00    -0.200 F 
ATOM     80  C   UNL     1      -5.772   2.239 -12.208  1.00  0.00     0.200 A 
ATOM     81  F   UNL     1      -6.923   2.129 -10.149  1.00  0.00    -0.200 F 
ATOM     82  F   UNL     1      -5.999   0.936 -12.422  1.00  0.00    -0.200 F 
ENDBRANCH  48  72
BRANCH  60  83
ATOM     83  C   UNL     1      -7.687  10.768 -14.818  1.00  0.00     0.064 A 
ATOM     84  C   UNL     1      -9.070  10.572 -14.697  1.00  0.00     0.173 A 
ATOM     85  C   UNL     1      -7.191  11.233 -16.045  1.00  0.00     0.173 A 
ATOM     86  F   UNL     1      -9.589  10.113 -13.549  1.00  0.00    -0.203 F 
ATOM     87  C   UNL     1      -9.922  10.818 -15.771  1.00  0.00     0.198 A 
ATOM     88  C   UNL     1      -8.049  11.501 -17.108  1.00  0.00     0.198 A 
ATOM     89  F   UNL     1      -5.876  11.440 -16.208  1.00  0.00    -0.203 F 
ATOM     90  F   UNL     1     -11.237  10.588 -15.646  1.00  0.00    -0.200 F 
ATOM     91  C   UNL     1      -9.412  11.289 -16.971  1.00  0.00     0.200 A 
ATOM     92  F   UNL     1      -7.556  11.966 -18.264  1.00  0.00    -0.200 F 
ATOM     93  F   UNL     1     -10.236  11.532 -18.001  1.00  0.00    -0.200 F 
ENDBRANCH  60  83
ENDBRANCH  34  35
ENDBRANCH  26  29
ENDBRANCH  24  25
ENDBRANCH  23  24
ENDBRANCH   1  23
TORSDOF 15
