REMARK SMILES C[C@H](NC(=O)c1cccc(NC(=O)c2ccccc2C(=O)NCCCNC(=O)c2ccc(-c3c4nc(c(-c5c(F)c(F)c(F)c(F)c5F)c5ccc([nH]5)c(-c5c(F)c(F)c(F)c(F)c5F)c5nc(c(-c6c(F)c(F)c(F)c(F)c6F)c6ccc3[nH]6)C=C5)C=C4)cc2)c1)c1ccccc1
REMARK SMILES IDX 20 1 21 2 22 3 19 5 14 6 15 7 16 8 18 9 17 10 12 11 11 12
REMARK SMILES IDX 13 14 10 15 6 16 7 17 92 18 8 19 9 20 4 21 3 22 5 24 2 25
REMARK SMILES IDX 1 26 93 27 94 28 98 29 95 30 97 31 96 32 23 33 24 34 25 35
REMARK SMILES IDX 26 36 27 37 28 39 29 40 30 41 91 42 31 43 90 44 32 45 33 46
REMARK SMILES IDX 34 47 84 48 35 49 89 50 83 51 85 52 36 53 88 54 82 55 81 56
REMARK SMILES IDX 37 58 69 59 49 60 68 61 50 62 53 63 67 64 86 65 51 66 52 67
REMARK SMILES IDX 66 69 87 70 54 71 38 72 39 73 47 74 40 75 41 76 45 77 48 78
REMARK SMILES IDX 42 79 43 80 46 81 44 82 70 83 71 84 79 85 72 86 73 87 77 88
REMARK SMILES IDX 80 89 74 90 75 91 78 92 76 93 55 94 56 95 64 96 57 97 58 98
REMARK SMILES IDX 62 99 65 100 59 101 60 102 63 103 61 104
REMARK H PARENT 22 4 11 13 3 23 26 38 85 57 53 68
REMARK Flexibility Score: inf
ROOT
ATOM      1  C   UNL     1       2.820   3.025   5.072  1.00  0.00     0.252 C 
ATOM      2  O   UNL     1       1.919   3.660   4.523  1.00  0.00    -0.269 OA
ATOM      3  N   UNL     1       2.553   1.741   5.451  1.00  0.00    -0.352 N 
ATOM      4  H   UNL     1       1.631   1.447   5.272  1.00  0.00     0.163 HD
ENDROOT
BRANCH   1   5
ATOM      5  C   UNL     1       4.090   3.715   5.388  1.00  0.00     0.052 A 
ATOM      6  C   UNL     1       5.389   3.233   5.174  1.00  0.00     0.052 A 
ATOM      7  C   UNL     1       6.486   4.000   5.611  1.00  0.00     0.014 A 
ATOM      8  C   UNL     1       6.304   5.266   6.169  1.00  0.00     0.001 A 
ATOM      9  C   UNL     1       3.925   5.012   5.918  1.00  0.00     0.014 A 
ATOM     10  C   UNL     1       5.022   5.783   6.300  1.00  0.00     0.001 A 
BRANCH   6  11
ATOM     11  C   UNL     1       5.748   1.938   4.562  1.00  0.00     0.256 C 
ATOM     12  N   UNL     1       5.247   1.476   3.368  1.00  0.00    -0.322 N 
ATOM     13  H   UNL     1       5.476   0.537   3.180  1.00  0.00     0.170 HD
ATOM     14  O   UNL     1       6.499   1.202   5.208  1.00  0.00    -0.269 OA
BRANCH  12  15
ATOM     15  C   UNL     1       4.473   2.078   2.366  1.00  0.00     0.042 A 
ATOM     16  C   UNL     1       2.837   1.764   0.612  1.00  0.00     0.041 A 
ATOM     17  C   UNL     1       2.734   3.148   0.453  1.00  0.00     0.014 A 
ATOM     18  C   UNL     1       3.745   1.223   1.525  1.00  0.00     0.040 A 
ATOM     19  C   UNL     1       3.522   3.993   1.228  1.00  0.00     0.003 A 
ATOM     20  C   UNL     1       4.393   3.458   2.178  1.00  0.00     0.026 A 
BRANCH  16  21
ATOM     21  C   UNL     1       2.021   0.915  -0.267  1.00  0.00     0.251 C 
ATOM     22  N   UNL     1       0.950   0.199   0.190  1.00  0.00    -0.346 N 
ATOM     23  H   UNL     1       0.405  -0.166  -0.545  1.00  0.00     0.164 HD
ATOM     24  O   UNL     1       2.278   0.922  -1.470  1.00  0.00    -0.269 OA
BRANCH  22  25
ATOM     25  C   UNL     1       0.419  -0.156   1.503  1.00  0.00     0.109 C 
ATOM     26  C   UNL     1       0.721   0.782   2.666  1.00  0.00     0.036 C 
BRANCH  25  27
ATOM     27  C   UNL     1      -1.092  -0.335   1.403  1.00  0.00    -0.026 A 
ATOM     28  C   UNL     1      -1.937   0.779   1.258  1.00  0.00     0.006 A 
ATOM     29  C   UNL     1      -1.672  -1.609   1.497  1.00  0.00     0.006 A 
ATOM     30  C   UNL     1      -3.324   0.630   1.257  1.00  0.00     0.000 A 
ATOM     31  C   UNL     1      -3.061  -1.758   1.485  1.00  0.00     0.000 A 
ATOM     32  C   UNL     1      -3.886  -0.638   1.377  1.00  0.00     0.000 A 
ENDBRANCH  25  27
ENDBRANCH  22  25
ENDBRANCH  16  21
ENDBRANCH  12  15
ENDBRANCH   6  11
ENDBRANCH   1   5
BRANCH   3  33
ATOM     33  C   UNL     1       3.392   0.737   6.071  1.00  0.00     0.118 C 
BRANCH  33  34
ATOM     34  C   UNL     1       2.606  -0.347   6.784  1.00  0.00     0.042 C 
BRANCH  34  35
ATOM     35  C   UNL     1       1.628  -1.109   5.897  1.00  0.00     0.118 C 
BRANCH  35  36
ATOM     36  N   UNL     1       2.240  -1.809   4.770  1.00  0.00    -0.352 N 
ATOM     37  C   UNL     1       2.332  -3.159   4.494  1.00  0.00     0.251 C 
ATOM     38  H   UNL     1       2.654  -1.222   4.096  1.00  0.00     0.163 HD
ATOM     39  O   UNL     1       2.933  -3.550   3.508  1.00  0.00    -0.269 OA
BRANCH  37  40
ATOM     40  C   UNL     1       1.740  -4.124   5.444  1.00  0.00     0.039 A 
ATOM     41  C   UNL     1       2.534  -5.156   5.951  1.00  0.00     0.014 A 
ATOM     42  C   UNL     1       0.445  -3.933   5.916  1.00  0.00     0.014 A 
ATOM     43  C   UNL     1       2.077  -5.901   7.043  1.00  0.00     0.010 A 
ATOM     44  C   UNL     1       0.047  -4.585   7.074  1.00  0.00     0.010 A 
ATOM     45  C   UNL     1       0.867  -5.562   7.666  1.00  0.00    -0.014 A 
BRANCH  45  46
ATOM     46  C   UNL     1       0.417  -6.174   8.946  1.00  0.00     0.031 A 
ATOM     47  C   UNL     1      -0.944  -6.808   9.017  1.00  0.00     0.074 A 
ATOM     48  C   UNL     1       1.150  -6.026  10.069  1.00  0.00     0.049 A 
ATOM     49  N   UNL     1      -1.656  -7.137  10.063  1.00  0.00    -0.248 NA
ATOM     50  C   UNL     1      -1.621  -7.045   7.731  1.00  0.00     0.031 C 
ATOM     51  C   UNL     1       2.465  -5.388  10.155  1.00  0.00     0.029 A 
ATOM     52  N   UNL     1       0.873  -6.380  11.368  1.00  0.00    -0.354 N 
ATOM     53  C   UNL     1      -2.884  -7.552   9.565  1.00  0.00     0.074 A 
ATOM     54  C   UNL     1      -2.834  -7.400   8.127  1.00  0.00     0.031 C 
ATOM     55  C   UNL     1       2.888  -5.414  11.429  1.00  0.00     0.029 A 
ATOM     56  C   UNL     1       1.853  -6.017  12.261  1.00  0.00     0.049 A 
ATOM     57  H   UNL     1       0.049  -6.849  11.634  1.00  0.00     0.167 HD
ATOM     58  C   UNL     1      -3.951  -8.034  10.245  1.00  0.00     0.037 A 
ATOM     59  C   UNL     1       1.902  -6.138  13.602  1.00  0.00     0.037 A 
ATOM     60  C   UNL     1      -3.963  -8.265  11.663  1.00  0.00     0.049 A 
ATOM     61  C   UNL     1       0.731  -6.744  14.328  1.00  0.00     0.074 A 
ATOM     62  C   UNL     1      -4.961  -8.828  12.438  1.00  0.00     0.029 A 
ATOM     63  N   UNL     1      -2.911  -7.966  12.517  1.00  0.00    -0.354 N 
ATOM     64  N   UNL     1      -0.414  -7.161  13.844  1.00  0.00    -0.248 NA
ATOM     65  C   UNL     1       0.855  -6.892  15.785  1.00  0.00     0.031 C 
ATOM     66  C   UNL     1      -4.521  -8.853  13.765  1.00  0.00     0.029 A 
ATOM     67  C   UNL     1      -3.236  -8.337  13.810  1.00  0.00     0.049 A 
ATOM     68  H   UNL     1      -2.061  -7.552  12.244  1.00  0.00     0.167 HD
ATOM     69  C   UNL     1      -1.130  -7.651  14.927  1.00  0.00     0.074 A 
ATOM     70  C   UNL     1      -0.292  -7.482  16.096  1.00  0.00     0.031 C 
ATOM     71  C   UNL     1      -2.371  -8.193  14.951  1.00  0.00     0.037 A 
BRANCH  58  72
ATOM     72  C   UNL     1      -5.187  -8.357   9.458  1.00  0.00     0.064 A 
ATOM     73  C   UNL     1      -5.234  -9.442   8.571  1.00  0.00     0.173 A 
ATOM     74  C   UNL     1      -6.346  -7.581   9.609  1.00  0.00     0.173 A 
ATOM     75  F   UNL     1      -4.147 -10.205   8.381  1.00  0.00    -0.203 F 
ATOM     76  C   UNL     1      -6.384  -9.718   7.837  1.00  0.00     0.198 A 
ATOM     77  C   UNL     1      -7.505  -7.879   8.898  1.00  0.00     0.198 A 
ATOM     78  F   UNL     1      -6.357  -6.535  10.449  1.00  0.00    -0.203 F 
ATOM     79  F   UNL     1      -6.386 -10.724   6.952  1.00  0.00    -0.200 F 
ATOM     80  C   UNL     1      -7.520  -8.941   8.005  1.00  0.00     0.200 A 
ATOM     81  F   UNL     1      -8.606  -7.135   9.069  1.00  0.00    -0.200 F 
ATOM     82  F   UNL     1      -8.627  -9.210   7.300  1.00  0.00    -0.200 F 
ENDBRANCH  58  72
BRANCH  59  83
ATOM     83  C   UNL     1       3.111  -5.701  14.347  1.00  0.00     0.064 A 
ATOM     84  C   UNL     1       3.978  -6.646  14.915  1.00  0.00     0.173 A 
ATOM     85  C   UNL     1       3.427  -4.345  14.510  1.00  0.00     0.173 A 
ATOM     86  F   UNL     1       3.706  -7.954  14.804  1.00  0.00    -0.203 F 
ATOM     87  C   UNL     1       5.103  -6.251  15.635  1.00  0.00     0.198 A 
ATOM     88  C   UNL     1       4.567  -3.951  15.209  1.00  0.00     0.198 A 
ATOM     89  F   UNL     1       2.634  -3.402  13.980  1.00  0.00    -0.203 F 
ATOM     90  F   UNL     1       5.891  -7.174  16.204  1.00  0.00    -0.200 F 
ATOM     91  C   UNL     1       5.400  -4.904  15.777  1.00  0.00     0.200 A 
ATOM     92  F   UNL     1       4.857  -2.649  15.335  1.00  0.00    -0.200 F 
ATOM     93  F   UNL     1       6.483  -4.523  16.468  1.00  0.00    -0.200 F 
ENDBRANCH  59  83
BRANCH  71  94
ATOM     94  C   UNL     1      -2.881  -8.702  16.264  1.00  0.00     0.064 A 
ATOM     95  C   UNL     1      -3.357  -7.832  17.254  1.00  0.00     0.173 A 
ATOM     96  C   UNL     1      -2.971 -10.083  16.496  1.00  0.00     0.173 A 
ATOM     97  F   UNL     1      -3.278  -6.504  17.081  1.00  0.00    -0.203 F 
ATOM     98  C   UNL     1      -3.902  -8.328  18.435  1.00  0.00     0.198 A 
ATOM     99  C   UNL     1      -3.537 -10.575  17.668  1.00  0.00     0.198 A 
ATOM    100  F   UNL     1      -2.533 -10.953  15.573  1.00  0.00    -0.203 F 
ATOM    101  F   UNL     1      -4.333  -7.480  19.380  1.00  0.00    -0.200 F 
ATOM    102  C   UNL     1      -4.001  -9.697  18.636  1.00  0.00     0.200 A 
ATOM    103  F   UNL     1      -3.642 -11.897  17.856  1.00  0.00    -0.200 F 
ATOM    104  F   UNL     1      -4.543 -10.172  19.766  1.00  0.00    -0.200 F 
ENDBRANCH  71  94
ENDBRANCH  45  46
ENDBRANCH  37  40
ENDBRANCH  35  36
ENDBRANCH  34  35
ENDBRANCH  33  34
ENDBRANCH   3  33
TORSDOF 15
