REMARK SMILES CC(C)(C)OC(=O)N[C@@H](CC(=O)NCCCNC(=O)c1ccc(-c2c3nc(c(-c4c(F)c(F)c(F)c(F)c4F)c4ccc([nH]4)c(-c4c(F)c(F)c(F)c(F)c4F)c4nc(c(-c5c(F)c(F)c(F)c(F)c5F)c5ccc2[nH]5)C=C4)C=C3)cc1)c1cccnc1
REMARK SMILES IDX 14 1 13 2 11 3 12 4 10 6 9 7 8 8 6 9 7 10 5 12 2 13 1 14
REMARK SMILES IDX 3 15 4 16 83 17 84 18 88 19 85 20 87 21 86 22 15 23 16 24
REMARK SMILES IDX 17 25 18 26 19 28 20 29 21 30 82 31 22 32 81 33 23 34 24 35
REMARK SMILES IDX 25 36 75 37 26 38 80 39 74 40 76 41 27 42 79 43 73 44 72 45
REMARK SMILES IDX 28 47 60 48 40 49 59 50 41 51 44 52 58 53 77 54 42 55 43 56
REMARK SMILES IDX 57 58 78 59 45 60 29 61 30 62 38 63 31 64 32 65 36 66 39 67
REMARK SMILES IDX 33 68 34 69 37 70 35 71 61 72 62 73 70 74 63 75 64 76 68 77
REMARK SMILES IDX 71 78 65 79 66 80 69 81 67 82 46 83 47 84 55 85 48 86 49 87
REMARK SMILES IDX 53 88 56 89 50 90 51 91 54 92 52 93
REMARK H PARENT 13 5 8 11 17 27 76 46 44 57
REMARK Flexibility Score: inf
ROOT
ATOM      1  C   UNL     1       1.930   6.548   0.767  1.00  0.00     0.117 C 
ENDROOT
BRANCH   1   2
ATOM      2  N   UNL     1       2.594   6.771   2.041  1.00  0.00    -0.356 N 
ATOM      3  C   UNL     1       3.140   5.896   2.927  1.00  0.00     0.222 C 
ATOM      4  O   UNL     1       3.717   6.373   3.907  1.00  0.00    -0.275 OA
ATOM      5  H   UNL     1       2.661   7.716   2.307  1.00  0.00     0.163 HD
BRANCH   3   6
ATOM      6  C   UNL     1       3.054   4.396   2.742  1.00  0.00     0.130 C 
BRANCH   6   7
ATOM      7  C   UNL     1       1.762   3.680   3.186  1.00  0.00     0.126 C 
BRANCH   7   8
ATOM      8  N   UNL     1       0.650   3.917   2.283  1.00  0.00    -0.314 N 
ATOM      9  C   UNL     1       0.289   3.270   1.147  1.00  0.00     0.408 C 
ATOM     10  O   UNL     1      -0.575   3.755   0.428  1.00  0.00    -0.225 OA
ATOM     11  H   UNL     1       0.064   4.667   2.536  1.00  0.00     0.167 HD
BRANCH   9  12
ATOM     12  O   UNL     1       0.925   2.094   0.950  1.00  0.00    -0.444 OA
BRANCH  12  13
ATOM     13  C   UNL     1       0.502   1.240  -0.151  1.00  0.00     0.106 C 
ATOM     14  C   UNL     1       1.169  -0.119   0.107  1.00  0.00     0.056 C 
ATOM     15  C   UNL     1       1.013   1.805  -1.480  1.00  0.00     0.056 C 
ATOM     16  C   UNL     1      -1.020   1.013  -0.181  1.00  0.00     0.056 C 
ENDBRANCH  12  13
ENDBRANCH   9  12
ENDBRANCH   7   8
BRANCH   7  17
ATOM     17  C   UNL     1       1.257   3.915   4.597  1.00  0.00    -0.007 A 
ATOM     18  C   UNL     1       0.864   2.825   5.386  1.00  0.00     0.009 A 
ATOM     19  C   UNL     1       0.981   5.180   5.115  1.00  0.00     0.116 A 
ATOM     20  C   UNL     1       0.235   3.034   6.612  1.00  0.00     0.020 A 
ATOM     21  N   UNL     1       0.369   5.413   6.300  1.00  0.00    -0.264 NA
ATOM     22  C   UNL     1       0.010   4.335   7.022  1.00  0.00     0.111 A 
ENDBRANCH   7  17
ENDBRANCH   6   7
ENDBRANCH   3   6
ENDBRANCH   1   2
BRANCH   1  23
ATOM     23  C   UNL     1       0.436   6.858   0.832  1.00  0.00     0.042 C 
BRANCH  23  24
ATOM     24  C   UNL     1       0.091   8.325   1.040  1.00  0.00     0.118 C 
BRANCH  24  25
ATOM     25  N   UNL     1       0.222   9.105  -0.177  1.00  0.00    -0.352 N 
ATOM     26  C   UNL     1      -0.729   9.563  -1.055  1.00  0.00     0.251 C 
ATOM     27  H   UNL     1       1.147   9.347  -0.411  1.00  0.00     0.163 HD
ATOM     28  O   UNL     1      -0.365  10.016  -2.138  1.00  0.00    -0.269 OA
BRANCH  26  29
ATOM     29  C   UNL     1      -2.180   9.514  -0.742  1.00  0.00     0.039 A 
ATOM     30  C   UNL     1      -3.078   9.264  -1.787  1.00  0.00     0.014 A 
ATOM     31  C   UNL     1      -2.680   9.789   0.532  1.00  0.00     0.014 A 
ATOM     32  C   UNL     1      -4.456   9.245  -1.545  1.00  0.00     0.010 A 
ATOM     33  C   UNL     1      -4.047   9.678   0.793  1.00  0.00     0.010 A 
ATOM     34  C   UNL     1      -4.954   9.424  -0.245  1.00  0.00    -0.014 A 
BRANCH  34  35
ATOM     35  C   UNL     1      -6.415   9.385   0.037  1.00  0.00     0.031 A 
ATOM     36  C   UNL     1      -7.117  10.603   0.578  1.00  0.00     0.074 A 
ATOM     37  C   UNL     1      -7.105   8.242  -0.142  1.00  0.00     0.049 A 
ATOM     38  N   UNL     1      -8.364  10.744   0.958  1.00  0.00    -0.248 NA
ATOM     39  C   UNL     1      -6.303  11.818   0.742  1.00  0.00     0.031 C 
ATOM     40  C   UNL     1      -6.539   6.979  -0.616  1.00  0.00     0.029 A 
ATOM     41  N   UNL     1      -8.431   7.953   0.068  1.00  0.00    -0.354 N 
ATOM     42  C   UNL     1      -8.475  12.050   1.419  1.00  0.00     0.074 A 
ATOM     43  C   UNL     1      -7.159  12.643   1.325  1.00  0.00     0.031 C 
ATOM     44  C   UNL     1      -7.512   6.057  -0.680  1.00  0.00     0.029 A 
ATOM     45  C   UNL     1      -8.763   6.650  -0.215  1.00  0.00     0.049 A 
ATOM     46  H   UNL     1      -9.083   8.617   0.389  1.00  0.00     0.167 HD
ATOM     47  C   UNL     1      -9.577  12.705   1.857  1.00  0.00     0.037 A 
ATOM     48  C   UNL     1      -9.938   6.003  -0.101  1.00  0.00     0.037 A 
ATOM     49  C   UNL     1     -10.893  12.125   1.924  1.00  0.00     0.049 A 
ATOM     50  C   UNL     1     -11.149   6.751   0.386  1.00  0.00     0.074 A 
ATOM     51  C   UNL     1     -12.083  12.723   2.301  1.00  0.00     0.029 A 
ATOM     52  N   UNL     1     -11.192  10.808   1.604  1.00  0.00    -0.354 N 
ATOM     53  N   UNL     1     -11.253   8.003   0.762  1.00  0.00    -0.248 NA
ATOM     54  C   UNL     1     -12.410   5.998   0.457  1.00  0.00     0.031 C 
ATOM     55  C   UNL     1     -13.094  11.757   2.251  1.00  0.00     0.029 A 
ATOM     56  C   UNL     1     -12.544  10.571   1.794  1.00  0.00     0.049 A 
ATOM     57  H   UNL     1     -10.539  10.141   1.289  1.00  0.00     0.167 HD
ATOM     58  C   UNL     1     -12.589   8.194   1.089  1.00  0.00     0.074 A 
ATOM     59  C   UNL     1     -13.261   6.934   0.852  1.00  0.00     0.031 C 
ATOM     60  C   UNL     1     -13.202   9.313   1.547  1.00  0.00     0.037 A 
BRANCH  47  61
ATOM     61  C   UNL     1      -9.408  14.132   2.296  1.00  0.00     0.064 A 
ATOM     62  C   UNL     1      -9.126  15.155   1.376  1.00  0.00     0.173 A 
ATOM     63  C   UNL     1      -9.559  14.488   3.644  1.00  0.00     0.173 A 
ATOM     64  F   UNL     1      -8.962  14.868   0.076  1.00  0.00    -0.203 F 
ATOM     65  C   UNL     1      -8.969  16.474   1.796  1.00  0.00     0.198 A 
ATOM     66  C   UNL     1      -9.433  15.813   4.055  1.00  0.00     0.198 A 
ATOM     67  F   UNL     1      -9.837  13.553   4.564  1.00  0.00    -0.203 F 
ATOM     68  F   UNL     1      -8.647  17.424   0.907  1.00  0.00    -0.200 F 
ATOM     69  C   UNL     1      -9.129  16.803   3.133  1.00  0.00     0.200 A 
ATOM     70  F   UNL     1      -9.602  16.132   5.346  1.00  0.00    -0.200 F 
ATOM     71  F   UNL     1      -8.983  18.073   3.534  1.00  0.00    -0.200 F 
ENDBRANCH  47  61
BRANCH  48  72
ATOM     72  C   UNL     1     -10.030   4.567  -0.476  1.00  0.00     0.064 A 
ATOM     73  C   UNL     1     -10.735   4.164  -1.618  1.00  0.00     0.173 A 
ATOM     74  C   UNL     1      -9.414   3.571   0.296  1.00  0.00     0.173 A 
ATOM     75  F   UNL     1     -11.360   5.078  -2.376  1.00  0.00    -0.203 F 
ATOM     76  C   UNL     1     -10.836   2.818  -1.964  1.00  0.00     0.198 A 
ATOM     77  C   UNL     1      -9.492   2.228  -0.067  1.00  0.00     0.198 A 
ATOM     78  F   UNL     1      -8.726   3.905   1.397  1.00  0.00    -0.203 F 
ATOM     79  F   UNL     1     -11.554   2.457  -3.037  1.00  0.00    -0.200 F 
ATOM     80  C   UNL     1     -10.209   1.852  -1.192  1.00  0.00     0.200 A 
ATOM     81  F   UNL     1      -8.874   1.299   0.675  1.00  0.00    -0.200 F 
ATOM     82  F   UNL     1     -10.302   0.559  -1.529  1.00  0.00    -0.200 F 
ENDBRANCH  48  72
BRANCH  60  83
ATOM     83  C   UNL     1     -14.681   9.237   1.791  1.00  0.00     0.064 A 
ATOM     84  C   UNL     1     -15.213   8.521   2.873  1.00  0.00     0.173 A 
ATOM     85  C   UNL     1     -15.574   9.924   0.954  1.00  0.00     0.173 A 
ATOM     86  F   UNL     1     -14.402   7.836   3.694  1.00  0.00    -0.203 F 
ATOM     87  C   UNL     1     -16.587   8.475   3.094  1.00  0.00     0.198 A 
ATOM     88  C   UNL     1     -16.945   9.900   1.195  1.00  0.00     0.198 A 
ATOM     89  F   UNL     1     -15.116  10.629  -0.091  1.00  0.00    -0.203 F 
ATOM     90  F   UNL     1     -17.077   7.747   4.107  1.00  0.00    -0.200 F 
ATOM     91  C   UNL     1     -17.451   9.170   2.260  1.00  0.00     0.200 A 
ATOM     92  F   UNL     1     -17.776  10.583   0.396  1.00  0.00    -0.200 F 
ATOM     93  F   UNL     1     -18.772   9.131   2.479  1.00  0.00    -0.200 F 
ENDBRANCH  60  83
ENDBRANCH  34  35
ENDBRANCH  26  29
ENDBRANCH  24  25
ENDBRANCH  23  24
ENDBRANCH   1  23
TORSDOF 15
