REMARK SMILES COc1cc(C(=O)N[C@H]2CCCC[C@H]2C(=O)NCCCNC(=O)c2ccc(-c3c4nc(c(-c5c(F)c(F)c(F)c(F)c5F)c5ccc([nH]5)c(-c5c(F)c(F)c(F)c(F)c5F)c5nc(c(-c6c(F)c(F)c(F)c(F)c6F)c6ccc3[nH]6)C=C5)C=C4)cc2)cc(Cl)c1OC
REMARK SMILES IDX 18 1 17 2 15 3 16 4 14 6 9 7 10 8 11 9 13 10 12 11 8 12 6 13
REMARK SMILES IDX 7 14 5 16 3 17 4 18 90 19 88 20 87 21 89 22 2 23 1 24 91 25
REMARK SMILES IDX 92 26 19 27 20 28 21 29 22 30 23 32 24 33 25 34 86 35 26 36
REMARK SMILES IDX 85 37 27 38 28 39 29 40 79 41 30 42 84 43 78 44 80 45 31 46
REMARK SMILES IDX 83 47 77 48 76 49 32 51 64 52 44 53 63 54 45 55 48 56 62 57
REMARK SMILES IDX 81 58 46 59 47 60 61 62 82 63 49 64 33 65 34 66 42 67 35 68
REMARK SMILES IDX 36 69 40 70 43 71 37 72 38 73 41 74 39 75 65 76 66 77 74 78
REMARK SMILES IDX 67 79 68 80 72 81 75 82 69 83 70 84 73 85 71 86 50 87 51 88
REMARK SMILES IDX 59 89 52 90 53 91 57 92 60 93 54 94 55 95 58 96 56 97
REMARK H PARENT 17 5 8 15 21 31 80 50 48 61
REMARK Flexibility Score: inf
ROOT
ATOM      1  C   UNL     1       4.651  -5.921  -8.117  1.00  0.00     0.117 C 
ENDROOT
BRANCH   1   2
ATOM      2  N   UNL     1       5.304  -6.045  -6.820  1.00  0.00    -0.356 N 
ATOM      3  C   UNL     1       4.874  -5.815  -5.553  1.00  0.00     0.225 C 
ATOM      4  O   UNL     1       5.713  -5.933  -4.654  1.00  0.00    -0.275 OA
ATOM      5  H   UNL     1       6.237  -6.356  -6.873  1.00  0.00     0.163 HD
BRANCH   3   6
ATOM      6  C   UNL     1       3.440  -5.437  -5.197  1.00  0.00     0.101 C 
ATOM      7  C   UNL     1       3.085  -3.933  -5.333  1.00  0.00     0.094 C 
ATOM      8  C   UNL     1       1.570  -3.667  -5.226  1.00  0.00     0.026 C 
ATOM      9  C   UNL     1       0.714  -4.675  -5.981  1.00  0.00     0.002 C 
ATOM     10  C   UNL     1       2.428  -6.470  -5.722  1.00  0.00     0.015 C 
ATOM     11  C   UNL     1       0.983  -6.077  -5.463  1.00  0.00     0.001 C 
BRANCH   7  12
ATOM     12  N   UNL     1       3.608  -3.245  -6.509  1.00  0.00    -0.349 N 
ATOM     13  C   UNL     1       4.676  -2.407  -6.736  1.00  0.00     0.251 C 
ATOM     14  O   UNL     1       4.652  -1.808  -7.816  1.00  0.00    -0.269 OA
ATOM     15  H   UNL     1       3.079  -3.419  -7.321  1.00  0.00     0.164 HD
BRANCH  13  16
ATOM     16  C   UNL     1       5.872  -2.209  -5.849  1.00  0.00     0.045 A 
ATOM     17  C   UNL     1       8.136  -1.251  -5.692  1.00  0.00     0.163 A 
ATOM     18  C   UNL     1       6.944  -1.472  -6.400  1.00  0.00     0.064 A 
ATOM     19  C   UNL     1       8.268  -1.748  -4.384  1.00  0.00     0.179 A 
ATOM     20  C   UNL     1       7.222  -2.500  -3.838  1.00  0.00     0.087 A 
ATOM     21  C   UNL     1       6.043  -2.721  -4.566  1.00  0.00     0.038 A 
ATOM     22  Cl  UNL     1       7.316  -3.265  -2.287  1.00  0.00    -0.080 Cl
BRANCH  17  23
ATOM     23  O   UNL     1       9.220  -0.570  -6.188  1.00  0.00    -0.493 OA
ATOM     24  C   UNL     1       9.153  -0.078  -7.520  1.00  0.00     0.278 C 
ENDBRANCH  17  23
BRANCH  19  25
ATOM     25  O   UNL     1       9.480  -1.554  -3.767  1.00  0.00    -0.491 OA
ATOM     26  C   UNL     1       9.409  -0.952  -2.477  1.00  0.00     0.278 C 
ENDBRANCH  19  25
ENDBRANCH  13  16
ENDBRANCH   7  12
ENDBRANCH   3   6
ENDBRANCH   1   2
BRANCH   1  27
ATOM     27  C   UNL     1       5.378  -4.948  -9.036  1.00  0.00     0.042 C 
BRANCH  27  28
ATOM     28  C   UNL     1       6.745  -5.423  -9.502  1.00  0.00     0.118 C 
BRANCH  28  29
ATOM     29  N   UNL     1       6.677  -6.167 -10.748  1.00  0.00    -0.352 N 
ATOM     30  C   UNL     1       6.856  -5.761 -12.047  1.00  0.00     0.251 C 
ATOM     31  H   UNL     1       6.469  -7.124 -10.643  1.00  0.00     0.163 HD
ATOM     32  O   UNL     1       6.542  -6.532 -12.958  1.00  0.00    -0.269 OA
BRANCH  30  33
ATOM     33  C   UNL     1       7.392  -4.420 -12.390  1.00  0.00     0.039 A 
ATOM     34  C   UNL     1       6.900  -3.774 -13.531  1.00  0.00     0.014 A 
ATOM     35  C   UNL     1       8.425  -3.823 -11.666  1.00  0.00     0.014 A 
ATOM     36  C   UNL     1       7.405  -2.525 -13.911  1.00  0.00     0.010 A 
ATOM     37  C   UNL     1       8.859  -2.536 -11.986  1.00  0.00     0.010 A 
ATOM     38  C   UNL     1       8.373  -1.881 -13.126  1.00  0.00    -0.014 A 
BRANCH  38  39
ATOM     39  C   UNL     1       8.939  -0.558 -13.506  1.00  0.00     0.031 A 
ATOM     40  C   UNL     1      10.412  -0.429 -13.800  1.00  0.00     0.074 A 
ATOM     41  C   UNL     1       8.157   0.538 -13.526  1.00  0.00     0.049 A 
ATOM     42  N   UNL     1      11.126   0.648 -14.018  1.00  0.00    -0.248 NA
ATOM     43  C   UNL     1      11.192  -1.676 -13.818  1.00  0.00     0.031 C 
ATOM     44  C   UNL     1       6.724   0.563 -13.230  1.00  0.00     0.029 A 
ATOM     45  N   UNL     1       8.463   1.851 -13.795  1.00  0.00    -0.354 N 
ATOM     46  C   UNL     1      12.437   0.210 -14.159  1.00  0.00     0.074 A 
ATOM     47  C   UNL     1      12.428  -1.222 -13.960  1.00  0.00     0.031 C 
ATOM     48  C   UNL     1       6.272   1.821 -13.352  1.00  0.00     0.029 A 
ATOM     49  C   UNL     1       7.387   2.699 -13.694  1.00  0.00     0.049 A 
ATOM     50  H   UNL     1       9.367   2.154 -14.037  1.00  0.00     0.167 HD
ATOM     51  C   UNL     1      13.546   0.932 -14.450  1.00  0.00     0.037 A 
ATOM     52  C   UNL     1       7.312   4.035 -13.848  1.00  0.00     0.037 A 
ATOM     53  C   UNL     1      13.549   2.348 -14.705  1.00  0.00     0.049 A 
ATOM     54  C   UNL     1       8.553   4.812 -14.195  1.00  0.00     0.074 A 
ATOM     55  C   UNL     1      14.611   3.158 -15.068  1.00  0.00     0.029 A 
ATOM     56  N   UNL     1      12.429   3.163 -14.633  1.00  0.00    -0.354 N 
ATOM     57  N   UNL     1       9.779   4.381 -14.366  1.00  0.00    -0.248 NA
ATOM     58  C   UNL     1       8.399   6.263 -14.375  1.00  0.00     0.031 C 
ATOM     59  C   UNL     1      14.140   4.470 -15.186  1.00  0.00     0.029 A 
ATOM     60  C   UNL     1      12.777   4.470 -14.936  1.00  0.00     0.049 A 
ATOM     61  H   UNL     1      11.522   2.859 -14.401  1.00  0.00     0.167 HD
ATOM     62  C   UNL     1      10.533   5.497 -14.701  1.00  0.00     0.074 A 
ATOM     63  C   UNL     1       9.627   6.625 -14.719  1.00  0.00     0.031 C 
ATOM     64  C   UNL     1      11.859   5.578 -14.970  1.00  0.00     0.037 A 
BRANCH  51  65
ATOM     65  C   UNL     1      14.854   0.198 -14.516  1.00  0.00     0.064 A 
ATOM     66  C   UNL     1      15.149  -0.689 -15.562  1.00  0.00     0.173 A 
ATOM     67  C   UNL     1      15.837   0.409 -13.537  1.00  0.00     0.173 A 
ATOM     68  F   UNL     1      14.239  -0.934 -16.516  1.00  0.00    -0.203 F 
ATOM     69  C   UNL     1      16.368  -1.361 -15.608  1.00  0.00     0.198 A 
ATOM     70  C   UNL     1      17.066  -0.242 -13.603  1.00  0.00     0.198 A 
ATOM     71  F   UNL     1      15.609   1.253 -12.519  1.00  0.00    -0.203 F 
ATOM     72  F   UNL     1      16.607  -2.242 -16.590  1.00  0.00    -0.200 F 
ATOM     73  C   UNL     1      17.327  -1.133 -14.634  1.00  0.00     0.200 A 
ATOM     74  F   UNL     1      17.997  -0.011 -12.668  1.00  0.00    -0.200 F 
ATOM     75  F   UNL     1      18.501  -1.777 -14.683  1.00  0.00    -0.200 F 
ENDBRANCH  51  65
BRANCH  52  76
ATOM     76  C   UNL     1       6.004   4.725 -13.700  1.00  0.00     0.064 A 
ATOM     77  C   UNL     1       5.345   5.260 -14.816  1.00  0.00     0.173 A 
ATOM     78  C   UNL     1       5.391   4.869 -12.447  1.00  0.00     0.173 A 
ATOM     79  F   UNL     1       5.905   5.168 -16.031  1.00  0.00    -0.203 F 
ATOM     80  C   UNL     1       4.130   5.927 -14.682  1.00  0.00     0.198 A 
ATOM     81  C   UNL     1       4.163   5.514 -12.318  1.00  0.00     0.198 A 
ATOM     82  F   UNL     1       5.981   4.374 -11.350  1.00  0.00    -0.203 F 
ATOM     83  F   UNL     1       3.542   6.467 -15.758  1.00  0.00    -0.200 F 
ATOM     84  C   UNL     1       3.537   6.049 -13.434  1.00  0.00     0.200 A 
ATOM     85  F   UNL     1       3.587   5.621 -11.113  1.00  0.00    -0.200 F 
ATOM     86  F   UNL     1       2.366   6.689 -13.306  1.00  0.00    -0.200 F 
ENDBRANCH  52  76
BRANCH  64  87
ATOM     87  C   UNL     1      12.405   6.921 -15.353  1.00  0.00     0.064 A 
ATOM     88  C   UNL     1      12.589   7.938 -14.406  1.00  0.00     0.173 A 
ATOM     89  C   UNL     1      12.798   7.173 -16.676  1.00  0.00     0.173 A 
ATOM     90  F   UNL     1      12.216   7.749 -13.131  1.00  0.00    -0.203 F 
ATOM     91  C   UNL     1      13.131   9.167 -14.774  1.00  0.00     0.198 A 
ATOM     92  C   UNL     1      13.362   8.394 -17.035  1.00  0.00     0.198 A 
ATOM     93  F   UNL     1      12.647   6.230 -17.618  1.00  0.00    -0.203 F 
ATOM     94  F   UNL     1      13.264  10.139 -13.860  1.00  0.00    -0.200 F 
ATOM     95  C   UNL     1      13.523   9.391 -16.085  1.00  0.00     0.200 A 
ATOM     96  F   UNL     1      13.751   8.605 -18.300  1.00  0.00    -0.200 F 
ATOM     97  F   UNL     1      14.053  10.572 -16.435  1.00  0.00    -0.200 F 
ENDBRANCH  64  87
ENDBRANCH  38  39
ENDBRANCH  30  33
ENDBRANCH  28  29
ENDBRANCH  27  28
ENDBRANCH   1  27
TORSDOF 14
