REMARK SMILES O=C(N/N=C/c1ccc(C(=O)NCCCNC(=O)c2ccc(-c3c4nc(c(-c5c(F)c(F)c(F)c(F)c5F)c5ccc([nH]5)c(-c5c(F)c(F)c(F)c(F)c5F)c5nc(c(-c6c(F)c(F)c(F)c(F)c6F)c6ccc3[nH]6)C=C5)C=C4)cc2)cc1)C(=O)Nc1cccc(Br)c1
REMARK SMILES IDX 13 1 12 2 10 3 11 4 9 6 6 7 7 8 83 9 8 10 82 11 5 12 4 13
REMARK SMILES IDX 3 14 1 15 2 16 84 18 85 19 86 20 87 22 88 23 93 24 89 25
REMARK SMILES IDX 91 26 90 27 92 28 14 29 15 30 16 31 17 32 18 34 19 35 20 36
REMARK SMILES IDX 81 37 21 38 80 39 22 40 23 41 24 42 74 43 25 44 79 45 73 46
REMARK SMILES IDX 75 47 26 48 78 49 72 50 71 51 27 53 59 54 39 55 58 56 40 57
REMARK SMILES IDX 43 58 57 59 76 60 41 61 42 62 56 64 77 65 44 66 28 67 29 68
REMARK SMILES IDX 37 69 30 70 31 71 35 72 38 73 32 74 33 75 36 76 34 77 60 78
REMARK SMILES IDX 61 79 69 80 62 81 63 82 67 83 70 84 64 85 65 86 68 87 66 88
REMARK SMILES IDX 45 89 46 90 54 91 47 92 48 93 52 94 55 95 49 96 50 97 53 98
REMARK SMILES IDX 51 99
REMARK H PARENT 12 5 3 17 86 21 16 33 75 52 43 63
REMARK Flexibility Score: inf
ROOT
ATOM      1  C   UNL     1      11.209   1.766   2.069  1.00  0.00     0.118 C 
ENDROOT
BRANCH   1   2
ATOM      2  N   UNL     1      11.746   0.734   1.197  1.00  0.00    -0.352 N 
ATOM      3  C   UNL     1      11.112  -0.277   0.519  1.00  0.00     0.251 C 
ATOM      4  O   UNL     1      11.771  -1.054  -0.166  1.00  0.00    -0.269 OA
ATOM      5  H   UNL     1      12.722   0.764   1.073  1.00  0.00     0.163 HD
BRANCH   3   6
ATOM      6  C   UNL     1       9.637  -0.341   0.492  1.00  0.00     0.039 A 
ATOM      7  C   UNL     1       6.636   0.276   0.159  1.00  0.00    -0.005 A 
ATOM      8  C   UNL     1       7.638  -0.233  -0.861  1.00  0.00     0.010 A 
ATOM      9  C   UNL     1       7.420  -0.005   1.423  1.00  0.00     0.010 A 
ATOM     10  C   UNL     1       9.024  -0.501  -0.721  1.00  0.00     0.014 A 
ATOM     11  C   UNL     1       8.815  -0.239   1.586  1.00  0.00     0.014 A 
BRANCH   7  12
ATOM     12  C   UNL     1       4.721   1.165  -0.139  1.00  0.00     0.141 C 
ATOM     13  N   UNL     1       3.556   1.286   0.581  1.00  0.00    -0.180 NA
BRANCH  13  14
ATOM     14  N   UNL     1       2.424   1.258  -0.164  1.00  0.00    -0.239 N 
ATOM     15  O   UNL     1       0.496   0.127  -0.367  1.00  0.00    -0.262 OA
ATOM     16  C   UNL     1       1.729   0.063  -0.360  1.00  0.00     0.329 C 
ATOM     17  H   UNL     1       2.088   2.089  -0.571  1.00  0.00     0.194 HD
BRANCH  16  18
ATOM     18  C   UNL     1       2.379  -1.321  -0.670  1.00  0.00     0.315 C 
ATOM     19  O   UNL     1       1.619  -2.217  -1.057  1.00  0.00    -0.263 OA
ATOM     20  N   UNL     1       3.729  -1.648  -0.673  1.00  0.00    -0.318 N 
ATOM     21  H   UNL     1       3.951  -2.567  -0.944  1.00  0.00     0.170 HD
BRANCH  20  22
ATOM     22  C   UNL     1       4.803  -0.834  -0.339  1.00  0.00     0.042 A 
ATOM     23  C   UNL     1       5.442   0.162  -1.723  1.00  0.00     0.026 A 
ATOM     24  C   UNL     1       4.902  -0.227   1.375  1.00  0.00     0.041 A 
ATOM     25  C   UNL     1       6.238   1.788  -1.375  1.00  0.00     0.003 A 
ATOM     26  C   UNL     1       5.572   1.463   1.686  1.00  0.00     0.020 A 
ATOM     27  C   UNL     1       6.271   2.429   0.322  1.00  0.00     0.016 A 
ATOM     28  Br  UNL     1       5.395   2.254   3.401  1.00  0.00    -0.051 Br
ENDBRANCH  20  22
ENDBRANCH  16  18
ENDBRANCH  13  14
ENDBRANCH   7  12
ENDBRANCH   3   6
ENDBRANCH   1   2
BRANCH   1  29
ATOM     29  C   UNL     1      11.316   1.340   3.529  1.00  0.00     0.042 C 
BRANCH  29  30
ATOM     30  C   UNL     1      12.756   1.255   4.012  1.00  0.00     0.118 C 
BRANCH  30  31
ATOM     31  N   UNL     1      13.344   2.571   4.201  1.00  0.00    -0.352 N 
ATOM     32  C   UNL     1      13.857   3.133   5.342  1.00  0.00     0.251 C 
ATOM     33  H   UNL     1      13.380   3.138   3.397  1.00  0.00     0.163 HD
ATOM     34  O   UNL     1      14.099   4.335   5.377  1.00  0.00    -0.269 OA
BRANCH  32  35
ATOM     35  C   UNL     1      14.101   2.294   6.535  1.00  0.00     0.039 A 
ATOM     36  C   UNL     1      13.789   2.807   7.796  1.00  0.00     0.014 A 
ATOM     37  C   UNL     1      14.656   1.016   6.415  1.00  0.00     0.014 A 
ATOM     38  C   UNL     1      13.990   2.020   8.932  1.00  0.00     0.010 A 
ATOM     39  C   UNL     1      14.769   0.201   7.535  1.00  0.00     0.010 A 
ATOM     40  C   UNL     1      14.457   0.702   8.807  1.00  0.00    -0.014 A 
BRANCH  40  41
ATOM     41  C   UNL     1      14.656  -0.160   9.998  1.00  0.00     0.031 A 
ATOM     42  C   UNL     1      16.035  -0.647  10.348  1.00  0.00     0.074 A 
ATOM     43  C   UNL     1      13.592  -0.548  10.727  1.00  0.00     0.049 A 
ATOM     44  N   UNL     1      16.410  -1.458  11.305  1.00  0.00    -0.248 NA
ATOM     45  C   UNL     1      17.138  -0.185   9.490  1.00  0.00     0.031 C 
ATOM     46  C   UNL     1      12.202  -0.178  10.456  1.00  0.00     0.029 A 
ATOM     47  N   UNL     1      13.513  -1.347  11.840  1.00  0.00    -0.354 N 
ATOM     48  C   UNL     1      17.782  -1.613  11.152  1.00  0.00     0.074 A 
ATOM     49  C   UNL     1      18.165  -0.863   9.977  1.00  0.00     0.031 C 
ATOM     50  C   UNL     1      11.411  -0.727  11.392  1.00  0.00     0.029 A 
ATOM     51  C   UNL     1      12.231  -1.519  12.303  1.00  0.00     0.049 A 
ATOM     52  H   UNL     1      14.300  -1.757  12.265  1.00  0.00     0.167 HD
ATOM     53  C   UNL     1      18.648  -2.297  11.937  1.00  0.00     0.037 A 
ATOM     54  C   UNL     1      11.772  -2.240  13.343  1.00  0.00     0.037 A 
ATOM     55  C   UNL     1      18.262  -3.018  13.121  1.00  0.00     0.049 A 
ATOM     56  C   UNL     1      12.755  -2.996  14.197  1.00  0.00     0.074 A 
ATOM     57  C   UNL     1      19.066  -3.696  14.020  1.00  0.00     0.029 A 
ATOM     58  N   UNL     1      16.956  -3.156  13.569  1.00  0.00    -0.354 N 
ATOM     59  N   UNL     1      14.058  -3.079  14.084  1.00  0.00    -0.248 NA
ATOM     60  C   UNL     1      12.202  -3.752  15.329  1.00  0.00     0.031 C 
ATOM     61  C   UNL     1      18.242  -4.284  14.985  1.00  0.00     0.029 A 
ATOM     62  C   UNL     1      16.930  -3.927  14.720  1.00  0.00     0.049 A 
ATOM     63  H   UNL     1      16.165  -2.763  13.134  1.00  0.00     0.167 HD
ATOM     64  C   UNL     1      14.484  -3.870  15.142  1.00  0.00     0.074 A 
ATOM     65  C   UNL     1      13.301  -4.228  15.897  1.00  0.00     0.031 C 
ATOM     66  C   UNL     1      15.741  -4.265  15.461  1.00  0.00     0.037 A 
BRANCH  53  67
ATOM     67  C   UNL     1      20.097  -2.293  11.543  1.00  0.00     0.064 A 
ATOM     68  C   UNL     1      20.880  -1.131  11.623  1.00  0.00     0.173 A 
ATOM     69  C   UNL     1      20.720  -3.473  11.108  1.00  0.00     0.173 A 
ATOM     70  F   UNL     1      20.331   0.027  12.020  1.00  0.00    -0.203 F 
ATOM     71  C   UNL     1      22.223  -1.143  11.253  1.00  0.00     0.198 A 
ATOM     72  C   UNL     1      22.071  -3.489  10.770  1.00  0.00     0.198 A 
ATOM     73  F   UNL     1      20.021  -4.614  11.016  1.00  0.00    -0.203 F 
ATOM     74  F   UNL     1      22.935  -0.008  11.287  1.00  0.00    -0.200 F 
ATOM     75  C   UNL     1      22.819  -2.323  10.835  1.00  0.00     0.200 A 
ATOM     76  F   UNL     1      22.649  -4.633  10.379  1.00  0.00    -0.200 F 
ATOM     77  F   UNL     1      24.113  -2.334  10.486  1.00  0.00    -0.200 F 
ENDBRANCH  53  67
BRANCH  54  78
ATOM     78  C   UNL     1      10.318  -2.260  13.650  1.00  0.00     0.064 A 
ATOM     79  C   UNL     1       9.818  -1.642  14.805  1.00  0.00     0.173 A 
ATOM     80  C   UNL     1       9.400  -2.894  12.801  1.00  0.00     0.173 A 
ATOM     81  F   UNL     1      10.659  -1.038  15.658  1.00  0.00    -0.203 F 
ATOM     82  C   UNL     1       8.459  -1.678  15.111  1.00  0.00     0.198 A 
ATOM     83  C   UNL     1       8.037  -2.903  13.092  1.00  0.00     0.198 A 
ATOM     84  F   UNL     1       9.825  -3.494  11.679  1.00  0.00    -0.203 F 
ATOM     85  F   UNL     1       8.015  -1.120  16.245  1.00  0.00    -0.200 F 
ATOM     86  C   UNL     1       7.569  -2.303  14.251  1.00  0.00     0.200 A 
ATOM     87  F   UNL     1       7.179  -3.494  12.250  1.00  0.00    -0.200 F 
ATOM     88  F   UNL     1       6.261  -2.333  14.543  1.00  0.00    -0.200 F 
ENDBRANCH  54  78
BRANCH  66  89
ATOM     89  C   UNL     1      15.906  -5.097  16.699  1.00  0.00     0.064 A 
ATOM     90  C   UNL     1      15.478  -6.431  16.754  1.00  0.00     0.173 A 
ATOM     91  C   UNL     1      16.540  -4.563  17.832  1.00  0.00     0.173 A 
ATOM     92  F   UNL     1      14.853  -6.983  15.702  1.00  0.00    -0.203 F 
ATOM     93  C   UNL     1      15.653  -7.192  17.906  1.00  0.00     0.198 A 
ATOM     94  C   UNL     1      16.743  -5.337  18.971  1.00  0.00     0.198 A 
ATOM     95  F   UNL     1      16.976  -3.294  17.829  1.00  0.00    -0.203 F 
ATOM     96  F   UNL     1      15.191  -8.449  17.953  1.00  0.00    -0.200 F 
ATOM     97  C   UNL     1      16.293  -6.647  19.010  1.00  0.00     0.200 A 
ATOM     98  F   UNL     1      17.375  -4.814  20.031  1.00  0.00    -0.200 F 
ATOM     99  F   UNL     1      16.468  -7.384  20.115  1.00  0.00    -0.200 F 
ENDBRANCH  66  89
ENDBRANCH  40  41
ENDBRANCH  32  35
ENDBRANCH  30  31
ENDBRANCH  29  30
ENDBRANCH   1  29
TORSDOF 14
