REMARK SMILES COCCC(=O)N[C@@H](Cc1c[nH]c2ccccc12)C(=O)NCCCNC(=O)c1ccc(-c2c3nc(c(-c4c(F)c(F)c(F)c(F)c4F)c4ccc([nH]4)c(-c4c(F)c(F)c(F)c(F)c4F)c4nc(c(-c5c(F)c(F)c(F)c(F)c5F)c5ccc2[nH]5)C=C4)C=C3)cc1
REMARK SMILES IDX 22 1 21 2 19 3 20 4 8 6 7 7 5 8 6 9 4 11 3 12 2 13 1 14 9 15
REMARK SMILES IDX 10 16 11 17 18 18 12 19 13 20 17 21 14 23 16 24 15 25 23 26
REMARK SMILES IDX 24 27 25 28 26 29 27 31 28 32 29 33 90 34 30 35 89 36 31 37
REMARK SMILES IDX 32 38 33 39 83 40 34 41 88 42 82 43 84 44 35 45 87 46 81 47
REMARK SMILES IDX 80 48 36 50 68 51 48 52 67 53 49 54 52 55 66 56 85 57 50 58
REMARK SMILES IDX 51 59 65 61 86 62 53 63 37 64 38 65 46 66 39 67 40 68 44 69
REMARK SMILES IDX 47 70 41 71 42 72 45 73 43 74 69 75 70 76 78 77 71 78 72 79
REMARK SMILES IDX 76 80 79 81 73 82 74 83 77 84 75 85 54 86 55 87 63 88 56 89
REMARK SMILES IDX 57 90 61 91 64 92 58 93 59 94 62 95 60 96
REMARK H PARENT 21 5 7 10 12 22 25 30 84 49 52 60
REMARK Flexibility Score: inf
ROOT
ATOM      1  C   UNL     1      -0.732  -1.229   3.457  1.00  0.00     0.117 C 
ENDROOT
BRANCH   1   2
ATOM      2  N   UNL     1      -1.759  -0.635   2.647  1.00  0.00    -0.354 N 
ATOM      3  C   UNL     1      -1.667  -0.330   1.316  1.00  0.00     0.242 C 
ATOM      4  O   UNL     1      -2.720  -0.097   0.715  1.00  0.00    -0.273 OA
ATOM      5  H   UNL     1      -2.612  -0.426   3.093  1.00  0.00     0.163 HD
BRANCH   3   6
ATOM      6  C   UNL     1      -0.301  -0.279   0.574  1.00  0.00     0.175 C 
BRANCH   6   7
ATOM      7  N   UNL     1       0.593   0.692   1.225  1.00  0.00    -0.344 N 
ATOM      8  C   UNL     1       0.790   2.008   0.937  1.00  0.00     0.222 C 
ATOM      9  O   UNL     1       1.463   2.683   1.718  1.00  0.00    -0.275 OA
ATOM     10  H   UNL     1       1.124   0.340   1.976  1.00  0.00     0.164 HD
BRANCH   8  11
ATOM     11  C   UNL     1       0.266   2.593  -0.350  1.00  0.00     0.128 C 
BRANCH  11  12
ATOM     12  C   UNL     1       1.291   2.429  -1.466  1.00  0.00     0.169 C 
BRANCH  12  13
ATOM     13  O   UNL     1       1.601   1.052  -1.687  1.00  0.00    -0.384 OA
ATOM     14  C   UNL     1       2.885   0.682  -1.187  1.00  0.00     0.194 C 
ENDBRANCH  12  13
ENDBRANCH  11  12
ENDBRANCH   8  11
ENDBRANCH   6   7
BRANCH   6  15
ATOM     15  C   UNL     1       0.314  -1.652   0.195  1.00  0.00     0.072 C 
BRANCH  15  16
ATOM     16  C   UNL     1       1.073  -2.458   1.221  1.00  0.00    -0.020 A 
ATOM     17  C   UNL     1       2.129  -2.062   2.028  1.00  0.00     0.087 A 
ATOM     18  C   UNL     1       0.846  -3.844   1.530  1.00  0.00     0.003 A 
ATOM     19  N   UNL     1       2.354  -3.047   2.957  1.00  0.00    -0.361 N 
ATOM     20  C   UNL     1       1.584  -4.147   2.675  1.00  0.00     0.046 A 
ATOM     21  C   UNL     1       0.048  -4.859   0.964  1.00  0.00     0.010 A 
ATOM     22  H   UNL     1       2.978  -2.974   3.716  1.00  0.00     0.166 HD
ATOM     23  C   UNL     1       1.491  -5.378   3.335  1.00  0.00     0.026 A 
ATOM     24  C   UNL     1      -0.003  -6.119   1.571  1.00  0.00     0.001 A 
ATOM     25  C   UNL     1       0.686  -6.363   2.755  1.00  0.00     0.002 A 
ENDBRANCH  15  16
ENDBRANCH   6  15
ENDBRANCH   3   6
ENDBRANCH   1   2
BRANCH   1  26
ATOM     26  C   UNL     1      -0.556  -0.648   4.837  1.00  0.00     0.042 C 
BRANCH  26  27
ATOM     27  C   UNL     1      -1.433  -1.304   5.877  1.00  0.00     0.118 C 
BRANCH  27  28
ATOM     28  N   UNL     1      -1.180  -2.735   6.036  1.00  0.00    -0.352 N 
ATOM     29  C   UNL     1      -0.844  -3.480   7.143  1.00  0.00     0.251 C 
ATOM     30  H   UNL     1      -1.264  -3.257   5.206  1.00  0.00     0.163 HD
ATOM     31  O   UNL     1      -0.563  -4.662   7.017  1.00  0.00    -0.269 OA
BRANCH  29  32
ATOM     32  C   UNL     1      -0.772  -2.844   8.478  1.00  0.00     0.039 A 
ATOM     33  C   UNL     1       0.206  -3.276   9.378  1.00  0.00     0.014 A 
ATOM     34  C   UNL     1      -1.639  -1.815   8.840  1.00  0.00     0.014 A 
ATOM     35  C   UNL     1       0.362  -2.615  10.597  1.00  0.00     0.010 A 
ATOM     36  C   UNL     1      -1.382  -1.063   9.975  1.00  0.00     0.010 A 
ATOM     37  C   UNL     1      -0.398  -1.470  10.882  1.00  0.00    -0.014 A 
BRANCH  37  38
ATOM     38  C   UNL     1      -0.214  -0.706  12.139  1.00  0.00     0.031 A 
ATOM     39  C   UNL     1      -1.374  -0.529  13.083  1.00  0.00     0.074 A 
ATOM     40  C   UNL     1       0.971  -0.118  12.396  1.00  0.00     0.049 A 
ATOM     41  N   UNL     1      -1.439   0.155  14.197  1.00  0.00    -0.248 NA
ATOM     42  C   UNL     1      -2.646  -1.166  12.701  1.00  0.00     0.031 C 
ATOM     43  C   UNL     1       2.143  -0.150  11.518  1.00  0.00     0.029 A 
ATOM     44  N   UNL     1       1.384   0.626  13.471  1.00  0.00    -0.354 N 
ATOM     45  C   UNL     1      -2.756   0.050  14.625  1.00  0.00     0.074 A 
ATOM     46  C   UNL     1      -3.475  -0.693  13.616  1.00  0.00     0.031 C 
ATOM     47  C   UNL     1       3.155   0.503  12.110  1.00  0.00     0.029 A 
ATOM     48  C   UNL     1       2.694   1.031  13.389  1.00  0.00     0.049 A 
ATOM     49  H   UNL     1       0.797   0.849  14.229  1.00  0.00     0.167 HD
ATOM     50  C   UNL     1      -3.310   0.497  15.776  1.00  0.00     0.037 A 
ATOM     51  C   UNL     1       3.437   1.743  14.257  1.00  0.00     0.037 A 
ATOM     52  C   UNL     1      -2.575   1.190  16.799  1.00  0.00     0.049 A 
ATOM     53  C   UNL     1       2.811   2.193  15.549  1.00  0.00     0.074 A 
ATOM     54  C   UNL     1      -3.014   1.621  18.037  1.00  0.00     0.029 A 
ATOM     55  N   UNL     1      -1.238   1.546  16.700  1.00  0.00    -0.354 N 
ATOM     56  N   UNL     1       1.585   2.017  15.981  1.00  0.00    -0.248 NA
ATOM     57  C   UNL     1       3.676   2.929  16.479  1.00  0.00     0.031 C 
ATOM     58  C   UNL     1      -1.953   2.275  18.672  1.00  0.00     0.029 A 
ATOM     59  C   UNL     1      -0.839   2.207  17.850  1.00  0.00     0.049 A 
ATOM     60  H   UNL     1      -0.658   1.357  15.927  1.00  0.00     0.167 HD
ATOM     61  C   UNL     1       1.538   2.598  17.240  1.00  0.00     0.074 A 
ATOM     62  C   UNL     1       2.865   3.110  17.512  1.00  0.00     0.031 C 
ATOM     63  C   UNL     1       0.491   2.704  18.096  1.00  0.00     0.037 A 
BRANCH  50  64
ATOM     64  C   UNL     1      -4.772   0.231  15.992  1.00  0.00     0.064 A 
ATOM     65  C   UNL     1      -5.262  -1.070  16.195  1.00  0.00     0.173 A 
ATOM     66  C   UNL     1      -5.695   1.287  16.009  1.00  0.00     0.173 A 
ATOM     67  F   UNL     1      -4.425  -2.118  16.171  1.00  0.00    -0.203 F 
ATOM     68  C   UNL     1      -6.623  -1.305  16.369  1.00  0.00     0.198 A 
ATOM     69  C   UNL     1      -7.051   1.051  16.219  1.00  0.00     0.198 A 
ATOM     70  F   UNL     1      -5.282   2.549  15.822  1.00  0.00    -0.203 F 
ATOM     71  F   UNL     1      -7.073  -2.561  16.499  1.00  0.00    -0.200 F 
ATOM     72  C   UNL     1      -7.516  -0.245  16.389  1.00  0.00     0.200 A 
ATOM     73  F   UNL     1      -7.912   2.078  16.248  1.00  0.00    -0.200 F 
ATOM     74  F   UNL     1      -8.825  -0.472  16.562  1.00  0.00    -0.200 F 
ENDBRANCH  50  64
BRANCH  51  75
ATOM     75  C   UNL     1       4.863   2.031  13.955  1.00  0.00     0.064 A 
ATOM     76  C   UNL     1       5.890   1.419  14.688  1.00  0.00     0.173 A 
ATOM     77  C   UNL     1       5.232   2.920  12.935  1.00  0.00     0.173 A 
ATOM     78  F   UNL     1       5.588   0.573  15.684  1.00  0.00    -0.203 F 
ATOM     79  C   UNL     1       7.229   1.703  14.429  1.00  0.00     0.198 A 
ATOM     80  C   UNL     1       6.572   3.182  12.658  1.00  0.00     0.198 A 
ATOM     81  F   UNL     1       4.289   3.525  12.197  1.00  0.00    -0.203 F 
ATOM     82  F   UNL     1       8.188   1.140  15.177  1.00  0.00    -0.200 F 
ATOM     83  C   UNL     1       7.570   2.580  13.411  1.00  0.00     0.200 A 
ATOM     84  F   UNL     1       6.898   4.017  11.662  1.00  0.00    -0.200 F 
ATOM     85  F   UNL     1       8.858   2.851  13.161  1.00  0.00    -0.200 F 
ENDBRANCH  51  75
BRANCH  63  86
ATOM     86  C   UNL     1       0.752   3.373  19.413  1.00  0.00     0.064 A 
ATOM     87  C   UNL     1       0.979   4.755  19.502  1.00  0.00     0.173 A 
ATOM     88  C   UNL     1       0.751   2.627  20.601  1.00  0.00     0.173 A 
ATOM     89  F   UNL     1       1.004   5.508  18.393  1.00  0.00    -0.203 F 
ATOM     90  C   UNL     1       1.230   5.359  20.731  1.00  0.00     0.198 A 
ATOM     91  C   UNL     1       0.970   3.240  21.830  1.00  0.00     0.198 A 
ATOM     92  F   UNL     1       0.530   1.304  20.569  1.00  0.00    -0.203 F 
ATOM     93  F   UNL     1       1.502   6.670  20.787  1.00  0.00    -0.200 F 
ATOM     94  C   UNL     1       1.219   4.603  21.893  1.00  0.00     0.200 A 
ATOM     95  F   UNL     1       0.944   2.511  22.954  1.00  0.00    -0.200 F 
ATOM     96  F   UNL     1       1.458   5.187  23.076  1.00  0.00    -0.200 F 
ENDBRANCH  63  86
ENDBRANCH  37  38
ENDBRANCH  29  32
ENDBRANCH  27  28
ENDBRANCH  26  27
ENDBRANCH   1  26
TORSDOF 16
