REMARK SMILES C[C@H]1N=c2ccc(OC(F)(F)F)cc2=C1CCN1C(=O)c2ccc(C(=O)NCCCNC(=O)c3ccc(-c4c5nc(c(-c6c(F)c(F)c(F)c(F)c6F)c6ccc([nH]6)c(-c6c(F)c(F)c(F)c(F)c6F)c6nc(c(-c7c(F)c(F)c(F)c(F)c7F)c7ccc4[nH]7)C=C6)C=C5)cc3)cc2C1=O
REMARK SMILES IDX 25 1 26 2 27 3 24 5 18 6 19 7 99 8 20 9 21 10 98 11 100 12
REMARK SMILES IDX 22 13 97 14 23 15 17 16 16 17 15 18 1 19 2 20 3 21 4 22
REMARK SMILES IDX 14 23 5 24 13 25 6 26 7 27 8 28 9 29 10 30 11 31 12 32 28 33
REMARK SMILES IDX 29 34 30 35 31 36 32 37 33 39 34 40 35 41 96 42 36 43 95 44
REMARK SMILES IDX 37 45 38 46 39 47 89 48 40 49 94 50 88 51 90 52 41 53 93 54
REMARK SMILES IDX 87 55 86 56 42 58 74 59 54 60 73 61 55 62 58 63 72 64 91 65
REMARK SMILES IDX 56 66 57 67 71 69 92 70 59 71 43 72 44 73 52 74 45 75 46 76
REMARK SMILES IDX 50 77 53 78 47 79 48 80 51 81 49 82 75 83 76 84 84 85 77 86
REMARK SMILES IDX 78 87 82 88 85 89 79 90 80 91 83 92 81 93 60 94 61 95 69 96
REMARK SMILES IDX 62 97 63 98 67 99 70 100 64 101 65 102 68 103 66 104
REMARK H PARENT 27 4 31 38 90 57 58 68
REMARK Flexibility Score: inf
ROOT
ATOM      1  C   UNL     1      -1.752  -4.414  -2.876  1.00  0.00     0.251 C 
ATOM      2  O   UNL     1      -2.086  -4.724  -4.018  1.00  0.00    -0.269 OA
ATOM      3  N   UNL     1      -1.907  -5.321  -1.867  1.00  0.00    -0.352 N 
ATOM      4  H   UNL     1      -2.391  -6.137  -2.130  1.00  0.00     0.163 HD
ENDROOT
BRANCH   1   5
ATOM      5  C   UNL     1      -1.151  -3.084  -2.661  1.00  0.00     0.040 A 
ATOM      6  N   UNL     1      -0.439   1.217  -1.236  1.00  0.00    -0.274 N 
ATOM      7  C   UNL     1       0.339   0.810  -2.288  1.00  0.00     0.261 C 
ATOM      8  C   UNL     1      -1.412   0.296  -0.951  1.00  0.00     0.261 C 
ATOM      9  O   UNL     1       1.230   1.404  -2.864  1.00  0.00    -0.269 OA
ATOM     10  C   UNL     1      -0.060  -0.560  -2.593  1.00  0.00     0.053 A 
ATOM     11  C   UNL     1      -1.129  -0.885  -1.773  1.00  0.00     0.054 A 
ATOM     12  O   UNL     1      -2.335   0.365  -0.164  1.00  0.00    -0.269 OA
ATOM     13  C   UNL     1       0.506  -1.467  -3.464  1.00  0.00     0.015 A 
ATOM     14  C   UNL     1      -1.707  -2.145  -1.781  1.00  0.00     0.028 A 
ATOM     15  C   UNL     1      -0.059  -2.743  -3.499  1.00  0.00     0.015 A 
BRANCH   6  16
ATOM     16  C   UNL     1      -0.251   2.498  -0.577  1.00  0.00     0.134 C 
BRANCH  16  17
ATOM     17  C   UNL     1      -0.231   2.475   0.964  1.00  0.00     0.056 C 
BRANCH  17  18
ATOM     18  C   UNL     1       0.776   1.640   1.722  1.00  0.00    -0.035 C 
ATOM     19  C   UNL     1       1.743  -0.430   0.580  1.00  0.00     0.038 C 
ATOM     20  C   UNL     1       0.807   0.129   1.655  1.00  0.00     0.129 C 
ATOM     21  N   UNL     1       1.424  -0.309   2.931  1.00  0.00    -0.277 NA
ATOM     22  C   UNL     1       1.917   0.794   3.398  1.00  0.00     0.066 A 
ATOM     23  C   UNL     1       1.571   2.054   2.716  1.00  0.00     0.005 A 
ATOM     24  C   UNL     1       2.767   0.894   4.593  1.00  0.00     0.032 A 
ATOM     25  C   UNL     1       1.952   3.315   3.280  1.00  0.00     0.057 A 
ATOM     26  C   UNL     1       3.159   2.105   5.019  1.00  0.00     0.049 A 
ATOM     27  C   UNL     1       2.734   3.349   4.377  1.00  0.00     0.130 A 
BRANCH  27  28
ATOM     28  O   UNL     1       3.098   4.580   4.885  1.00  0.00    -0.406 OA
BRANCH  28  29
ATOM     29  C   UNL     1       4.020   4.664   5.960  1.00  0.00     0.573 C 
ATOM     30  F   UNL     1       3.520   4.083   7.071  1.00  0.00    -0.132 F 
ATOM     31  F   UNL     1       5.194   4.083   5.637  1.00  0.00    -0.132 F 
ATOM     32  F   UNL     1       4.253   5.965   6.235  1.00  0.00    -0.132 F 
ENDBRANCH  28  29
ENDBRANCH  27  28
ENDBRANCH  17  18
ENDBRANCH  16  17
ENDBRANCH   6  16
ENDBRANCH   1   5
BRANCH   3  33
ATOM     33  C   UNL     1      -1.488  -5.302  -0.476  1.00  0.00     0.118 C 
BRANCH  33  34
ATOM     34  C   UNL     1      -2.674  -5.416   0.477  1.00  0.00     0.042 C 
BRANCH  34  35
ATOM     35  C   UNL     1      -3.549  -6.656   0.285  1.00  0.00     0.118 C 
BRANCH  35  36
ATOM     36  N   UNL     1      -2.934  -7.899   0.733  1.00  0.00    -0.352 N 
ATOM     37  C   UNL     1      -3.395  -8.847   1.621  1.00  0.00     0.251 C 
ATOM     38  H   UNL     1      -2.051  -8.091   0.341  1.00  0.00     0.163 HD
ATOM     39  O   UNL     1      -2.676  -9.793   1.931  1.00  0.00    -0.269 OA
BRANCH  37  40
ATOM     40  C   UNL     1      -4.732  -8.711   2.248  1.00  0.00     0.039 A 
ATOM     41  C   UNL     1      -5.850  -8.341   1.500  1.00  0.00     0.014 A 
ATOM     42  C   UNL     1      -4.864  -8.941   3.622  1.00  0.00     0.014 A 
ATOM     43  C   UNL     1      -7.036  -8.005   2.149  1.00  0.00     0.010 A 
ATOM     44  C   UNL     1      -6.085  -8.690   4.261  1.00  0.00     0.010 A 
ATOM     45  C   UNL     1      -7.164  -8.156   3.541  1.00  0.00    -0.014 A 
BRANCH  45  46
ATOM     46  C   UNL     1      -8.414  -7.707   4.218  1.00  0.00     0.031 A 
ATOM     47  C   UNL     1      -8.386  -6.561   5.199  1.00  0.00     0.074 A 
ATOM     48  C   UNL     1      -9.593  -8.272   3.887  1.00  0.00     0.049 A 
ATOM     49  N   UNL     1      -9.380  -6.004   5.850  1.00  0.00    -0.248 NA
ATOM     50  C   UNL     1      -7.076  -5.954   5.487  1.00  0.00     0.031 C 
ATOM     51  C   UNL     1      -9.762  -9.370   2.935  1.00  0.00     0.029 A 
ATOM     52  N   UNL     1     -10.874  -7.979   4.286  1.00  0.00    -0.354 N 
ATOM     53  C   UNL     1      -8.816  -4.992   6.617  1.00  0.00     0.074 A 
ATOM     54  C   UNL     1      -7.389  -5.035   6.389  1.00  0.00     0.031 C 
ATOM     55  C   UNL     1     -11.071  -9.614   2.773  1.00  0.00     0.029 A 
ATOM     56  C   UNL     1     -11.833  -8.736   3.656  1.00  0.00     0.049 A 
ATOM     57  H   UNL     1     -11.086  -7.293   4.959  1.00  0.00     0.167 HD
ATOM     58  C   UNL     1      -9.434  -4.091   7.419  1.00  0.00     0.037 A 
ATOM     59  C   UNL     1     -13.175  -8.730   3.778  1.00  0.00     0.037 A 
ATOM     60  C   UNL     1     -10.856  -4.031   7.636  1.00  0.00     0.049 A 
ATOM     61  C   UNL     1     -13.823  -7.772   4.740  1.00  0.00     0.074 A 
ATOM     62  C   UNL     1     -11.568  -3.159   8.442  1.00  0.00     0.029 A 
ATOM     63  N   UNL     1     -11.783  -4.868   7.036  1.00  0.00    -0.354 N 
ATOM     64  N   UNL     1     -13.275  -6.826   5.461  1.00  0.00    -0.248 NA
ATOM     65  C   UNL     1     -15.278  -7.889   4.912  1.00  0.00     0.031 C 
ATOM     66  C   UNL     1     -12.922  -3.491   8.359  1.00  0.00     0.029 A 
ATOM     67  C   UNL     1     -13.059  -4.541   7.466  1.00  0.00     0.049 A 
ATOM     68  H   UNL     1     -11.568  -5.588   6.400  1.00  0.00     0.167 HD
ATOM     69  C   UNL     1     -14.317  -6.221   6.151  1.00  0.00     0.074 A 
ATOM     70  C   UNL     1     -15.533  -6.893   5.749  1.00  0.00     0.031 C 
ATOM     71  C   UNL     1     -14.266  -5.202   7.043  1.00  0.00     0.037 A 
BRANCH  58  72
ATOM     72  C   UNL     1      -8.585  -3.071   8.122  1.00  0.00     0.064 A 
ATOM     73  C   UNL     1      -8.022  -1.991   7.426  1.00  0.00     0.173 A 
ATOM     74  C   UNL     1      -8.421  -3.112   9.515  1.00  0.00     0.173 A 
ATOM     75  F   UNL     1      -8.143  -1.910   6.093  1.00  0.00    -0.203 F 
ATOM     76  C   UNL     1      -7.324  -0.992   8.099  1.00  0.00     0.198 A 
ATOM     77  C   UNL     1      -7.744  -2.098  10.187  1.00  0.00     0.198 A 
ATOM     78  F   UNL     1      -8.949  -4.119  10.228  1.00  0.00    -0.203 F 
ATOM     79  F   UNL     1      -6.779   0.022   7.412  1.00  0.00    -0.200 F 
ATOM     80  C   UNL     1      -7.196  -1.040   9.479  1.00  0.00     0.200 A 
ATOM     81  F   UNL     1      -7.636  -2.137  11.523  1.00  0.00    -0.200 F 
ATOM     82  F   UNL     1      -6.546  -0.063  10.128  1.00  0.00    -0.200 F 
ENDBRANCH  58  72
BRANCH  59  83
ATOM     83  C   UNL     1     -14.003  -9.656   2.961  1.00  0.00     0.064 A 
ATOM     84  C   UNL     1     -14.870  -9.164   1.976  1.00  0.00     0.173 A 
ATOM     85  C   UNL     1     -13.957 -11.045   3.155  1.00  0.00     0.173 A 
ATOM     86  F   UNL     1     -14.968  -7.843   1.769  1.00  0.00    -0.203 F 
ATOM     87  C   UNL     1     -15.671 -10.024   1.227  1.00  0.00     0.198 A 
ATOM     88  C   UNL     1     -14.735 -11.906   2.384  1.00  0.00     0.198 A 
ATOM     89  F   UNL     1     -13.146 -11.567   4.087  1.00  0.00    -0.203 F 
ATOM     90  F   UNL     1     -16.525  -9.524   0.324  1.00  0.00    -0.200 F 
ATOM     91  C   UNL     1     -15.597 -11.394   1.426  1.00  0.00     0.200 A 
ATOM     92  F   UNL     1     -14.650 -13.230   2.571  1.00  0.00    -0.200 F 
ATOM     93  F   UNL     1     -16.364 -12.221   0.703  1.00  0.00    -0.200 F 
ENDBRANCH  59  83
BRANCH  71  94
ATOM     94  C   UNL     1     -15.561  -4.722   7.628  1.00  0.00     0.064 A 
ATOM     95  C   UNL     1     -16.256  -5.475   8.585  1.00  0.00     0.173 A 
ATOM     96  C   UNL     1     -16.072  -3.461   7.283  1.00  0.00     0.173 A 
ATOM     97  F   UNL     1     -15.814  -6.691   8.937  1.00  0.00    -0.203 F 
ATOM     98  C   UNL     1     -17.424  -4.989   9.166  1.00  0.00     0.198 A 
ATOM     99  C   UNL     1     -17.224  -2.966   7.888  1.00  0.00     0.198 A 
ATOM    100  F   UNL     1     -15.440  -2.699   6.379  1.00  0.00    -0.203 F 
ATOM    101  F   UNL     1     -18.090  -5.739  10.055  1.00  0.00    -0.200 F 
ATOM    102  C   UNL     1     -17.901  -3.732   8.825  1.00  0.00     0.200 A 
ATOM    103  F   UNL     1     -17.675  -1.745   7.569  1.00  0.00    -0.200 F 
ATOM    104  F   UNL     1     -19.015  -3.258   9.400  1.00  0.00    -0.200 F 
ENDBRANCH  71  94
ENDBRANCH  45  46
ENDBRANCH  37  40
ENDBRANCH  35  36
ENDBRANCH  34  35
ENDBRANCH  33  34
ENDBRANCH   3  33
TORSDOF 15
