REMARK SMILES CC1(C)CCC[C@H]1NC(=O)N[C@@H]1COC[C@@]1(C)C(=O)NCCCNC(=O)c1ccc(-c2c3nc(c(-c4c(F)c(F)c(F)c(F)c4F)c4ccc([nH]4)c(-c4c(F)c(F)c(F)c(F)c4F)c4nc(c(-c5c(F)c(F)c(F)c(F)c5F)c5ccc2[nH]5)C=C4)C=C3)cc1
REMARK SMILES IDX 22 1 21 2 20 3 18 4 19 5 16 7 12 8 13 9 14 10 15 11 17 12
REMARK SMILES IDX 11 13 8 14 9 15 10 17 7 19 1 20 2 21 3 22 4 23 5 24 6 25
REMARK SMILES IDX 23 26 24 27 25 28 26 30 27 31 28 32 89 33 29 34 88 35 30 36
REMARK SMILES IDX 31 37 32 38 82 39 33 40 87 41 81 42 83 43 34 44 86 45 80 46
REMARK SMILES IDX 79 47 35 49 67 50 47 51 66 52 48 53 51 54 65 55 84 56 49 57
REMARK SMILES IDX 50 58 64 60 85 61 52 62 36 63 37 64 45 65 38 66 39 67 43 68
REMARK SMILES IDX 46 69 40 70 41 71 44 72 42 73 68 74 69 75 77 76 70 77 71 78
REMARK SMILES IDX 75 79 78 80 72 81 73 82 76 83 74 84 53 85 54 86 62 87 55 88
REMARK SMILES IDX 56 89 60 90 63 91 57 92 58 93 61 94 59 95
REMARK H PARENT 20 6 8 16 11 18 24 29 83 48 51 59
REMARK Flexibility Score: inf
ROOT
ATOM      1  C   UNL     1       3.761   2.399   2.600  1.00  0.00     0.042 C 
ENDROOT
BRANCH   1   2
ATOM      2  C   UNL     1       3.414   3.735   1.941  1.00  0.00     0.117 C 
BRANCH   2   3
ATOM      3  N   UNL     1       3.832   3.911   0.560  1.00  0.00    -0.355 N 
ATOM      4  C   UNL     1       3.169   3.791  -0.626  1.00  0.00     0.230 C 
ATOM      5  O   UNL     1       3.732   4.295  -1.603  1.00  0.00    -0.274 OA
ATOM      6  H   UNL     1       4.777   4.166   0.462  1.00  0.00     0.163 HD
BRANCH   4   7
ATOM      7  C   UNL     1       1.871   2.987  -0.783  1.00  0.00     0.092 C 
ATOM      8  C   UNL     1       0.605   3.626  -0.178  1.00  0.00     0.127 C 
ATOM      9  C   UNL     1      -0.491   3.532  -1.239  1.00  0.00     0.186 C 
ATOM     10  O   UNL     1       0.054   2.777  -2.322  1.00  0.00    -0.378 OA
ATOM     11  C   UNL     1       1.474   2.987  -2.279  1.00  0.00     0.179 C 
ATOM     12  C   UNL     1       2.182   1.554  -0.386  1.00  0.00     0.026 C 
BRANCH   8  13
ATOM     13  N   UNL     1       0.156   3.278   1.175  1.00  0.00    -0.332 N 
ATOM     14  N   UNL     1      -0.606   1.041   1.487  1.00  0.00    -0.335 N 
ATOM     15  C   UNL     1      -0.302   2.265   1.901  1.00  0.00     0.315 C 
ATOM     16  H   UNL     1      -0.722   0.424   2.245  1.00  0.00     0.165 HD
ATOM     17  O   UNL     1      -0.437   2.491   3.108  1.00  0.00    -0.249 OA
ATOM     18  H   UNL     1       0.216   4.077   1.747  1.00  0.00     0.165 HD
BRANCH  14  19
ATOM     19  C   UNL     1      -0.816   0.362   0.211  1.00  0.00     0.089 C 
ATOM     20  C   UNL     1       1.000  -1.342   1.081  1.00  0.00     0.013 C 
ATOM     21  C   UNL     1      -0.224  -1.089   0.186  1.00  0.00    -0.015 C 
ATOM     22  C   UNL     1       0.137  -1.506  -1.258  1.00  0.00     0.013 C 
ATOM     23  C   UNL     1      -1.402  -1.940   0.690  1.00  0.00     0.008 C 
ATOM     24  C   UNL     1      -2.613  -1.329   0.012  1.00  0.00     0.003 C 
ATOM     25  C   UNL     1      -2.337   0.173  -0.009  1.00  0.00     0.025 C 
ENDBRANCH  14  19
ENDBRANCH   8  13
ENDBRANCH   4   7
ENDBRANCH   2   3
ENDBRANCH   1   2
BRANCH   1  26
ATOM     26  C   UNL     1       5.246   2.072   2.709  1.00  0.00     0.118 C 
BRANCH  26  27
ATOM     27  N   UNL     1       5.961   3.007   3.559  1.00  0.00    -0.352 N 
ATOM     28  C   UNL     1       6.506   2.885   4.811  1.00  0.00     0.251 C 
ATOM     29  H   UNL     1       6.076   3.899   3.161  1.00  0.00     0.163 HD
ATOM     30  O   UNL     1       6.849   3.915   5.389  1.00  0.00    -0.269 OA
BRANCH  28  31
ATOM     31  C   UNL     1       6.714   1.579   5.492  1.00  0.00     0.039 A 
ATOM     32  C   UNL     1       6.674   1.568   6.893  1.00  0.00     0.014 A 
ATOM     33  C   UNL     1       7.077   0.410   4.818  1.00  0.00     0.014 A 
ATOM     34  C   UNL     1       6.986   0.406   7.607  1.00  0.00     0.010 A 
ATOM     35  C   UNL     1       7.323  -0.772   5.529  1.00  0.00     0.010 A 
ATOM     36  C   UNL     1       7.307  -0.781   6.931  1.00  0.00    -0.014 A 
BRANCH  36  37
ATOM     37  C   UNL     1       7.647  -2.009   7.699  1.00  0.00     0.031 A 
ATOM     38  C   UNL     1       9.039  -2.581   7.671  1.00  0.00     0.074 A 
ATOM     39  C   UNL     1       6.693  -2.628   8.421  1.00  0.00     0.049 A 
ATOM     40  N   UNL     1       9.525  -3.615   8.313  1.00  0.00    -0.248 NA
ATOM     41  C   UNL     1      10.008  -1.919   6.786  1.00  0.00     0.031 C 
ATOM     42  C   UNL     1       5.290  -2.221   8.483  1.00  0.00     0.029 A 
ATOM     43  N   UNL     1       6.760  -3.730   9.237  1.00  0.00    -0.354 N 
ATOM     44  C   UNL     1      10.846  -3.735   7.901  1.00  0.00     0.074 A 
ATOM     45  C   UNL     1      11.073  -2.697   6.917  1.00  0.00     0.031 C 
ATOM     46  C   UNL     1       4.630  -3.050   9.308  1.00  0.00     0.029 A 
ATOM     47  C   UNL     1       5.560  -4.053   9.820  1.00  0.00     0.049 A 
ATOM     48  H   UNL     1       7.588  -4.240   9.389  1.00  0.00     0.167 HD
ATOM     49  C   UNL     1      11.790  -4.616   8.316  1.00  0.00     0.037 A 
ATOM     50  C   UNL     1       5.243  -5.040  10.680  1.00  0.00     0.037 A 
ATOM     51  C   UNL     1      11.575  -5.632   9.314  1.00  0.00     0.049 A 
ATOM     52  C   UNL     1       6.317  -5.968  11.173  1.00  0.00     0.074 A 
ATOM     53  C   UNL     1      12.491  -6.515   9.862  1.00  0.00     0.029 A 
ATOM     54  N   UNL     1      10.354  -5.906   9.912  1.00  0.00    -0.354 N 
ATOM     55  N   UNL     1       7.585  -6.013  10.844  1.00  0.00    -0.248 NA
ATOM     56  C   UNL     1       5.919  -6.970  12.171  1.00  0.00     0.031 C 
ATOM     57  C   UNL     1      11.815  -7.349  10.761  1.00  0.00     0.029 A 
ATOM     58  C   UNL     1      10.486  -6.960  10.804  1.00  0.00     0.049 A 
ATOM     59  H   UNL     1       9.515  -5.424   9.728  1.00  0.00     0.167 HD
ATOM     60  C   UNL     1       8.139  -7.039  11.597  1.00  0.00     0.074 A 
ATOM     61  C   UNL     1       7.073  -7.572  12.422  1.00  0.00     0.031 C 
ATOM     62  C   UNL     1       9.414  -7.498  11.602  1.00  0.00     0.037 A 
BRANCH  49  63
ATOM     63  C   UNL     1      13.149  -4.519   7.682  1.00  0.00     0.064 A 
ATOM     64  C   UNL     1      14.011  -3.443   7.947  1.00  0.00     0.173 A 
ATOM     65  C   UNL     1      13.601  -5.521   6.811  1.00  0.00     0.173 A 
ATOM     66  F   UNL     1      13.623  -2.454   8.766  1.00  0.00    -0.203 F 
ATOM     67  C   UNL     1      15.258  -3.356   7.333  1.00  0.00     0.198 A 
ATOM     68  C   UNL     1      14.861  -5.445   6.221  1.00  0.00     0.198 A 
ATOM     69  F   UNL     1      12.822  -6.576   6.530  1.00  0.00    -0.203 F 
ATOM     70  F   UNL     1      16.040  -2.291   7.558  1.00  0.00    -0.200 F 
ATOM     71  C   UNL     1      15.684  -4.358   6.475  1.00  0.00     0.200 A 
ATOM     72  F   UNL     1      15.276  -6.420   5.401  1.00  0.00    -0.200 F 
ATOM     73  F   UNL     1      16.883  -4.271   5.883  1.00  0.00    -0.200 F 
ENDBRANCH  49  63
BRANCH  50  74
ATOM     74  C   UNL     1       3.843  -5.166  11.154  1.00  0.00     0.064 A 
ATOM     75  C   UNL     1       3.485  -4.784  12.454  1.00  0.00     0.173 A 
ATOM     76  C   UNL     1       2.829  -5.629  10.303  1.00  0.00     0.173 A 
ATOM     77  F   UNL     1       4.425  -4.354  13.308  1.00  0.00    -0.203 F 
ATOM     78  C   UNL     1       2.163  -4.867  12.887  1.00  0.00     0.198 A 
ATOM     79  C   UNL     1       1.505  -5.690  10.731  1.00  0.00     0.198 A 
ATOM     80  F   UNL     1       3.124  -6.001   9.049  1.00  0.00    -0.203 F 
ATOM     81  F   UNL     1       1.850  -4.521  14.143  1.00  0.00    -0.200 F 
ATOM     82  C   UNL     1       1.174  -5.311  12.023  1.00  0.00     0.200 A 
ATOM     83  F   UNL     1       0.550  -6.107   9.889  1.00  0.00    -0.200 F 
ATOM     84  F   UNL     1      -0.099  -5.377  12.436  1.00  0.00    -0.200 F 
ENDBRANCH  50  74
BRANCH  62  85
ATOM     85  C   UNL     1       9.721  -8.642  12.524  1.00  0.00     0.064 A 
ATOM     86  C   UNL     1       9.258  -9.940  12.258  1.00  0.00     0.173 A 
ATOM     87  C   UNL     1      10.492  -8.444  13.679  1.00  0.00     0.173 A 
ATOM     88  F   UNL     1       8.503 -10.178  11.175  1.00  0.00    -0.203 F 
ATOM     89  C   UNL     1       9.528 -10.990  13.132  1.00  0.00     0.198 A 
ATOM     90  C   UNL     1      10.783  -9.502  14.537  1.00  0.00     0.198 A 
ATOM     91  F   UNL     1      10.963  -7.224  13.977  1.00  0.00    -0.203 F 
ATOM     92  F   UNL     1       9.031 -12.210  12.884  1.00  0.00    -0.200 F 
ATOM     93  C   UNL     1      10.293 -10.771  14.267  1.00  0.00     0.200 A 
ATOM     94  F   UNL     1      11.529  -9.291  15.630  1.00  0.00    -0.200 F 
ATOM     95  F   UNL     1      10.550 -11.782  15.109  1.00  0.00    -0.200 F 
ENDBRANCH  62  85
ENDBRANCH  36  37
ENDBRANCH  28  31
ENDBRANCH  26  27
ENDBRANCH   1  26
TORSDOF 12
