REMARK SMILES CC1(C)S[C@H]2[C@H](NC(=O)[C@H](NN3CCNC3=O)c3ccccc3)C(=O)N2[C@H]1C(=O)NCCCNC(=O)c1ccc(-c2c3nc(c(-c4c(F)c(F)c(F)c(F)c4F)c4ccc([nH]4)c(-c4c(F)c(F)c(F)c(F)c4F)c4nc(c(-c5c(F)c(F)c(F)c(F)c5F)c5ccc2[nH]5)C=C4)C=C3)cc1
REMARK SMILES IDX 31 1 30 2 28 3 29 4 27 6 1 7 2 8 3 9 4 10 5 11 26 12 6 13
REMARK SMILES IDX 24 14 25 15 7 16 8 17 9 19 10 20 18 21 19 22 23 23 20 24
REMARK SMILES IDX 22 25 21 26 11 27 12 29 13 30 16 31 14 32 15 33 17 34 32 36
REMARK SMILES IDX 33 37 34 38 35 39 36 41 37 42 38 43 99 44 39 45 98 46 40 47
REMARK SMILES IDX 41 48 42 49 92 50 43 51 97 52 91 53 93 54 44 55 96 56 90 57
REMARK SMILES IDX 89 58 45 60 77 61 57 62 76 63 58 64 61 65 75 66 94 67 59 68
REMARK SMILES IDX 60 69 74 71 95 72 62 73 46 74 47 75 55 76 48 77 49 78 53 79
REMARK SMILES IDX 56 80 50 81 51 82 54 83 52 84 78 85 79 86 87 87 80 88 81 89
REMARK SMILES IDX 85 90 88 91 82 92 83 93 86 94 84 95 63 96 64 97 72 98 65 99
REMARK SMILES IDX 66 100 70 101 73 102 67 103 68 104 71 105 69 106
REMARK H PARENT 30 5 7 18 11 28 15 35 34 40 93 59 61 70
REMARK Flexibility Score: inf
ROOT
ATOM      1  C   UNL     1       1.783   8.147   3.527  1.00  0.00     0.117 C 
ENDROOT
BRANCH   1   2
ATOM      2  N   UNL     1       2.480   7.572   4.657  1.00  0.00    -0.354 N 
ATOM      3  C   UNL     1       2.876   6.279   4.839  1.00  0.00     0.244 C 
ATOM      4  O   UNL     1       3.974   6.140   5.396  1.00  0.00    -0.273 OA
ATOM      5  H   UNL     1       2.696   8.194   5.389  1.00  0.00     0.163 HD
BRANCH   3   6
ATOM      6  C   UNL     1       2.056   5.021   4.410  1.00  0.00     0.191 C 
ATOM      7  C   UNL     1       0.396   4.370   6.191  1.00  0.00     0.026 C 
ATOM      8  C   UNL     1       0.545   4.891   4.750  1.00  0.00     0.042 C 
ATOM      9  C   UNL     1      -0.372   6.103   4.601  1.00  0.00     0.026 C 
ATOM     10  S   UNL     1      -0.160   3.625   3.593  1.00  0.00    -0.125 SA
ATOM     11  C   UNL     1       1.307   3.522   2.530  1.00  0.00     0.176 C 
ATOM     12  N   UNL     1       2.399   4.252   3.216  1.00  0.00    -0.313 N 
ATOM     13  C   UNL     1       1.407   4.607   1.418  1.00  0.00     0.205 C 
ATOM     14  C   UNL     1       2.857   4.751   2.040  1.00  0.00     0.249 C 
ATOM     15  O   UNL     1       3.986   4.965   1.671  1.00  0.00    -0.272 OA
BRANCH  13  16
ATOM     16  N   UNL     1       1.414   4.205  -0.005  1.00  0.00    -0.340 N 
ATOM     17  C   UNL     1       0.797   4.819  -1.065  1.00  0.00     0.244 C 
ATOM     18  H   UNL     1       1.927   3.392  -0.218  1.00  0.00     0.164 HD
ATOM     19  O   UNL     1       1.167   4.483  -2.198  1.00  0.00    -0.273 OA
BRANCH  17  20
ATOM     20  C   UNL     1      -0.347   5.862  -0.891  1.00  0.00     0.194 C 
BRANCH  20  21
ATOM     21  C   UNL     1      -1.597   5.287  -0.213  1.00  0.00    -0.020 A 
ATOM     22  C   UNL     1      -2.607   6.117   0.302  1.00  0.00     0.006 A 
ATOM     23  C   UNL     1      -1.841   3.898  -0.223  1.00  0.00     0.006 A 
ATOM     24  C   UNL     1      -3.797   5.574   0.808  1.00  0.00     0.000 A 
ATOM     25  C   UNL     1      -3.021   3.358   0.291  1.00  0.00     0.000 A 
ATOM     26  C   UNL     1      -4.001   4.197   0.805  1.00  0.00     0.000 A 
ENDBRANCH  20  21
BRANCH  20  27
ATOM     27  N   UNL     1       0.122   7.172  -0.346  1.00  0.00    -0.213 NA
ATOM     28  H   UNL     1       0.153   7.109   0.672  1.00  0.00     0.149 HD
BRANCH  27  29
ATOM     29  N   UNL     1       1.401   7.534  -0.812  1.00  0.00    -0.257 N 
ATOM     30  C   UNL     1       1.726   8.035  -2.119  1.00  0.00     0.163 C 
ATOM     31  C   UNL     1       2.549   7.474  -0.027  1.00  0.00     0.331 C 
ATOM     32  C   UNL     1       3.232   7.764  -2.200  1.00  0.00     0.141 C 
ATOM     33  N   UNL     1       3.643   7.686  -0.827  1.00  0.00    -0.335 N 
ATOM     34  O   UNL     1       2.582   7.226   1.161  1.00  0.00    -0.247 OA
ATOM     35  H   UNL     1       4.570   7.772  -0.507  1.00  0.00     0.165 HD
ENDBRANCH  27  29
ENDBRANCH  20  27
ENDBRANCH  17  20
ENDBRANCH  13  16
ENDBRANCH   3   6
ENDBRANCH   1   2
BRANCH   1  36
ATOM     36  C   UNL     1       0.846   9.299   3.863  1.00  0.00     0.042 C 
BRANCH  36  37
ATOM     37  C   UNL     1       1.565  10.645   3.850  1.00  0.00     0.118 C 
BRANCH  37  38
ATOM     38  N   UNL     1       1.910  11.104   2.502  1.00  0.00    -0.352 N 
ATOM     39  C   UNL     1       1.377  12.103   1.716  1.00  0.00     0.251 C 
ATOM     40  H   UNL     1       2.654  10.613   2.083  1.00  0.00     0.163 HD
ATOM     41  O   UNL     1       1.725  12.224   0.545  1.00  0.00    -0.269 OA
BRANCH  39  42
ATOM     42  C   UNL     1       0.348  13.007   2.271  1.00  0.00     0.039 A 
ATOM     43  C   UNL     1      -0.780  13.328   1.510  1.00  0.00     0.014 A 
ATOM     44  C   UNL     1       0.478  13.503   3.564  1.00  0.00     0.014 A 
ATOM     45  C   UNL     1      -1.833  14.037   2.098  1.00  0.00     0.010 A 
ATOM     46  C   UNL     1      -0.618  14.079   4.186  1.00  0.00     0.010 A 
ATOM     47  C   UNL     1      -1.789  14.355   3.463  1.00  0.00    -0.014 A 
BRANCH  47  48
ATOM     48  C   UNL     1      -2.924  14.989   4.186  1.00  0.00     0.031 A 
ATOM     49  C   UNL     1      -2.682  16.262   4.954  1.00  0.00     0.074 A 
ATOM     50  C   UNL     1      -4.110  14.357   4.282  1.00  0.00     0.049 A 
ATOM     51  N   UNL     1      -3.428  16.844   5.858  1.00  0.00    -0.248 NA
ATOM     52  C   UNL     1      -1.392  16.933   4.721  1.00  0.00     0.031 C 
ATOM     53  C   UNL     1      -4.456  13.091   3.634  1.00  0.00     0.029 A 
ATOM     54  N   UNL     1      -5.241  14.683   4.991  1.00  0.00    -0.354 N 
ATOM     55  C   UNL     1      -2.671  17.904   6.340  1.00  0.00     0.074 A 
ATOM     56  C   UNL     1      -1.389  17.850   5.674  1.00  0.00     0.031 C 
ATOM     57  C   UNL     1      -5.716  12.758   3.959  1.00  0.00     0.029 A 
ATOM     58  C   UNL     1      -6.249  13.755   4.880  1.00  0.00     0.049 A 
ATOM     59  H   UNL     1      -5.322  15.504   5.529  1.00  0.00     0.167 HD
ATOM     60  C   UNL     1      -3.023  18.853   7.239  1.00  0.00     0.037 A 
ATOM     61  C   UNL     1      -7.459  13.706   5.471  1.00  0.00     0.037 A 
ATOM     62  C   UNL     1      -4.329  18.943   7.834  1.00  0.00     0.049 A 
ATOM     63  C   UNL     1      -7.852  14.802   6.426  1.00  0.00     0.074 A 
ATOM     64  C   UNL     1      -4.827  19.920   8.676  1.00  0.00     0.029 A 
ATOM     65  N   UNL     1      -5.349  18.025   7.632  1.00  0.00    -0.354 N 
ATOM     66  N   UNL     1      -7.151  15.833   6.832  1.00  0.00    -0.248 NA
ATOM     67  C   UNL     1      -9.201  14.730   7.003  1.00  0.00     0.031 C 
ATOM     68  C   UNL     1      -6.138  19.573   9.015  1.00  0.00     0.029 A 
ATOM     69  C   UNL     1      -6.473  18.407   8.345  1.00  0.00     0.049 A 
ATOM     70  H   UNL     1      -5.284  17.222   7.066  1.00  0.00     0.167 HD
ATOM     71  C   UNL     1      -7.982  16.549   7.682  1.00  0.00     0.074 A 
ATOM     72  C   UNL     1      -9.242  15.837   7.733  1.00  0.00     0.031 C 
ATOM     73  C   UNL     1      -7.725  17.696   8.357  1.00  0.00     0.037 A 
BRANCH  60  74
ATOM     74  C   UNL     1      -1.986  19.870   7.621  1.00  0.00     0.064 A 
ATOM     75  C   UNL     1      -1.511  20.824   6.707  1.00  0.00     0.173 A 
ATOM     76  C   UNL     1      -1.469  19.902   8.926  1.00  0.00     0.173 A 
ATOM     77  F   UNL     1      -1.964  20.832   5.444  1.00  0.00    -0.203 F 
ATOM     78  C   UNL     1      -0.526  21.738   7.070  1.00  0.00     0.198 A 
ATOM     79  C   UNL     1      -0.511  20.842   9.296  1.00  0.00     0.198 A 
ATOM     80  F   UNL     1      -1.893  19.020   9.844  1.00  0.00    -0.203 F 
ATOM     81  F   UNL     1      -0.039  22.591   6.158  1.00  0.00    -0.200 F 
ATOM     82  C   UNL     1      -0.031  21.751   8.365  1.00  0.00     0.200 A 
ATOM     83  F   UNL     1      -0.045  20.863  10.552  1.00  0.00    -0.200 F 
ATOM     84  F   UNL     1       0.916  22.633   8.713  1.00  0.00    -0.200 F 
ENDBRANCH  60  74
BRANCH  61  85
ATOM     85  C   UNL     1      -8.394  12.595   5.153  1.00  0.00     0.064 A 
ATOM     86  C   UNL     1      -9.546  12.826   4.388  1.00  0.00     0.173 A 
ATOM     87  C   UNL     1      -8.153  11.282   5.585  1.00  0.00     0.173 A 
ATOM     88  F   UNL     1      -9.830  14.068   3.967  1.00  0.00    -0.203 F 
ATOM     89  C   UNL     1     -10.429  11.793   4.082  1.00  0.00     0.198 A 
ATOM     90  C   UNL     1      -9.022  10.244   5.255  1.00  0.00     0.198 A 
ATOM     91  F   UNL     1      -7.060  11.004   6.311  1.00  0.00    -0.203 F 
ATOM     92  F   UNL     1     -11.541  12.051   3.381  1.00  0.00    -0.200 F 
ATOM     93  C   UNL     1     -10.163  10.501   4.509  1.00  0.00     0.200 A 
ATOM     94  F   UNL     1      -8.752   8.994   5.655  1.00  0.00    -0.200 F 
ATOM     95  F   UNL     1     -11.006   9.505   4.205  1.00  0.00    -0.200 F 
ENDBRANCH  61  85
BRANCH  73  96
ATOM     96  C   UNL     1      -8.837  18.291   9.168  1.00  0.00     0.064 A 
ATOM     97  C   UNL     1      -9.225  17.744  10.398  1.00  0.00     0.173 A 
ATOM     98  C   UNL     1      -9.453  19.481   8.749  1.00  0.00     0.173 A 
ATOM     99  F   UNL     1      -8.674  16.600  10.832  1.00  0.00    -0.203 F 
ATOM    100  C   UNL     1     -10.196  18.364  11.179  1.00  0.00     0.198 A 
ATOM    101  C   UNL     1     -10.402  20.113   9.546  1.00  0.00     0.198 A 
ATOM    102  F   UNL     1      -9.108  20.046   7.582  1.00  0.00    -0.203 F 
ATOM    103  F   UNL     1     -10.571  17.813  12.342  1.00  0.00    -0.200 F 
ATOM    104  C   UNL     1     -10.774  19.554  10.759  1.00  0.00     0.200 A 
ATOM    105  F   UNL     1     -10.948  21.269   9.145  1.00  0.00    -0.200 F 
ATOM    106  F   UNL     1     -11.691  20.162  11.524  1.00  0.00    -0.200 F 
ENDBRANCH  73  96
ENDBRANCH  47  48
ENDBRANCH  39  42
ENDBRANCH  37  38
ENDBRANCH  36  37
ENDBRANCH   1  36
TORSDOF 15
