REMARK SMILES CS(=O)(=O)c1ccc(C(=O)N[C@@H](CC(=O)NCCCNC(=O)c2ccc(-c3c4nc(c(-c5c(F)c(F)c(F)c(F)c5F)c5ccc([nH]5)c(-c5c(F)c(F)c(F)c(F)c5F)c5nc(c(-c6c(F)c(F)c(F)c(F)c6F)c6ccc3[nH]6)C=C5)C=C4)cc2)c2ccccc2)cc1
REMARK SMILES IDX 17 1 16 2 14 3 15 4 13 6 12 7 11 8 9 9 10 10 8 12 5 13 6 14
REMARK SMILES IDX 93 15 7 16 92 17 2 18 1 19 3 20 4 21 86 22 87 23 91 24 88 25
REMARK SMILES IDX 90 26 89 27 18 28 19 29 20 30 21 31 22 33 23 34 24 35 85 36
REMARK SMILES IDX 25 37 84 38 26 39 27 40 28 41 78 42 29 43 83 44 77 45 79 46
REMARK SMILES IDX 30 47 82 48 76 49 75 50 31 52 63 53 43 54 62 55 44 56 47 57
REMARK SMILES IDX 61 58 80 59 45 60 46 61 60 63 81 64 48 65 32 66 33 67 41 68
REMARK SMILES IDX 34 69 35 70 39 71 42 72 36 73 37 74 40 75 38 76 64 77 65 78
REMARK SMILES IDX 73 79 66 80 67 81 71 82 74 83 68 84 69 85 72 86 70 87 49 88
REMARK SMILES IDX 50 89 58 90 51 91 52 92 56 93 59 94 53 95 54 96 57 97 55 98
REMARK H PARENT 16 5 11 11 20 32 79 51 47 62
REMARK Flexibility Score: inf
ROOT
ATOM      1  C   UNL     1       1.437   9.687   0.225  1.00  0.00     0.117 C 
ENDROOT
BRANCH   1   2
ATOM      2  N   UNL     1       0.372  10.317  -0.534  1.00  0.00    -0.356 N 
ATOM      3  C   UNL     1      -0.661   9.799  -1.241  1.00  0.00     0.222 C 
ATOM      4  O   UNL     1      -1.508  10.606  -1.641  1.00  0.00    -0.275 OA
ATOM      5  H   UNL     1       0.408  11.301  -0.535  1.00  0.00     0.163 HD
BRANCH   3   6
ATOM      6  C   UNL     1      -0.849   8.312  -1.487  1.00  0.00     0.129 C 
BRANCH   6   7
ATOM      7  C   UNL     1       0.032   7.590  -2.530  1.00  0.00     0.122 C 
BRANCH   7   8
ATOM      8  N   UNL     1       1.346   7.311  -1.956  1.00  0.00    -0.345 N 
ATOM      9  C   UNL     1       1.914   6.327  -1.203  1.00  0.00     0.251 C 
ATOM     10  O   UNL     1       2.995   6.596  -0.674  1.00  0.00    -0.269 OA
ATOM     11  H   UNL     1       1.993   8.023  -2.170  1.00  0.00     0.164 HD
BRANCH   9  12
ATOM     12  C   UNL     1       1.398   4.937  -1.095  1.00  0.00     0.039 A 
ATOM     13  C   UNL     1       0.754   2.210  -1.183  1.00  0.00     0.067 A 
ATOM     14  C   UNL     1       2.065   2.591  -0.911  1.00  0.00     0.021 A 
ATOM     15  C   UNL     1      -0.248   3.172  -1.340  1.00  0.00     0.021 A 
ATOM     16  C   UNL     1       2.377   3.950  -0.863  1.00  0.00     0.015 A 
ATOM     17  C   UNL     1       0.073   4.535  -1.271  1.00  0.00     0.015 A 
BRANCH  13  18
ATOM     18  S   UNL     1       0.375   0.488  -1.401  1.00  0.00     0.175 S 
ATOM     19  C   UNL     1       0.934  -0.290   0.090  1.00  0.00     0.163 C 
ATOM     20  O   UNL     1       1.202   0.021  -2.499  1.00  0.00    -0.224 OA
ATOM     21  O   UNL     1      -1.068   0.364  -1.444  1.00  0.00    -0.224 OA
ENDBRANCH  13  18
ENDBRANCH   9  12
ENDBRANCH   7   8
BRANCH   7  22
ATOM     22  C   UNL     1       0.212   8.163  -3.932  1.00  0.00    -0.025 A 
ATOM     23  C   UNL     1       1.018   7.438  -4.838  1.00  0.00     0.006 A 
ATOM     24  C   UNL     1      -0.395   9.329  -4.408  1.00  0.00     0.006 A 
ATOM     25  C   UNL     1       1.237   7.882  -6.143  1.00  0.00     0.000 A 
ATOM     26  C   UNL     1      -0.166   9.784  -5.713  1.00  0.00     0.000 A 
ATOM     27  C   UNL     1       0.651   9.064  -6.578  1.00  0.00     0.000 A 
ENDBRANCH   7  22
ENDBRANCH   6   7
ENDBRANCH   3   6
ENDBRANCH   1   2
BRANCH   1  28
ATOM     28  C   UNL     1       2.804   9.896  -0.421  1.00  0.00     0.042 C 
BRANCH  28  29
ATOM     29  C   UNL     1       3.265  11.344  -0.493  1.00  0.00     0.118 C 
BRANCH  29  30
ATOM     30  N   UNL     1       3.699  11.863   0.790  1.00  0.00    -0.352 N 
ATOM     31  C   UNL     1       4.960  12.135   1.262  1.00  0.00     0.251 C 
ATOM     32  H   UNL     1       2.971  12.052   1.426  1.00  0.00     0.163 HD
ATOM     33  O   UNL     1       5.110  12.386   2.455  1.00  0.00    -0.269 OA
BRANCH  31  34
ATOM     34  C   UNL     1       6.144  12.116   0.369  1.00  0.00     0.039 A 
ATOM     35  C   UNL     1       7.352  11.622   0.872  1.00  0.00     0.014 A 
ATOM     36  C   UNL     1       6.104  12.632  -0.929  1.00  0.00     0.014 A 
ATOM     37  C   UNL     1       8.493  11.598   0.065  1.00  0.00     0.010 A 
ATOM     38  C   UNL     1       7.214  12.520  -1.764  1.00  0.00     0.010 A 
ATOM     39  C   UNL     1       8.428  12.019  -1.273  1.00  0.00    -0.014 A 
BRANCH  39  40
ATOM     40  C   UNL     1       9.623  11.975  -2.158  1.00  0.00     0.031 A 
ATOM     41  C   UNL     1      10.184  13.247  -2.736  1.00  0.00     0.074 A 
ATOM     42  C   UNL     1      10.172  10.790  -2.487  1.00  0.00     0.049 A 
ATOM     43  N   UNL     1      11.172  13.411  -3.582  1.00  0.00    -0.248 NA
ATOM     44  C   UNL     1       9.530  14.503  -2.334  1.00  0.00     0.031 C 
ATOM     45  C   UNL     1       9.697   9.482  -2.032  1.00  0.00     0.029 A 
ATOM     46  N   UNL     1      11.245  10.492  -3.291  1.00  0.00    -0.354 N 
ATOM     47  C   UNL     1      11.239  14.776  -3.828  1.00  0.00     0.074 A 
ATOM     48  C   UNL     1      10.162  15.393  -3.084  1.00  0.00     0.031 C 
ATOM     49  C   UNL     1      10.490   8.525  -2.541  1.00  0.00     0.029 A 
ATOM     50  C   UNL     1      11.503   9.146  -3.389  1.00  0.00     0.049 A 
ATOM     51  H   UNL     1      11.780  11.178  -3.752  1.00  0.00     0.167 HD
ATOM     52  C   UNL     1      12.131  15.459  -4.585  1.00  0.00     0.037 A 
ATOM     53  C   UNL     1      12.446   8.486  -4.089  1.00  0.00     0.037 A 
ATOM     54  C   UNL     1      13.226  14.849  -5.292  1.00  0.00     0.049 A 
ATOM     55  C   UNL     1      13.429   9.268  -4.918  1.00  0.00     0.074 A 
ATOM     56  C   UNL     1      14.226  15.461  -6.027  1.00  0.00     0.029 A 
ATOM     57  N   UNL     1      13.465  13.484  -5.351  1.00  0.00    -0.354 N 
ATOM     58  N   UNL     1      13.523  10.564  -5.088  1.00  0.00    -0.248 NA
ATOM     59  C   UNL     1      14.442   8.493  -5.649  1.00  0.00     0.031 C 
ATOM     60  C   UNL     1      15.043  14.463  -6.570  1.00  0.00     0.029 A 
ATOM     61  C   UNL     1      14.584  13.233  -6.130  1.00  0.00     0.049 A 
ATOM     62  H   UNL     1      12.921  12.795  -4.905  1.00  0.00     0.167 HD
ATOM     63  C   UNL     1      14.617  10.762  -5.919  1.00  0.00     0.074 A 
ATOM     64  C   UNL     1      15.165   9.453  -6.207  1.00  0.00     0.031 C 
ATOM     65  C   UNL     1      15.123  11.925  -6.399  1.00  0.00     0.037 A 
BRANCH  52  66
ATOM     66  C   UNL     1      11.965  16.948  -4.685  1.00  0.00     0.064 A 
ATOM     67  C   UNL     1      12.211  17.794  -3.593  1.00  0.00     0.173 A 
ATOM     68  C   UNL     1      11.592  17.542  -5.901  1.00  0.00     0.173 A 
ATOM     69  F   UNL     1      12.560  17.277  -2.405  1.00  0.00    -0.203 F 
ATOM     70  C   UNL     1      12.061  19.174  -3.705  1.00  0.00     0.198 A 
ATOM     71  C   UNL     1      11.474  18.924  -6.018  1.00  0.00     0.198 A 
ATOM     72  F   UNL     1      11.352  16.782  -6.980  1.00  0.00    -0.203 F 
ATOM     73  F   UNL     1      12.252  19.956  -2.633  1.00  0.00    -0.200 F 
ATOM     74  C   UNL     1      11.700  19.738  -4.918  1.00  0.00     0.200 A 
ATOM     75  F   UNL     1      11.138  19.470  -7.196  1.00  0.00    -0.200 F 
ATOM     76  F   UNL     1      11.563  21.067  -5.027  1.00  0.00    -0.200 F 
ENDBRANCH  52  66
BRANCH  53  77
ATOM     77  C   UNL     1      12.523   7.004  -4.015  1.00  0.00     0.064 A 
ATOM     78  C   UNL     1      13.592   6.372  -3.364  1.00  0.00     0.173 A 
ATOM     79  C   UNL     1      11.539   6.190  -4.593  1.00  0.00     0.173 A 
ATOM     80  F   UNL     1      14.570   7.108  -2.815  1.00  0.00    -0.203 F 
ATOM     81  C   UNL     1      13.684   4.983  -3.310  1.00  0.00     0.198 A 
ATOM     82  C   UNL     1      11.616   4.801  -4.514  1.00  0.00     0.198 A 
ATOM     83  F   UNL     1      10.494   6.744  -5.225  1.00  0.00    -0.203 F 
ATOM     84  F   UNL     1      14.739   4.405  -2.721  1.00  0.00    -0.200 F 
ATOM     85  C   UNL     1      12.692   4.198  -3.880  1.00  0.00     0.200 A 
ATOM     86  F   UNL     1      10.649   4.046  -5.054  1.00  0.00    -0.200 F 
ATOM     87  F   UNL     1      12.778   2.862  -3.824  1.00  0.00    -0.200 F 
ENDBRANCH  53  77
BRANCH  65  88
ATOM     88  C   UNL     1      16.352  11.839  -7.257  1.00  0.00     0.064 A 
ATOM     89  C   UNL     1      16.303  11.336  -8.565  1.00  0.00     0.173 A 
ATOM     90  C   UNL     1      17.585  12.306  -6.778  1.00  0.00     0.173 A 
ATOM     91  F   UNL     1      15.152  10.863  -9.065  1.00  0.00    -0.203 F 
ATOM     92  C   UNL     1      17.451  11.280  -9.353  1.00  0.00     0.198 A 
ATOM     93  C   UNL     1      18.723  12.278  -7.578  1.00  0.00     0.198 A 
ATOM     94  F   UNL     1      17.683  12.804  -5.536  1.00  0.00    -0.203 F 
ATOM     95  F   UNL     1      17.391  10.752 -10.583  1.00  0.00    -0.200 F 
ATOM     96  C   UNL     1      18.657  11.758  -8.862  1.00  0.00     0.200 A 
ATOM     97  F   UNL     1      19.884  12.753  -7.107  1.00  0.00    -0.200 F 
ATOM     98  F   UNL     1      19.758  11.711  -9.625  1.00  0.00    -0.200 F 
ENDBRANCH  65  88
ENDBRANCH  39  40
ENDBRANCH  31  34
ENDBRANCH  29  30
ENDBRANCH  28  29
ENDBRANCH   1  28
TORSDOF 15
