REMARK SMILES CCN(CC)c1ccc([C@@H]2[NH2+][C@H](C(=O)NCCCNC(=O)c3ccc(-c4c5nc(c(-c6c(F)c(F)c(F)c(F)c6F)c6ccc([nH]6)c(-c6c(F)c(F)c(F)c(F)c6F)c6nc(c(-c7c(F)c(F)c(F)c(F)c7F)c7ccc4[nH]7)C=C6)C=C5)cc3)Cc3c2[nH]c2ccccc32)cc1
REMARK SMILES IDX 16 1 15 2 13 3 14 4 12 6 10 7 11 8 87 9 86 12 88 13 85 14
REMARK SMILES IDX 94 15 89 16 93 18 90 19 92 20 91 21 9 22 6 23 7 24 96 25
REMARK SMILES IDX 8 26 95 27 3 28 2 29 1 30 4 31 5 32 17 33 18 34 19 35 20 36
REMARK SMILES IDX 21 38 22 39 23 40 84 41 24 42 83 43 25 44 26 45 27 46 77 47
REMARK SMILES IDX 28 48 82 49 76 50 78 51 29 52 81 53 75 54 74 55 30 57 62 58
REMARK SMILES IDX 42 59 61 60 43 61 46 62 60 63 79 64 44 65 45 66 59 68 80 69
REMARK SMILES IDX 47 70 31 71 32 72 40 73 33 74 34 75 38 76 41 77 35 78 36 79
REMARK SMILES IDX 39 80 37 81 63 82 64 83 72 84 65 85 66 86 70 87 73 88 67 89
REMARK SMILES IDX 68 90 71 91 69 92 48 93 49 94 57 95 50 96 51 97 55 98 58 99
REMARK SMILES IDX 52 100 53 101 56 102 54 103
REMARK H PARENT 15 5 11 10 11 11 88 17 19 37 78 56 46 67
REMARK Flexibility Score: inf
ROOT
ATOM      1  C   UNL     1       6.469   4.311  -0.616  1.00  0.00     0.118 C 
ENDROOT
BRANCH   1   2
ATOM      2  N   UNL     1       7.010   3.201   0.142  1.00  0.00    -0.351 N 
ATOM      3  C   UNL     1       7.690   2.067  -0.143  1.00  0.00     0.278 C 
ATOM      4  O   UNL     1       8.042   1.428   0.861  1.00  0.00    -0.268 OA
ATOM      5  H   UNL     1       6.840   3.297   1.107  1.00  0.00     0.163 HD
BRANCH   3   6
ATOM      6  C   UNL     1       7.927   1.460  -1.557  1.00  0.00     0.277 C 
ATOM      7  C   UNL     1       6.649  -0.312  -2.964  1.00  0.00     0.262 C 
ATOM      8  N   UNL     1       7.086   0.229  -1.651  1.00  0.00    -0.325 N 
ATOM      9  C   UNL     1       7.085   0.600  -4.060  1.00  0.00     0.083 A 
ATOM     10  H   UNL     1       7.613  -0.515  -1.194  1.00  0.00     0.347 HD
ATOM     11  H   UNL     1       6.206   0.531  -1.233  1.00  0.00     0.347 HD
ATOM     12  C   UNL     1       7.331   1.944  -3.938  1.00  0.00    -0.006 A 
ATOM     13  N   UNL     1       7.257   0.369  -5.402  1.00  0.00    -0.353 N 
ATOM     14  C   UNL     1       8.004   2.447  -2.735  1.00  0.00     0.114 C 
ATOM     15  C   UNL     1       6.631   2.474  -5.043  1.00  0.00     0.003 A 
ATOM     16  C   UNL     1       6.869   1.533  -6.051  1.00  0.00     0.046 A 
ATOM     17  H   UNL     1       7.590  -0.458  -5.821  1.00  0.00     0.166 HD
ATOM     18  C   UNL     1       5.839   3.597  -5.348  1.00  0.00     0.010 A 
ATOM     19  C   UNL     1       6.631   1.801  -7.399  1.00  0.00     0.026 A 
ATOM     20  C   UNL     1       5.388   3.761  -6.664  1.00  0.00     0.001 A 
ATOM     21  C   UNL     1       5.855   2.929  -7.683  1.00  0.00     0.002 A 
BRANCH   7  22
ATOM     22  C   UNL     1       5.095  -0.452  -2.914  1.00  0.00     0.016 A 
ATOM     23  C   UNL     1       2.271  -0.067  -2.495  1.00  0.00     0.037 A 
ATOM     24  C   UNL     1       2.868   0.148  -3.739  1.00  0.00     0.026 A 
ATOM     25  C   UNL     1       3.085  -0.695  -1.545  1.00  0.00     0.026 A 
ATOM     26  C   UNL     1       4.247  -0.029  -3.945  1.00  0.00     0.012 A 
ATOM     27  C   UNL     1       4.457  -0.916  -1.754  1.00  0.00     0.012 A 
BRANCH  23  28
ATOM     28  N   UNL     1       0.970   0.332  -2.206  1.00  0.00    -0.372 N 
BRANCH  28  29
ATOM     29  C   UNL     1       0.696   1.042  -0.942  1.00  0.00     0.113 C 
ATOM     30  C   UNL     1       0.486   0.121   0.249  1.00  0.00     0.027 C 
ENDBRANCH  28  29
BRANCH  28  31
ATOM     31  C   UNL     1      -0.040   0.476  -3.267  1.00  0.00     0.113 C 
ATOM     32  C   UNL     1      -0.074   1.876  -3.877  1.00  0.00     0.027 C 
ENDBRANCH  28  31
ENDBRANCH  23  28
ENDBRANCH   7  22
ENDBRANCH   3   6
ENDBRANCH   1   2
BRANCH   1  33
ATOM     33  C   UNL     1       5.196   3.963  -1.366  1.00  0.00     0.042 C 
BRANCH  33  34
ATOM     34  C   UNL     1       4.244   5.148  -1.452  1.00  0.00     0.118 C 
BRANCH  34  35
ATOM     35  N   UNL     1       4.821   6.320  -2.097  1.00  0.00    -0.352 N 
ATOM     36  C   UNL     1       4.363   7.104  -3.128  1.00  0.00     0.251 C 
ATOM     37  H   UNL     1       5.691   6.599  -1.730  1.00  0.00     0.163 HD
ATOM     38  O   UNL     1       5.084   7.990  -3.571  1.00  0.00    -0.269 OA
BRANCH  36  39
ATOM     39  C   UNL     1       3.025   6.886  -3.726  1.00  0.00     0.039 A 
ATOM     40  C   UNL     1       2.854   7.124  -5.095  1.00  0.00     0.014 A 
ATOM     41  C   UNL     1       1.930   6.500  -2.954  1.00  0.00     0.014 A 
ATOM     42  C   UNL     1       1.604   6.930  -5.689  1.00  0.00     0.010 A 
ATOM     43  C   UNL     1       0.720   6.194  -3.564  1.00  0.00     0.010 A 
ATOM     44  C   UNL     1       0.532   6.435  -4.932  1.00  0.00    -0.014 A 
BRANCH  44  45
ATOM     45  C   UNL     1      -0.814   6.214  -5.517  1.00  0.00     0.031 A 
ATOM     46  C   UNL     1      -2.000   6.954  -4.955  1.00  0.00     0.074 A 
ATOM     47  C   UNL     1      -0.988   5.292  -6.481  1.00  0.00     0.049 A 
ATOM     48  N   UNL     1      -3.275   6.801  -5.210  1.00  0.00    -0.248 NA
ATOM     49  C   UNL     1      -1.715   7.969  -3.928  1.00  0.00     0.031 C 
ATOM     50  C   UNL     1       0.072   4.478  -7.076  1.00  0.00     0.029 A 
ATOM     51  N   UNL     1      -2.127   4.879  -7.125  1.00  0.00    -0.354 N 
ATOM     52  C   UNL     1      -3.939   7.658  -4.340  1.00  0.00     0.074 A 
ATOM     53  C   UNL     1      -2.932   8.285  -3.514  1.00  0.00     0.031 C 
ATOM     54  C   UNL     1      -0.460   3.693  -8.027  1.00  0.00     0.029 A 
ATOM     55  C   UNL     1      -1.901   3.915  -8.075  1.00  0.00     0.049 A 
ATOM     56  H   UNL     1      -3.020   5.241  -6.925  1.00  0.00     0.167 HD
ATOM     57  C   UNL     1      -5.266   7.917  -4.255  1.00  0.00     0.037 A 
ATOM     58  C   UNL     1      -2.765   3.282  -8.892  1.00  0.00     0.037 A 
ATOM     59  C   UNL     1      -6.252   7.343  -5.130  1.00  0.00     0.049 A 
ATOM     60  C   UNL     1      -4.229   3.614  -8.809  1.00  0.00     0.074 A 
ATOM     61  C   UNL     1      -7.608   7.607  -5.197  1.00  0.00     0.029 A 
ATOM     62  N   UNL     1      -5.980   6.391  -6.103  1.00  0.00    -0.354 N 
ATOM     63  N   UNL     1      -4.841   4.464  -8.020  1.00  0.00    -0.248 NA
ATOM     64  C   UNL     1      -5.121   2.898  -9.730  1.00  0.00     0.031 C 
ATOM     65  C   UNL     1      -8.163   6.787  -6.186  1.00  0.00     0.029 A 
ATOM     66  C   UNL     1      -7.146   6.043  -6.764  1.00  0.00     0.049 A 
ATOM     67  H   UNL     1      -5.089   6.019  -6.295  1.00  0.00     0.167 HD
ATOM     68  C   UNL     1      -6.184   4.406  -8.365  1.00  0.00     0.074 A 
ATOM     69  C   UNL     1      -6.295   3.443  -9.443  1.00  0.00     0.031 C 
ATOM     70  C   UNL     1      -7.232   5.087  -7.838  1.00  0.00     0.037 A 
BRANCH  57  71
ATOM     71  C   UNL     1      -5.718   8.862  -3.177  1.00  0.00     0.064 A 
ATOM     72  C   UNL     1      -5.395  10.228  -3.203  1.00  0.00     0.173 A 
ATOM     73  C   UNL     1      -6.484   8.393  -2.098  1.00  0.00     0.173 A 
ATOM     74  F   UNL     1      -4.654  10.728  -4.204  1.00  0.00    -0.203 F 
ATOM     75  C   UNL     1      -5.776  11.076  -2.166  1.00  0.00     0.198 A 
ATOM     76  C   UNL     1      -6.895   9.252  -1.081  1.00  0.00     0.198 A 
ATOM     77  F   UNL     1      -6.830   7.099  -2.025  1.00  0.00    -0.203 F 
ATOM     78  F   UNL     1      -5.390  12.360  -2.177  1.00  0.00    -0.200 F 
ATOM     79  C   UNL     1      -6.529  10.589  -1.109  1.00  0.00     0.200 A 
ATOM     80  F   UNL     1      -7.633   8.782  -0.067  1.00  0.00    -0.200 F 
ATOM     81  F   UNL     1      -6.890  11.406  -0.109  1.00  0.00    -0.200 F 
ENDBRANCH  57  71
BRANCH  58  82
ATOM     82  C   UNL     1      -2.252   2.315  -9.895  1.00  0.00     0.064 A 
ATOM     83  C   UNL     1      -2.234   2.648 -11.256  1.00  0.00     0.173 A 
ATOM     84  C   UNL     1      -1.740   1.065  -9.520  1.00  0.00     0.173 A 
ATOM     85  F   UNL     1      -2.729   3.826 -11.662  1.00  0.00    -0.203 F 
ATOM     86  C   UNL     1      -1.731   1.764 -12.207  1.00  0.00     0.198 A 
ATOM     87  C   UNL     1      -1.215   0.190 -10.470  1.00  0.00     0.198 A 
ATOM     88  F   UNL     1      -1.728   0.703  -8.229  1.00  0.00    -0.203 F 
ATOM     89  F   UNL     1      -1.751   2.096 -13.505  1.00  0.00    -0.200 F 
ATOM     90  C   UNL     1      -1.214   0.539 -11.813  1.00  0.00     0.200 A 
ATOM     91  F   UNL     1      -0.703  -0.986 -10.084  1.00  0.00    -0.200 F 
ATOM     92  F   UNL     1      -0.718  -0.306 -12.727  1.00  0.00    -0.200 F 
ENDBRANCH  58  82
BRANCH  70  93
ATOM     93  C   UNL     1      -8.582   4.840  -8.442  1.00  0.00     0.064 A 
ATOM     94  C   UNL     1      -9.283   3.647  -8.210  1.00  0.00     0.173 A 
ATOM     95  C   UNL     1      -9.200   5.826  -9.226  1.00  0.00     0.173 A 
ATOM     96  F   UNL     1      -8.727   2.669  -7.479  1.00  0.00    -0.203 F 
ATOM     97  C   UNL     1     -10.545   3.442  -8.760  1.00  0.00     0.198 A 
ATOM     98  C   UNL     1     -10.473   5.629  -9.751  1.00  0.00     0.198 A 
ATOM     99  F   UNL     1      -8.573   6.986  -9.471  1.00  0.00    -0.203 F 
ATOM    100  F   UNL     1     -11.179   2.278  -8.562  1.00  0.00    -0.200 F 
ATOM    101  C   UNL     1     -11.142   4.435  -9.523  1.00  0.00     0.200 A 
ATOM    102  F   UNL     1     -11.054   6.594 -10.477  1.00  0.00    -0.200 F 
ATOM    103  F   UNL     1     -12.360   4.239 -10.046  1.00  0.00    -0.200 F 
ENDBRANCH  70  93
ENDBRANCH  44  45
ENDBRANCH  36  39
ENDBRANCH  34  35
ENDBRANCH  33  34
ENDBRANCH   1  33
TORSDOF 14
