REMARK SMILES Nc1c(C(=O)OCC2c3ccccc3-c3ccccc32)ccc(F)c1C(=O)NCCCNC(=O)c1ccc(-c2c3nc(c(-c4c(F)c(F)c(F)c(F)c4F)c4ccc([nH]4)c(-c4c(F)c(F)c(F)c(F)c4F)c4nc(c(-c5c(F)c(F)c(F)c(F)c5F)c5ccc2[nH]5)C=C4)C=C3)cc1
REMARK SMILES IDX 29 1 28 2 26 3 27 4 25 6 2 7 3 8 21 9 23 10 22 11 24 12 1 13
REMARK SMILES IDX 4 16 5 17 6 18 7 19 8 20 9 21 20 22 10 23 14 24 15 25 19 26
REMARK SMILES IDX 11 27 13 28 16 29 18 30 12 31 17 32 30 33 31 34 32 35 33 36
REMARK SMILES IDX 34 38 35 39 36 40 97 41 37 42 96 43 38 44 39 45 40 46 90 47
REMARK SMILES IDX 41 48 95 49 89 50 91 51 42 52 94 53 88 54 87 55 43 57 75 58
REMARK SMILES IDX 55 59 74 60 56 61 59 62 73 63 92 64 57 65 58 66 72 68 93 69
REMARK SMILES IDX 60 70 44 71 45 72 53 73 46 74 47 75 51 76 54 77 48 78 49 79
REMARK SMILES IDX 52 80 50 81 76 82 77 83 85 84 78 85 79 86 83 87 86 88 80 89
REMARK SMILES IDX 81 90 84 91 82 92 61 93 62 94 70 95 63 96 64 97 68 98 71 99
REMARK SMILES IDX 65 100 66 101 69 102 67 103
REMARK H PARENT 28 5 1 14 1 15 32 37 91 56 59 67
REMARK Flexibility Score: inf
ROOT
ATOM      1  C   UNL     1       2.281   3.073   0.613  1.00  0.00     0.118 C 
ENDROOT
BRANCH   1   2
ATOM      2  N   UNL     1       0.897   3.227   0.197  1.00  0.00    -0.352 N 
ATOM      3  C   UNL     1      -0.039   2.330  -0.263  1.00  0.00     0.256 C 
ATOM      4  O   UNL     1      -1.098   2.807  -0.673  1.00  0.00    -0.269 OA
ATOM      5  H   UNL     1       0.565   4.152   0.257  1.00  0.00     0.163 HD
BRANCH   3   6
ATOM      6  C   UNL     1       0.132   0.848  -0.243  1.00  0.00     0.099 A 
ATOM      7  C   UNL     1       1.311   0.152  -0.578  1.00  0.00     0.062 A 
ATOM      8  C   UNL     1       1.325  -1.260  -0.469  1.00  0.00     0.084 A 
ATOM      9  C   UNL     1       0.168  -1.979  -0.152  1.00  0.00     0.021 A 
ATOM     10  C   UNL     1      -1.010   0.104   0.106  1.00  0.00     0.138 A 
ATOM     11  C   UNL     1      -1.006  -1.291   0.124  1.00  0.00     0.041 A 
ATOM     12  F   UNL     1      -2.160   0.710   0.439  1.00  0.00    -0.206 F 
BRANCH   7  13
ATOM     13  N   UNL     1       2.372   0.766  -1.260  1.00  0.00    -0.397 N 
ATOM     14  H   UNL     1       3.181   0.250  -1.478  1.00  0.00     0.156 HD
ATOM     15  H   UNL     1       2.307   1.714  -1.520  1.00  0.00     0.156 HD
ENDBRANCH   7  13
BRANCH   8  16
ATOM     16  C   UNL     1       2.578  -2.024  -0.684  1.00  0.00     0.340 C 
ATOM     17  O   UNL     1       2.635  -3.099  -1.257  1.00  0.00    -0.246 OA
BRANCH  16  18
ATOM     18  O   UNL     1       3.598  -1.360  -0.065  1.00  0.00    -0.461 OA
BRANCH  18  19
ATOM     19  C   UNL     1       4.864  -2.040  -0.012  1.00  0.00     0.246 C 
BRANCH  19  20
ATOM     20  C   UNL     1       5.123  -2.707   1.356  1.00  0.00     0.088 C 
ATOM     21  C   UNL     1       3.950  -3.561   1.819  1.00  0.00    -0.029 A 
ATOM     22  C   UNL     1       6.215  -3.759   1.192  1.00  0.00    -0.029 A 
ATOM     23  C   UNL     1       2.714  -3.140   2.289  1.00  0.00     0.005 A 
ATOM     24  C   UNL     1       4.257  -4.927   1.670  1.00  0.00    -0.014 A 
ATOM     25  C   UNL     1       5.657  -5.052   1.321  1.00  0.00    -0.014 A 
ATOM     26  C   UNL     1       7.560  -3.573   0.911  1.00  0.00     0.005 A 
ATOM     27  C   UNL     1       1.729  -4.103   2.496  1.00  0.00     0.000 A 
ATOM     28  C   UNL     1       3.277  -5.883   1.868  1.00  0.00     0.009 A 
ATOM     29  C   UNL     1       6.449  -6.175   1.157  1.00  0.00     0.009 A 
ATOM     30  C   UNL     1       8.357  -4.708   0.750  1.00  0.00     0.000 A 
ATOM     31  C   UNL     1       2.001  -5.460   2.260  1.00  0.00     0.001 A 
ATOM     32  C   UNL     1       7.806  -5.996   0.868  1.00  0.00     0.001 A 
ENDBRANCH  19  20
ENDBRANCH  18  19
ENDBRANCH  16  18
ENDBRANCH   8  16
ENDBRANCH   3   6
ENDBRANCH   1   2
BRANCH   1  33
ATOM     33  C   UNL     1       3.231   3.405  -0.540  1.00  0.00     0.042 C 
BRANCH  33  34
ATOM     34  C   UNL     1       3.446   4.889  -0.775  1.00  0.00     0.118 C 
BRANCH  34  35
ATOM     35  N   UNL     1       4.358   5.470   0.193  1.00  0.00    -0.352 N 
ATOM     36  C   UNL     1       5.619   5.985   0.018  1.00  0.00     0.251 C 
ATOM     37  H   UNL     1       4.021   5.500   1.118  1.00  0.00     0.163 HD
ATOM     38  O   UNL     1       6.321   6.207   1.001  1.00  0.00    -0.269 OA
BRANCH  36  39
ATOM     39  C   UNL     1       6.153   6.258  -1.339  1.00  0.00     0.039 A 
ATOM     40  C   UNL     1       7.511   6.030  -1.584  1.00  0.00     0.014 A 
ATOM     41  C   UNL     1       5.347   6.777  -2.355  1.00  0.00     0.014 A 
ATOM     42  C   UNL     1       8.043   6.270  -2.854  1.00  0.00     0.010 A 
ATOM     43  C   UNL     1       5.853   6.922  -3.644  1.00  0.00     0.010 A 
ATOM     44  C   UNL     1       7.210   6.686  -3.906  1.00  0.00    -0.014 A 
BRANCH  44  45
ATOM     45  C   UNL     1       7.742   6.900  -5.277  1.00  0.00     0.031 A 
ATOM     46  C   UNL     1       7.679   8.265  -5.906  1.00  0.00     0.074 A 
ATOM     47  C   UNL     1       8.222   5.855  -5.979  1.00  0.00     0.049 A 
ATOM     48  N   UNL     1       8.011   8.637  -7.117  1.00  0.00    -0.248 NA
ATOM     49  C   UNL     1       7.146   9.354  -5.072  1.00  0.00     0.031 C 
ATOM     50  C   UNL     1       8.300   4.476  -5.494  1.00  0.00     0.029 A 
ATOM     51  N   UNL     1       8.724   5.786  -7.255  1.00  0.00    -0.354 N 
ATOM     52  C   UNL     1       7.713   9.992  -7.192  1.00  0.00     0.074 A 
ATOM     53  C   UNL     1       7.120  10.366  -5.927  1.00  0.00     0.031 C 
ATOM     54  C   UNL     1       8.836   3.702  -6.451  1.00  0.00     0.029 A 
ATOM     55  C   UNL     1       9.096   4.518  -7.633  1.00  0.00     0.049 A 
ATOM     56  H   UNL     1       8.810   6.570  -7.844  1.00  0.00     0.167 HD
ATOM     57  C   UNL     1       7.934  10.851  -8.216  1.00  0.00     0.037 A 
ATOM     58  C   UNL     1       9.576   4.062  -8.806  1.00  0.00     0.037 A 
ATOM     59  C   UNL     1       8.543  10.477  -9.465  1.00  0.00     0.049 A 
ATOM     60  C   UNL     1       9.790   5.033  -9.937  1.00  0.00     0.074 A 
ATOM     61  C   UNL     1       8.866  11.283 -10.543  1.00  0.00     0.029 A 
ATOM     62  N   UNL     1       8.916   9.184  -9.806  1.00  0.00    -0.354 N 
ATOM     63  N   UNL     1       9.569   6.325  -9.972  1.00  0.00    -0.248 NA
ATOM     64  C   UNL     1      10.327   4.484 -11.190  1.00  0.00     0.031 C 
ATOM     65  C   UNL     1       9.374  10.469 -11.560  1.00  0.00     0.029 A 
ATOM     66  C   UNL     1       9.435   9.166 -11.091  1.00  0.00     0.049 A 
ATOM     67  H   UNL     1       8.824   8.397  -9.223  1.00  0.00     0.167 HD
ATOM     68  C   UNL     1       9.967   6.747 -11.233  1.00  0.00     0.074 A 
ATOM     69  C   UNL     1      10.458   5.576 -11.929  1.00  0.00     0.031 C 
ATOM     70  C   UNL     1       9.930   7.993 -11.767  1.00  0.00     0.037 A 
BRANCH  57  71
ATOM     71  C   UNL     1       7.512  12.282  -8.032  1.00  0.00     0.064 A 
ATOM     72  C   UNL     1       8.157  13.132  -7.120  1.00  0.00     0.173 A 
ATOM     73  C   UNL     1       6.476  12.823  -8.809  1.00  0.00     0.173 A 
ATOM     74  F   UNL     1       9.148  12.665  -6.345  1.00  0.00    -0.203 F 
ATOM     75  C   UNL     1       7.760  14.459  -6.970  1.00  0.00     0.198 A 
ATOM     76  C   UNL     1       6.106  14.160  -8.682  1.00  0.00     0.198 A 
ATOM     77  F   UNL     1       5.830  12.059  -9.702  1.00  0.00    -0.203 F 
ATOM     78  F   UNL     1       8.356  15.236  -6.055  1.00  0.00    -0.200 F 
ATOM     79  C   UNL     1       6.741  14.974  -7.757  1.00  0.00     0.200 A 
ATOM     80  F   UNL     1       5.132  14.660  -9.456  1.00  0.00    -0.200 F 
ATOM     81  F   UNL     1       6.368  16.253  -7.620  1.00  0.00    -0.200 F 
ENDBRANCH  57  71
BRANCH  58  82
ATOM     82  C   UNL     1       9.896   2.618  -8.969  1.00  0.00     0.064 A 
ATOM     83  C   UNL     1      11.219   2.185  -9.131  1.00  0.00     0.173 A 
ATOM     84  C   UNL     1       8.887   1.643  -8.972  1.00  0.00     0.173 A 
ATOM     85  F   UNL     1      12.218   3.080  -9.153  1.00  0.00    -0.203 F 
ATOM     86  C   UNL     1      11.520   0.837  -9.314  1.00  0.00     0.198 A 
ATOM     87  C   UNL     1       9.192   0.291  -9.121  1.00  0.00     0.198 A 
ATOM     88  F   UNL     1       7.605   2.001  -8.813  1.00  0.00    -0.203 F 
ATOM     89  F   UNL     1      12.788   0.457  -9.518  1.00  0.00    -0.200 F 
ATOM     90  C   UNL     1      10.506  -0.110  -9.303  1.00  0.00     0.200 A 
ATOM     91  F   UNL     1       8.211  -0.621  -9.090  1.00  0.00    -0.200 F 
ATOM     92  F   UNL     1      10.796  -1.407  -9.473  1.00  0.00    -0.200 F 
ENDBRANCH  58  82
BRANCH  70  93
ATOM     93  C   UNL     1      10.475   8.169 -13.155  1.00  0.00     0.064 A 
ATOM     94  C   UNL     1       9.808   7.665 -14.282  1.00  0.00     0.173 A 
ATOM     95  C   UNL     1      11.654   8.902 -13.364  1.00  0.00     0.173 A 
ATOM     96  F   UNL     1       8.685   6.946 -14.136  1.00  0.00    -0.203 F 
ATOM     97  C   UNL     1      10.315   7.867 -15.563  1.00  0.00     0.198 A 
ATOM     98  C   UNL     1      12.138   9.132 -14.648  1.00  0.00     0.198 A 
ATOM     99  F   UNL     1      12.327   9.413 -12.322  1.00  0.00    -0.203 F 
ATOM    100  F   UNL     1       9.688   7.334 -16.621  1.00  0.00    -0.200 F 
ATOM    101  C   UNL     1      11.473   8.608 -15.746  1.00  0.00     0.200 A 
ATOM    102  F   UNL     1      13.247   9.864 -14.823  1.00  0.00    -0.200 F 
ATOM    103  F   UNL     1      11.951   8.813 -16.981  1.00  0.00    -0.200 F 
ENDBRANCH  70  93
ENDBRANCH  44  45
ENDBRANCH  36  39
ENDBRANCH  34  35
ENDBRANCH  33  34
ENDBRANCH   1  33
TORSDOF 15
