REMARK SMILES Cc1sc(NC(=O)c2ccc(Br)nc2)c(C(=O)NCCCNC(=O)c2ccc(-c3c4nc(c(-c5c(F)c(F)c(F)c(F)c5F)c5ccc([nH]5)c(-c5c(F)c(F)c(F)c(F)c5F)c5nc(c(-c6c(F)c(F)c(F)c(F)c6F)c6ccc3[nH]6)C=C5)C=C4)cc2)c1C
REMARK SMILES IDX 20 1 19 2 18 3 16 4 17 5 15 7 1 8 2 9 3 10 88 11 4 12 89 13
REMARK SMILES IDX 5 14 6 15 7 17 8 18 9 19 14 20 10 21 13 22 11 23 12 24 21 25
REMARK SMILES IDX 22 26 23 27 24 29 25 30 26 31 87 32 27 33 86 34 28 35 29 36
REMARK SMILES IDX 30 37 80 38 31 39 85 40 79 41 81 42 32 43 84 44 78 45 77 46
REMARK SMILES IDX 33 48 65 49 45 50 64 51 46 52 49 53 63 54 82 55 47 56 48 57
REMARK SMILES IDX 62 59 83 60 50 61 34 62 35 63 43 64 36 65 37 66 41 67 44 68
REMARK SMILES IDX 38 69 39 70 42 71 40 72 66 73 67 74 75 75 68 76 69 77 73 78
REMARK SMILES IDX 76 79 70 80 71 81 74 82 72 83 51 84 52 85 60 86 53 87 54 88
REMARK SMILES IDX 58 89 61 90 55 91 56 92 59 93 57 94
REMARK H PARENT 18 6 5 16 22 28 81 47 49 58
REMARK Flexibility Score: inf
ROOT
ATOM      1  C   UNL     1       2.280  -4.404   2.511  1.00  0.00     0.042 C 
ENDROOT
BRANCH   1   2
ATOM      2  C   UNL     1       1.613  -3.399   1.587  1.00  0.00     0.118 C 
BRANCH   2   3
ATOM      3  N   UNL     1       0.174  -3.565   1.480  1.00  0.00    -0.352 N 
ATOM      4  C   UNL     1      -0.755  -2.743   0.887  1.00  0.00     0.254 C 
ATOM      5  O   UNL     1      -1.944  -2.998   1.068  1.00  0.00    -0.269 OA
ATOM      6  H   UNL     1      -0.187  -4.384   1.889  1.00  0.00     0.163 HD
BRANCH   4   7
ATOM      7  C   UNL     1      -0.321  -1.562   0.136  1.00  0.00     0.077 A 
ATOM      8  C   UNL     1      -0.487   2.209  -0.326  1.00  0.00     0.057 C 
ATOM      9  C   UNL     1      -0.234   0.737  -0.331  1.00  0.00     0.007 A 
ATOM     10  S   UNL     1       1.179   0.130  -1.071  1.00  0.00    -0.122 S 
ATOM     11  C   UNL     1      -1.024  -0.285   0.173  1.00  0.00    -0.022 A 
ATOM     12  C   UNL     1       0.702  -1.479  -0.793  1.00  0.00     0.109 A 
ATOM     13  C   UNL     1      -2.404  -0.110   0.733  1.00  0.00     0.046 C 
BRANCH  12  14
ATOM     14  N   UNL     1       1.460  -2.368  -1.522  1.00  0.00    -0.313 N 
ATOM     15  C   UNL     1       1.197  -3.687  -1.818  1.00  0.00     0.257 C 
ATOM     16  H   UNL     1       2.304  -2.011  -1.882  1.00  0.00     0.171 HD
ATOM     17  O   UNL     1       2.119  -4.435  -2.135  1.00  0.00    -0.269 OA
BRANCH  15  18
ATOM     18  C   UNL     1      -0.171  -4.234  -1.776  1.00  0.00     0.058 A 
ATOM     19  C   UNL     1      -1.286  -3.528  -2.227  1.00  0.00     0.018 A 
ATOM     20  C   UNL     1      -0.368  -5.504  -1.247  1.00  0.00     0.126 A 
ATOM     21  C   UNL     1      -2.556  -4.068  -2.022  1.00  0.00     0.037 A 
ATOM     22  N   UNL     1      -1.589  -6.050  -1.034  1.00  0.00    -0.249 NA
ATOM     23  C   UNL     1      -2.658  -5.308  -1.403  1.00  0.00     0.106 A 
ATOM     24  Br  UNL     1      -4.381  -6.006  -1.034  1.00  0.00    -0.029 Br
ENDBRANCH  15  18
ENDBRANCH  12  14
ENDBRANCH   4   7
ENDBRANCH   2   3
ENDBRANCH   1   2
BRANCH   1  25
ATOM     25  C   UNL     1       2.090  -5.869   2.135  1.00  0.00     0.118 C 
BRANCH  25  26
ATOM     26  N   UNL     1       2.663  -6.286   0.862  1.00  0.00    -0.352 N 
ATOM     27  C   UNL     1       3.265  -7.485   0.533  1.00  0.00     0.251 C 
ATOM     28  H   UNL     1       2.614  -5.622   0.137  1.00  0.00     0.163 HD
ATOM     29  O   UNL     1       3.623  -7.704  -0.620  1.00  0.00    -0.269 OA
BRANCH  27  30
ATOM     30  C   UNL     1       3.586  -8.471   1.591  1.00  0.00     0.039 A 
ATOM     31  C   UNL     1       4.889  -8.977   1.637  1.00  0.00     0.014 A 
ATOM     32  C   UNL     1       2.674  -8.807   2.591  1.00  0.00     0.014 A 
ATOM     33  C   UNL     1       5.316  -9.692   2.757  1.00  0.00     0.010 A 
ATOM     34  C   UNL     1       3.129  -9.425   3.754  1.00  0.00     0.010 A 
ATOM     35  C   UNL     1       4.464  -9.845   3.863  1.00  0.00    -0.014 A 
BRANCH  35  36
ATOM     36  C   UNL     1       4.981 -10.372   5.155  1.00  0.00     0.031 A 
ATOM     37  C   UNL     1       4.394 -11.609   5.773  1.00  0.00     0.074 A 
ATOM     38  C   UNL     1       5.934  -9.681   5.816  1.00  0.00     0.049 A 
ATOM     39  N   UNL     1       4.692 -12.186   6.911  1.00  0.00    -0.248 NA
ATOM     40  C   UNL     1       3.301 -12.263   5.038  1.00  0.00     0.031 C 
ATOM     41  C   UNL     1       6.524  -8.415   5.375  1.00  0.00     0.029 A 
ATOM     42  N   UNL     1       6.575  -9.945   7.001  1.00  0.00    -0.354 N 
ATOM     43  C   UNL     1       3.811 -13.251   7.036  1.00  0.00     0.074 A 
ATOM     44  C   UNL     1       2.930 -13.208   5.889  1.00  0.00     0.031 C 
ATOM     45  C   UNL     1       7.469  -8.037   6.250  1.00  0.00     0.029 A 
ATOM     46  C   UNL     1       7.533  -9.016   7.330  1.00  0.00     0.049 A 
ATOM     47  H   UNL     1       6.368 -10.726   7.563  1.00  0.00     0.167 HD
ATOM     48  C   UNL     1       3.760 -14.199   8.003  1.00  0.00     0.037 A 
ATOM     49  C   UNL     1       8.377  -8.965   8.377  1.00  0.00     0.037 A 
ATOM     50  C   UNL     1       4.662 -14.269   9.121  1.00  0.00     0.049 A 
ATOM     51  C   UNL     1       8.345 -10.066   9.400  1.00  0.00     0.074 A 
ATOM     52  C   UNL     1       4.735 -15.229  10.116  1.00  0.00     0.029 A 
ATOM     53  N   UNL     1       5.659 -13.342   9.387  1.00  0.00    -0.354 N 
ATOM     54  N   UNL     1       7.561 -11.113   9.463  1.00  0.00    -0.248 NA
ATOM     55  C   UNL     1       9.325  -9.982  10.492  1.00  0.00     0.031 C 
ATOM     56  C   UNL     1       5.759 -14.868  10.999  1.00  0.00     0.029 A 
ATOM     57  C   UNL     1       6.348 -13.704  10.534  1.00  0.00     0.049 A 
ATOM     58  H   UNL     1       5.849 -12.544   8.842  1.00  0.00     0.167 HD
ATOM     59  C   UNL     1       7.967 -11.826  10.582  1.00  0.00     0.074 A 
ATOM     60  C   UNL     1       9.081 -11.102  11.158  1.00  0.00     0.031 C 
ATOM     61  C   UNL     1       7.460 -12.977  11.088  1.00  0.00     0.037 A 
BRANCH  48  62
ATOM     62  C   UNL     1       2.696 -15.251   7.876  1.00  0.00     0.064 A 
ATOM     63  C   UNL     1       2.756 -16.235   6.877  1.00  0.00     0.173 A 
ATOM     64  C   UNL     1       1.617 -15.287   8.770  1.00  0.00     0.173 A 
ATOM     65  F   UNL     1       3.762 -16.235   5.989  1.00  0.00    -0.203 F 
ATOM     66  C   UNL     1       1.755 -17.194   6.756  1.00  0.00     0.198 A 
ATOM     67  C   UNL     1       0.632 -16.267   8.664  1.00  0.00     0.198 A 
ATOM     68  F   UNL     1       1.515 -14.374   9.748  1.00  0.00    -0.203 F 
ATOM     69  F   UNL     1       1.804 -18.089   5.759  1.00  0.00    -0.200 F 
ATOM     70  C   UNL     1       0.697 -17.213   7.652  1.00  0.00     0.200 A 
ATOM     71  F   UNL     1      -0.384 -16.292   9.538  1.00  0.00    -0.200 F 
ATOM     72  F   UNL     1      -0.265 -18.139   7.535  1.00  0.00    -0.200 F 
ENDBRANCH  48  62
BRANCH  49  73
ATOM     73  C   UNL     1       9.368  -7.863   8.481  1.00  0.00     0.064 A 
ATOM     74  C   UNL     1      10.732  -8.105   8.262  1.00  0.00     0.173 A 
ATOM     75  C   UNL     1       8.982  -6.556   8.807  1.00  0.00     0.173 A 
ATOM     76  F   UNL     1      11.152  -9.345   7.968  1.00  0.00    -0.203 F 
ATOM     77  C   UNL     1      11.674  -7.087   8.387  1.00  0.00     0.198 A 
ATOM     78  C   UNL     1       9.922  -5.532   8.907  1.00  0.00     0.198 A 
ATOM     79  F   UNL     1       7.688  -6.271   9.019  1.00  0.00    -0.203 F 
ATOM     80  F   UNL     1      12.976  -7.357   8.217  1.00  0.00    -0.200 F 
ATOM     81  C   UNL     1      11.268  -5.800   8.706  1.00  0.00     0.200 A 
ATOM     82  F   UNL     1       9.525  -4.287   9.204  1.00  0.00    -0.200 F 
ATOM     83  F   UNL     1      12.174  -4.821   8.826  1.00  0.00    -0.200 F 
ENDBRANCH  49  73
BRANCH  61  84
ATOM     84  C   UNL     1       8.129 -13.537  12.308  1.00  0.00     0.064 A 
ATOM     85  C   UNL     1       7.979 -12.938  13.568  1.00  0.00     0.173 A 
ATOM     86  C   UNL     1       8.913 -14.696  12.218  1.00  0.00     0.173 A 
ATOM     87  F   UNL     1       7.252 -11.819  13.701  1.00  0.00    -0.203 F 
ATOM     88  C   UNL     1       8.614 -13.465  14.689  1.00  0.00     0.198 A 
ATOM     89  C   UNL     1       9.525 -15.235  13.346  1.00  0.00     0.198 A 
ATOM     90  F   UNL     1       9.084 -15.307  11.037  1.00  0.00    -0.203 F 
ATOM     91  F   UNL     1       8.498 -12.849  15.874  1.00  0.00    -0.200 F 
ATOM     92  C   UNL     1       9.382 -14.615  14.579  1.00  0.00     0.200 A 
ATOM     93  F   UNL     1      10.259 -16.351  13.240  1.00  0.00    -0.200 F 
ATOM     94  F   UNL     1       9.993 -15.120  15.659  1.00  0.00    -0.200 F 
ENDBRANCH  61  84
ENDBRANCH  35  36
ENDBRANCH  27  30
ENDBRANCH  25  26
ENDBRANCH   1  25
TORSDOF 12
