REMARK SMILES CC(=O)CCCCC/C=C/C(=O)NCCCNC(=O)c1ccc(-c2c3nc(c(-c4c(F)c(F)c(F)c(F)c4F)c4ccc([nH]4)c(-c4c(F)c(F)c(F)c(F)c4F)c4nc(c(-c5c(F)c(F)c(F)c(F)c5F)c5ccc2[nH]5)C=C4)C=C3)cc1
REMARK SMILES IDX 11 1 12 2 13 3 10 5 9 6 8 7 7 8 6 9 5 10 4 11 2 12 1 13 3 14
REMARK SMILES IDX 14 15 15 16 16 17 17 18 18 19 19 21 20 22 21 23 82 24 22 25
REMARK SMILES IDX 81 26 23 27 24 28 25 29 75 30 26 31 80 32 74 33 76 34 27 35
REMARK SMILES IDX 79 36 73 37 72 38 28 40 60 41 40 42 59 43 41 44 44 45 58 46
REMARK SMILES IDX 77 47 42 48 43 49 57 51 78 52 45 53 29 54 30 55 38 56 31 57
REMARK SMILES IDX 32 58 36 59 39 60 33 61 34 62 37 63 35 64 61 65 62 66 70 67
REMARK SMILES IDX 63 68 64 69 68 70 71 71 65 72 66 73 69 74 67 75 46 76 47 77
REMARK SMILES IDX 55 78 48 79 49 80 53 81 56 82 50 83 51 84 54 85 52 86
REMARK H PARENT 13 4 17 20 76 39 44 50
REMARK Flexibility Score: inf
ROOT
ATOM      1  C   UNL     1       2.790  -2.844  -6.896  1.00  0.00     0.243 C 
ATOM      2  O   UNL     1       3.603  -2.900  -7.815  1.00  0.00    -0.270 OA
ATOM      3  N   UNL     1       1.460  -2.963  -7.161  1.00  0.00    -0.352 N 
ATOM      4  H   UNL     1       1.250  -3.186  -8.097  1.00  0.00     0.163 HD
ENDROOT
BRANCH   1   5
ATOM      5  C   UNL     1       3.260  -2.542  -5.527  1.00  0.00     0.067 C 
ATOM      6  C   UNL     1       2.899  -3.219  -4.425  1.00  0.00    -0.021 C 
BRANCH   6   7
ATOM      7  C   UNL     1       3.367  -2.859  -3.046  1.00  0.00     0.027 C 
BRANCH   7   8
ATOM      8  C   UNL     1       2.804  -1.526  -2.535  1.00  0.00     0.004 C 
BRANCH   8   9
ATOM      9  C   UNL     1       1.273  -1.417  -2.502  1.00  0.00     0.001 C 
BRANCH   9  10
ATOM     10  C   UNL     1       0.540  -2.430  -1.616  1.00  0.00     0.008 C 
BRANCH  10  11
ATOM     11  C   UNL     1       0.964  -2.462  -0.149  1.00  0.00     0.075 C 
BRANCH  11  12
ATOM     12  C   UNL     1       0.404  -1.314   0.670  1.00  0.00     0.129 C 
ATOM     13  C   UNL     1       1.021   0.049   0.506  1.00  0.00     0.087 C 
ATOM     14  O   UNL     1      -0.554  -1.483   1.426  1.00  0.00    -0.300 OA
ENDBRANCH  11  12
ENDBRANCH  10  11
ENDBRANCH   9  10
ENDBRANCH   8   9
ENDBRANCH   7   8
ENDBRANCH   6   7
ENDBRANCH   1   5
BRANCH   3  15
ATOM     15  C   UNL     1       0.298  -2.820  -6.301  1.00  0.00     0.118 C 
BRANCH  15  16
ATOM     16  C   UNL     1      -0.314  -1.425  -6.354  1.00  0.00     0.042 C 
BRANCH  16  17
ATOM     17  C   UNL     1      -1.031  -1.115  -7.665  1.00  0.00     0.118 C 
BRANCH  17  18
ATOM     18  N   UNL     1      -2.154  -2.012  -7.914  1.00  0.00    -0.352 N 
ATOM     19  C   UNL     1      -3.503  -1.773  -7.984  1.00  0.00     0.251 C 
ATOM     20  H   UNL     1      -1.899  -2.952  -8.057  1.00  0.00     0.163 HD
ATOM     21  O   UNL     1      -4.283  -2.721  -7.992  1.00  0.00    -0.269 OA
BRANCH  19  22
ATOM     22  C   UNL     1      -4.032  -0.393  -8.042  1.00  0.00     0.039 A 
ATOM     23  C   UNL     1      -5.218  -0.095  -7.361  1.00  0.00     0.014 A 
ATOM     24  C   UNL     1      -3.401   0.594  -8.801  1.00  0.00     0.014 A 
ATOM     25  C   UNL     1      -5.728   1.205  -7.388  1.00  0.00     0.010 A 
ATOM     26  C   UNL     1      -3.861   1.906  -8.756  1.00  0.00     0.010 A 
ATOM     27  C   UNL     1      -5.033   2.225  -8.054  1.00  0.00    -0.014 A 
BRANCH  27  28
ATOM     28  C   UNL     1      -5.511   3.631  -8.035  1.00  0.00     0.031 A 
ATOM     29  C   UNL     1      -5.897   4.316  -9.317  1.00  0.00     0.074 A 
ATOM     30  C   UNL     1      -5.521   4.314  -6.873  1.00  0.00     0.049 A 
ATOM     31  N   UNL     1      -6.241   5.563  -9.520  1.00  0.00    -0.248 NA
ATOM     32  C   UNL     1      -5.862   3.498 -10.540  1.00  0.00     0.031 C 
ATOM     33  C   UNL     1      -5.124   3.775  -5.572  1.00  0.00     0.029 A 
ATOM     34  N   UNL     1      -5.864   5.616  -6.602  1.00  0.00    -0.354 N 
ATOM     35  C   UNL     1      -6.443   5.681 -10.889  1.00  0.00     0.074 A 
ATOM     36  C   UNL     1      -6.130   4.396 -11.475  1.00  0.00     0.031 C 
ATOM     37  C   UNL     1      -5.266   4.729  -4.638  1.00  0.00     0.029 A 
ATOM     38  C   UNL     1      -5.721   5.958  -5.280  1.00  0.00     0.049 A 
ATOM     39  H   UNL     1      -6.182   6.244  -7.290  1.00  0.00     0.167 HD
ATOM     40  C   UNL     1      -6.872   6.758 -11.590  1.00  0.00     0.037 A 
ATOM     41  C   UNL     1      -5.924   7.135  -4.657  1.00  0.00     0.037 A 
ATOM     42  C   UNL     1      -7.210   8.025 -10.998  1.00  0.00     0.049 A 
ATOM     43  C   UNL     1      -6.399   8.316  -5.460  1.00  0.00     0.074 A 
ATOM     44  C   UNL     1      -7.712   9.159 -11.612  1.00  0.00     0.029 A 
ATOM     45  N   UNL     1      -7.077   8.326  -9.649  1.00  0.00    -0.354 N 
ATOM     46  N   UNL     1      -6.649   8.397  -6.744  1.00  0.00    -0.248 NA
ATOM     47  C   UNL     1      -6.626   9.568  -4.724  1.00  0.00     0.031 C 
ATOM     48  C   UNL     1      -7.838  10.161 -10.644  1.00  0.00     0.029 A 
ATOM     49  C   UNL     1      -7.468   9.635  -9.417  1.00  0.00     0.049 A 
ATOM     50  H   UNL     1      -6.754   7.702  -8.960  1.00  0.00     0.167 HD
ATOM     51  C   UNL     1      -7.094   9.694  -6.965  1.00  0.00     0.074 A 
ATOM     52  C   UNL     1      -7.091  10.360  -5.679  1.00  0.00     0.031 C 
ATOM     53  C   UNL     1      -7.472  10.279  -8.128  1.00  0.00     0.037 A 
BRANCH  40  54
ATOM     54  C   UNL     1      -7.007   6.611 -13.079  1.00  0.00     0.064 A 
ATOM     55  C   UNL     1      -7.997   5.798 -13.653  1.00  0.00     0.173 A 
ATOM     56  C   UNL     1      -6.161   7.321 -13.945  1.00  0.00     0.173 A 
ATOM     57  F   UNL     1      -8.825   5.089 -12.872  1.00  0.00    -0.203 F 
ATOM     58  C   UNL     1      -8.114   5.678 -15.036  1.00  0.00     0.198 A 
ATOM     59  C   UNL     1      -6.303   7.224 -15.327  1.00  0.00     0.198 A 
ATOM     60  F   UNL     1      -5.201   8.118 -13.451  1.00  0.00    -0.203 F 
ATOM     61  F   UNL     1      -9.034   4.856 -15.559  1.00  0.00    -0.200 F 
ATOM     62  C   UNL     1      -7.273   6.397 -15.871  1.00  0.00     0.200 A 
ATOM     63  F   UNL     1      -5.498   7.931 -16.133  1.00  0.00    -0.200 F 
ATOM     64  F   UNL     1      -7.393   6.287 -17.201  1.00  0.00    -0.200 F 
ENDBRANCH  40  54
BRANCH  41  65
ATOM     65  C   UNL     1      -5.702   7.248  -3.191  1.00  0.00     0.064 A 
ATOM     66  C   UNL     1      -6.780   7.434  -2.314  1.00  0.00     0.173 A 
ATOM     67  C   UNL     1      -4.416   7.177  -2.638  1.00  0.00     0.173 A 
ATOM     68  F   UNL     1      -8.027   7.528  -2.797  1.00  0.00    -0.203 F 
ATOM     69  C   UNL     1      -6.577   7.569  -0.942  1.00  0.00     0.198 A 
ATOM     70  C   UNL     1      -4.217   7.282  -1.262  1.00  0.00     0.198 A 
ATOM     71  F   UNL     1      -3.351   6.993  -3.432  1.00  0.00    -0.203 F 
ATOM     72  F   UNL     1      -7.620   7.796  -0.132  1.00  0.00    -0.200 F 
ATOM     73  C   UNL     1      -5.296   7.487  -0.416  1.00  0.00     0.200 A 
ATOM     74  F   UNL     1      -2.979   7.186  -0.757  1.00  0.00    -0.200 F 
ATOM     75  F   UNL     1      -5.102   7.615   0.903  1.00  0.00    -0.200 F 
ENDBRANCH  41  65
BRANCH  53  76
ATOM     76  C   UNL     1      -7.957  11.698  -8.059  1.00  0.00     0.064 A 
ATOM     77  C   UNL     1      -7.083  12.767  -7.817  1.00  0.00     0.173 A 
ATOM     78  C   UNL     1      -9.311  11.993  -8.284  1.00  0.00     0.173 A 
ATOM     79  F   UNL     1      -5.782  12.536  -7.581  1.00  0.00    -0.203 F 
ATOM     80  C   UNL     1      -7.551  14.078  -7.778  1.00  0.00     0.198 A 
ATOM     81  C   UNL     1      -9.769  13.307  -8.276  1.00  0.00     0.198 A 
ATOM     82  F   UNL     1     -10.187  11.007  -8.527  1.00  0.00    -0.203 F 
ATOM     83  F   UNL     1      -6.706  15.080  -7.497  1.00  0.00    -0.200 F 
ATOM     84  C   UNL     1      -8.890  14.348  -8.015  1.00  0.00     0.200 A 
ATOM     85  F   UNL     1     -11.061  13.567  -8.521  1.00  0.00    -0.200 F 
ATOM     86  F   UNL     1      -9.336  15.611  -7.987  1.00  0.00    -0.200 F 
ENDBRANCH  53  76
ENDBRANCH  27  28
ENDBRANCH  19  22
ENDBRANCH  17  18
ENDBRANCH  16  17
ENDBRANCH  15  16
ENDBRANCH   3  15
TORSDOF 16
