REMARK SMILES C#CCN(CC(=O)NCCCNC(=O)c1ccc(-c2c3nc(c(-c4c(F)c(F)c(F)c(F)c4F)c4ccc([nH]4)c(-c4c(F)c(F)c(F)c(F)c4F)c4nc(c(-c5c(F)c(F)c(F)c(F)c5F)c5ccc2[nH]5)C=C4)C=C3)cc1)C(=O)NCc1ccnc(C)n1
REMARK SMILES IDX 9 1 8 2 6 3 7 4 5 6 4 7 3 8 2 9 1 10 78 11 79 12 80 13 81 15
REMARK SMILES IDX 82 16 83 17 88 18 84 19 86 20 85 21 87 22 10 23 11 24 12 25
REMARK SMILES IDX 13 26 14 28 15 29 16 30 77 31 17 32 76 33 18 34 19 35 20 36
REMARK SMILES IDX 70 37 21 38 75 39 69 40 71 41 22 42 74 43 68 44 67 45 23 47
REMARK SMILES IDX 55 48 35 49 54 50 36 51 39 52 53 53 72 54 37 55 38 56 52 58
REMARK SMILES IDX 73 59 40 60 24 61 25 62 33 63 26 64 27 65 31 66 34 67 28 68
REMARK SMILES IDX 29 69 32 70 30 71 56 72 57 73 65 74 58 75 59 76 63 77 66 78
REMARK SMILES IDX 60 79 61 80 64 81 62 82 41 83 42 84 50 85 43 86 44 87 48 88
REMARK SMILES IDX 51 89 45 90 46 91 49 92 47 93
REMARK H PARENT 8 5 80 14 12 27 71 46 39 57
REMARK Flexibility Score: inf
ROOT
ATOM      1  C   UNL     1      -5.081   0.452   0.135  1.00  0.00     0.117 C 
ENDROOT
BRANCH   1   2
ATOM      2  N   UNL     1      -5.358  -0.908   0.547  1.00  0.00    -0.354 N 
ATOM      3  C   UNL     1      -4.552  -1.845   1.122  1.00  0.00     0.239 C 
ATOM      4  O   UNL     1      -5.119  -2.799   1.664  1.00  0.00    -0.273 OA
ATOM      5  H   UNL     1      -6.282  -1.206   0.384  1.00  0.00     0.163 HD
BRANCH   3   6
ATOM      6  C   UNL     1      -3.027  -1.686   1.238  1.00  0.00     0.222 C 
BRANCH   6   7
ATOM      7  N   UNL     1      -2.336  -1.278   0.019  1.00  0.00    -0.304 N 
BRANCH   7   8
ATOM      8  C   UNL     1      -1.752   0.059   0.038  1.00  0.00     0.211 C 
BRANCH   8   9
ATOM      9  C   UNL     1      -0.232   0.059   0.038  1.00  0.00    -0.085 C 
ATOM     10  C   UNL     1       1.071   0.059   0.038  1.00  0.00     0.006 C 
ENDBRANCH   8   9
ENDBRANCH   7   8
BRANCH   7  11
ATOM     11  C   UNL     1      -2.133  -2.007  -1.115  1.00  0.00     0.318 C 
ATOM     12  O   UNL     1      -1.621  -1.497  -2.119  1.00  0.00    -0.249 OA
ATOM     13  N   UNL     1      -2.478  -3.289  -1.271  1.00  0.00    -0.332 N 
ATOM     14  H   UNL     1      -2.190  -3.617  -2.154  1.00  0.00     0.165 HD
BRANCH  13  15
ATOM     15  C   UNL     1      -3.152  -4.349  -0.533  1.00  0.00     0.174 C 
BRANCH  15  16
ATOM     16  C   UNL     1      -4.487  -4.724  -1.144  1.00  0.00     0.063 A 
ATOM     17  C   UNL     1      -5.344  -3.759  -1.640  1.00  0.00     0.046 A 
ATOM     18  N   UNL     1      -4.816  -6.036  -1.149  1.00  0.00    -0.236 NA
ATOM     19  C   UNL     1      -6.551  -4.199  -2.127  1.00  0.00     0.115 A 
ATOM     20  C   UNL     1      -6.025  -6.366  -1.648  1.00  0.00     0.125 A 
ATOM     21  N   UNL     1      -6.915  -5.490  -2.146  1.00  0.00    -0.242 NA
ATOM     22  C   UNL     1      -6.395  -7.816  -1.659  1.00  0.00     0.089 C 
ENDBRANCH  15  16
ENDBRANCH  13  15
ENDBRANCH   7  11
ENDBRANCH   6   7
ENDBRANCH   3   6
ENDBRANCH   1   2
BRANCH   1  23
ATOM     23  C   UNL     1      -4.922   0.621  -1.373  1.00  0.00     0.042 C 
BRANCH  23  24
ATOM     24  C   UNL     1      -6.182   0.342  -2.188  1.00  0.00     0.118 C 
BRANCH  24  25
ATOM     25  N   UNL     1      -7.294   1.209  -1.833  1.00  0.00    -0.352 N 
ATOM     26  C   UNL     1      -7.929   2.197  -2.538  1.00  0.00     0.251 C 
ATOM     27  H   UNL     1      -7.653   1.060  -0.928  1.00  0.00     0.163 HD
ATOM     28  O   UNL     1      -8.721   2.935  -1.948  1.00  0.00    -0.269 OA
BRANCH  26  29
ATOM     29  C   UNL     1      -7.678   2.409  -3.980  1.00  0.00     0.039 A 
ATOM     30  C   UNL     1      -7.628   3.721  -4.465  1.00  0.00     0.014 A 
ATOM     31  C   UNL     1      -7.557   1.339  -4.870  1.00  0.00     0.014 A 
ATOM     32  C   UNL     1      -7.393   3.959  -5.822  1.00  0.00     0.010 A 
ATOM     33  C   UNL     1      -7.251   1.576  -6.209  1.00  0.00     0.010 A 
ATOM     34  C   UNL     1      -7.166   2.888  -6.700  1.00  0.00    -0.014 A 
BRANCH  34  35
ATOM     35  C   UNL     1      -6.829   3.118  -8.129  1.00  0.00     0.031 A 
ATOM     36  C   UNL     1      -7.755   2.644  -9.215  1.00  0.00     0.074 A 
ATOM     37  C   UNL     1      -5.651   3.687  -8.450  1.00  0.00     0.049 A 
ATOM     38  N   UNL     1      -7.586   2.661 -10.514  1.00  0.00    -0.248 NA
ATOM     39  C   UNL     1      -9.029   2.049  -8.784  1.00  0.00     0.031 C 
ATOM     40  C   UNL     1      -4.650   4.154  -7.490  1.00  0.00     0.029 A 
ATOM     41  N   UNL     1      -5.087   3.953  -9.673  1.00  0.00    -0.354 N 
ATOM     42  C   UNL     1      -8.718   2.063 -11.051  1.00  0.00     0.074 A 
ATOM     43  C   UNL     1      -9.549   1.656  -9.938  1.00  0.00     0.031 C 
ATOM     44  C   UNL     1      -3.600   4.657  -8.159  1.00  0.00     0.029 A 
ATOM     45  C   UNL     1      -3.835   4.512  -9.592  1.00  0.00     0.049 A 
ATOM     46  H   UNL     1      -5.538   3.761 -10.527  1.00  0.00     0.167 HD
ATOM     47  C   UNL     1      -9.043   1.886 -12.354  1.00  0.00     0.037 A 
ATOM     48  C   UNL     1      -2.967   4.854 -10.562  1.00  0.00     0.037 A 
ATOM     49  C   UNL     1      -8.227   2.317 -13.460  1.00  0.00     0.049 A 
ATOM     50  C   UNL     1      -3.349   4.640 -12.002  1.00  0.00     0.074 A 
ATOM     51  C   UNL     1      -8.500   2.242 -14.815  1.00  0.00     0.029 A 
ATOM     52  N   UNL     1      -6.974   2.900 -13.337  1.00  0.00    -0.354 N 
ATOM     53  N   UNL     1      -4.451   4.134 -12.498  1.00  0.00    -0.248 NA
ATOM     54  C   UNL     1      -2.367   5.049 -13.016  1.00  0.00     0.031 C 
ATOM     55  C   UNL     1      -7.394   2.737 -15.513  1.00  0.00     0.029 A 
ATOM     56  C   UNL     1      -6.453   3.169 -14.593  1.00  0.00     0.049 A 
ATOM     57  H   UNL     1      -6.523   3.095 -12.484  1.00  0.00     0.167 HD
ATOM     58  C   UNL     1      -4.309   4.189 -13.878  1.00  0.00     0.074 A 
ATOM     59  C   UNL     1      -3.019   4.791 -14.141  1.00  0.00     0.031 C 
ATOM     60  C   UNL     1      -5.171   3.778 -14.840  1.00  0.00     0.037 A 
BRANCH  47  61
ATOM     61  C   UNL     1     -10.341   1.195 -12.662  1.00  0.00     0.064 A 
ATOM     62  C   UNL     1     -11.578   1.812 -12.424  1.00  0.00     0.173 A 
ATOM     63  C   UNL     1     -10.346  -0.082 -13.245  1.00  0.00     0.173 A 
ATOM     64  F   UNL     1     -11.628   3.029 -11.861  1.00  0.00    -0.203 F 
ATOM     65  C   UNL     1     -12.773   1.166 -12.732  1.00  0.00     0.198 A 
ATOM     66  C   UNL     1     -11.542  -0.712 -13.579  1.00  0.00     0.198 A 
ATOM     67  F   UNL     1      -9.191  -0.714 -13.501  1.00  0.00    -0.203 F 
ATOM     68  F   UNL     1     -13.943   1.757 -12.453  1.00  0.00    -0.200 F 
ATOM     69  C   UNL     1     -12.754  -0.091 -13.316  1.00  0.00     0.200 A 
ATOM     70  F   UNL     1     -11.522  -1.922 -14.156  1.00  0.00    -0.200 F 
ATOM     71  F   UNL     1     -13.904  -0.708 -13.620  1.00  0.00    -0.200 F 
ENDBRANCH  47  61
BRANCH  48  72
ATOM     72  C   UNL     1      -1.653   5.449 -10.205  1.00  0.00     0.064 A 
ATOM     73  C   UNL     1      -1.374   6.795 -10.481  1.00  0.00     0.173 A 
ATOM     74  C   UNL     1      -0.650   4.689  -9.585  1.00  0.00     0.173 A 
ATOM     75  F   UNL     1      -2.293   7.557 -11.092  1.00  0.00    -0.203 F 
ATOM     76  C   UNL     1      -0.136   7.352 -10.170  1.00  0.00     0.198 A 
ATOM     77  C   UNL     1       0.577   5.255  -9.248  1.00  0.00     0.198 A 
ATOM     78  F   UNL     1      -0.869   3.398  -9.296  1.00  0.00    -0.203 F 
ATOM     79  F   UNL     1       0.120   8.629 -10.486  1.00  0.00    -0.200 F 
ATOM     80  C   UNL     1       0.837   6.583  -9.548  1.00  0.00     0.200 A 
ATOM     81  F   UNL     1       1.509   4.513  -8.635  1.00  0.00    -0.200 F 
ATOM     82  F   UNL     1       2.026   7.121  -9.245  1.00  0.00    -0.200 F 
ENDBRANCH  48  72
BRANCH  60  83
ATOM     83  C   UNL     1      -4.766   3.998 -16.268  1.00  0.00     0.064 A 
ATOM     84  C   UNL     1      -3.758   3.234 -16.874  1.00  0.00     0.173 A 
ATOM     85  C   UNL     1      -5.426   4.956 -17.052  1.00  0.00     0.173 A 
ATOM     86  F   UNL     1      -3.086   2.317 -16.162  1.00  0.00    -0.203 F 
ATOM     87  C   UNL     1      -3.411   3.437 -18.207  1.00  0.00     0.198 A 
ATOM     88  C   UNL     1      -5.097   5.136 -18.392  1.00  0.00     0.198 A 
ATOM     89  F   UNL     1      -6.401   5.709 -16.521  1.00  0.00    -0.203 F 
ATOM     90  F   UNL     1      -2.414   2.727 -18.754  1.00  0.00    -0.200 F 
ATOM     91  C   UNL     1      -4.085   4.381 -18.967  1.00  0.00     0.200 A 
ATOM     92  F   UNL     1      -5.759   6.040 -19.128  1.00  0.00    -0.200 F 
ATOM     93  F   UNL     1      -3.756   4.569 -20.253  1.00  0.00    -0.200 F 
ENDBRANCH  60  83
ENDBRANCH  34  35
ENDBRANCH  26  29
ENDBRANCH  24  25
ENDBRANCH  23  24
ENDBRANCH   1  23
TORSDOF 16
