REMARK SMILES O=C(COc1ccc(Br)cc1/C=C1\C(=O)Nc2ccc(Br)cc21)NCCCNC(=O)c1ccc(-c2c3nc(c(-c4c(F)c(F)c(F)c(F)c4F)c4ccc([nH]4)c(-c4c(F)c(F)c(F)c(F)c4F)c4nc(c(-c5c(F)c(F)c(F)c(F)c5F)c5ccc2[nH]5)C=C4)C=C3)cc1
REMARK SMILES IDX 25 1 24 2 1 3 2 4 3 6 4 7 5 8 6 9 11 10 7 11 10 12 8 13 9 14
REMARK SMILES IDX 12 15 13 16 14 17 23 18 15 19 16 20 17 21 22 22 18 24 20 25
REMARK SMILES IDX 19 26 21 27 26 28 27 29 28 30 29 31 30 33 31 34 32 35 93 36
REMARK SMILES IDX 33 37 92 38 34 39 35 40 36 41 86 42 37 43 91 44 85 45 87 46
REMARK SMILES IDX 38 47 90 48 84 49 83 50 39 52 71 53 51 54 70 55 52 56 55 57
REMARK SMILES IDX 69 58 88 59 53 60 54 61 68 63 89 64 56 65 40 66 41 67 49 68
REMARK SMILES IDX 42 69 43 70 47 71 50 72 44 73 45 74 48 75 46 76 72 77 73 78
REMARK SMILES IDX 81 79 74 80 75 81 79 82 82 83 76 84 77 85 80 86 78 87 57 88
REMARK SMILES IDX 58 89 66 90 59 91 60 92 64 93 67 94 61 95 62 96 65 97 63 98
REMARK H PARENT 24 5 16 23 28 32 87 51 55 62
REMARK Flexibility Score: inf
ROOT
ATOM      1  C   UNL     1       2.396   1.288  -1.612  1.00  0.00     0.117 C 
ENDROOT
BRANCH   1   2
ATOM      2  N   UNL     1       3.236   0.429  -0.788  1.00  0.00    -0.353 N 
ATOM      3  O   UNL     1       1.578  -0.183   0.676  1.00  0.00    -0.271 OA
ATOM      4  C   UNL     1       2.680  -0.398   0.175  1.00  0.00     0.257 C 
ATOM      5  H   UNL     1       4.212   0.435  -0.918  1.00  0.00     0.163 HD
BRANCH   4   6
ATOM      6  C   UNL     1       3.511  -1.662   0.528  1.00  0.00     0.329 C 
BRANCH   6   7
ATOM      7  O   UNL     1       4.156  -2.450  -0.486  1.00  0.00    -0.483 OA
BRANCH   7   8
ATOM      8  C   UNL     1       3.308  -3.143  -1.328  1.00  0.00     0.127 A 
ATOM      9  C   UNL     1       2.315  -2.426  -2.028  1.00  0.00     0.048 A 
ATOM     10  C   UNL     1       3.485  -4.527  -1.588  1.00  0.00     0.018 A 
ATOM     11  C   UNL     1       1.413  -3.032  -2.890  1.00  0.00     0.019 A 
ATOM     12  C   UNL     1       2.578  -5.086  -2.512  1.00  0.00     0.027 A 
ATOM     13  C   UNL     1       1.541  -4.377  -3.118  1.00  0.00     0.018 A 
ATOM     14  Br  UNL     1       0.329  -5.259  -4.266  1.00  0.00    -0.051 Br
BRANCH  10  15
ATOM     15  C   UNL     1       4.529  -5.390  -0.918  1.00  0.00     0.026 C 
ATOM     16  C   UNL     1       4.610  -6.745  -0.830  1.00  0.00     0.050 C 
ATOM     17  C   UNL     1       3.616  -7.756  -1.351  1.00  0.00     0.256 C 
ATOM     18  C   UNL     1       5.325  -7.498   0.227  1.00  0.00     0.012 A 
ATOM     19  O   UNL     1       3.283  -7.992  -2.493  1.00  0.00    -0.269 OA
ATOM     20  N   UNL     1       3.350  -8.564  -0.264  1.00  0.00    -0.321 N 
ATOM     21  C   UNL     1       4.397  -8.472   0.646  1.00  0.00     0.049 A 
ATOM     22  C   UNL     1       6.629  -7.585   0.676  1.00  0.00     0.026 A 
ATOM     23  H   UNL     1       2.544  -9.118  -0.150  1.00  0.00     0.170 HD
ATOM     24  C   UNL     1       4.633  -9.388   1.646  1.00  0.00     0.028 A 
ATOM     25  C   UNL     1       6.924  -8.594   1.614  1.00  0.00     0.018 A 
ATOM     26  C   UNL     1       5.929  -9.443   2.141  1.00  0.00     0.018 A 
ATOM     27  Br  UNL     1       8.725  -8.927   2.101  1.00  0.00    -0.051 Br
ENDBRANCH  10  15
ENDBRANCH   7   8
ENDBRANCH   6   7
ENDBRANCH   4   6
ENDBRANCH   1   2
BRANCH   1  28
ATOM     28  C   UNL     1       2.552   2.779  -1.375  1.00  0.00     0.042 C 
BRANCH  28  29
ATOM     29  C   UNL     1       3.950   3.320  -1.623  1.00  0.00     0.118 C 
BRANCH  29  30
ATOM     30  N   UNL     1       4.406   3.225  -3.005  1.00  0.00    -0.352 N 
ATOM     31  C   UNL     1       5.105   4.140  -3.764  1.00  0.00     0.251 C 
ATOM     32  H   UNL     1       4.182   2.383  -3.464  1.00  0.00     0.163 HD
ATOM     33  O   UNL     1       5.358   3.895  -4.939  1.00  0.00    -0.269 OA
BRANCH  31  34
ATOM     34  C   UNL     1       5.503   5.444  -3.181  1.00  0.00     0.039 A 
ATOM     35  C   UNL     1       5.993   5.531  -1.880  1.00  0.00     0.014 A 
ATOM     36  C   UNL     1       5.336   6.609  -3.939  1.00  0.00     0.014 A 
ATOM     37  C   UNL     1       6.101   6.774  -1.266  1.00  0.00     0.010 A 
ATOM     38  C   UNL     1       5.551   7.861  -3.352  1.00  0.00     0.010 A 
ATOM     39  C   UNL     1       5.868   7.956  -1.989  1.00  0.00    -0.014 A 
BRANCH  39  40
ATOM     40  C   UNL     1       5.942   9.263  -1.280  1.00  0.00     0.031 A 
ATOM     41  C   UNL     1       4.723  10.139  -1.142  1.00  0.00     0.074 A 
ATOM     42  C   UNL     1       7.093   9.621  -0.678  1.00  0.00     0.049 A 
ATOM     43  N   UNL     1       4.591  11.274  -0.498  1.00  0.00    -0.248 NA
ATOM     44  C   UNL     1       3.493   9.691  -1.812  1.00  0.00     0.031 C 
ATOM     45  C   UNL     1       8.340   8.855  -0.729  1.00  0.00     0.029 A 
ATOM     46  N   UNL     1       7.396  10.694   0.123  1.00  0.00    -0.354 N 
ATOM     47  C   UNL     1       3.276  11.676  -0.697  1.00  0.00     0.074 A 
ATOM     48  C   UNL     1       2.657  10.687  -1.551  1.00  0.00     0.031 C 
ATOM     49  C   UNL     1       9.249   9.442   0.062  1.00  0.00     0.029 A 
ATOM     50  C   UNL     1       8.675  10.661   0.623  1.00  0.00     0.049 A 
ATOM     51  H   UNL     1       6.757  11.417   0.321  1.00  0.00     0.167 HD
ATOM     52  C   UNL     1       2.638  12.761  -0.196  1.00  0.00     0.037 A 
ATOM     53  C   UNL     1       9.321  11.518   1.436  1.00  0.00     0.037 A 
ATOM     54  C   UNL     1       3.245  13.732   0.677  1.00  0.00     0.049 A 
ATOM     55  C   UNL     1       8.603  12.739   1.937  1.00  0.00     0.074 A 
ATOM     56  C   UNL     1       2.668  14.850   1.254  1.00  0.00     0.029 A 
ATOM     57  N   UNL     1       4.565  13.700   1.101  1.00  0.00    -0.354 N 
ATOM     58  N   UNL     1       7.356  13.096   1.753  1.00  0.00    -0.248 NA
ATOM     59  C   UNL     1       9.384  13.681   2.750  1.00  0.00     0.031 C 
ATOM     60  C   UNL     1       3.651  15.521   1.988  1.00  0.00     0.029 A 
ATOM     61  C   UNL     1       4.827  14.794   1.911  1.00  0.00     0.049 A 
ATOM     62  H   UNL     1       5.219  13.004   0.862  1.00  0.00     0.167 HD
ATOM     63  C   UNL     1       7.199  14.296   2.432  1.00  0.00     0.074 A 
ATOM     64  C   UNL     1       8.472  14.595   3.054  1.00  0.00     0.031 C 
ATOM     65  C   UNL     1       6.099  15.081   2.524  1.00  0.00     0.037 A 
BRANCH  52  66
ATOM     66  C   UNL     1       1.198  12.968  -0.574  1.00  0.00     0.064 A 
ATOM     67  C   UNL     1       0.178  12.161  -0.050  1.00  0.00     0.173 A 
ATOM     68  C   UNL     1       0.828  14.038  -1.404  1.00  0.00     0.173 A 
ATOM     69  F   UNL     1       0.479  11.121   0.742  1.00  0.00    -0.203 F 
ATOM     70  C   UNL     1      -1.159  12.408  -0.355  1.00  0.00     0.198 A 
ATOM     71  C   UNL     1      -0.511  14.298  -1.684  1.00  0.00     0.198 A 
ATOM     72  F   UNL     1       1.764  14.847  -1.923  1.00  0.00    -0.203 F 
ATOM     73  F   UNL     1      -2.115  11.605   0.132  1.00  0.00    -0.200 F 
ATOM     74  C   UNL     1      -1.503  13.482  -1.163  1.00  0.00     0.200 A 
ATOM     75  F   UNL     1      -0.843  15.346  -2.452  1.00  0.00    -0.200 F 
ATOM     76  F   UNL     1      -2.791  13.728  -1.439  1.00  0.00    -0.200 F 
ENDBRANCH  52  66
BRANCH  53  77
ATOM     77  C   UNL     1      10.727  11.239   1.827  1.00  0.00     0.064 A 
ATOM     78  C   UNL     1      11.053  10.896   3.146  1.00  0.00     0.173 A 
ATOM     79  C   UNL     1      11.766  11.276   0.885  1.00  0.00     0.173 A 
ATOM     80  F   UNL     1      10.098  10.867   4.087  1.00  0.00    -0.203 F 
ATOM     81  C   UNL     1      12.367  10.604   3.508  1.00  0.00     0.198 A 
ATOM     82  C   UNL     1      13.073  10.954   1.242  1.00  0.00     0.198 A 
ATOM     83  F   UNL     1      11.505  11.595  -0.391  1.00  0.00    -0.203 F 
ATOM     84  F   UNL     1      12.658  10.308   4.782  1.00  0.00    -0.200 F 
ATOM     85  C   UNL     1      13.373  10.623   2.554  1.00  0.00     0.200 A 
ATOM     86  F   UNL     1      14.039  10.955   0.313  1.00  0.00    -0.200 F 
ATOM     87  F   UNL     1      14.633  10.324   2.900  1.00  0.00    -0.200 F 
ENDBRANCH  53  77
BRANCH  65  88
ATOM     88  C   UNL     1       6.210  16.341   3.331  1.00  0.00     0.064 A 
ATOM     89  C   UNL     1       6.922  17.452   2.856  1.00  0.00     0.173 A 
ATOM     90  C   UNL     1       5.535  16.467   4.555  1.00  0.00     0.173 A 
ATOM     91  F   UNL     1       7.596  17.376   1.698  1.00  0.00    -0.203 F 
ATOM     92  C   UNL     1       6.963  18.639   3.581  1.00  0.00     0.198 A 
ATOM     93  C   UNL     1       5.555  17.664   5.264  1.00  0.00     0.198 A 
ATOM     94  F   UNL     1       4.834  15.435   5.049  1.00  0.00    -0.203 F 
ATOM     95  F   UNL     1       7.676  19.678   3.123  1.00  0.00    -0.200 F 
ATOM     96  C   UNL     1       6.271  18.748   4.779  1.00  0.00     0.200 A 
ATOM     97  F   UNL     1       4.873  17.773   6.413  1.00  0.00    -0.200 F 
ATOM     98  F   UNL     1       6.297  19.898   5.466  1.00  0.00    -0.200 F 
ENDBRANCH  65  88
ENDBRANCH  39  40
ENDBRANCH  31  34
ENDBRANCH  29  30
ENDBRANCH  28  29
ENDBRANCH   1  28
TORSDOF 13
