REMARK SMILES Cc1cc(=O)oc2cc(O[C@@H](C)C(=O)N[C@H](CC(C)C)C(=O)NCCCNC(=O)c3ccc(-c4c5nc(c(-c6c(F)c(F)c(F)c(F)c6F)c6ccc([nH]6)c(-c6c(F)c(F)c(F)c(F)c6F)c6nc(c(-c7c(F)c(F)c(F)c(F)c7F)c7ccc4[nH]7)C=C6)C=C5)cc3)ccc12
REMARK SMILES IDX 24 1 23 2 21 3 22 4 16 6 15 7 13 8 14 9 11 11 12 12 10 13
REMARK SMILES IDX 9 14 1 15 2 16 3 17 95 18 4 19 7 20 94 21 5 22 6 23 8 24
REMARK SMILES IDX 93 25 17 26 18 27 19 28 20 29 25 30 26 31 27 32 28 33 29 35
REMARK SMILES IDX 30 36 31 37 92 38 32 39 91 40 33 41 34 42 35 43 85 44 36 45
REMARK SMILES IDX 90 46 84 47 86 48 37 49 89 50 83 51 82 52 38 54 70 55 50 56
REMARK SMILES IDX 69 57 51 58 54 59 68 60 87 61 52 62 53 63 67 65 88 66 55 67
REMARK SMILES IDX 39 68 40 69 48 70 41 71 42 72 46 73 49 74 43 75 44 76 47 77
REMARK SMILES IDX 45 78 71 79 72 80 80 81 73 82 74 83 78 84 81 85 75 86 76 87
REMARK SMILES IDX 79 88 77 89 56 90 57 91 65 92 58 93 59 94 63 95 66 96 60 97
REMARK SMILES IDX 61 98 64 99 62 100
REMARK H PARENT 23 5 15 10 27 34 86 53 54 64
REMARK Flexibility Score: inf
ROOT
ATOM      1  C   UNL     1      -1.570   2.633   2.706  1.00  0.00     0.117 C 
ENDROOT
BRANCH   1   2
ATOM      2  N   UNL     1      -0.908   3.228   1.558  1.00  0.00    -0.354 N 
ATOM      3  C   UNL     1       0.388   3.133   1.165  1.00  0.00     0.242 C 
ATOM      4  O   UNL     1       0.952   4.160   0.793  1.00  0.00    -0.273 OA
ATOM      5  H   UNL     1      -1.484   3.781   0.981  1.00  0.00     0.163 HD
BRANCH   3   6
ATOM      6  C   UNL     1       1.212   1.898   1.446  1.00  0.00     0.171 C 
BRANCH   6   7
ATOM      7  N   UNL     1       0.316   0.749   1.410  1.00  0.00    -0.341 N 
ATOM      8  C   UNL     1      -0.556   0.309   0.445  1.00  0.00     0.261 C 
ATOM      9  O   UNL     1      -1.135  -0.750   0.741  1.00  0.00    -0.271 OA
ATOM     10  H   UNL     1       0.341   0.190   2.220  1.00  0.00     0.164 HD
BRANCH   8  11
ATOM     11  C   UNL     1      -0.875   0.968  -0.991  1.00  0.00     0.258 C 
ATOM     12  C   UNL     1       0.215   0.605  -1.995  1.00  0.00     0.064 C 
BRANCH  11  13
ATOM     13  O   UNL     1      -1.635   2.153  -1.274  1.00  0.00    -0.481 OA
BRANCH  13  14
ATOM     14  C   UNL     1      -1.145   3.398  -1.540  1.00  0.00     0.124 A 
ATOM     15  C   UNL     1       0.036   7.959   0.561  1.00  0.00     0.045 C 
ATOM     16  C   UNL     1       0.710   6.981  -0.356  1.00  0.00    -0.033 A 
ATOM     17  C   UNL     1       2.047   6.850  -0.341  1.00  0.00     0.098 A 
ATOM     18  C   UNL     1      -0.067   5.959  -1.090  1.00  0.00     0.021 A 
ATOM     19  C   UNL     1       2.772   5.804  -1.088  1.00  0.00     0.336 A 
ATOM     20  C   UNL     1       0.642   4.973  -1.786  1.00  0.00     0.142 A 
ATOM     21  C   UNL     1      -1.432   5.740  -0.892  1.00  0.00     0.016 A 
ATOM     22  O   UNL     1       3.970   5.642  -0.941  1.00  0.00    -0.246 OA
ATOM     23  O   UNL     1       2.029   5.075  -2.001  1.00  0.00    -0.423 OA
ATOM     24  C   UNL     1       0.102   3.708  -2.050  1.00  0.00     0.094 A 
ATOM     25  C   UNL     1      -1.969   4.460  -1.130  1.00  0.00     0.047 A 
ENDBRANCH  13  14
ENDBRANCH  11  13
ENDBRANCH   8  11
ENDBRANCH   6   7
BRANCH   6  26
ATOM     26  C   UNL     1       1.826   2.385   2.791  1.00  0.00     0.038 C 
BRANCH  26  27
ATOM     27  C   UNL     1       2.862   1.675   3.651  1.00  0.00    -0.015 C 
ATOM     28  C   UNL     1       4.050   1.149   2.866  1.00  0.00     0.007 C 
ATOM     29  C   UNL     1       3.349   2.730   4.676  1.00  0.00     0.007 C 
ENDBRANCH  26  27
ENDBRANCH   6  26
ENDBRANCH   3   6
ENDBRANCH   1   2
BRANCH   1  30
ATOM     30  C   UNL     1      -1.924   3.765   3.660  1.00  0.00     0.042 C 
BRANCH  30  31
ATOM     31  C   UNL     1      -3.086   4.590   3.121  1.00  0.00     0.118 C 
BRANCH  31  32
ATOM     32  N   UNL     1      -4.350   3.902   3.317  1.00  0.00    -0.352 N 
ATOM     33  C   UNL     1      -5.380   4.246   4.152  1.00  0.00     0.251 C 
ATOM     34  H   UNL     1      -4.483   3.086   2.782  1.00  0.00     0.163 HD
ATOM     35  O   UNL     1      -6.258   3.437   4.429  1.00  0.00    -0.269 OA
BRANCH  33  36
ATOM     36  C   UNL     1      -5.412   5.605   4.727  1.00  0.00     0.039 A 
ATOM     37  C   UNL     1      -5.676   5.757   6.089  1.00  0.00     0.014 A 
ATOM     38  C   UNL     1      -5.179   6.723   3.918  1.00  0.00     0.014 A 
ATOM     39  C   UNL     1      -5.664   7.033   6.651  1.00  0.00     0.010 A 
ATOM     40  C   UNL     1      -5.089   7.984   4.495  1.00  0.00     0.010 A 
ATOM     41  C   UNL     1      -5.346   8.152   5.863  1.00  0.00    -0.014 A 
BRANCH  41  42
ATOM     42  C   UNL     1      -5.302   9.512   6.450  1.00  0.00     0.031 A 
ATOM     43  C   UNL     1      -6.290  10.553   6.003  1.00  0.00     0.074 A 
ATOM     44  C   UNL     1      -4.342   9.824   7.340  1.00  0.00     0.049 A 
ATOM     45  N   UNL     1      -6.375  11.814   6.343  1.00  0.00    -0.248 NA
ATOM     46  C   UNL     1      -7.300  10.127   5.020  1.00  0.00     0.031 C 
ATOM     47  C   UNL     1      -3.300   8.912   7.815  1.00  0.00     0.029 A 
ATOM     48  N   UNL     1      -4.080  10.999   7.997  1.00  0.00    -0.354 N 
ATOM     49  C   UNL     1      -7.433  12.332   5.608  1.00  0.00     0.074 A 
ATOM     50  C   UNL     1      -7.927  11.266   4.764  1.00  0.00     0.031 C 
ATOM     51  C   UNL     1      -2.527   9.555   8.705  1.00  0.00     0.029 A 
ATOM     52  C   UNL     1      -2.996  10.931   8.836  1.00  0.00     0.049 A 
ATOM     53  H   UNL     1      -4.619  11.815   7.878  1.00  0.00     0.167 HD
ATOM     54  C   UNL     1      -7.960  13.578   5.652  1.00  0.00     0.037 A 
ATOM     55  C   UNL     1      -2.442  11.875   9.619  1.00  0.00     0.037 A 
ATOM     56  C   UNL     1      -7.488  14.626   6.517  1.00  0.00     0.049 A 
ATOM     57  C   UNL     1      -3.052  13.250   9.654  1.00  0.00     0.074 A 
ATOM     58  C   UNL     1      -7.991  15.904   6.679  1.00  0.00     0.029 A 
ATOM     59  N   UNL     1      -6.401  14.511   7.372  1.00  0.00    -0.354 N 
ATOM     60  N   UNL     1      -4.090  13.711   9.000  1.00  0.00    -0.248 NA
ATOM     61  C   UNL     1      -2.417  14.233  10.542  1.00  0.00     0.031 C 
ATOM     62  C   UNL     1      -7.186  16.576   7.605  1.00  0.00     0.029 A 
ATOM     63  C   UNL     1      -6.208  15.702   8.052  1.00  0.00     0.049 A 
ATOM     64  H   UNL     1      -5.849  13.703   7.480  1.00  0.00     0.167 HD
ATOM     65  C   UNL     1      -4.250  15.025   9.416  1.00  0.00     0.074 A 
ATOM     66  C   UNL     1      -3.209  15.284  10.389  1.00  0.00     0.031 C 
ATOM     67  C   UNL     1      -5.174  15.936   9.026  1.00  0.00     0.037 A 
BRANCH  54  68
ATOM     68  C   UNL     1      -9.116  13.874   4.742  1.00  0.00     0.064 A 
ATOM     69  C   UNL     1     -10.386  13.323   4.966  1.00  0.00     0.173 A 
ATOM     70  C   UNL     1      -8.962  14.749   3.656  1.00  0.00     0.173 A 
ATOM     71  F   UNL     1     -10.582  12.470   5.983  1.00  0.00    -0.203 F 
ATOM     72  C   UNL     1     -11.454  13.617   4.122  1.00  0.00     0.198 A 
ATOM     73  C   UNL     1     -10.038  15.062   2.831  1.00  0.00     0.198 A 
ATOM     74  F   UNL     1      -7.768  15.305   3.400  1.00  0.00    -0.203 F 
ATOM     75  F   UNL     1     -12.647  13.042   4.329  1.00  0.00    -0.200 F 
ATOM     76  C   UNL     1     -11.281  14.491   3.060  1.00  0.00     0.200 A 
ATOM     77  F   UNL     1      -9.872  15.916   1.811  1.00  0.00    -0.200 F 
ATOM     78  F   UNL     1     -12.311  14.779   2.253  1.00  0.00    -0.200 F 
ENDBRANCH  54  68
BRANCH  55  79
ATOM     79  C   UNL     1      -1.260  11.545  10.456  1.00  0.00     0.064 A 
ATOM     80  C   UNL     1      -1.369  11.460  11.851  1.00  0.00     0.173 A 
ATOM     81  C   UNL     1      -0.001  11.313   9.883  1.00  0.00     0.173 A 
ATOM     82  F   UNL     1      -2.549  11.693  12.445  1.00  0.00    -0.203 F 
ATOM     83  C   UNL     1      -0.259  11.175  12.643  1.00  0.00     0.198 A 
ATOM     84  C   UNL     1       1.102  11.002  10.675  1.00  0.00     0.198 A 
ATOM     85  F   UNL     1       0.153  11.377   8.553  1.00  0.00    -0.203 F 
ATOM     86  F   UNL     1      -0.382  11.143  13.977  1.00  0.00    -0.200 F 
ATOM     87  C   UNL     1       0.974  10.942  12.054  1.00  0.00     0.200 A 
ATOM     88  F   UNL     1       2.289  10.764  10.101  1.00  0.00    -0.200 F 
ATOM     89  F   UNL     1       2.041  10.666  12.817  1.00  0.00    -0.200 F 
ENDBRANCH  55  79
BRANCH  67  90
ATOM     90  C   UNL     1      -5.124  17.286   9.679  1.00  0.00     0.064 A 
ATOM     91  C   UNL     1      -4.123  18.216   9.366  1.00  0.00     0.173 A 
ATOM     92  C   UNL     1      -6.114  17.665  10.598  1.00  0.00     0.173 A 
ATOM     93  F   UNL     1      -3.147  17.893   8.505  1.00  0.00    -0.203 F 
ATOM     94  C   UNL     1      -4.103  19.471   9.968  1.00  0.00     0.198 A 
ATOM     95  C   UNL     1      -6.106  18.931  11.177  1.00  0.00     0.198 A 
ATOM     96  F   UNL     1      -7.097  16.812  10.925  1.00  0.00    -0.203 F 
ATOM     97  F   UNL     1      -3.112  20.330   9.688  1.00  0.00    -0.200 F 
ATOM     98  C   UNL     1      -5.097  19.830  10.867  1.00  0.00     0.200 A 
ATOM     99  F   UNL     1      -7.074  19.280  12.036  1.00  0.00    -0.200 F 
ATOM    100  F   UNL     1      -5.078  21.041  11.440  1.00  0.00    -0.200 F 
ENDBRANCH  67  90
ENDBRANCH  41  42
ENDBRANCH  33  36
ENDBRANCH  31  32
ENDBRANCH  30  31
ENDBRANCH   1  30
TORSDOF 16
