REMARK SMILES Cc1cc(C)c2c(c1)C=C(C(=O)NCCCNC(=O)c1ccc(-c3c4nc(c(-c5c(F)c(F)c(F)c(F)c5F)c5ccc([nH]5)c(-c5c(F)c(F)c(F)c(F)c5F)c5nc(c(-c6c(F)c(F)c(F)c(F)c6F)c6ccc3[nH]6)C=C5)C=C4)cc1)[C@@H](C(F)(F)F)O2
REMARK SMILES IDX 15 1 14 2 13 3 11 4 12 5 10 7 1 8 2 9 3 10 8 11 4 12 7 13
REMARK SMILES IDX 5 14 6 15 9 16 88 17 83 18 84 19 85 20 86 21 87 22 16 23
REMARK SMILES IDX 17 24 18 25 19 27 20 28 21 29 82 30 22 31 81 32 23 33 24 34
REMARK SMILES IDX 25 35 75 36 26 37 80 38 74 39 76 40 27 41 79 42 73 43 72 44
REMARK SMILES IDX 28 46 60 47 40 48 59 49 41 50 44 51 58 52 77 53 42 54 43 55
REMARK SMILES IDX 57 57 78 58 45 59 29 60 30 61 38 62 31 63 32 64 36 65 39 66
REMARK SMILES IDX 33 67 34 68 37 69 35 70 61 71 62 72 70 73 63 74 64 75 68 76
REMARK SMILES IDX 71 77 65 78 66 79 69 80 67 81 46 82 47 83 55 84 48 85 49 86
REMARK SMILES IDX 53 87 56 88 50 89 51 90 54 91 52 92
REMARK H PARENT 13 6 17 26 76 45 44 56
REMARK Flexibility Score: inf
ROOT
ATOM      1  C   UNL     1      -1.653  -6.586   6.938  1.00  0.00     0.042 C 
ENDROOT
BRANCH   1   2
ATOM      2  C   UNL     1      -2.615  -5.981   5.927  1.00  0.00     0.118 C 
BRANCH   2   3
ATOM      3  N   UNL     1      -2.713  -4.536   6.069  1.00  0.00    -0.352 N 
ATOM      4  C   UNL     1      -2.303  -3.442   5.387  1.00  0.00     0.251 C 
ATOM      5  O   UNL     1      -2.619  -2.360   5.893  1.00  0.00    -0.270 OA
ATOM      6  H   UNL     1      -3.212  -4.288   6.880  1.00  0.00     0.163 HD
BRANCH   4   7
ATOM      7  C   UNL     1      -1.520  -3.468   4.118  1.00  0.00     0.067 C 
ATOM      8  C   UNL     1       1.018   0.283  -0.104  1.00  0.00     0.044 C 
ATOM      9  C   UNL     1       0.694  -1.009   0.587  1.00  0.00    -0.050 A 
ATOM     10  C   UNL     1       1.177  -2.215   0.060  1.00  0.00     0.010 A 
ATOM     11  C   UNL     1      -0.076  -1.028   1.758  1.00  0.00     0.015 A 
ATOM     12  C   UNL     1       0.909  -3.433   0.694  1.00  0.00    -0.008 A 
ATOM     13  C   UNL     1      -0.356  -2.237   2.400  1.00  0.00     0.018 A 
ATOM     14  C   UNL     1       1.428  -4.724   0.129  1.00  0.00     0.048 C 
ATOM     15  C   UNL     1       0.140  -3.428   1.863  1.00  0.00     0.130 A 
ATOM     16  C   UNL     1      -1.120  -2.275   3.642  1.00  0.00     0.025 C 
ATOM     17  O   UNL     1      -0.053  -4.634   2.477  1.00  0.00    -0.475 OA
ATOM     18  C   UNL     1      -1.192  -4.724   3.367  1.00  0.00     0.314 C 
BRANCH  18  19
ATOM     19  C   UNL     1      -2.398  -5.293   2.594  1.00  0.00     0.429 C 
ATOM     20  F   UNL     1      -2.179  -6.595   2.276  1.00  0.00    -0.167 F 
ATOM     21  F   UNL     1      -3.542  -5.267   3.321  1.00  0.00    -0.167 F 
ATOM     22  F   UNL     1      -2.651  -4.630   1.445  1.00  0.00    -0.167 F 
ENDBRANCH  18  19
ENDBRANCH   4   7
ENDBRANCH   2   3
ENDBRANCH   1   2
BRANCH   1  23
ATOM     23  C   UNL     1      -2.288  -6.718   8.315  1.00  0.00     0.118 C 
BRANCH  23  24
ATOM     24  N   UNL     1      -3.409  -7.656   8.306  1.00  0.00    -0.352 N 
ATOM     25  C   UNL     1      -3.497  -8.935   8.791  1.00  0.00     0.251 C 
ATOM     26  H   UNL     1      -4.231  -7.315   7.886  1.00  0.00     0.163 HD
ATOM     27  O   UNL     1      -4.423  -9.664   8.442  1.00  0.00    -0.269 OA
BRANCH  25  28
ATOM     28  C   UNL     1      -2.478  -9.437   9.730  1.00  0.00     0.039 A 
ATOM     29  C   UNL     1      -2.020 -10.751   9.610  1.00  0.00     0.014 A 
ATOM     30  C   UNL     1      -1.989  -8.610  10.743  1.00  0.00     0.014 A 
ATOM     31  C   UNL     1      -1.020 -11.210  10.468  1.00  0.00     0.010 A 
ATOM     32  C   UNL     1      -0.923  -9.030  11.524  1.00  0.00     0.010 A 
ATOM     33  C   UNL     1      -0.439 -10.340  11.405  1.00  0.00    -0.014 A 
BRANCH  33  34
ATOM     34  C   UNL     1       0.656 -10.787  12.297  1.00  0.00     0.031 A 
ATOM     35  C   UNL     1       0.445 -10.805  13.785  1.00  0.00     0.074 A 
ATOM     36  C   UNL     1       1.848 -11.122  11.769  1.00  0.00     0.049 A 
ATOM     37  N   UNL     1       1.291 -11.111  14.735  1.00  0.00    -0.248 NA
ATOM     38  C   UNL     1      -0.882 -10.396  14.276  1.00  0.00     0.031 C 
ATOM     39  C   UNL     1       2.178 -11.093  10.343  1.00  0.00     0.029 A 
ATOM     40  N   UNL     1       3.004 -11.552  12.368  1.00  0.00    -0.354 N 
ATOM     41  C   UNL     1       0.601 -10.926  15.925  1.00  0.00     0.074 A 
ATOM     42  C   UNL     1      -0.706 -10.412  15.588  1.00  0.00     0.031 C 
ATOM     43  C   UNL     1       3.436 -11.530  10.174  1.00  0.00     0.029 A 
ATOM     44  C   UNL     1       4.015 -11.829  11.480  1.00  0.00     0.049 A 
ATOM     45  H   UNL     1       3.101 -11.653  13.343  1.00  0.00     0.167 HD
ATOM     46  C   UNL     1       1.009 -11.201  17.185  1.00  0.00     0.037 A 
ATOM     47  C   UNL     1       5.266 -12.278  11.699  1.00  0.00     0.037 A 
ATOM     48  C   UNL     1       2.300 -11.744  17.509  1.00  0.00     0.049 A 
ATOM     49  C   UNL     1       5.702 -12.555  13.112  1.00  0.00     0.074 A 
ATOM     50  C   UNL     1       2.796 -12.104  18.748  1.00  0.00     0.029 A 
ATOM     51  N   UNL     1       3.298 -12.009  16.582  1.00  0.00    -0.354 N 
ATOM     52  N   UNL     1       5.019 -12.438  14.225  1.00  0.00    -0.248 NA
ATOM     53  C   UNL     1       7.080 -13.029  13.301  1.00  0.00     0.031 C 
ATOM     54  C   UNL     1       4.111 -12.543  18.578  1.00  0.00     0.029 A 
ATOM     55  C   UNL     1       4.417 -12.507  17.226  1.00  0.00     0.049 A 
ATOM     56  H   UNL     1       3.221 -11.864  15.611  1.00  0.00     0.167 HD
ATOM     57  C   UNL     1       5.872 -12.845  15.242  1.00  0.00     0.074 A 
ATOM     58  C   UNL     1       7.118 -13.228  14.612  1.00  0.00     0.031 C 
ATOM     59  C   UNL     1       5.643 -12.895  16.577  1.00  0.00     0.037 A 
BRANCH  46  60
ATOM     60  C   UNL     1       0.044 -10.948  18.306  1.00  0.00     0.064 A 
ATOM     61  C   UNL     1      -1.100 -11.744  18.478  1.00  0.00     0.173 A 
ATOM     62  C   UNL     1       0.294  -9.945  19.254  1.00  0.00     0.173 A 
ATOM     63  F   UNL     1      -1.392 -12.707  17.591  1.00  0.00    -0.203 F 
ATOM     64  C   UNL     1      -1.965 -11.533  19.548  1.00  0.00     0.198 A 
ATOM     65  C   UNL     1      -0.557  -9.758  20.340  1.00  0.00     0.198 A 
ATOM     66  F   UNL     1       1.375  -9.159  19.138  1.00  0.00    -0.203 F 
ATOM     67  F   UNL     1      -3.071 -12.280  19.669  1.00  0.00    -0.200 F 
ATOM     68  C   UNL     1      -1.687 -10.549  20.484  1.00  0.00     0.200 A 
ATOM     69  F   UNL     1      -0.280  -8.816  21.252  1.00  0.00    -0.200 F 
ATOM     70  F   UNL     1      -2.511 -10.360  21.524  1.00  0.00    -0.200 F 
ENDBRANCH  46  60
BRANCH  47  71
ATOM     71  C   UNL     1       6.171 -12.536  10.548  1.00  0.00     0.064 A 
ATOM     72  C   UNL     1       6.532 -13.845  10.201  1.00  0.00     0.173 A 
ATOM     73  C   UNL     1       6.673 -11.491   9.759  1.00  0.00     0.173 A 
ATOM     74  F   UNL     1       6.091 -14.877  10.934  1.00  0.00    -0.203 F 
ATOM     75  C   UNL     1       7.371 -14.098   9.117  1.00  0.00     0.198 A 
ATOM     76  C   UNL     1       7.489 -11.747   8.659  1.00  0.00     0.198 A 
ATOM     77  F   UNL     1       6.352 -10.220  10.044  1.00  0.00    -0.203 F 
ATOM     78  F   UNL     1       7.728 -15.357   8.830  1.00  0.00    -0.200 F 
ATOM     79  C   UNL     1       7.842 -13.050   8.342  1.00  0.00     0.200 A 
ATOM     80  F   UNL     1       7.928 -10.732   7.902  1.00  0.00    -0.200 F 
ATOM     81  F   UNL     1       8.639 -13.294   7.293  1.00  0.00    -0.200 F 
ENDBRANCH  47  71
BRANCH  59  82
ATOM     82  C   UNL     1       6.749 -13.398  17.456  1.00  0.00     0.064 A 
ATOM     83  C   UNL     1       7.883 -12.618  17.721  1.00  0.00     0.173 A 
ATOM     84  C   UNL     1       6.623 -14.627  18.121  1.00  0.00     0.173 A 
ATOM     85  F   UNL     1       8.053 -11.441  17.101  1.00  0.00    -0.203 F 
ATOM     86  C   UNL     1       8.856 -13.054  18.616  1.00  0.00     0.198 A 
ATOM     87  C   UNL     1       7.582 -15.046  19.038  1.00  0.00     0.198 A 
ATOM     88  F   UNL     1       5.551 -15.405  17.908  1.00  0.00    -0.203 F 
ATOM     89  F   UNL     1       9.945 -12.305  18.835  1.00  0.00    -0.200 F 
ATOM     90  C   UNL     1       8.698 -14.261  19.283  1.00  0.00     0.200 A 
ATOM     91  F   UNL     1       7.419 -16.202  19.696  1.00  0.00    -0.200 F 
ATOM     92  F   UNL     1       9.623 -14.666  20.164  1.00  0.00    -0.200 F 
ENDBRANCH  59  82
ENDBRANCH  33  34
ENDBRANCH  25  28
ENDBRANCH  23  24
ENDBRANCH   1  23
TORSDOF 11
