REMARK SMILES CC(=O)O[C@H]1C[C@@H](C(=O)NCCCNC(=O)c2ccc(-c3c4nc(c(-c5c(F)c(F)c(F)c(F)c5F)c5ccc([nH]5)c(-c5c(F)c(F)c(F)c(F)c5F)c5nc(c(-c6c(F)c(F)c(F)c(F)c6F)c6ccc3[nH]6)C=C5)C=C4)cc2)N(S(=O)(=O)c2ccc(F)cc2)C1
REMARK SMILES IDX 12 1 11 2 10 3 8 4 9 5 7 7 5 8 6 9 91 10 80 11 4 12 2 13
REMARK SMILES IDX 1 14 3 15 81 16 82 17 83 18 84 19 85 20 90 21 86 22 89 23
REMARK SMILES IDX 87 24 88 25 13 26 14 27 15 28 16 30 17 31 18 32 79 33 19 34
REMARK SMILES IDX 78 35 20 36 21 37 22 38 72 39 23 40 77 41 71 42 73 43 24 44
REMARK SMILES IDX 76 45 70 46 69 47 25 49 57 50 37 51 56 52 38 53 41 54 55 55
REMARK SMILES IDX 74 56 39 57 40 58 54 60 75 61 42 62 26 63 27 64 35 65 28 66
REMARK SMILES IDX 29 67 33 68 36 69 30 70 31 71 34 72 32 73 58 74 59 75 67 76
REMARK SMILES IDX 60 77 61 78 65 79 68 80 62 81 63 82 66 83 64 84 43 85 44 86
REMARK SMILES IDX 52 87 45 88 46 89 50 90 53 91 47 92 48 93 51 94 49 95
REMARK H PARENT 10 6 14 29 73 48 41 59
REMARK Flexibility Score: inf
ROOT
ATOM      1  C   UNL     1      -2.479  -7.296  -2.564  1.00  0.00     0.042 C 
ENDROOT
BRANCH   1   2
ATOM      2  C   UNL     1      -2.758  -5.862  -2.130  1.00  0.00     0.117 C 
BRANCH   2   3
ATOM      3  N   UNL     1      -2.586  -5.609  -0.708  1.00  0.00    -0.355 N 
ATOM      4  C   UNL     1      -1.625  -4.926  -0.023  1.00  0.00     0.238 C 
ATOM      5  O   UNL     1      -1.823  -4.725   1.179  1.00  0.00    -0.273 OA
ATOM      6  H   UNL     1      -3.288  -6.000  -0.140  1.00  0.00     0.163 HD
BRANCH   4   7
ATOM      7  C   UNL     1      -0.380  -4.359  -0.692  1.00  0.00     0.166 C 
ATOM      8  C   UNL     1       0.311  -2.846  -2.418  1.00  0.00     0.193 C 
ATOM      9  C   UNL     1      -0.755  -3.042  -1.365  1.00  0.00     0.077 C 
ATOM     10  C   UNL     1       0.831  -4.248  -2.767  1.00  0.00     0.148 C 
ATOM     11  N   UNL     1       0.223  -5.202  -1.765  1.00  0.00    -0.182 NA
BRANCH   8  12
ATOM     12  O   UNL     1      -0.021  -2.012  -3.553  1.00  0.00    -0.461 OA
BRANCH  12  13
ATOM     13  C   UNL     1      -0.961  -2.231  -4.499  1.00  0.00     0.302 C 
ATOM     14  C   UNL     1      -2.364  -2.462  -4.036  1.00  0.00     0.139 C 
ATOM     15  O   UNL     1      -0.695  -2.126  -5.692  1.00  0.00    -0.253 OA
ENDBRANCH  12  13
ENDBRANCH   8  12
BRANCH  11  16
ATOM     16  S   UNL     1       1.327  -6.431  -1.280  1.00  0.00     0.243 S 
ATOM     17  O   UNL     1       1.701  -7.122  -2.502  1.00  0.00    -0.207 OA
ATOM     18  O   UNL     1       2.324  -5.813  -0.442  1.00  0.00    -0.207 OA
BRANCH  16  19
ATOM     19  C   UNL     1       0.425  -7.598  -0.278  1.00  0.00     0.082 A 
ATOM     20  C   UNL     1       0.180  -8.895  -0.751  1.00  0.00     0.025 A 
ATOM     21  C   UNL     1       0.029  -7.247   1.016  1.00  0.00     0.025 A 
ATOM     22  C   UNL     1      -0.556  -9.792   0.030  1.00  0.00     0.040 A 
ATOM     23  C   UNL     1      -0.754  -8.126   1.768  1.00  0.00     0.040 A 
ATOM     24  C   UNL     1      -1.050  -9.386   1.264  1.00  0.00     0.123 A 
ATOM     25  F   UNL     1      -1.823 -10.219   1.972  1.00  0.00    -0.207 F 
ENDBRANCH  16  19
ENDBRANCH  11  16
ENDBRANCH   4   7
ENDBRANCH   2   3
ENDBRANCH   1   2
BRANCH   1  26
ATOM     26  C   UNL     1      -3.248  -8.363  -1.793  1.00  0.00     0.118 C 
BRANCH  26  27
ATOM     27  N   UNL     1      -4.541  -8.656  -2.381  1.00  0.00    -0.352 N 
ATOM     28  C   UNL     1      -4.969  -9.774  -3.055  1.00  0.00     0.251 C 
ATOM     29  H   UNL     1      -5.214  -7.944  -2.283  1.00  0.00     0.163 HD
ATOM     30  O   UNL     1      -6.042  -9.732  -3.653  1.00  0.00    -0.269 OA
BRANCH  28  31
ATOM     31  C   UNL     1      -4.167 -11.025  -3.095  1.00  0.00     0.039 A 
ATOM     32  C   UNL     1      -4.143 -11.755  -4.289  1.00  0.00     0.014 A 
ATOM     33  C   UNL     1      -3.520 -11.542  -1.968  1.00  0.00     0.014 A 
ATOM     34  C   UNL     1      -3.458 -12.974  -4.359  1.00  0.00     0.010 A 
ATOM     35  C   UNL     1      -2.773 -12.722  -2.060  1.00  0.00     0.010 A 
ATOM     36  C   UNL     1      -2.752 -13.466  -3.251  1.00  0.00    -0.014 A 
BRANCH  36  37
ATOM     37  C   UNL     1      -2.035 -14.771  -3.327  1.00  0.00     0.031 A 
ATOM     38  C   UNL     1      -2.473 -15.939  -2.480  1.00  0.00     0.074 A 
ATOM     39  C   UNL     1      -0.981 -14.917  -4.154  1.00  0.00     0.049 A 
ATOM     40  N   UNL     1      -1.980 -17.154  -2.421  1.00  0.00    -0.248 NA
ATOM     41  C   UNL     1      -3.599 -15.709  -1.563  1.00  0.00     0.031 C 
ATOM     42  C   UNL     1      -0.424 -13.866  -5.004  1.00  0.00     0.029 A 
ATOM     43  N   UNL     1      -0.190 -16.011  -4.418  1.00  0.00    -0.354 N 
ATOM     44  C   UNL     1      -2.727 -17.822  -1.459  1.00  0.00     0.074 A 
ATOM     45  C   UNL     1      -3.670 -16.866  -0.921  1.00  0.00     0.031 C 
ATOM     46  C   UNL     1       0.598 -14.370  -5.715  1.00  0.00     0.029 A 
ATOM     47  C   UNL     1       0.791 -15.771  -5.349  1.00  0.00     0.049 A 
ATOM     48  H   UNL     1      -0.316 -16.884  -3.980  1.00  0.00     0.167 HD
ATOM     49  C   UNL     1      -2.654 -19.120  -1.074  1.00  0.00     0.037 A 
ATOM     50  C   UNL     1       1.740 -16.584  -5.854  1.00  0.00     0.037 A 
ATOM     51  C   UNL     1      -1.737 -20.085  -1.624  1.00  0.00     0.049 A 
ATOM     52  C   UNL     1       1.806 -18.020  -5.406  1.00  0.00     0.074 A 
ATOM     53  C   UNL     1      -1.635 -21.437  -1.341  1.00  0.00     0.029 A 
ATOM     54  N   UNL     1      -0.759 -19.801  -2.565  1.00  0.00    -0.354 N 
ATOM     55  N   UNL     1       1.045 -18.657  -4.550  1.00  0.00    -0.248 NA
ATOM     56  C   UNL     1       2.861 -18.853  -6.003  1.00  0.00     0.031 C 
ATOM     57  C   UNL     1      -0.562 -21.959  -2.072  1.00  0.00     0.029 A 
ATOM     58  C   UNL     1      -0.031 -20.946  -2.853  1.00  0.00     0.049 A 
ATOM     59  H   UNL     1      -0.604 -18.917  -2.970  1.00  0.00     0.167 HD
ATOM     60  C   UNL     1       1.508 -19.966  -4.526  1.00  0.00     0.074 A 
ATOM     61  C   UNL     1       2.608 -20.038  -5.464  1.00  0.00     0.031 C 
ATOM     62  C   UNL     1       1.059 -21.013  -3.792  1.00  0.00     0.037 A 
BRANCH  49  63
ATOM     63  C   UNL     1      -3.597 -19.580   0.002  1.00  0.00     0.064 A 
ATOM     64  C   UNL     1      -4.976 -19.702  -0.230  1.00  0.00     0.173 A 
ATOM     65  C   UNL     1      -3.111 -19.940   1.268  1.00  0.00     0.173 A 
ATOM     66  F   UNL     1      -5.494 -19.364  -1.420  1.00  0.00    -0.203 F 
ATOM     67  C   UNL     1      -5.836 -20.135   0.776  1.00  0.00     0.198 A 
ATOM     68  C   UNL     1      -3.970 -20.403   2.261  1.00  0.00     0.198 A 
ATOM     69  F   UNL     1      -1.801 -19.852   1.540  1.00  0.00    -0.203 F 
ATOM     70  F   UNL     1      -7.156 -20.194   0.548  1.00  0.00    -0.200 F 
ATOM     71  C   UNL     1      -5.332 -20.492   2.018  1.00  0.00     0.200 A 
ATOM     72  F   UNL     1      -3.480 -20.762   3.456  1.00  0.00    -0.200 F 
ATOM     73  F   UNL     1      -6.161 -20.914   2.983  1.00  0.00    -0.200 F 
ENDBRANCH  49  63
BRANCH  50  74
ATOM     74  C   UNL     1       2.695 -16.063  -6.867  1.00  0.00     0.064 A 
ATOM     75  C   UNL     1       2.639 -16.491  -8.200  1.00  0.00     0.173 A 
ATOM     76  C   UNL     1       3.683 -15.129  -6.522  1.00  0.00     0.173 A 
ATOM     77  F   UNL     1       1.727 -17.402  -8.573  1.00  0.00    -0.203 F 
ATOM     78  C   UNL     1       3.543 -16.016  -9.148  1.00  0.00     0.198 A 
ATOM     79  C   UNL     1       4.569 -14.633  -7.476  1.00  0.00     0.198 A 
ATOM     80  F   UNL     1       3.778 -14.688  -5.259  1.00  0.00    -0.203 F 
ATOM     81  F   UNL     1       3.495 -16.474 -10.406  1.00  0.00    -0.200 F 
ATOM     82  C   UNL     1       4.503 -15.083  -8.786  1.00  0.00     0.200 A 
ATOM     83  F   UNL     1       5.487 -13.722  -7.125  1.00  0.00    -0.200 F 
ATOM     84  F   UNL     1       5.369 -14.622  -9.699  1.00  0.00    -0.200 F 
ENDBRANCH  50  74
BRANCH  62  85
ATOM     85  C   UNL     1       1.733 -22.341  -3.993  1.00  0.00     0.064 A 
ATOM     86  C   UNL     1       3.034 -22.586  -3.528  1.00  0.00     0.173 A 
ATOM     87  C   UNL     1       1.051 -23.395  -4.620  1.00  0.00     0.173 A 
ATOM     88  F   UNL     1       3.734 -21.609  -2.934  1.00  0.00    -0.203 F 
ATOM     89  C   UNL     1       3.635 -23.830  -3.707  1.00  0.00     0.198 A 
ATOM     90  C   UNL     1       1.644 -24.645  -4.770  1.00  0.00     0.198 A 
ATOM     91  F   UNL     1      -0.198 -23.216  -5.077  1.00  0.00    -0.203 F 
ATOM     92  F   UNL     1       4.895 -24.028  -3.296  1.00  0.00    -0.200 F 
ATOM     93  C   UNL     1       2.938 -24.860  -4.320  1.00  0.00     0.200 A 
ATOM     94  F   UNL     1       0.963 -25.643  -5.351  1.00  0.00    -0.200 F 
ATOM     95  F   UNL     1       3.515 -26.058  -4.484  1.00  0.00    -0.200 F 
ENDBRANCH  62  85
ENDBRANCH  36  37
ENDBRANCH  28  31
ENDBRANCH  26  27
ENDBRANCH   1  26
TORSDOF 14
