REMARK SMILES O=C(CC1=c2ccccc2=NC1)NCCCNC(=O)c1ccc(-c2c3nc(c(-c4c(F)c(F)c(F)c(F)c4F)c4ccc([nH]4)c(-c4c(F)c(F)c(F)c(F)c4F)c4nc(c(-c5c(F)c(F)c(F)c(F)c5F)c5ccc2[nH]5)C=C4)C=C3)cc1
REMARK SMILES IDX 15 1 14 2 13 3 1 4 2 5 3 7 4 8 5 9 12 10 6 11 10 12 11 13
REMARK SMILES IDX 7 14 9 15 8 16 16 17 17 18 18 19 19 21 20 22 21 23 82 24
REMARK SMILES IDX 22 25 81 26 23 27 24 28 25 29 75 30 26 31 80 32 74 33 76 34
REMARK SMILES IDX 27 35 79 36 73 37 72 38 28 40 60 41 40 42 59 43 41 44 44 45
REMARK SMILES IDX 58 46 77 47 42 48 43 49 57 51 78 52 45 53 29 54 30 55 38 56
REMARK SMILES IDX 31 57 32 58 36 59 39 60 33 61 34 62 37 63 35 64 61 65 62 66
REMARK SMILES IDX 70 67 63 68 64 69 68 70 71 71 65 72 66 73 69 74 67 75 46 76
REMARK SMILES IDX 47 77 55 78 48 79 49 80 53 81 56 82 50 83 51 84 54 85 52 86
REMARK H PARENT 13 6 17 20 76 39 44 50
REMARK Flexibility Score: inf
ROOT
ATOM      1  C   UNL     1       2.241   2.896  -1.848  1.00  0.00     0.042 C 
ENDROOT
BRANCH   1   2
ATOM      2  C   UNL     1       1.991   1.398  -1.989  1.00  0.00     0.117 C 
BRANCH   2   3
ATOM      3  N   UNL     1       2.768   0.625  -1.046  1.00  0.00    -0.356 N 
ATOM      4  O   UNL     1       1.048  -0.010   0.336  1.00  0.00    -0.275 OA
ATOM      5  C   UNL     1       2.240  -0.029   0.048  1.00  0.00     0.224 C 
ATOM      6  H   UNL     1       3.739   0.560  -1.195  1.00  0.00     0.163 HD
BRANCH   5   7
ATOM      7  C   UNL     1       3.285  -0.714   0.933  1.00  0.00     0.133 C 
BRANCH   7   8
ATOM      8  C   UNL     1       4.101  -1.705   0.169  1.00  0.00    -0.030 C 
ATOM      9  C   UNL     1       5.234  -1.505  -0.500  1.00  0.00     0.001 A 
ATOM     10  C   UNL     1       3.655  -3.129   0.038  1.00  0.00     0.175 C 
ATOM     11  C   UNL     1       6.083  -0.381  -0.740  1.00  0.00     0.010 A 
ATOM     12  C   UNL     1       5.462  -2.806  -1.149  1.00  0.00     0.065 A 
ATOM     13  N   UNL     1       4.631  -3.765  -0.881  1.00  0.00    -0.280 NA
ATOM     14  C   UNL     1       7.087  -0.511  -1.622  1.00  0.00     0.001 A 
ATOM     15  C   UNL     1       6.603  -2.876  -2.087  1.00  0.00     0.028 A 
ATOM     16  C   UNL     1       7.337  -1.771  -2.303  1.00  0.00     0.002 A 
ENDBRANCH   7   8
ENDBRANCH   5   7
ENDBRANCH   2   3
ENDBRANCH   1   2
BRANCH   1  17
ATOM     17  C   UNL     1       3.706   3.325  -1.922  1.00  0.00     0.118 C 
BRANCH  17  18
ATOM     18  N   UNL     1       4.345   3.072  -3.206  1.00  0.00    -0.352 N 
ATOM     19  C   UNL     1       5.160   3.893  -3.954  1.00  0.00     0.251 C 
ATOM     20  H   UNL     1       4.168   2.186  -3.596  1.00  0.00     0.163 HD
ATOM     21  O   UNL     1       5.554   3.525  -5.058  1.00  0.00    -0.269 OA
BRANCH  19  22
ATOM     22  C   UNL     1       5.529   5.238  -3.457  1.00  0.00     0.039 A 
ATOM     23  C   UNL     1       5.952   5.431  -2.142  1.00  0.00     0.014 A 
ATOM     24  C   UNL     1       5.426   6.332  -4.323  1.00  0.00     0.014 A 
ATOM     25  C   UNL     1       6.097   6.725  -1.646  1.00  0.00     0.010 A 
ATOM     26  C   UNL     1       5.645   7.628  -3.842  1.00  0.00     0.010 A 
ATOM     27  C   UNL     1       5.923   7.840  -2.484  1.00  0.00    -0.014 A 
BRANCH  27  28
ATOM     28  C   UNL     1       5.996   9.207  -1.902  1.00  0.00     0.031 A 
ATOM     29  C   UNL     1       4.769  10.080  -1.833  1.00  0.00     0.074 A 
ATOM     30  C   UNL     1       7.151   9.638  -1.359  1.00  0.00     0.049 A 
ATOM     31  N   UNL     1       4.628  11.266  -1.293  1.00  0.00    -0.248 NA
ATOM     32  C   UNL     1       3.540   9.557  -2.450  1.00  0.00     0.031 C 
ATOM     33  C   UNL     1       8.407   8.889  -1.355  1.00  0.00     0.029 A 
ATOM     34  N   UNL     1       7.448  10.791  -0.676  1.00  0.00    -0.354 N 
ATOM     35  C   UNL     1       3.306  11.631  -1.513  1.00  0.00     0.074 A 
ATOM     36  C   UNL     1       2.692  10.559  -2.266  1.00  0.00     0.031 C 
ATOM     37  C   UNL     1       9.322   9.572  -0.651  1.00  0.00     0.029 A 
ATOM     38  C   UNL     1       8.733  10.828  -0.195  1.00  0.00     0.049 A 
ATOM     39  H   UNL     1       6.801  11.522  -0.544  1.00  0.00     0.167 HD
ATOM     40  C   UNL     1       2.657  12.749  -1.109  1.00  0.00     0.037 A 
ATOM     41  C   UNL     1       9.368  11.766   0.534  1.00  0.00     0.037 A 
ATOM     42  C   UNL     1       3.255  13.807  -0.337  1.00  0.00     0.049 A 
ATOM     43  C   UNL     1       8.635  13.013   0.939  1.00  0.00     0.074 A 
ATOM     44  C   UNL     1       2.664  14.964   0.142  1.00  0.00     0.029 A 
ATOM     45  N   UNL     1       4.579  13.835   0.073  1.00  0.00    -0.354 N 
ATOM     46  N   UNL     1       7.381  13.336   0.736  1.00  0.00    -0.248 NA
ATOM     47  C   UNL     1       9.408  14.031   1.665  1.00  0.00     0.031 C 
ATOM     48  C   UNL     1       3.639  15.711   0.809  1.00  0.00     0.029 A 
ATOM     49  C   UNL     1       4.828  15.001   0.780  1.00  0.00     0.049 A 
ATOM     50  H   UNL     1       5.243  13.133  -0.112  1.00  0.00     0.167 HD
ATOM     51  C   UNL     1       7.212  14.586   1.313  1.00  0.00     0.074 A 
ATOM     52  C   UNL     1       8.486  14.956   1.895  1.00  0.00     0.031 C 
ATOM     53  C   UNL     1       6.101  15.360   1.350  1.00  0.00     0.037 A 
BRANCH  40  54
ATOM     54  C   UNL     1       1.213  12.896  -1.488  1.00  0.00     0.064 A 
ATOM     55  C   UNL     1       0.210  12.151  -0.850  1.00  0.00     0.173 A 
ATOM     56  C   UNL     1       0.821  13.843  -2.446  1.00  0.00     0.173 A 
ATOM     57  F   UNL     1       0.535  11.227   0.066  1.00  0.00    -0.203 F 
ATOM     58  C   UNL     1      -1.133  12.342  -1.166  1.00  0.00     0.198 A 
ATOM     59  C   UNL     1      -0.525  14.046  -2.743  1.00  0.00     0.198 A 
ATOM     60  F   UNL     1       1.741  14.585  -3.079  1.00  0.00    -0.203 F 
ATOM     61  F   UNL     1      -2.073  11.600  -0.563  1.00  0.00    -0.200 F 
ATOM     62  C   UNL     1      -1.500  13.294  -2.105  1.00  0.00     0.200 A 
ATOM     63  F   UNL     1      -0.878  14.976  -3.641  1.00  0.00    -0.200 F 
ATOM     64  F   UNL     1      -2.793  13.486  -2.397  1.00  0.00    -0.200 F 
ENDBRANCH  40  54
BRANCH  41  65
ATOM     65  C   UNL     1      10.778  11.543   0.942  1.00  0.00     0.064 A 
ATOM     66  C   UNL     1      11.105  11.279   2.278  1.00  0.00     0.173 A 
ATOM     67  C   UNL     1      11.820  11.563   0.004  1.00  0.00     0.173 A 
ATOM     68  F   UNL     1      10.144  11.271   3.214  1.00  0.00    -0.203 F 
ATOM     69  C   UNL     1      12.424  11.042   2.662  1.00  0.00     0.198 A 
ATOM     70  C   UNL     1      13.134  11.301   0.384  1.00  0.00     0.198 A 
ATOM     71  F   UNL     1      11.556  11.810  -1.288  1.00  0.00    -0.203 F 
ATOM     72  F   UNL     1      12.714  10.816   3.950  1.00  0.00    -0.200 F 
ATOM     73  C   UNL     1      13.436  11.045   1.713  1.00  0.00     0.200 A 
ATOM     74  F   UNL     1      14.107  11.290  -0.538  1.00  0.00    -0.200 F 
ATOM     75  F   UNL     1      14.701  10.802   2.080  1.00  0.00    -0.200 F 
ENDBRANCH  41  65
BRANCH  53  76
ATOM     76  C   UNL     1       6.202  16.686   2.041  1.00  0.00     0.064 A 
ATOM     77  C   UNL     1       6.860  17.770   1.442  1.00  0.00     0.173 A 
ATOM     78  C   UNL     1       5.580  16.896   3.280  1.00  0.00     0.173 A 
ATOM     79  F   UNL     1       7.482  17.613   0.263  1.00  0.00    -0.203 F 
ATOM     80  C   UNL     1       6.900  19.014   2.064  1.00  0.00     0.198 A 
ATOM     81  C   UNL     1       5.601  18.148   3.888  1.00  0.00     0.198 A 
ATOM     82  F   UNL     1       4.933  15.892   3.890  1.00  0.00    -0.203 F 
ATOM     83  F   UNL     1       7.559  20.029   1.487  1.00  0.00    -0.200 F 
ATOM     84  C   UNL     1       6.264  19.205   3.281  1.00  0.00     0.200 A 
ATOM     85  F   UNL     1       4.977  18.334   5.059  1.00  0.00    -0.200 F 
ATOM     86  F   UNL     1       6.292  20.407   3.872  1.00  0.00    -0.200 F 
ENDBRANCH  53  76
ENDBRANCH  27  28
ENDBRANCH  19  22
ENDBRANCH  17  18
ENDBRANCH   1  17
TORSDOF 11
