REMARK SMILES O=C(COCCNS(=O)(=O)c1ccccc1)NCCCNC(=O)c1ccc(-c2c3nc(c(-c4c(F)c(F)c(F)c(F)c4F)c4ccc([nH]4)c(-c4c(F)c(F)c(F)c(F)c4F)c4nc(c(-c5c(F)c(F)c(F)c(F)c5F)c5ccc2[nH]5)C=C4)C=C3)cc1
REMARK SMILES IDX 1 1 2 2 17 3 3 5 4 6 5 7 6 8 7 9 8 11 9 12 10 13 11 14 12 15
REMARK SMILES IDX 16 16 13 17 15 18 14 19 18 20 19 21 20 22 21 23 22 24 23 26
REMARK SMILES IDX 24 27 25 28 86 29 26 30 85 31 27 32 28 33 29 34 79 35 30 36
REMARK SMILES IDX 84 37 78 38 80 39 31 40 83 41 77 42 76 43 32 45 64 46 44 47
REMARK SMILES IDX 63 48 45 49 48 50 62 51 81 52 46 53 47 54 61 56 82 57 49 58
REMARK SMILES IDX 33 59 34 60 42 61 35 62 36 63 40 64 43 65 37 66 38 67 41 68
REMARK SMILES IDX 39 69 65 70 66 71 74 72 67 73 68 74 72 75 75 76 69 77 70 78
REMARK SMILES IDX 73 79 71 80 50 81 51 82 59 83 52 84 53 85 57 86 60 87 54 88
REMARK SMILES IDX 55 89 58 90 56 91
REMARK H PARENT 17 4 7 10 21 25 80 44 48 55
REMARK Flexibility Score: inf
ROOT
ATOM      1  O   UNL     1       1.128  -0.095   0.554  1.00  0.00    -0.272 OA
ATOM      2  C   UNL     1       2.308  -0.027   0.223  1.00  0.00     0.245 C 
ATOM      3  N   UNL     1       2.855   1.007  -0.503  1.00  0.00    -0.354 N 
ATOM      4  H   UNL     1       3.812   0.964  -0.732  1.00  0.00     0.163 HD
ENDROOT
BRANCH   2   5
ATOM      5  C   UNL     1       3.296  -1.161   0.499  1.00  0.00     0.259 C 
BRANCH   5   6
ATOM      6  O   UNL     1       3.846  -1.732  -0.681  1.00  0.00    -0.370 OA
BRANCH   6   7
ATOM      7  C   UNL     1       2.886  -2.195  -1.642  1.00  0.00     0.177 C 
BRANCH   7   8
ATOM      8  C   UNL     1       2.040  -3.389  -1.186  1.00  0.00     0.127 C 
BRANCH   8   9
ATOM      9  N   UNL     1       0.912  -2.979  -0.346  1.00  0.00    -0.209 NA
ATOM     10  H   UNL     1       0.337  -2.353  -0.910  1.00  0.00     0.141 HD
BRANCH   9  11
ATOM     11  S   UNL     1      -0.114  -4.131   0.295  1.00  0.00     0.240 S 
ATOM     12  O   UNL     1       0.683  -5.291   0.634  1.00  0.00    -0.207 OA
ATOM     13  O   UNL     1      -0.951  -3.465   1.266  1.00  0.00    -0.207 OA
BRANCH  11  14
ATOM     14  C   UNL     1      -1.136  -4.534  -1.096  1.00  0.00     0.082 A 
ATOM     15  C   UNL     1      -1.859  -3.511  -1.720  1.00  0.00     0.022 A 
ATOM     16  C   UNL     1      -1.221  -5.852  -1.549  1.00  0.00     0.022 A 
ATOM     17  C   UNL     1      -2.671  -3.814  -2.812  1.00  0.00     0.001 A 
ATOM     18  C   UNL     1      -2.039  -6.147  -2.640  1.00  0.00     0.001 A 
ATOM     19  C   UNL     1      -2.761  -5.130  -3.270  1.00  0.00     0.000 A 
ENDBRANCH  11  14
ENDBRANCH   9  11
ENDBRANCH   8   9
ENDBRANCH   7   8
ENDBRANCH   6   7
ENDBRANCH   5   6
ENDBRANCH   2   5
BRANCH   3  20
ATOM     20  C   UNL     1       2.091   2.153  -0.943  1.00  0.00     0.117 C 
BRANCH  20  21
ATOM     21  C   UNL     1       2.359   3.387  -0.092  1.00  0.00     0.042 C 
BRANCH  21  22
ATOM     22  C   UNL     1       3.824   3.807  -0.037  1.00  0.00     0.118 C 
BRANCH  22  23
ATOM     23  N   UNL     1       4.370   4.160  -1.338  1.00  0.00    -0.352 N 
ATOM     24  C   UNL     1       5.061   5.274  -1.741  1.00  0.00     0.251 C 
ATOM     25  H   UNL     1       4.220   3.490  -2.044  1.00  0.00     0.163 HD
ATOM     26  O   UNL     1       5.313   5.423  -2.934  1.00  0.00    -0.269 OA
BRANCH  24  27
ATOM     27  C   UNL     1       5.491   6.306  -0.770  1.00  0.00     0.039 A 
ATOM     28  C   UNL     1       5.442   7.647  -1.163  1.00  0.00     0.014 A 
ATOM     29  C   UNL     1       5.986   5.976   0.494  1.00  0.00     0.014 A 
ATOM     30  C   UNL     1       5.855   8.650  -0.283  1.00  0.00     0.010 A 
ATOM     31  C   UNL     1       6.313   6.981   1.404  1.00  0.00     0.010 A 
ATOM     32  C   UNL     1       6.275   8.329   1.018  1.00  0.00    -0.014 A 
BRANCH  32  33
ATOM     33  C   UNL     1       6.710   9.396   1.958  1.00  0.00     0.031 A 
ATOM     34  C   UNL     1       8.131   9.438   2.457  1.00  0.00     0.074 A 
ATOM     35  C   UNL     1       5.825  10.321   2.376  1.00  0.00     0.049 A 
ATOM     36  N   UNL     1       8.702  10.300   3.261  1.00  0.00    -0.248 NA
ATOM     37  C   UNL     1       9.024   8.357   2.013  1.00  0.00     0.031 C 
ATOM     38  C   UNL     1       4.409  10.362   2.010  1.00  0.00     0.029 A 
ATOM     39  N   UNL     1       5.986  11.409   3.199  1.00  0.00    -0.354 N 
ATOM     40  C   UNL     1      10.010   9.861   3.423  1.00  0.00     0.074 A 
ATOM     41  C   UNL     1      10.131   8.620   2.689  1.00  0.00     0.031 C 
ATOM     42  C   UNL     1       3.840  11.439   2.573  1.00  0.00     0.029 A 
ATOM     43  C   UNL     1       4.840  12.146   3.368  1.00  0.00     0.049 A 
ATOM     44  H   UNL     1       6.843  11.638   3.626  1.00  0.00     0.167 HD
ATOM     45  C   UNL     1      11.028  10.451   4.095  1.00  0.00     0.037 A 
ATOM     46  C   UNL     1       4.621  13.268   4.080  1.00  0.00     0.037 A 
ATOM     47  C   UNL     1      10.910  11.694   4.813  1.00  0.00     0.049 A 
ATOM     48  C   UNL     1       5.768  13.903   4.820  1.00  0.00     0.074 A 
ATOM     49  C   UNL     1      11.891  12.397   5.489  1.00  0.00     0.029 A 
ATOM     50  N   UNL     1       9.734  12.418   4.951  1.00  0.00    -0.354 N 
ATOM     51  N   UNL     1       7.018  13.517   4.904  1.00  0.00    -0.248 NA
ATOM     52  C   UNL     1       5.475  15.144   5.549  1.00  0.00     0.031 C 
ATOM     53  C   UNL     1      11.298  13.516   6.084  1.00  0.00     0.029 A 
ATOM     54  C   UNL     1       9.963  13.550   5.718  1.00  0.00     0.049 A 
ATOM     55  H   UNL     1       8.866  12.165   4.562  1.00  0.00     0.167 HD
ATOM     56  C   UNL     1       7.668  14.486   5.658  1.00  0.00     0.074 A 
ATOM     57  C   UNL     1       6.675  15.486   5.993  1.00  0.00     0.031 C 
ATOM     58  C   UNL     1       8.969  14.545   6.035  1.00  0.00     0.037 A 
BRANCH  45  59
ATOM     59  C   UNL     1      12.362   9.757   4.086  1.00  0.00     0.064 A 
ATOM     60  C   UNL     1      13.127   9.642   2.914  1.00  0.00     0.173 A 
ATOM     61  C   UNL     1      12.898   9.226   5.269  1.00  0.00     0.173 A 
ATOM     62  F   UNL     1      12.658  10.121   1.751  1.00  0.00    -0.203 F 
ATOM     63  C   UNL     1      14.358   8.991   2.920  1.00  0.00     0.198 A 
ATOM     64  C   UNL     1      14.146   8.609   5.279  1.00  0.00     0.198 A 
ATOM     65  F   UNL     1      12.214   9.312   6.420  1.00  0.00    -0.203 F 
ATOM     66  F   UNL     1      15.041   8.842   1.777  1.00  0.00    -0.200 F 
ATOM     67  C   UNL     1      14.871   8.483   4.104  1.00  0.00     0.200 A 
ATOM     68  F   UNL     1      14.647   8.132   6.427  1.00  0.00    -0.200 F 
ATOM     69  F   UNL     1      16.059   7.864   4.110  1.00  0.00    -0.200 F 
ENDBRANCH  45  59
BRANCH  46  70
ATOM     70  C   UNL     1       3.268  13.886   4.100  1.00  0.00     0.064 A 
ATOM     71  C   UNL     1       3.033  15.130   3.496  1.00  0.00     0.173 A 
ATOM     72  C   UNL     1       2.189  13.259   4.738  1.00  0.00     0.173 A 
ATOM     73  F   UNL     1       4.037  15.780   2.889  1.00  0.00    -0.203 F 
ATOM     74  C   UNL     1       1.779  15.736   3.556  1.00  0.00     0.198 A 
ATOM     75  C   UNL     1       0.927  13.849   4.768  1.00  0.00     0.198 A 
ATOM     76  F   UNL     1       2.357  12.065   5.325  1.00  0.00    -0.203 F 
ATOM     77  F   UNL     1       1.598  16.951   3.022  1.00  0.00    -0.200 F 
ATOM     78  C   UNL     1       0.726  15.092   4.188  1.00  0.00     0.200 A 
ATOM     79  F   UNL     1      -0.092  13.216   5.365  1.00  0.00    -0.200 F 
ATOM     80  F   UNL     1      -0.480  15.674   4.245  1.00  0.00    -0.200 F 
ENDBRANCH  46  70
BRANCH  58  81
ATOM     81  C   UNL     1       9.410  15.762   6.801  1.00  0.00     0.064 A 
ATOM     82  C   UNL     1       8.972  16.021   8.108  1.00  0.00     0.173 A 
ATOM     83  C   UNL     1      10.294  16.682   6.214  1.00  0.00     0.173 A 
ATOM     84  F   UNL     1       8.117  15.182   8.713  1.00  0.00    -0.203 F 
ATOM     85  C   UNL     1       9.363  17.177   8.780  1.00  0.00     0.198 A 
ATOM     86  C   UNL     1      10.715  17.815   6.903  1.00  0.00     0.198 A 
ATOM     87  F   UNL     1      10.755  16.479   4.970  1.00  0.00    -0.203 F 
ATOM     88  F   UNL     1       8.874  17.439  10.000  1.00  0.00    -0.200 F 
ATOM     89  C   UNL     1      10.239  18.070   8.180  1.00  0.00     0.200 A 
ATOM     90  F   UNL     1      11.576  18.666   6.328  1.00  0.00    -0.200 F 
ATOM     91  F   UNL     1      10.613  19.181   8.827  1.00  0.00    -0.200 F 
ENDBRANCH  58  81
ENDBRANCH  32  33
ENDBRANCH  24  27
ENDBRANCH  22  23
ENDBRANCH  21  22
ENDBRANCH  20  21
ENDBRANCH   3  20
TORSDOF 16
