REMARK SMILES C[C@@H](C(=O)NCCCNC(=O)c1ccc(-c2c3nc(c(-c4c(F)c(F)c(F)c(F)c4F)c4ccc([nH]4)c(-c4c(F)c(F)c(F)c(F)c4F)c4nc(c(-c5c(F)c(F)c(F)c(F)c5F)c5ccc2[nH]5)C=C4)C=C3)cc1)c1ccc(C[C@H]2CCCC2=O)c(-c2ccc(F)cc2)c1
REMARK SMILES IDX 6 1 5 2 3 3 4 4 2 6 1 7 75 8 76 9 94 10 77 11 86 12 78 13
REMARK SMILES IDX 87 14 88 15 93 16 89 17 92 18 90 19 91 20 79 21 80 22 81 23
REMARK SMILES IDX 84 24 82 25 83 26 85 27 7 28 8 29 9 30 10 31 11 33 12 34
REMARK SMILES IDX 13 35 74 36 14 37 73 38 15 39 16 40 17 41 67 42 18 43 72 44
REMARK SMILES IDX 66 45 68 46 19 47 71 48 65 49 64 50 20 52 52 53 32 54 51 55
REMARK SMILES IDX 33 56 36 57 50 58 69 59 34 60 35 61 49 63 70 64 37 65 21 66
REMARK SMILES IDX 22 67 30 68 23 69 24 70 28 71 31 72 25 73 26 74 29 75 27 76
REMARK SMILES IDX 53 77 54 78 62 79 55 80 56 81 60 82 63 83 57 84 58 85 61 86
REMARK SMILES IDX 59 87 38 88 39 89 47 90 40 91 41 92 45 93 48 94 42 95 43 96
REMARK SMILES IDX 46 97 44 98
REMARK H PARENT 5 5 9 32 68 51 36 62
REMARK Flexibility Score: inf
ROOT
ATOM      1  C   UNL     1       3.442  -0.256  -1.917  1.00  0.00     0.117 C 
ENDROOT
BRANCH   1   2
ATOM      2  N   UNL     1       2.432  -1.209  -2.331  1.00  0.00    -0.356 N 
ATOM      3  C   UNL     1       1.084  -1.241  -2.121  1.00  0.00     0.227 C 
ATOM      4  O   UNL     1       0.491  -2.205  -2.608  1.00  0.00    -0.274 OA
ATOM      5  H   UNL     1       2.779  -1.967  -2.856  1.00  0.00     0.163 HD
BRANCH   3   6
ATOM      6  C   UNL     1       0.391  -0.115  -1.333  1.00  0.00     0.105 C 
ATOM      7  C   UNL     1       0.757  -0.148   0.154  1.00  0.00     0.023 C 
BRANCH   6   8
ATOM      8  C   UNL     1      -1.134  -0.110  -1.433  1.00  0.00    -0.035 A 
ATOM      9  C   UNL     1      -1.812   1.088  -1.668  1.00  0.00     0.005 A 
ATOM     10  C   UNL     1      -1.897  -1.265  -1.197  1.00  0.00     0.013 A 
ATOM     11  C   UNL     1      -3.206   1.129  -1.630  1.00  0.00     0.004 A 
ATOM     12  C   UNL     1      -3.309  -1.258  -1.175  1.00  0.00    -0.015 A 
ATOM     13  C   UNL     1      -3.971  -0.021  -1.348  1.00  0.00    -0.039 A 
BRANCH  12  14
ATOM     14  C   UNL     1      -4.000  -2.549  -0.987  1.00  0.00    -0.018 A 
ATOM     15  C   UNL     1      -4.856  -3.063  -1.979  1.00  0.00     0.012 A 
ATOM     16  C   UNL     1      -3.770  -3.333   0.159  1.00  0.00     0.012 A 
ATOM     17  C   UNL     1      -5.489  -4.297  -1.815  1.00  0.00     0.040 A 
ATOM     18  C   UNL     1      -4.392  -4.574   0.319  1.00  0.00     0.040 A 
ATOM     19  C   UNL     1      -5.251  -5.040  -0.667  1.00  0.00     0.123 A 
ATOM     20  F   UNL     1      -5.851  -6.228  -0.512  1.00  0.00    -0.207 F 
ENDBRANCH  12  14
BRANCH  13  21
ATOM     21  C   UNL     1      -5.472   0.154  -1.196  1.00  0.00     0.047 C 
BRANCH  21  22
ATOM     22  C   UNL     1      -5.967   0.725   0.141  1.00  0.00     0.060 C 
ATOM     23  C   UNL     1      -5.515   0.003   1.414  1.00  0.00     0.012 C 
ATOM     24  C   UNL     1      -5.484   2.135   0.394  1.00  0.00     0.136 C 
ATOM     25  C   UNL     1      -4.321   0.788   1.943  1.00  0.00     0.009 C 
ATOM     26  C   UNL     1      -4.642   2.244   1.638  1.00  0.00     0.076 C 
ATOM     27  O   UNL     1      -5.767   3.093  -0.317  1.00  0.00    -0.299 OA
ENDBRANCH  21  22
ENDBRANCH  13  21
ENDBRANCH   6   8
ENDBRANCH   3   6
ENDBRANCH   1   2
BRANCH   1  28
ATOM     28  C   UNL     1       4.322  -0.795  -0.790  1.00  0.00     0.042 C 
BRANCH  28  29
ATOM     29  C   UNL     1       5.033  -2.113  -1.093  1.00  0.00     0.118 C 
BRANCH  29  30
ATOM     30  N   UNL     1       5.955  -2.020  -2.212  1.00  0.00    -0.352 N 
ATOM     31  C   UNL     1       7.286  -2.334  -2.301  1.00  0.00     0.251 C 
ATOM     32  H   UNL     1       5.557  -1.675  -3.045  1.00  0.00     0.163 HD
ATOM     33  O   UNL     1       7.903  -2.034  -3.322  1.00  0.00    -0.269 OA
BRANCH  31  34
ATOM     34  C   UNL     1       8.004  -3.001  -1.190  1.00  0.00     0.039 A 
ATOM     35  C   UNL     1       9.316  -2.598  -0.918  1.00  0.00     0.014 A 
ATOM     36  C   UNL     1       7.438  -4.048  -0.456  1.00  0.00     0.014 A 
ATOM     37  C   UNL     1      10.037  -3.204   0.113  1.00  0.00     0.010 A 
ATOM     38  C   UNL     1       8.135  -4.609   0.617  1.00  0.00     0.010 A 
ATOM     39  C   UNL     1       9.444  -4.197   0.908  1.00  0.00    -0.014 A 
BRANCH  39  40
ATOM     40  C   UNL     1      10.191  -4.798   2.042  1.00  0.00     0.031 A 
ATOM     41  C   UNL     1      10.605  -6.243   2.011  1.00  0.00     0.074 A 
ATOM     42  C   UNL     1      10.477  -4.043   3.120  1.00  0.00     0.049 A 
ATOM     43  N   UNL     1      11.274  -6.932   2.903  1.00  0.00    -0.248 NA
ATOM     44  C   UNL     1      10.197  -7.025   0.834  1.00  0.00     0.031 C 
ATOM     45  C   UNL     1      10.082  -2.645   3.299  1.00  0.00     0.029 A 
ATOM     46  N   UNL     1      11.166  -4.344   4.269  1.00  0.00    -0.354 N 
ATOM     47  C   UNL     1      11.359  -8.223   2.400  1.00  0.00     0.074 A 
ATOM     48  C   UNL     1      10.632  -8.237   1.149  1.00  0.00     0.031 C 
ATOM     49  C   UNL     1      10.558  -2.201   4.473  1.00  0.00     0.029 A 
ATOM     50  C   UNL     1      11.272  -3.287   5.139  1.00  0.00     0.049 A 
ATOM     51  H   UNL     1      11.547  -5.232   4.452  1.00  0.00     0.167 HD
ATOM     52  C   UNL     1      12.003  -9.295   2.922  1.00  0.00     0.037 A 
ATOM     53  C   UNL     1      11.884  -3.199   6.335  1.00  0.00     0.037 A 
ATOM     54  C   UNL     1      12.748  -9.277   4.155  1.00  0.00     0.049 A 
ATOM     55  C   UNL     1      12.617  -4.394   6.877  1.00  0.00     0.074 A 
ATOM     56  C   UNL     1      13.481 -10.297   4.737  1.00  0.00     0.029 A 
ATOM     57  N   UNL     1      12.854  -8.180   4.997  1.00  0.00    -0.354 N 
ATOM     58  N   UNL     1      12.750  -5.589   6.357  1.00  0.00    -0.248 NA
ATOM     59  C   UNL     1      13.297  -4.222   8.169  1.00  0.00     0.031 C 
ATOM     60  C   UNL     1      14.004  -9.827   5.947  1.00  0.00     0.029 A 
ATOM     61  C   UNL     1      13.629  -8.502   6.100  1.00  0.00     0.049 A 
ATOM     62  H   UNL     1      12.440  -7.302   4.834  1.00  0.00     0.167 HD
ATOM     63  C   UNL     1      13.542  -6.305   7.244  1.00  0.00     0.074 A 
ATOM     64  C   UNL     1      13.877  -5.403   8.327  1.00  0.00     0.031 C 
ATOM     65  C   UNL     1      13.952  -7.595   7.170  1.00  0.00     0.037 A 
BRANCH  52  66
ATOM     66  C   UNL     1      11.940 -10.582   2.153  1.00  0.00     0.064 A 
ATOM     67  C   UNL     1      12.643 -10.750   0.950  1.00  0.00     0.173 A 
ATOM     68  C   UNL     1      11.202 -11.670   2.640  1.00  0.00     0.173 A 
ATOM     69  F   UNL     1      13.355  -9.735   0.436  1.00  0.00    -0.203 F 
ATOM     70  C   UNL     1      12.587 -11.952   0.249  1.00  0.00     0.198 A 
ATOM     71  C   UNL     1      11.170 -12.880   1.950  1.00  0.00     0.198 A 
ATOM     72  F   UNL     1      10.518 -11.564   3.788  1.00  0.00    -0.203 F 
ATOM     73  F   UNL     1      13.231 -12.075  -0.920  1.00  0.00    -0.200 F 
ATOM     74  C   UNL     1      11.856 -13.018   0.753  1.00  0.00     0.200 A 
ATOM     75  F   UNL     1      10.472 -13.913   2.443  1.00  0.00    -0.200 F 
ATOM     76  F   UNL     1      11.808 -14.176   0.080  1.00  0.00    -0.200 F 
ENDBRANCH  52  66
BRANCH  53  77
ATOM     77  C   UNL     1      11.865  -1.916   7.080  1.00  0.00     0.064 A 
ATOM     78  C   UNL     1      13.022  -1.132   7.191  1.00  0.00     0.173 A 
ATOM     79  C   UNL     1      10.694  -1.445   7.691  1.00  0.00     0.173 A 
ATOM     80  F   UNL     1      14.170  -1.553   6.639  1.00  0.00    -0.203 F 
ATOM     81  C   UNL     1      13.013   0.067   7.899  1.00  0.00     0.198 A 
ATOM     82  C   UNL     1      10.681  -0.233   8.379  1.00  0.00     0.198 A 
ATOM     83  F   UNL     1       9.561  -2.156   7.608  1.00  0.00    -0.203 F 
ATOM     84  F   UNL     1      14.142   0.778   8.022  1.00  0.00    -0.200 F 
ATOM     85  C   UNL     1      11.841   0.518   8.488  1.00  0.00     0.200 A 
ATOM     86  F   UNL     1       9.543   0.206   8.935  1.00  0.00    -0.200 F 
ATOM     87  F   UNL     1      11.831   1.675   9.165  1.00  0.00    -0.200 F 
ENDBRANCH  53  77
BRANCH  65  88
ATOM     88  C   UNL     1      14.824  -8.098   8.281  1.00  0.00     0.064 A 
ATOM     89  C   UNL     1      14.305  -8.360   9.558  1.00  0.00     0.173 A 
ATOM     90  C   UNL     1      16.189  -8.339   8.063  1.00  0.00     0.173 A 
ATOM     91  F   UNL     1      13.009  -8.129   9.819  1.00  0.00    -0.203 F 
ATOM     92  C   UNL     1      15.127  -8.819  10.583  1.00  0.00     0.198 A 
ATOM     93  C   UNL     1      17.002  -8.823   9.084  1.00  0.00     0.198 A 
ATOM     94  F   UNL     1      16.732  -8.108   6.859  1.00  0.00    -0.203 F 
ATOM     95  F   UNL     1      14.620  -9.016  11.808  1.00  0.00    -0.200 F 
ATOM     96  C   UNL     1      16.473  -9.055  10.345  1.00  0.00     0.200 A 
ATOM     97  F   UNL     1      18.300  -9.058   8.850  1.00  0.00    -0.200 F 
ATOM     98  F   UNL     1      17.262  -9.496  11.334  1.00  0.00    -0.200 F 
ENDBRANCH  65  88
ENDBRANCH  39  40
ENDBRANCH  31  34
ENDBRANCH  29  30
ENDBRANCH  28  29
ENDBRANCH   1  28
TORSDOF 14
