REMARK SMILES C[C@@H]1CN(C(=O)NC[C@@H]2CCC[C@@H]2C(=O)NCCCNC(=O)c2ccc(-c3c4nc(c(-c5c(F)c(F)c(F)c(F)c5F)c5ccc([nH]5)c(-c5c(F)c(F)c(F)c(F)c5F)c5nc(c(-c6c(F)c(F)c(F)c(F)c6F)c6ccc3[nH]6)C=C5)C=C4)cc2)C[C@@H]1C
REMARK SMILES IDX 17 1 16 2 14 3 15 4 13 6 9 7 10 8 11 9 12 10 8 11 7 12 5 13
REMARK SMILES IDX 6 14 4 16 1 17 2 18 3 19 87 20 86 21 88 22 18 23 19 24 20 25
REMARK SMILES IDX 21 26 22 28 23 29 24 30 85 31 25 32 84 33 26 34 27 35 28 36
REMARK SMILES IDX 78 37 29 38 83 39 77 40 79 41 30 42 82 43 76 44 75 45 31 47
REMARK SMILES IDX 63 48 43 49 62 50 44 51 47 52 61 53 80 54 45 55 46 56 60 58
REMARK SMILES IDX 81 59 48 60 32 61 33 62 41 63 34 64 35 65 39 66 42 67 36 68
REMARK SMILES IDX 37 69 40 70 38 71 64 72 65 73 73 74 66 75 67 76 71 77 74 78
REMARK SMILES IDX 68 79 69 80 72 81 70 82 49 83 50 84 58 85 51 86 52 87 56 88
REMARK SMILES IDX 59 89 53 90 54 91 57 92 55 93
REMARK H PARENT 16 5 7 15 20 27 79 46 47 57
REMARK Flexibility Score: inf
ROOT
ATOM      1  C   UNL     1       0.697   2.959  -2.333  1.00  0.00     0.117 C 
ENDROOT
BRANCH   1   2
ATOM      2  N   UNL     1      -0.344   3.291  -1.392  1.00  0.00    -0.356 N 
ATOM      3  C   UNL     1      -1.709   3.353  -1.492  1.00  0.00     0.223 C 
ATOM      4  O   UNL     1      -2.437   2.526  -0.954  1.00  0.00    -0.275 OA
ATOM      5  H   UNL     1      -0.005   3.518  -0.496  1.00  0.00     0.163 HD
BRANCH   3   6
ATOM      6  C   UNL     1      -2.229   4.652  -2.067  1.00  0.00     0.083 C 
ATOM      7  C   UNL     1      -1.474   5.924  -1.585  1.00  0.00     0.021 C 
ATOM      8  C   UNL     1      -2.577   6.959  -1.330  1.00  0.00     0.006 C 
ATOM      9  C   UNL     1      -3.805   6.165  -0.939  1.00  0.00     0.001 C 
ATOM     10  C   UNL     1      -3.730   4.902  -1.784  1.00  0.00     0.014 C 
BRANCH   7  11
ATOM     11  C   UNL     1      -0.436   5.839  -0.410  1.00  0.00     0.122 C 
BRANCH  11  12
ATOM     12  N   UNL     1      -0.787   4.960   0.737  1.00  0.00    -0.338 N 
ATOM     13  C   UNL     1       0.083   4.565   1.729  1.00  0.00     0.317 C 
ATOM     14  O   UNL     1       0.519   5.421   2.497  1.00  0.00    -0.249 OA
ATOM     15  H   UNL     1      -1.715   4.636   0.792  1.00  0.00     0.165 HD
BRANCH  13  16
ATOM     16  N   UNL     1       0.336   3.208   1.917  1.00  0.00    -0.324 N 
ATOM     17  C   UNL     1       0.686  -0.449   1.204  1.00  0.00     0.010 C 
ATOM     18  C   UNL     1       0.258   0.781   2.016  1.00  0.00     0.010 C 
ATOM     19  C   UNL     1       0.051   2.005   1.128  1.00  0.00     0.125 C 
ATOM     20  C   UNL     1       1.231   1.283   3.090  1.00  0.00     0.010 C 
ATOM     21  C   UNL     1       0.964   2.799   3.162  1.00  0.00     0.125 C 
ATOM     22  C   UNL     1       2.697   0.957   2.834  1.00  0.00     0.010 C 
ENDBRANCH  13  16
ENDBRANCH  11  12
ENDBRANCH   7  11
ENDBRANCH   3   6
ENDBRANCH   1   2
BRANCH   1  23
ATOM     23  C   UNL     1       2.045   3.710  -2.131  1.00  0.00     0.042 C 
BRANCH  23  24
ATOM     24  C   UNL     1       2.753   3.804  -0.752  1.00  0.00     0.118 C 
BRANCH  24  25
ATOM     25  N   UNL     1       3.507   2.627  -0.361  1.00  0.00    -0.352 N 
ATOM     26  C   UNL     1       4.668   2.505   0.381  1.00  0.00     0.251 C 
ATOM     27  H   UNL     1       3.130   1.774  -0.677  1.00  0.00     0.163 HD
ATOM     28  O   UNL     1       5.175   1.396   0.501  1.00  0.00    -0.269 OA
BRANCH  26  29
ATOM     29  C   UNL     1       5.359   3.663   1.013  1.00  0.00     0.039 A 
ATOM     30  C   UNL     1       6.749   3.740   0.842  1.00  0.00     0.014 A 
ATOM     31  C   UNL     1       4.724   4.602   1.832  1.00  0.00     0.014 A 
ATOM     32  C   UNL     1       7.479   4.800   1.392  1.00  0.00     0.010 A 
ATOM     33  C   UNL     1       5.456   5.680   2.370  1.00  0.00     0.010 A 
ATOM     34  C   UNL     1       6.832   5.812   2.117  1.00  0.00    -0.014 A 
BRANCH  34  35
ATOM     35  C   UNL     1       7.583   7.060   2.446  1.00  0.00     0.031 A 
ATOM     36  C   UNL     1       8.019   7.395   3.844  1.00  0.00     0.074 A 
ATOM     37  C   UNL     1       7.889   7.897   1.433  1.00  0.00     0.049 A 
ATOM     38  N   UNL     1       8.754   8.399   4.261  1.00  0.00    -0.248 NA
ATOM     39  C   UNL     1       7.569   6.497   4.913  1.00  0.00     0.031 C 
ATOM     40  C   UNL     1       7.496   7.693   0.036  1.00  0.00     0.029 A 
ATOM     41  N   UNL     1       8.604   9.069   1.404  1.00  0.00    -0.354 N 
ATOM     42  C   UNL     1       8.857   8.253   5.639  1.00  0.00     0.074 A 
ATOM     43  C   UNL     1       8.079   7.082   5.991  1.00  0.00     0.031 C 
ATOM     44  C   UNL     1       8.004   8.680  -0.716  1.00  0.00     0.029 A 
ATOM     45  C   UNL     1       8.726   9.610   0.145  1.00  0.00     0.049 A 
ATOM     46  H   UNL     1       8.993   9.483   2.208  1.00  0.00     0.167 HD
ATOM     47  C   UNL     1       9.546   9.021   6.522  1.00  0.00     0.037 A 
ATOM     48  C   UNL     1       9.350  10.729  -0.273  1.00  0.00     0.037 A 
ATOM     49  C   UNL     1      10.312  10.190   6.160  1.00  0.00     0.049 A 
ATOM     50  C   UNL     1      10.084  11.572   0.734  1.00  0.00     0.074 A 
ATOM     51  C   UNL     1      11.083  11.005   6.973  1.00  0.00     0.029 A 
ATOM     52  N   UNL     1      10.391  10.721   4.880  1.00  0.00    -0.354 N 
ATOM     53  N   UNL     1      10.245  11.372   2.019  1.00  0.00    -0.248 NA
ATOM     54  C   UNL     1      10.729  12.793   0.231  1.00  0.00     0.031 C 
ATOM     55  C   UNL     1      11.574  12.062   6.199  1.00  0.00     0.029 A 
ATOM     56  C   UNL     1      11.167  11.871   4.889  1.00  0.00     0.049 A 
ATOM     57  H   UNL     1       9.960  10.338   4.082  1.00  0.00     0.167 HD
ATOM     58  C   UNL     1      11.031  12.421   2.473  1.00  0.00     0.074 A 
ATOM     59  C   UNL     1      11.332  13.245   1.321  1.00  0.00     0.031 C 
ATOM     60  C   UNL     1      11.464  12.680   3.732  1.00  0.00     0.037 A 
BRANCH  47  61
ATOM     61  C   UNL     1       9.492   8.638   7.976  1.00  0.00     0.064 A 
ATOM     62  C   UNL     1      10.125   7.482   8.460  1.00  0.00     0.173 A 
ATOM     63  C   UNL     1       8.847   9.466   8.909  1.00  0.00     0.173 A 
ATOM     64  F   UNL     1      10.758   6.656   7.615  1.00  0.00    -0.203 F 
ATOM     65  C   UNL     1      10.084   7.153   9.814  1.00  0.00     0.198 A 
ATOM     66  C   UNL     1       8.835   9.150  10.267  1.00  0.00     0.198 A 
ATOM     67  F   UNL     1       8.240  10.593   8.508  1.00  0.00    -0.203 F 
ATOM     68  F   UNL     1      10.656   6.020  10.244  1.00  0.00    -0.200 F 
ATOM     69  C   UNL     1       9.445   7.989  10.716  1.00  0.00     0.200 A 
ATOM     70  F   UNL     1       8.232   9.970  11.139  1.00  0.00    -0.200 F 
ATOM     71  F   UNL     1       9.413   7.674  12.019  1.00  0.00    -0.200 F 
ENDBRANCH  47  61
BRANCH  48  72
ATOM     72  C   UNL     1       9.323  11.108  -1.713  1.00  0.00     0.064 A 
ATOM     73  C   UNL     1      10.495  11.111  -2.484  1.00  0.00     0.173 A 
ATOM     74  C   UNL     1       8.130  11.491  -2.344  1.00  0.00     0.173 A 
ATOM     75  F   UNL     1      11.666  10.771  -1.925  1.00  0.00    -0.203 F 
ATOM     76  C   UNL     1      10.478  11.506  -3.821  1.00  0.00     0.198 A 
ATOM     77  C   UNL     1       8.109  11.853  -3.690  1.00  0.00     0.198 A 
ATOM     78  F   UNL     1       6.979  11.502  -1.657  1.00  0.00    -0.203 F 
ATOM     79  F   UNL     1      11.622  11.551  -4.518  1.00  0.00    -0.200 F 
ATOM     80  C   UNL     1       9.285  11.872  -4.424  1.00  0.00     0.200 A 
ATOM     81  F   UNL     1       6.950  12.188  -4.273  1.00  0.00    -0.200 F 
ATOM     82  F   UNL     1       9.268  12.249  -5.710  1.00  0.00    -0.200 F 
ENDBRANCH  48  72
BRANCH  60  83
ATOM     83  C   UNL     1      12.340  13.886   3.923  1.00  0.00     0.064 A 
ATOM     84  C   UNL     1      11.837  15.191   3.809  1.00  0.00     0.173 A 
ATOM     85  C   UNL     1      13.695  13.732   4.256  1.00  0.00     0.173 A 
ATOM     86  F   UNL     1      10.553  15.393   3.475  1.00  0.00    -0.203 F 
ATOM     87  C   UNL     1      12.664  16.296   3.994  1.00  0.00     0.198 A 
ATOM     88  C   UNL     1      14.510  14.839   4.474  1.00  0.00     0.198 A 
ATOM     89  F   UNL     1      14.226  12.507   4.381  1.00  0.00    -0.203 F 
ATOM     90  F   UNL     1      12.174  17.532   3.826  1.00  0.00    -0.200 F 
ATOM     91  C   UNL     1      13.997  16.119   4.334  1.00  0.00     0.200 A 
ATOM     92  F   UNL     1      15.794  14.666   4.817  1.00  0.00    -0.200 F 
ATOM     93  F   UNL     1      14.789  17.184   4.520  1.00  0.00    -0.200 F 
ENDBRANCH  60  83
ENDBRANCH  34  35
ENDBRANCH  26  29
ENDBRANCH  24  25
ENDBRANCH  23  24
ENDBRANCH   1  23
TORSDOF 13
