REMARK SMILES CC[C@@H](C)N(C)C(=O)N1[C@@H](C(=O)NCCCNC(=O)c2ccc(-c3c4nc(c(-c5c(F)c(F)c(F)c(F)c5F)c5ccc([nH]5)c(-c5c(F)c(F)c(F)c(F)c5F)c5nc(c(-c6c(F)c(F)c(F)c(F)c6F)c6ccc3[nH]6)C=C5)C=C4)cc2)CC[C@H]2CCCC[C@H]21
REMARK SMILES IDX 14 1 13 2 11 3 12 4 10 6 9 7 90 8 83 9 85 10 89 11 84 12
REMARK SMILES IDX 86 13 88 14 87 15 7 16 8 17 5 18 6 19 3 20 4 21 2 22 1 23
REMARK SMILES IDX 15 24 16 25 17 26 18 27 19 29 20 30 21 31 82 32 22 33 81 34
REMARK SMILES IDX 23 35 24 36 25 37 75 38 26 39 80 40 74 41 76 42 27 43 79 44
REMARK SMILES IDX 73 45 72 46 28 48 60 49 40 50 59 51 41 52 44 53 58 54 77 55
REMARK SMILES IDX 42 56 43 57 57 59 78 60 45 61 29 62 30 63 38 64 31 65 32 66
REMARK SMILES IDX 36 67 39 68 33 69 34 70 37 71 35 72 61 73 62 74 70 75 63 76
REMARK SMILES IDX 64 77 68 78 71 79 65 80 66 81 69 82 67 83 46 84 47 85 55 86
REMARK SMILES IDX 48 87 49 88 53 89 56 90 50 91 51 92 54 93 52 94
REMARK H PARENT 13 5 17 28 76 47 44 58
REMARK Flexibility Score: inf
ROOT
ATOM      1  C   UNL     1      -1.458   3.555   4.716  1.00  0.00     0.117 C 
ENDROOT
BRANCH   1   2
ATOM      2  N   UNL     1      -0.241   3.346   5.478  1.00  0.00    -0.354 N 
ATOM      3  C   UNL     1       0.089   2.306   6.293  1.00  0.00     0.242 C 
ATOM      4  O   UNL     1       1.120   2.411   6.965  1.00  0.00    -0.273 OA
ATOM      5  H   UNL     1       0.438   4.053   5.396  1.00  0.00     0.163 HD
BRANCH   3   6
ATOM      6  C   UNL     1      -0.870   1.114   6.504  1.00  0.00     0.176 C 
ATOM      7  N   UNL     1      -1.442   0.491   5.282  1.00  0.00    -0.309 N 
ATOM      8  C   UNL     1      -2.558  -0.451   5.512  1.00  0.00     0.091 C 
ATOM      9  C   UNL     1      -1.965   1.645   7.467  1.00  0.00     0.036 C 
ATOM     10  C   UNL     1      -3.687   0.145   6.362  1.00  0.00     0.012 C 
ATOM     11  C   UNL     1      -3.179  -1.172   4.305  1.00  0.00     0.025 C 
ATOM     12  C   UNL     1      -3.134   0.695   7.677  1.00  0.00     0.008 C 
ATOM     13  C   UNL     1      -4.559   1.159   5.604  1.00  0.00     0.006 C 
ATOM     14  C   UNL     1      -4.262  -0.392   3.553  1.00  0.00     0.002 C 
ATOM     15  C   UNL     1      -4.580   1.001   4.085  1.00  0.00     0.000 C 
BRANCH   7  16
ATOM     16  C   UNL     1      -0.914   0.616   4.010  1.00  0.00     0.320 C 
ATOM     17  O   UNL     1      -1.682   0.814   3.066  1.00  0.00    -0.248 OA
BRANCH  16  18
ATOM     18  N   UNL     1       0.448   0.561   3.793  1.00  0.00    -0.325 N 
ATOM     19  C   UNL     1       1.425   0.000   4.716  1.00  0.00     0.149 C 
BRANCH  18  20
ATOM     20  C   UNL     1       0.965   0.844   2.424  1.00  0.00     0.083 C 
ATOM     21  C   UNL     1       0.640   2.264   1.942  1.00  0.00     0.031 C 
BRANCH  20  22
ATOM     22  C   UNL     1       0.534  -0.257   1.426  1.00  0.00     0.021 C 
ATOM     23  C   UNL     1       1.061  -0.067   0.012  1.00  0.00     0.006 C 
ENDBRANCH  20  22
ENDBRANCH  18  20
ENDBRANCH  16  18
ENDBRANCH   7  16
ENDBRANCH   3   6
ENDBRANCH   1   2
BRANCH   1  24
ATOM     24  C   UNL     1      -2.083   4.902   5.007  1.00  0.00     0.042 C 
BRANCH  24  25
ATOM     25  C   UNL     1      -1.210   6.064   4.571  1.00  0.00     0.118 C 
BRANCH  25  26
ATOM     26  N   UNL     1      -0.948   6.069   3.139  1.00  0.00    -0.352 N 
ATOM     27  C   UNL     1      -1.156   7.060   2.214  1.00  0.00     0.251 C 
ATOM     28  H   UNL     1      -0.564   5.236   2.780  1.00  0.00     0.163 HD
ATOM     29  O   UNL     1      -1.034   6.825   1.018  1.00  0.00    -0.269 OA
BRANCH  27  30
ATOM     30  C   UNL     1      -1.557   8.407   2.666  1.00  0.00     0.039 A 
ATOM     31  C   UNL     1      -2.546   9.085   1.952  1.00  0.00     0.014 A 
ATOM     32  C   UNL     1      -0.974   8.993   3.793  1.00  0.00     0.014 A 
ATOM     33  C   UNL     1      -2.991  10.325   2.407  1.00  0.00     0.010 A 
ATOM     34  C   UNL     1      -1.494  10.175   4.305  1.00  0.00     0.010 A 
ATOM     35  C   UNL     1      -2.498  10.860   3.610  1.00  0.00    -0.014 A 
BRANCH  35  36
ATOM     36  C   UNL     1      -3.034  12.136   4.142  1.00  0.00     0.031 A 
ATOM     37  C   UNL     1      -2.138  13.332   4.300  1.00  0.00     0.074 A 
ATOM     38  C   UNL     1      -4.328  12.201   4.511  1.00  0.00     0.049 A 
ATOM     39  N   UNL     1      -2.435  14.536   4.720  1.00  0.00    -0.248 NA
ATOM     40  C   UNL     1      -0.716  13.149   3.970  1.00  0.00     0.031 C 
ATOM     41  C   UNL     1      -5.274  11.084   4.471  1.00  0.00     0.029 A 
ATOM     42  N   UNL     1      -5.073  13.250   4.985  1.00  0.00    -0.354 N 
ATOM     43  C   UNL     1      -1.242  15.246   4.705  1.00  0.00     0.074 A 
ATOM     44  C   UNL     1      -0.204  14.323   4.305  1.00  0.00     0.031 C 
ATOM     45  C   UNL     1      -6.484  11.519   4.855  1.00  0.00     0.029 A 
ATOM     46  C   UNL     1      -6.391  12.932   5.206  1.00  0.00     0.049 A 
ATOM     47  H   UNL     1      -4.699  14.146   5.150  1.00  0.00     0.167 HD
ATOM     48  C   UNL     1      -1.037  16.558   4.972  1.00  0.00     0.037 A 
ATOM     49  C   UNL     1      -7.409  13.698   5.639  1.00  0.00     0.037 A 
ATOM     50  C   UNL     1      -2.079  17.473   5.356  1.00  0.00     0.049 A 
ATOM     51  C   UNL     1      -7.153  15.152   5.929  1.00  0.00     0.074 A 
ATOM     52  C   UNL     1      -1.990  18.834   5.590  1.00  0.00     0.029 A 
ATOM     53  N   UNL     1      -3.404  17.117   5.570  1.00  0.00    -0.354 N 
ATOM     54  N   UNL     1      -6.039  15.834   5.825  1.00  0.00    -0.248 NA
ATOM     55  C   UNL     1      -8.302  15.944   6.386  1.00  0.00     0.031 C 
ATOM     56  C   UNL     1      -3.247  19.290   6.003  1.00  0.00     0.029 A 
ATOM     57  C   UNL     1      -4.135  18.227   5.964  1.00  0.00     0.049 A 
ATOM     58  H   UNL     1      -3.769  16.210   5.459  1.00  0.00     0.167 HD
ATOM     59  C   UNL     1      -6.355  17.138   6.180  1.00  0.00     0.074 A 
ATOM     60  C   UNL     1      -7.773  17.155   6.476  1.00  0.00     0.031 C 
ATOM     61  C   UNL     1      -5.545  18.223   6.260  1.00  0.00     0.037 A 
BRANCH  48  62
ATOM     62  C   UNL     1       0.367  17.081   4.855  1.00  0.00     0.064 A 
ATOM     63  C   UNL     1       1.017  17.179   3.614  1.00  0.00     0.173 A 
ATOM     64  C   UNL     1       1.060  17.523   5.992  1.00  0.00     0.173 A 
ATOM     65  F   UNL     1       0.406  16.758   2.496  1.00  0.00    -0.203 F 
ATOM     66  C   UNL     1       2.316  17.672   3.520  1.00  0.00     0.198 A 
ATOM     67  C   UNL     1       2.346  18.048   5.890  1.00  0.00     0.198 A 
ATOM     68  F   UNL     1       0.487  17.456   7.203  1.00  0.00    -0.203 F 
ATOM     69  F   UNL     1       2.934  17.706   2.331  1.00  0.00    -0.200 F 
ATOM     70  C   UNL     1       2.976  18.114   4.656  1.00  0.00     0.200 A 
ATOM     71  F   UNL     1       2.977  18.488   6.987  1.00  0.00    -0.200 F 
ATOM     72  F   UNL     1       4.222  18.597   4.563  1.00  0.00    -0.200 F 
ENDBRANCH  48  62
BRANCH  49  73
ATOM     73  C   UNL     1      -8.767  13.112   5.794  1.00  0.00     0.064 A 
ATOM     74  C   UNL     1      -9.823  13.504   4.959  1.00  0.00     0.173 A 
ATOM     75  C   UNL     1      -9.039  12.153   6.781  1.00  0.00     0.173 A 
ATOM     76  F   UNL     1      -9.618  14.430   4.011  1.00  0.00    -0.203 F 
ATOM     77  C   UNL     1     -11.103  12.979   5.122  1.00  0.00     0.198 A 
ATOM     78  C   UNL     1     -10.312  11.604   6.921  1.00  0.00     0.198 A 
ATOM     79  F   UNL     1      -8.062  11.738   7.602  1.00  0.00    -0.203 F 
ATOM     80  F   UNL     1     -12.105  13.411   4.344  1.00  0.00    -0.200 F 
ATOM     81  C   UNL     1     -11.345  12.025   6.099  1.00  0.00     0.200 A 
ATOM     82  F   UNL     1     -10.536  10.670   7.855  1.00  0.00    -0.200 F 
ATOM     83  F   UNL     1     -12.576  11.518   6.253  1.00  0.00    -0.200 F 
ENDBRANCH  49  73
BRANCH  61  84
ATOM     84  C   UNL     1      -6.183  19.523   6.662  1.00  0.00     0.064 A 
ATOM     85  C   UNL     1      -6.667  19.736   7.962  1.00  0.00     0.173 A 
ATOM     86  C   UNL     1      -6.298  20.574   5.739  1.00  0.00     0.173 A 
ATOM     87  F   UNL     1      -6.595  18.759   8.878  1.00  0.00    -0.203 F 
ATOM     88  C   UNL     1      -7.279  20.938   8.310  1.00  0.00     0.198 A 
ATOM     89  C   UNL     1      -6.876  21.787   6.102  1.00  0.00     0.198 A 
ATOM     90  F   UNL     1      -5.843  20.427   4.485  1.00  0.00    -0.203 F 
ATOM     91  F   UNL     1      -7.793  21.094   9.538  1.00  0.00    -0.200 F 
ATOM     92  C   UNL     1      -7.377  21.964   7.382  1.00  0.00     0.200 A 
ATOM     93  F   UNL     1      -6.954  22.784   5.209  1.00  0.00    -0.200 F 
ATOM     94  F   UNL     1      -7.964  23.120   7.720  1.00  0.00    -0.200 F 
ENDBRANCH  61  84
ENDBRANCH  35  36
ENDBRANCH  27  30
ENDBRANCH  25  26
ENDBRANCH  24  25
ENDBRANCH   1  24
TORSDOF 14
