REMARK SMILES CC(C)(C)OC(=O)N1CCC[C@H]1C(=O)N1CCC[C@H]1C(=O)N1CCC[C@@H]1C(=O)NCCCNC(=O)c1ccc(-c2c3nc(c(-c4c(F)c(F)c(F)c(F)c4F)c4ccc([nH]4)c(-c4c(F)c(F)c(F)c(F)c4F)c4nc(c(-c5c(F)c(F)c(F)c(F)c5F)c5ccc2[nH]5)C=C4)C=C3)cc1
REMARK SMILES IDX 22 1 23 2 24 3 25 4 26 5 20 6 21 7 19 8 15 9 16 10 17 11
REMARK SMILES IDX 18 12 13 13 14 14 12 15 8 16 9 17 10 18 11 19 6 20 7 21 5 22
REMARK SMILES IDX 2 23 1 24 3 25 4 26 27 27 28 28 29 29 30 31 31 32 32 33
REMARK SMILES IDX 33 34 34 35 35 37 36 38 37 39 98 40 38 41 97 42 39 43 40 44
REMARK SMILES IDX 41 45 91 46 42 47 96 48 90 49 92 50 43 51 95 52 89 53 88 54
REMARK SMILES IDX 44 56 76 57 56 58 75 59 57 60 60 61 74 62 93 63 58 64 59 65
REMARK SMILES IDX 73 67 94 68 61 69 45 70 46 71 54 72 47 73 48 74 52 75 55 76
REMARK SMILES IDX 49 77 50 78 53 79 51 80 77 81 78 82 86 83 79 84 80 85 84 86
REMARK SMILES IDX 87 87 81 88 82 89 85 90 83 91 62 92 63 93 71 94 64 95 65 96
REMARK SMILES IDX 69 97 72 98 66 99 67 100 70 101 68 102
REMARK H PARENT 29 30 33 36 92 55 60 66
REMARK Flexibility Score: inf
ROOT
ATOM      1  N   UNL     1      -1.848  -2.004   8.855  1.00  0.00    -0.329 N 
ATOM      2  C   UNL     1      -3.245  -1.874   9.222  1.00  0.00     0.120 C 
ATOM      3  C   UNL     1      -3.514  -0.378   9.198  1.00  0.00     0.024 C 
ATOM      4  C   UNL     1      -2.159   0.267   9.493  1.00  0.00     0.037 C 
ATOM      5  C   UNL     1      -1.098  -0.790   9.151  1.00  0.00     0.174 C 
ENDROOT
BRANCH   1   6
ATOM      6  C   UNL     1      -1.186  -3.198   8.609  1.00  0.00     0.246 C 
ATOM      7  O   UNL     1      -0.166  -3.523   9.213  1.00  0.00    -0.272 OA
BRANCH   6   8
ATOM      8  C   UNL     1      -1.790  -4.044   7.463  1.00  0.00     0.174 C 
ATOM      9  N   UNL     1      -0.814  -4.698   6.568  1.00  0.00    -0.329 N 
ATOM     10  C   UNL     1      -0.969  -6.135   6.607  1.00  0.00     0.120 C 
ATOM     11  C   UNL     1      -2.397  -6.348   7.069  1.00  0.00     0.024 C 
ATOM     12  C   UNL     1      -2.650  -5.184   8.018  1.00  0.00     0.037 C 
BRANCH   9  13
ATOM     13  C   UNL     1       0.056  -3.954   5.785  1.00  0.00     0.246 C 
ATOM     14  O   UNL     1       0.400  -2.825   6.139  1.00  0.00    -0.272 OA
BRANCH  13  15
ATOM     15  C   UNL     1       0.473  -4.504   4.388  1.00  0.00     0.178 C 
ATOM     16  N   UNL     1       1.276  -3.550   3.595  1.00  0.00    -0.296 N 
ATOM     17  C   UNL     1       2.597  -4.062   3.312  1.00  0.00     0.124 C 
ATOM     18  C   UNL     1       2.379  -5.558   3.316  1.00  0.00     0.024 C 
ATOM     19  C   UNL     1       1.359  -5.756   4.434  1.00  0.00     0.037 C 
BRANCH  16  20
ATOM     20  C   UNL     1       0.733  -2.410   3.044  1.00  0.00     0.410 C 
ATOM     21  O   UNL     1      -0.377  -2.000   3.327  1.00  0.00    -0.224 OA
BRANCH  20  22
ATOM     22  O   UNL     1       1.561  -1.852   2.110  1.00  0.00    -0.444 OA
BRANCH  22  23
ATOM     23  C   UNL     1       1.170  -0.677   1.347  1.00  0.00     0.106 C 
ATOM     24  C   UNL     1       2.115  -0.600   0.140  1.00  0.00     0.056 C 
ATOM     25  C   UNL     1       1.358   0.573   2.213  1.00  0.00     0.056 C 
ATOM     26  C   UNL     1      -0.247  -0.778   0.788  1.00  0.00     0.056 C 
ENDBRANCH  22  23
ENDBRANCH  20  22
ENDBRANCH  16  20
ENDBRANCH  13  15
ENDBRANCH   9  13
ENDBRANCH   6   8
ENDBRANCH   1   6
BRANCH   5  27
ATOM     27  C   UNL     1      -0.213  -0.298   7.983  1.00  0.00     0.242 C 
ATOM     28  O   UNL     1       0.870   0.254   8.211  1.00  0.00    -0.273 OA
ATOM     29  N   UNL     1      -0.670  -0.268   6.696  1.00  0.00    -0.354 N 
ATOM     30  H   UNL     1      -0.043   0.128   6.048  1.00  0.00     0.163 HD
BRANCH  29  31
ATOM     31  C   UNL     1      -1.919  -0.718   6.126  1.00  0.00     0.117 C 
BRANCH  31  32
ATOM     32  C   UNL     1      -2.756   0.425   5.584  1.00  0.00     0.042 C 
BRANCH  32  33
ATOM     33  C   UNL     1      -2.492   0.666   4.113  1.00  0.00     0.118 C 
BRANCH  33  34
ATOM     34  N   UNL     1      -2.937  -0.447   3.284  1.00  0.00    -0.352 N 
ATOM     35  C   UNL     1      -3.439  -0.472   2.011  1.00  0.00     0.251 C 
ATOM     36  H   UNL     1      -2.863  -1.330   3.713  1.00  0.00     0.163 HD
ATOM     37  O   UNL     1      -3.832  -1.535   1.534  1.00  0.00    -0.269 OA
BRANCH  35  38
ATOM     38  C   UNL     1      -3.500   0.761   1.196  1.00  0.00     0.039 A 
ATOM     39  C   UNL     1      -4.511   0.860   0.238  1.00  0.00     0.014 A 
ATOM     40  C   UNL     1      -2.571   1.799   1.335  1.00  0.00     0.014 A 
ATOM     41  C   UNL     1      -4.659   2.037  -0.489  1.00  0.00     0.010 A 
ATOM     42  C   UNL     1      -2.761   3.001   0.676  1.00  0.00     0.010 A 
ATOM     43  C   UNL     1      -3.826   3.133  -0.217  1.00  0.00    -0.014 A 
BRANCH  43  44
ATOM     44  C   UNL     1      -4.146   4.468  -0.749  1.00  0.00     0.031 A 
ATOM     45  C   UNL     1      -3.241   5.143  -1.726  1.00  0.00     0.074 A 
ATOM     46  C   UNL     1      -5.223   5.091  -0.237  1.00  0.00     0.049 A 
ATOM     47  N   UNL     1      -3.379   6.310  -2.299  1.00  0.00    -0.248 NA
ATOM     48  C   UNL     1      -2.005   4.433  -2.088  1.00  0.00     0.031 C 
ATOM     49  C   UNL     1      -6.096   4.540   0.804  1.00  0.00     0.029 A 
ATOM     50  N   UNL     1      -5.763   6.318  -0.507  1.00  0.00    -0.354 N 
ATOM     51  C   UNL     1      -2.255   6.471  -3.095  1.00  0.00     0.074 A 
ATOM     52  C   UNL     1      -1.413   5.313  -2.883  1.00  0.00     0.031 C 
ATOM     53  C   UNL     1      -7.081   5.412   1.060  1.00  0.00     0.029 A 
ATOM     54  C   UNL     1      -6.890   6.591   0.227  1.00  0.00     0.049 A 
ATOM     55  H   UNL     1      -5.381   6.944  -1.164  1.00  0.00     0.167 HD
ATOM     56  C   UNL     1      -1.975   7.489  -3.942  1.00  0.00     0.037 A 
ATOM     57  C   UNL     1      -7.682   7.676   0.219  1.00  0.00     0.037 A 
ATOM     58  C   UNL     1      -2.830   8.635  -4.116  1.00  0.00     0.049 A 
ATOM     59  C   UNL     1      -7.356   8.785  -0.739  1.00  0.00     0.074 A 
ATOM     60  C   UNL     1      -2.689   9.696  -4.991  1.00  0.00     0.029 A 
ATOM     61  N   UNL     1      -3.985   8.874  -3.380  1.00  0.00    -0.354 N 
ATOM     62  N   UNL     1      -6.355   8.879  -1.582  1.00  0.00    -0.248 NA
ATOM     63  C   UNL     1      -8.274   9.928  -0.761  1.00  0.00     0.031 C 
ATOM     64  C   UNL     1      -3.725  10.604  -4.744  1.00  0.00     0.029 A 
ATOM     65  C   UNL     1      -4.549  10.082  -3.759  1.00  0.00     0.049 A 
ATOM     66  H   UNL     1      -4.349   8.274  -2.690  1.00  0.00     0.167 HD
ATOM     67  C   UNL     1      -6.532  10.079  -2.252  1.00  0.00     0.074 A 
ATOM     68  C   UNL     1      -7.750  10.668  -1.728  1.00  0.00     0.031 C 
ATOM     69  C   UNL     1      -5.759  10.645  -3.212  1.00  0.00     0.037 A 
BRANCH  56  70
ATOM     70  C   UNL     1      -0.701   7.404  -4.733  1.00  0.00     0.064 A 
ATOM     71  C   UNL     1      -0.517   6.432  -5.730  1.00  0.00     0.173 A 
ATOM     72  C   UNL     1       0.341   8.316  -4.512  1.00  0.00     0.173 A 
ATOM     73  F   UNL     1      -1.476   5.527  -5.977  1.00  0.00    -0.203 F 
ATOM     74  C   UNL     1       0.674   6.356  -6.449  1.00  0.00     0.198 A 
ATOM     75  C   UNL     1       1.518   8.257  -5.255  1.00  0.00     0.198 A 
ATOM     76  F   UNL     1       0.220   9.268  -3.575  1.00  0.00    -0.203 F 
ATOM     77  F   UNL     1       0.846   5.384  -7.356  1.00  0.00    -0.200 F 
ATOM     78  C   UNL     1       1.687   7.272  -6.216  1.00  0.00     0.200 A 
ATOM     79  F   UNL     1       2.492   9.152  -5.037  1.00  0.00    -0.200 F 
ATOM     80  F   UNL     1       2.830   7.200  -6.911  1.00  0.00    -0.200 F 
ENDBRANCH  56  70
BRANCH  57  81
ATOM     81  C   UNL     1      -8.871   7.724   1.105  1.00  0.00     0.064 A 
ATOM     82  C   UNL     1     -10.166   7.631   0.578  1.00  0.00     0.173 A 
ATOM     83  C   UNL     1      -8.739   7.816   2.499  1.00  0.00     0.173 A 
ATOM     84  F   UNL     1     -10.343   7.547  -0.749  1.00  0.00    -0.203 F 
ATOM     85  C   UNL     1     -11.284   7.647   1.408  1.00  0.00     0.198 A 
ATOM     86  C   UNL     1      -9.857   7.803   3.330  1.00  0.00     0.198 A 
ATOM     87  F   UNL     1      -7.521   7.888   3.055  1.00  0.00    -0.203 F 
ATOM     88  F   UNL     1     -12.512   7.591   0.875  1.00  0.00    -0.200 F 
ATOM     89  C   UNL     1     -11.129   7.726   2.784  1.00  0.00     0.200 A 
ATOM     90  F   UNL     1      -9.701   7.856   4.660  1.00  0.00    -0.200 F 
ATOM     91  F   UNL     1     -12.205   7.728   3.583  1.00  0.00    -0.200 F 
ENDBRANCH  57  81
BRANCH  69  92
ATOM     92  C   UNL     1      -6.227  11.959  -3.767  1.00  0.00     0.064 A 
ATOM     93  C   UNL     1      -6.178  13.137  -3.008  1.00  0.00     0.173 A 
ATOM     94  C   UNL     1      -6.703  12.041  -5.083  1.00  0.00     0.173 A 
ATOM     95  F   UNL     1      -5.747  13.106  -1.738  1.00  0.00    -0.203 F 
ATOM     96  C   UNL     1      -6.617  14.346  -3.539  1.00  0.00     0.198 A 
ATOM     97  C   UNL     1      -7.109  13.258  -5.622  1.00  0.00     0.198 A 
ATOM     98  F   UNL     1      -6.765  10.943  -5.851  1.00  0.00    -0.203 F 
ATOM     99  F   UNL     1      -6.614  15.450  -2.778  1.00  0.00    -0.200 F 
ATOM    100  C   UNL     1      -7.074  14.407  -4.847  1.00  0.00     0.200 A 
ATOM    101  F   UNL     1      -7.536  13.318  -6.891  1.00  0.00    -0.200 F 
ATOM    102  F   UNL     1      -7.491  15.574  -5.358  1.00  0.00    -0.200 F 
ENDBRANCH  69  92
ENDBRANCH  43  44
ENDBRANCH  35  38
ENDBRANCH  33  34
ENDBRANCH  32  33
ENDBRANCH  31  32
ENDBRANCH  29  31
ENDBRANCH   5  27
TORSDOF 17
