REMARK SMILES O=C(/C=C\c1ccc(S(=O)(=O)N2CCCCCC2)cc1)NCCCNC(=O)c1ccc(-c2c3nc(c(-c4c(F)c(F)c(F)c(F)c4F)c4ccc([nH]4)c(-c4c(F)c(F)c(F)c(F)c4F)c4nc(c(-c5c(F)c(F)c(F)c(F)c5F)c5ccc2[nH]5)C=C4)C=C3)cc1
REMARK SMILES IDX 1 1 2 2 21 3 3 5 4 6 5 7 6 8 20 9 7 10 19 11 8 12 9 13 10 14
REMARK SMILES IDX 11 15 12 16 13 17 14 18 15 19 18 21 17 22 16 23 22 25 23 26
REMARK SMILES IDX 24 27 25 28 26 29 27 31 28 32 29 33 90 34 30 35 89 36 31 37
REMARK SMILES IDX 32 38 33 39 83 40 34 41 88 42 82 43 84 44 35 45 87 46 81 47
REMARK SMILES IDX 80 48 36 50 68 51 48 52 67 53 49 54 52 55 66 56 85 57 50 58
REMARK SMILES IDX 51 59 65 61 86 62 53 63 37 64 38 65 46 66 39 67 40 68 44 69
REMARK SMILES IDX 47 70 41 71 42 72 45 73 43 74 69 75 70 76 78 77 71 78 72 79
REMARK SMILES IDX 76 80 79 81 73 82 74 83 77 84 75 85 54 86 55 87 63 88 56 89
REMARK SMILES IDX 57 90 61 91 64 92 58 93 59 94 62 95 60 96
REMARK H PARENT 21 4 25 30 84 49 52 60
REMARK Flexibility Score: 90.00
ROOT
ATOM      1  O   UNL     1       1.048   0.097  -0.381  1.00  0.00    -0.270 OA
ATOM      2  C   UNL     1       2.200  -0.315  -0.467  1.00  0.00     0.244 C 
ATOM      3  N   UNL     1       2.812  -0.658  -1.656  1.00  0.00    -0.352 N 
ATOM      4  H   UNL     1       3.795  -0.706  -1.703  1.00  0.00     0.163 HD
ENDROOT
BRANCH   2   5
ATOM      5  C   UNL     1       2.927  -0.655   0.793  1.00  0.00     0.072 C 
ATOM      6  C   UNL     1       4.224  -0.558   1.126  1.00  0.00     0.014 C 
BRANCH   6   7
ATOM      7  C   UNL     1       5.266   0.019   0.291  1.00  0.00    -0.025 A 
ATOM      8  C   UNL     1       6.190  -0.801  -0.362  1.00  0.00     0.009 A 
ATOM      9  C   UNL     1       5.305   1.405   0.114  1.00  0.00     0.009 A 
ATOM     10  C   UNL     1       7.064  -0.244  -1.295  1.00  0.00     0.022 A 
ATOM     11  C   UNL     1       6.214   1.969  -0.775  1.00  0.00     0.022 A 
ATOM     12  C   UNL     1       7.039   1.137  -1.530  1.00  0.00     0.082 A 
BRANCH  12  13
ATOM     13  S   UNL     1       7.831   1.768  -2.999  1.00  0.00     0.243 S 
ATOM     14  O   UNL     1       9.052   2.432  -2.596  1.00  0.00    -0.207 OA
ATOM     15  O   UNL     1       7.856   0.662  -3.932  1.00  0.00    -0.207 OA
BRANCH  13  16
ATOM     16  N   UNL     1       6.709   2.938  -3.618  1.00  0.00    -0.198 NA
BRANCH  16  17
ATOM     17  C   UNL     1       5.330   2.445  -3.848  1.00  0.00     0.102 C 
BRANCH  17  18
ATOM     18  C   UNL     1       4.451   3.192  -4.838  1.00  0.00     0.017 C 
BRANCH  18  19
ATOM     19  C   UNL     1       3.841   4.489  -4.362  1.00  0.00     0.001 CG0
ATOM     20  G   UNL     1       4.899   5.550  -4.124  1.00  0.00     0.000 G0
ENDBRANCH  18  19
ENDBRANCH  17  18
ENDBRANCH  16  17
BRANCH  16  21
ATOM     21  C   UNL     1       6.980   4.346  -3.266  1.00  0.00     0.102 C 
BRANCH  21  22
ATOM     22  C   UNL     1       5.776   5.210  -2.929  1.00  0.00     0.017 C 
BRANCH  22  23
ATOM     23  C   UNL     1       4.899   5.550  -4.124  1.00  0.00     0.001 CG0
ATOM     24  G   UNL     1       3.841   4.489  -4.362  1.00  0.00     0.000 G0
ENDBRANCH  22  23
ENDBRANCH  21  22
ENDBRANCH  16  21
ENDBRANCH  13  16
ENDBRANCH  12  13
ENDBRANCH   6   7
ENDBRANCH   2   5
BRANCH   3  25
ATOM     25  C   UNL     1       2.016  -0.949  -2.841  1.00  0.00     0.118 C 
BRANCH  25  26
ATOM     26  C   UNL     1       2.379  -0.227  -4.150  1.00  0.00     0.042 C 
BRANCH  26  27
ATOM     27  C   UNL     1       3.712  -0.622  -4.809  1.00  0.00     0.118 C 
BRANCH  27  28
ATOM     28  N   UNL     1       3.776  -0.193  -6.231  1.00  0.00    -0.352 N 
ATOM     29  C   UNL     1       4.955  -0.165  -6.972  1.00  0.00     0.251 C 
ATOM     30  H   UNL     1       2.941   0.087  -6.671  1.00  0.00     0.163 HD
ATOM     31  O   UNL     1       5.481  -1.195  -7.374  1.00  0.00    -0.269 OA
BRANCH  29  32
ATOM     32  C   UNL     1       5.480   1.169  -7.411  1.00  0.00     0.039 A 
ATOM     33  C   UNL     1       4.872   1.932  -8.405  1.00  0.00     0.014 A 
ATOM     34  C   UNL     1       6.637   1.683  -6.838  1.00  0.00     0.014 A 
ATOM     35  C   UNL     1       5.348   3.239  -8.708  1.00  0.00     0.010 A 
ATOM     36  C   UNL     1       7.011   3.038  -7.040  1.00  0.00     0.010 A 
ATOM     37  C   UNL     1       6.342   3.892  -7.940  1.00  0.00    -0.014 A 
BRANCH  37  38
ATOM     38  C   UNL     1       6.557   5.423  -8.004  1.00  0.00     0.031 A 
ATOM     39  C   UNL     1       7.913   6.117  -7.788  1.00  0.00     0.074 A 
ATOM     40  C   UNL     1       5.510   6.289  -8.120  1.00  0.00     0.049 A 
ATOM     41  N   UNL     1       8.193   7.411  -7.757  1.00  0.00    -0.248 NA
ATOM     42  C   UNL     1       9.083   5.280  -7.508  1.00  0.00     0.031 C 
ATOM     43  C   UNL     1       4.090   5.935  -8.149  1.00  0.00     0.029 A 
ATOM     44  N   UNL     1       5.478   7.676  -8.215  1.00  0.00    -0.354 N 
ATOM     45  C   UNL     1       9.536   7.525  -7.403  1.00  0.00     0.074 A 
ATOM     46  C   UNL     1       9.991   6.175  -7.143  1.00  0.00     0.031 C 
ATOM     47  C   UNL     1       3.346   7.038  -8.324  1.00  0.00     0.029 A 
ATOM     48  C   UNL     1       4.215   8.210  -8.367  1.00  0.00     0.049 A 
ATOM     49  H   UNL     1       6.290   8.232  -8.176  1.00  0.00     0.167 HD
ATOM     50  C   UNL     1      10.355   8.611  -7.349  1.00  0.00     0.037 A 
ATOM     51  C   UNL     1       3.764   9.475  -8.526  1.00  0.00     0.037 A 
ATOM     52  C   UNL     1      10.006   9.969  -7.695  1.00  0.00     0.049 A 
ATOM     53  C   UNL     1       4.692  10.662  -8.562  1.00  0.00     0.074 A 
ATOM     54  C   UNL     1      10.848  11.067  -7.826  1.00  0.00     0.029 A 
ATOM     55  N   UNL     1       8.730  10.425  -7.961  1.00  0.00    -0.354 N 
ATOM     56  N   UNL     1       5.989  10.704  -8.414  1.00  0.00    -0.248 NA
ATOM     57  C   UNL     1       4.084  11.986  -8.805  1.00  0.00     0.031 C 
ATOM     58  C   UNL     1      10.076  12.193  -8.132  1.00  0.00     0.029 A 
ATOM     59  C   UNL     1       8.761  11.787  -8.239  1.00  0.00     0.049 A 
ATOM     60  H   UNL     1       7.919   9.867  -7.955  1.00  0.00     0.167 HD
ATOM     61  C   UNL     1       6.353  12.034  -8.601  1.00  0.00     0.074 A 
ATOM     62  C   UNL     1       5.146  12.777  -8.867  1.00  0.00     0.031 C 
ATOM     63  C   UNL     1       7.596  12.568  -8.560  1.00  0.00     0.037 A 
BRANCH  50  64
ATOM     64  C   UNL     1      11.794   8.379  -6.960  1.00  0.00     0.064 A 
ATOM     65  C   UNL     1      12.674   7.688  -7.808  1.00  0.00     0.173 A 
ATOM     66  C   UNL     1      12.322   8.929  -5.780  1.00  0.00     0.173 A 
ATOM     67  F   UNL     1      12.226   7.161  -8.958  1.00  0.00    -0.203 F 
ATOM     68  C   UNL     1      14.010   7.506  -7.464  1.00  0.00     0.198 A 
ATOM     69  C   UNL     1      13.670   8.781  -5.460  1.00  0.00     0.198 A 
ATOM     70  F   UNL     1      11.538   9.637  -4.952  1.00  0.00    -0.203 F 
ATOM     71  F   UNL     1      14.813   6.792  -8.265  1.00  0.00    -0.200 F 
ATOM     72  C   UNL     1      14.509   8.058  -6.295  1.00  0.00     0.200 A 
ATOM     73  F   UNL     1      14.160   9.344  -4.347  1.00  0.00    -0.200 F 
ATOM     74  F   UNL     1      15.799   7.895  -5.974  1.00  0.00    -0.200 F 
ENDBRANCH  50  64
BRANCH  51  75
ATOM     75  C   UNL     1       2.308   9.721  -8.729  1.00  0.00     0.064 A 
ATOM     76  C   UNL     1       1.821  10.092  -9.992  1.00  0.00     0.173 A 
ATOM     77  C   UNL     1       1.398   9.665  -7.666  1.00  0.00     0.173 A 
ATOM     78  F   UNL     1       2.665  10.197 -11.029  1.00  0.00    -0.203 F 
ATOM     79  C   UNL     1       0.483  10.430 -10.176  1.00  0.00     0.198 A 
ATOM     80  C   UNL     1       0.053   9.976  -7.859  1.00  0.00     0.198 A 
ATOM     81  F   UNL     1       1.817   9.320  -6.440  1.00  0.00    -0.203 F 
ATOM     82  F   UNL     1       0.059  10.847 -11.377  1.00  0.00    -0.200 F 
ATOM     83  C   UNL     1      -0.400  10.369  -9.110  1.00  0.00     0.200 A 
ATOM     84  F   UNL     1      -0.801   9.913  -6.828  1.00  0.00    -0.200 F 
ATOM     85  F   UNL     1      -1.686  10.706  -9.284  1.00  0.00    -0.200 F 
ENDBRANCH  51  75
BRANCH  63  86
ATOM     86  C   UNL     1       7.770  14.023  -8.898  1.00  0.00     0.064 A 
ATOM     87  C   UNL     1       7.341  15.050  -8.044  1.00  0.00     0.173 A 
ATOM     88  C   UNL     1       8.425  14.397 -10.084  1.00  0.00     0.173 A 
ATOM     89  F   UNL     1       6.695  14.756  -6.906  1.00  0.00    -0.203 F 
ATOM     90  C   UNL     1       7.550  16.391  -8.368  1.00  0.00     0.198 A 
ATOM     91  C   UNL     1       8.654  15.736 -10.393  1.00  0.00     0.198 A 
ATOM     92  F   UNL     1       8.857  13.459 -10.941  1.00  0.00    -0.203 F 
ATOM     93  F   UNL     1       7.100  17.355  -7.551  1.00  0.00    -0.200 F 
ATOM     94  C   UNL     1       8.213  16.733  -9.537  1.00  0.00     0.200 A 
ATOM     95  F   UNL     1       9.303  16.062 -11.520  1.00  0.00    -0.200 F 
ATOM     96  F   UNL     1       8.422  18.021  -9.841  1.00  0.00    -0.200 F 
ENDBRANCH  63  86
ENDBRANCH  37  38
ENDBRANCH  29  32
ENDBRANCH  27  28
ENDBRANCH  26  27
ENDBRANCH  25  26
ENDBRANCH   3  25
TORSDOF 13
