REMARK SMILES O=C(COc1cccc(C(=O)NCCCNC(=O)c2ccc(-c3c4nc(c(-c5c(F)c(F)c(F)c(F)c5F)c5ccc([nH]5)c(-c5c(F)c(F)c(F)c(F)c5F)c5nc(c(-c6c(F)c(F)c(F)c(F)c6F)c6ccc3[nH]6)C=C5)C=C4)cc2)c1)NCCc1cccs1
REMARK SMILES IDX 10 1 11 2 12 3 9 5 5 6 6 7 82 8 7 9 8 10 4 11 3 12 2 13 1 14
REMARK SMILES IDX 83 15 84 17 85 18 86 19 87 20 90 21 88 22 89 23 13 24 14 25
REMARK SMILES IDX 15 26 16 27 17 28 18 30 19 31 20 32 81 33 21 34 80 35 22 36
REMARK SMILES IDX 23 37 24 38 74 39 25 40 79 41 73 42 75 43 26 44 78 45 72 46
REMARK SMILES IDX 71 47 27 49 59 50 39 51 58 52 40 53 43 54 57 55 76 56 41 57
REMARK SMILES IDX 42 58 56 60 77 61 44 62 28 63 29 64 37 65 30 66 31 67 35 68
REMARK SMILES IDX 38 69 32 70 33 71 36 72 34 73 60 74 61 75 69 76 62 77 63 78
REMARK SMILES IDX 67 79 70 80 64 81 65 82 68 83 66 84 45 85 46 86 54 87 47 88
REMARK SMILES IDX 48 89 52 90 55 91 49 92 50 93 53 94 51 95
REMARK H PARENT 12 4 83 16 16 29 75 48 43 59
REMARK Flexibility Score: inf
ROOT
ATOM      1  C   UNL     1       0.512   2.639  -3.624  1.00  0.00     0.251 C 
ATOM      2  O   UNL     1      -0.088   3.043  -4.624  1.00  0.00    -0.269 OA
ATOM      3  N   UNL     1       0.164   3.171  -2.404  1.00  0.00    -0.352 N 
ATOM      4  H   UNL     1      -0.606   3.784  -2.435  1.00  0.00     0.163 HD
ENDROOT
BRANCH   1   5
ATOM      5  C   UNL     1       1.618   1.654  -3.792  1.00  0.00     0.043 A 
ATOM      6  C   UNL     1       3.131  -0.028  -2.913  1.00  0.00     0.120 A 
ATOM      7  C   UNL     1       3.878   0.049  -4.092  1.00  0.00     0.046 A 
ATOM      8  C   UNL     1       1.949   0.705  -2.816  1.00  0.00     0.060 A 
ATOM      9  C   UNL     1       3.469   0.873  -5.143  1.00  0.00     0.005 A 
ATOM     10  C   UNL     1       2.357   1.698  -4.980  1.00  0.00     0.014 A 
BRANCH   6  11
ATOM     11  O   UNL     1       3.705  -0.756  -1.906  1.00  0.00    -0.484 OA
BRANCH  11  12
ATOM     12  C   UNL     1       2.883  -1.292  -0.880  1.00  0.00     0.329 C 
BRANCH  12  13
ATOM     13  C   UNL     1       2.231  -0.343   0.138  1.00  0.00     0.257 C 
ATOM     14  O   UNL     1       1.011  -0.321   0.298  1.00  0.00    -0.271 OA
ATOM     15  N   UNL     1       3.084   0.489   0.827  1.00  0.00    -0.353 N 
ATOM     16  H   UNL     1       4.055   0.336   0.774  1.00  0.00     0.163 HD
BRANCH  15  17
ATOM     17  C   UNL     1       2.580   1.591   1.632  1.00  0.00     0.121 C 
BRANCH  17  18
ATOM     18  C   UNL     1       2.975   1.563   3.108  1.00  0.00     0.068 C 
BRANCH  18  19
ATOM     19  C   UNL     1       4.397   2.008   3.297  1.00  0.00     0.006 A 
ATOM     20  C   UNL     1       4.887   3.300   3.316  1.00  0.00     0.015 A 
ATOM     21  S   UNL     1       5.645   0.855   3.496  1.00  0.00    -0.149 S 
ATOM     22  C   UNL     1       6.303   3.337   3.457  1.00  0.00     0.012 A 
ATOM     23  C   UNL     1       6.841   2.074   3.564  1.00  0.00     0.065 A 
ENDBRANCH  18  19
ENDBRANCH  17  18
ENDBRANCH  15  17
ENDBRANCH  12  13
ENDBRANCH  11  12
ENDBRANCH   6  11
ENDBRANCH   1   5
BRANCH   3  24
ATOM     24  C   UNL     1       0.731   2.989  -1.077  1.00  0.00     0.118 C 
BRANCH  24  25
ATOM     25  C   UNL     1       1.116   4.298  -0.402  1.00  0.00     0.042 C 
BRANCH  25  26
ATOM     26  C   UNL     1      -0.046   5.076   0.190  1.00  0.00     0.118 C 
BRANCH  26  27
ATOM     27  N   UNL     1      -0.737   4.364   1.262  1.00  0.00    -0.352 N 
ATOM     28  C   UNL     1      -0.688   4.403   2.631  1.00  0.00     0.251 C 
ATOM     29  H   UNL     1      -1.386   3.705   0.923  1.00  0.00     0.163 HD
ATOM     30  O   UNL     1      -1.325   3.544   3.252  1.00  0.00    -0.269 OA
BRANCH  28  31
ATOM     31  C   UNL     1       0.103   5.389   3.406  1.00  0.00     0.039 A 
ATOM     32  C   UNL     1       0.504   5.051   4.710  1.00  0.00     0.014 A 
ATOM     33  C   UNL     1       0.396   6.666   2.936  1.00  0.00     0.014 A 
ATOM     34  C   UNL     1       1.216   5.963   5.499  1.00  0.00     0.010 A 
ATOM     35  C   UNL     1       1.219   7.521   3.665  1.00  0.00     0.010 A 
ATOM     36  C   UNL     1       1.608   7.200   4.971  1.00  0.00    -0.014 A 
BRANCH  36  37
ATOM     37  C   UNL     1       2.349   8.212   5.771  1.00  0.00     0.031 A 
ATOM     38  C   UNL     1       1.754   9.584   5.978  1.00  0.00     0.074 A 
ATOM     39  C   UNL     1       3.582   7.937   6.239  1.00  0.00     0.049 A 
ATOM     40  N   UNL     1       2.292  10.656   6.505  1.00  0.00    -0.248 NA
ATOM     41  C   UNL     1       0.383   9.791   5.481  1.00  0.00     0.031 C 
ATOM     42  C   UNL     1       4.288   6.666   6.075  1.00  0.00     0.029 A 
ATOM     43  N   UNL     1       4.466   8.720   6.937  1.00  0.00    -0.354 N 
ATOM     44  C   UNL     1       1.343  11.664   6.365  1.00  0.00     0.074 A 
ATOM     45  C   UNL     1       0.226  11.095   5.646  1.00  0.00     0.031 C 
ATOM     46  C   UNL     1       5.486   6.748   6.677  1.00  0.00     0.029 A 
ATOM     47  C   UNL     1       5.650   8.088   7.231  1.00  0.00     0.049 A 
ATOM     48  H   UNL     1       4.271   9.648   7.203  1.00  0.00     0.167 HD
ATOM     49  C   UNL     1       1.384  12.939   6.821  1.00  0.00     0.037 A 
ATOM     50  C   UNL     1       6.745   8.542   7.870  1.00  0.00     0.037 A 
ATOM     51  C   UNL     1       2.474  13.485   7.585  1.00  0.00     0.049 A 
ATOM     52  C   UNL     1       6.755   9.954   8.394  1.00  0.00     0.074 A 
ATOM     53  C   UNL     1       2.593  14.745   8.145  1.00  0.00     0.029 A 
ATOM     54  N   UNL     1       3.632  12.792   7.908  1.00  0.00    -0.354 N 
ATOM     55  N   UNL     1       5.834  10.882   8.296  1.00  0.00    -0.248 NA
ATOM     56  C   UNL     1       7.953  10.375   9.132  1.00  0.00     0.031 C 
ATOM     57  C   UNL     1       3.840  14.827   8.774  1.00  0.00     0.029 A 
ATOM     58  C   UNL     1       4.473  13.600   8.654  1.00  0.00     0.049 A 
ATOM     59  H   UNL     1       3.827  11.863   7.645  1.00  0.00     0.167 HD
ATOM     60  C   UNL     1       6.321  11.979   8.995  1.00  0.00     0.074 A 
ATOM     61  C   UNL     1       7.615  11.597   9.519  1.00  0.00     0.031 C 
ATOM     62  C   UNL     1       5.748  13.193   9.189  1.00  0.00     0.037 A 
BRANCH  49  63
ATOM     63  C   UNL     1       0.209  13.826   6.515  1.00  0.00     0.064 A 
ATOM     64  C   UNL     1      -1.055  13.602   7.084  1.00  0.00     0.173 A 
ATOM     65  C   UNL     1       0.352  14.930   5.659  1.00  0.00     0.173 A 
ATOM     66  F   UNL     1      -1.252  12.555   7.900  1.00  0.00    -0.203 F 
ATOM     67  C   UNL     1      -2.138  14.422   6.777  1.00  0.00     0.198 A 
ATOM     68  C   UNL     1      -0.725  15.770   5.383  1.00  0.00     0.198 A 
ATOM     69  F   UNL     1       1.538  15.197   5.092  1.00  0.00    -0.203 F 
ATOM     70  F   UNL     1      -3.348  14.148   7.283  1.00  0.00    -0.200 F 
ATOM     71  C   UNL     1      -1.970  15.509   5.933  1.00  0.00     0.200 A 
ATOM     72  F   UNL     1      -0.557  16.829   4.579  1.00  0.00    -0.200 F 
ATOM     73  F   UNL     1      -3.012  16.301   5.643  1.00  0.00    -0.200 F 
ENDBRANCH  49  63
BRANCH  50  74
ATOM     74  C   UNL     1       7.905   7.639   8.091  1.00  0.00     0.064 A 
ATOM     75  C   UNL     1       8.229   7.190   9.379  1.00  0.00     0.173 A 
ATOM     76  C   UNL     1       8.716   7.213   7.029  1.00  0.00     0.173 A 
ATOM     77  F   UNL     1       7.494   7.583  10.429  1.00  0.00    -0.203 F 
ATOM     78  C   UNL     1       9.335   6.372   9.601  1.00  0.00     0.198 A 
ATOM     79  C   UNL     1       9.804   6.370   7.248  1.00  0.00     0.198 A 
ATOM     80  F   UNL     1       8.444   7.604   5.776  1.00  0.00    -0.203 F 
ATOM     81  F   UNL     1       9.651   6.001  10.849  1.00  0.00    -0.200 F 
ATOM     82  C   UNL     1      10.119   5.959   8.535  1.00  0.00     0.200 A 
ATOM     83  F   UNL     1      10.548   5.958   6.213  1.00  0.00    -0.200 F 
ATOM     84  F   UNL     1      11.181   5.171   8.747  1.00  0.00    -0.200 F 
ENDBRANCH  50  74
BRANCH  62  85
ATOM     85  C   UNL     1       6.483  14.170  10.060  1.00  0.00     0.064 A 
ATOM     86  C   UNL     1       7.669  14.791   9.644  1.00  0.00     0.173 A 
ATOM     87  C   UNL     1       5.972  14.508  11.323  1.00  0.00     0.173 A 
ATOM     88  F   UNL     1       8.205  14.493   8.451  1.00  0.00    -0.203 F 
ATOM     89  C   UNL     1       8.337  15.687  10.476  1.00  0.00     0.198 A 
ATOM     90  C   UNL     1       6.624  15.429  12.138  1.00  0.00     0.198 A 
ATOM     91  F   UNL     1       4.835  13.950  11.765  1.00  0.00    -0.203 F 
ATOM     92  F   UNL     1       9.500  16.223  10.082  1.00  0.00    -0.200 F 
ATOM     93  C   UNL     1       7.811  16.009  11.718  1.00  0.00     0.200 A 
ATOM     94  F   UNL     1       6.105  15.752  13.330  1.00  0.00    -0.200 F 
ATOM     95  F   UNL     1       8.454  16.874  12.515  1.00  0.00    -0.200 F 
ENDBRANCH  62  85
ENDBRANCH  36  37
ENDBRANCH  28  31
ENDBRANCH  26  27
ENDBRANCH  25  26
ENDBRANCH  24  25
ENDBRANCH   3  24
TORSDOF 16
