REMARK SMILES CC(C)(C)OC(=O)N[C@@H](Cc1c[nH]c2cccc(Cl)c12)C(=O)NCCCNC(=O)c1ccc(-c2c3nc(c(-c4c(F)c(F)c(F)c(F)c4F)c4ccc([nH]4)c(-c4c(F)c(F)c(F)c(F)c4F)c4nc(c(-c5c(F)c(F)c(F)c(F)c5F)c5ccc2[nH]5)C=C4)C=C3)cc1
REMARK SMILES IDX 24 1 23 2 21 3 22 4 9 6 8 7 6 8 7 9 5 11 2 12 1 13 3 14 4 15
REMARK SMILES IDX 10 16 11 17 12 18 20 19 13 20 14 21 18 22 15 24 17 25 19 26
REMARK SMILES IDX 16 27 25 28 26 29 27 30 28 31 29 33 30 34 31 35 92 36 32 37
REMARK SMILES IDX 91 38 33 39 34 40 35 41 85 42 36 43 90 44 84 45 86 46 37 47
REMARK SMILES IDX 89 48 83 49 82 50 38 52 70 53 50 54 69 55 51 56 54 57 68 58
REMARK SMILES IDX 87 59 52 60 53 61 67 63 88 64 55 65 39 66 40 67 48 68 41 69
REMARK SMILES IDX 42 70 46 71 49 72 43 73 44 74 47 75 45 76 71 77 72 78 80 79
REMARK SMILES IDX 73 80 74 81 78 82 81 83 75 84 76 85 79 86 77 87 56 88 57 89
REMARK SMILES IDX 65 90 58 91 59 92 63 93 66 94 60 95 61 96 64 97 62 98
REMARK H PARENT 23 5 8 10 13 23 27 32 86 51 54 62
REMARK Flexibility Score: inf
ROOT
ATOM      1  C   UNL     1       0.644   6.474  -3.934  1.00  0.00     0.117 C 
ENDROOT
BRANCH   1   2
ATOM      2  N   UNL     1       0.403   6.229  -2.532  1.00  0.00    -0.354 N 
ATOM      3  C   UNL     1       1.165   5.469  -1.678  1.00  0.00     0.243 C 
ATOM      4  O   UNL     1       1.134   5.773  -0.481  1.00  0.00    -0.273 OA
ATOM      5  H   UNL     1      -0.396   6.654  -2.144  1.00  0.00     0.163 HD
BRANCH   3   6
ATOM      6  C   UNL     1       2.077   4.317  -2.179  1.00  0.00     0.179 C 
BRANCH   6   7
ATOM      7  N   UNL     1       1.370   3.502  -3.171  1.00  0.00    -0.309 N 
ATOM      8  C   UNL     1       0.667   2.353  -2.957  1.00  0.00     0.408 C 
ATOM      9  O   UNL     1      -0.049   1.906  -3.831  1.00  0.00    -0.225 OA
ATOM     10  H   UNL     1       1.408   3.821  -4.101  1.00  0.00     0.167 HD
BRANCH   8  11
ATOM     11  O   UNL     1       0.907   1.791  -1.747  1.00  0.00    -0.444 OA
BRANCH  11  12
ATOM     12  C   UNL     1       0.390   0.465  -1.452  1.00  0.00     0.106 C 
ATOM     13  C   UNL     1       0.953   0.110  -0.066  1.00  0.00     0.056 C 
ATOM     14  C   UNL     1       0.912  -0.571  -2.458  1.00  0.00     0.056 C 
ATOM     15  C   UNL     1      -1.140   0.462  -1.371  1.00  0.00     0.056 C 
ENDBRANCH  11  12
ENDBRANCH   8  11
ENDBRANCH   6   7
BRANCH   6  16
ATOM     16  C   UNL     1       3.519   4.702  -2.594  1.00  0.00     0.073 C 
BRANCH  16  17
ATOM     17  C   UNL     1       3.692   5.641  -3.763  1.00  0.00    -0.019 A 
ATOM     18  C   UNL     1       3.700   5.244  -5.092  1.00  0.00     0.087 A 
ATOM     19  C   UNL     1       3.821   7.086  -3.764  1.00  0.00     0.021 A 
ATOM     20  N   UNL     1       3.723   6.357  -5.884  1.00  0.00    -0.361 N 
ATOM     21  C   UNL     1       3.741   7.491  -5.108  1.00  0.00     0.047 A 
ATOM     22  C   UNL     1       3.903   8.126  -2.806  1.00  0.00     0.050 A 
ATOM     23  H   UNL     1       3.726   6.348  -6.869  1.00  0.00     0.166 HD
ATOM     24  C   UNL     1       3.669   8.837  -5.502  1.00  0.00     0.027 A 
ATOM     25  C   UNL     1       3.848   9.473  -3.175  1.00  0.00     0.021 A 
ATOM     26  Cl  UNL     1       4.052   7.704  -1.159  1.00  0.00    -0.084 Cl
ATOM     27  C   UNL     1       3.710   9.821  -4.513  1.00  0.00     0.004 A 
ENDBRANCH  16  17
ENDBRANCH   6  16
ENDBRANCH   3   6
ENDBRANCH   1   2
BRANCH   1  28
ATOM     28  C   UNL     1      -0.559   6.455  -4.861  1.00  0.00     0.042 C 
BRANCH  28  29
ATOM     29  C   UNL     1      -1.087   7.856  -5.091  1.00  0.00     0.118 C 
BRANCH  29  30
ATOM     30  N   UNL     1      -0.114   8.731  -5.759  1.00  0.00    -0.352 N 
ATOM     31  C   UNL     1      -0.252  10.067  -6.076  1.00  0.00     0.251 C 
ATOM     32  H   UNL     1       0.741   8.313  -6.012  1.00  0.00     0.163 HD
ATOM     33  O   UNL     1       0.516  10.631  -6.843  1.00  0.00    -0.269 OA
BRANCH  31  34
ATOM     34  C   UNL     1      -1.367  10.793  -5.455  1.00  0.00     0.039 A 
ATOM     35  C   UNL     1      -2.272  11.518  -6.231  1.00  0.00     0.014 A 
ATOM     36  C   UNL     1      -1.554  10.623  -4.084  1.00  0.00     0.014 A 
ATOM     37  C   UNL     1      -3.435  11.983  -5.627  1.00  0.00     0.010 A 
ATOM     38  C   UNL     1      -2.763  10.953  -3.527  1.00  0.00     0.010 A 
ATOM     39  C   UNL     1      -3.689  11.664  -4.283  1.00  0.00    -0.014 A 
BRANCH  39  40
ATOM     40  C   UNL     1      -4.977  11.986  -3.683  1.00  0.00     0.031 A 
ATOM     41  C   UNL     1      -6.162  11.407  -4.372  1.00  0.00     0.074 A 
ATOM     42  C   UNL     1      -5.087  12.592  -2.484  1.00  0.00     0.049 A 
ATOM     43  N   UNL     1      -7.091  12.038  -5.012  1.00  0.00    -0.248 NA
ATOM     44  C   UNL     1      -6.278   9.943  -4.452  1.00  0.00     0.031 C 
ATOM     45  C   UNL     1      -4.020  12.923  -1.531  1.00  0.00     0.029 A 
ATOM     46  N   UNL     1      -6.214  12.966  -1.818  1.00  0.00    -0.354 N 
ATOM     47  C   UNL     1      -8.006  11.071  -5.427  1.00  0.00     0.074 A 
ATOM     48  C   UNL     1      -7.379   9.797  -5.194  1.00  0.00     0.031 C 
ATOM     49  C   UNL     1      -4.562  13.248  -0.337  1.00  0.00     0.029 A 
ATOM     50  C   UNL     1      -6.001  13.328  -0.495  1.00  0.00     0.049 A 
ATOM     51  H   UNL     1      -7.104  12.978  -2.239  1.00  0.00     0.167 HD
ATOM     52  C   UNL     1      -9.296  11.406  -5.711  1.00  0.00     0.037 A 
ATOM     53  C   UNL     1      -6.952  13.665   0.405  1.00  0.00     0.037 A 
ATOM     54  C   UNL     1      -9.434  12.834  -5.839  1.00  0.00     0.049 A 
ATOM     55  C   UNL     1      -8.139  14.095  -0.367  1.00  0.00     0.074 A 
ATOM     56  C   UNL     1      -9.035  13.794  -6.743  1.00  0.00     0.029 A 
ATOM     57  N   UNL     1      -9.770  13.487  -4.683  1.00  0.00    -0.354 N 
ATOM     58  N   UNL     1      -8.177  15.169  -1.105  1.00  0.00    -0.248 NA
ATOM     59  C   UNL     1      -9.214  13.140  -0.596  1.00  0.00     0.031 C 
ATOM     60  C   UNL     1      -8.831  14.981  -5.976  1.00  0.00     0.029 A 
ATOM     61  C   UNL     1      -9.153  14.709  -4.645  1.00  0.00     0.049 A 
ATOM     62  H   UNL     1     -10.364  13.132  -3.984  1.00  0.00     0.167 HD
ATOM     63  C   UNL     1      -9.006  14.834  -2.160  1.00  0.00     0.074 A 
ATOM     64  C   UNL     1      -9.745  13.665  -1.703  1.00  0.00     0.031 C 
ATOM     65  C   UNL     1      -8.791  15.356  -3.402  1.00  0.00     0.037 A 
BRANCH  52  66
ATOM     66  C   UNL     1     -10.508  10.530  -5.458  1.00  0.00     0.064 A 
ATOM     67  C   UNL     1     -11.780  10.977  -5.880  1.00  0.00     0.173 A 
ATOM     68  C   UNL     1     -10.521   9.441  -4.561  1.00  0.00     0.173 A 
ATOM     69  F   UNL     1     -11.897  12.023  -6.712  1.00  0.00    -0.203 F 
ATOM     70  C   UNL     1     -12.966  10.421  -5.386  1.00  0.00     0.198 A 
ATOM     71  C   UNL     1     -11.706   8.854  -4.112  1.00  0.00     0.198 A 
ATOM     72  F   UNL     1      -9.405   8.975  -3.990  1.00  0.00    -0.203 F 
ATOM     73  F   UNL     1     -14.146  10.961  -5.722  1.00  0.00    -0.200 F 
ATOM     74  C   UNL     1     -12.927   9.362  -4.500  1.00  0.00     0.200 A 
ATOM     75  F   UNL     1     -11.647   7.843  -3.234  1.00  0.00    -0.200 F 
ATOM     76  F   UNL     1     -14.058   8.863  -3.982  1.00  0.00    -0.200 F 
ENDBRANCH  52  66
BRANCH  53  77
ATOM     77  C   UNL     1      -7.013  13.394   1.859  1.00  0.00     0.064 A 
ATOM     78  C   UNL     1      -7.983  14.027   2.654  1.00  0.00     0.173 A 
ATOM     79  C   UNL     1      -6.360  12.284   2.426  1.00  0.00     0.173 A 
ATOM     80  F   UNL     1      -8.661  15.082   2.180  1.00  0.00    -0.203 F 
ATOM     81  C   UNL     1      -8.338  13.529   3.910  1.00  0.00     0.198 A 
ATOM     82  C   UNL     1      -6.710  11.793   3.685  1.00  0.00     0.198 A 
ATOM     83  F   UNL     1      -5.449  11.590   1.729  1.00  0.00    -0.203 F 
ATOM     84  F   UNL     1      -9.337  14.102   4.595  1.00  0.00    -0.200 F 
ATOM     85  C   UNL     1      -7.717  12.400   4.415  1.00  0.00     0.200 A 
ATOM     86  F   UNL     1      -6.122  10.683   4.152  1.00  0.00    -0.200 F 
ATOM     87  F   UNL     1      -8.118  11.870   5.578  1.00  0.00    -0.200 F 
ENDBRANCH  53  77
BRANCH  65  88
ATOM     88  C   UNL     1      -7.946  16.595  -3.489  1.00  0.00     0.064 A 
ATOM     89  C   UNL     1      -6.577  16.651  -3.175  1.00  0.00     0.173 A 
ATOM     90  C   UNL     1      -8.535  17.754  -4.010  1.00  0.00     0.173 A 
ATOM     91  F   UNL     1      -5.921  15.565  -2.752  1.00  0.00    -0.203 F 
ATOM     92  C   UNL     1      -5.846  17.826  -3.340  1.00  0.00     0.198 A 
ATOM     93  C   UNL     1      -7.795  18.915  -4.210  1.00  0.00     0.198 A 
ATOM     94  F   UNL     1      -9.829  17.746  -4.369  1.00  0.00    -0.203 F 
ATOM     95  F   UNL     1      -4.545  17.860  -3.016  1.00  0.00    -0.200 F 
ATOM     96  C   UNL     1      -6.454  18.954  -3.865  1.00  0.00     0.200 A 
ATOM     97  F   UNL     1      -8.377  19.989  -4.760  1.00  0.00    -0.200 F 
ATOM     98  F   UNL     1      -5.742  20.073  -4.061  1.00  0.00    -0.200 F 
ENDBRANCH  65  88
ENDBRANCH  39  40
ENDBRANCH  31  34
ENDBRANCH  29  30
ENDBRANCH  28  29
ENDBRANCH   1  28
TORSDOF 15
