REMARK SMILES O=C(NCCCNC(=O)c1ccc(N2C(=O)/C(=C\C3=Cc4ccccc4OC3)SC2=S)cc1)c1ccc(-c2c3nc(c(-c4c(F)c(F)c(F)c(F)c4F)c4ccc([nH]4)c(-c4c(F)c(F)c(F)c(F)c4F)c4nc(c(-c5c(F)c(F)c(F)c(F)c5F)c5ccc2[nH]5)C=C4)C=C3)cc1
REMARK SMILES IDX 5 1 4 2 3 3 1 4 2 5 34 7 35 8 96 9 36 10 95 11 37 12 38 13
REMARK SMILES IDX 39 14 89 15 40 16 94 17 88 18 90 19 41 20 93 21 87 22 86 23
REMARK SMILES IDX 42 25 74 26 54 27 73 28 55 29 58 30 72 31 91 32 56 33 57 34
REMARK SMILES IDX 71 36 92 37 59 38 43 39 44 40 52 41 45 42 46 43 50 44 53 45
REMARK SMILES IDX 47 46 48 47 51 48 49 49 75 50 76 51 84 52 77 53 78 54 82 55
REMARK SMILES IDX 85 56 79 57 80 58 83 59 81 60 60 61 61 62 69 63 62 64 63 65
REMARK SMILES IDX 67 66 70 67 64 68 65 69 68 70 66 71 6 72 7 73 8 74 9 76
REMARK SMILES IDX 10 77 11 78 33 79 12 80 32 81 13 82 14 83 15 84 30 85 16 86
REMARK SMILES IDX 17 87 29 88 31 89 18 90 19 91 20 92 28 93 21 94 27 95 22 96
REMARK SMILES IDX 26 97 23 98 25 99 24 100
REMARK H PARENT 3 6 90 24 58 35 7 75
REMARK Flexibility Score: inf
ROOT
ATOM      1  C   UNL     1       4.936   1.446  -2.386  1.00  0.00     0.042 C 
ENDROOT
BRANCH   1   2
ATOM      2  C   UNL     1       4.609   1.308  -0.905  1.00  0.00     0.118 C 
BRANCH   2   3
ATOM      3  N   UNL     1       3.192   1.090  -0.643  1.00  0.00    -0.352 N 
ATOM      4  O   UNL     1       1.316   0.008  -0.038  1.00  0.00    -0.269 OA
ATOM      5  C   UNL     1       2.544   0.044  -0.030  1.00  0.00     0.251 C 
ATOM      6  H   UNL     1       2.601   1.812  -0.957  1.00  0.00     0.163 HD
BRANCH   5   7
ATOM      7  C   UNL     1       3.301  -1.053   0.616  1.00  0.00     0.039 A 
ATOM      8  C   UNL     1       4.448  -0.799   1.368  1.00  0.00     0.014 A 
ATOM      9  C   UNL     1       2.826  -2.366   0.503  1.00  0.00     0.014 A 
ATOM     10  C   UNL     1       5.204  -1.858   1.861  1.00  0.00     0.010 A 
ATOM     11  C   UNL     1       3.536  -3.424   1.084  1.00  0.00     0.010 A 
ATOM     12  C   UNL     1       4.751  -3.182   1.740  1.00  0.00    -0.014 A 
BRANCH  12  13
ATOM     13  C   UNL     1       5.545  -4.270   2.368  1.00  0.00     0.031 A 
ATOM     14  C   UNL     1       6.215  -5.332   1.541  1.00  0.00     0.074 A 
ATOM     15  C   UNL     1       5.711  -4.253   3.705  1.00  0.00     0.049 A 
ATOM     16  N   UNL     1       7.013  -6.297   1.930  1.00  0.00    -0.248 NA
ATOM     17  C   UNL     1       5.955  -5.321   0.094  1.00  0.00     0.031 C 
ATOM     18  C   UNL     1       5.086  -3.290   4.616  1.00  0.00     0.029 A 
ATOM     19  N   UNL     1       6.476  -5.039   4.528  1.00  0.00    -0.354 N 
ATOM     20  C   UNL     1       7.342  -7.008   0.783  1.00  0.00     0.074 A 
ATOM     21  C   UNL     1       6.635  -6.384  -0.315  1.00  0.00     0.031 C 
ATOM     22  C   UNL     1       5.540  -3.502   5.859  1.00  0.00     0.029 A 
ATOM     23  C   UNL     1       6.445  -4.646   5.844  1.00  0.00     0.049 A 
ATOM     24  H   UNL     1       6.997  -5.810   4.207  1.00  0.00     0.167 HD
ATOM     25  C   UNL     1       8.168  -8.075   0.660  1.00  0.00     0.037 A 
ATOM     26  C   UNL     1       7.073  -5.150   6.922  1.00  0.00     0.037 A 
ATOM     27  C   UNL     1       8.882  -8.686   1.752  1.00  0.00     0.049 A 
ATOM     28  C   UNL     1       7.991  -6.325   6.749  1.00  0.00     0.074 A 
ATOM     29  C   UNL     1       9.754  -9.762   1.720  1.00  0.00     0.029 A 
ATOM     30  N   UNL     1       8.808  -8.273   3.074  1.00  0.00    -0.354 N 
ATOM     31  N   UNL     1       8.313  -6.967   5.653  1.00  0.00    -0.248 NA
ATOM     32  C   UNL     1       8.634  -6.844   7.963  1.00  0.00     0.031 C 
ATOM     33  C   UNL     1      10.183 -10.019   3.027  1.00  0.00     0.029 A 
ATOM     34  C   UNL     1       9.609  -9.079   3.868  1.00  0.00     0.049 A 
ATOM     35  H   UNL     1       8.267  -7.518   3.400  1.00  0.00     0.167 HD
ATOM     36  C   UNL     1       9.193  -7.965   6.043  1.00  0.00     0.074 A 
ATOM     37  C   UNL     1       9.385  -7.819   7.471  1.00  0.00     0.031 C 
ATOM     38  C   UNL     1       9.779  -8.926   5.289  1.00  0.00     0.037 A 
BRANCH  25  39
ATOM     39  C   UNL     1       8.353  -8.661  -0.710  1.00  0.00     0.064 A 
ATOM     40  C   UNL     1       9.134  -8.017  -1.681  1.00  0.00     0.173 A 
ATOM     41  C   UNL     1       7.808  -9.914  -1.029  1.00  0.00     0.173 A 
ATOM     42  F   UNL     1       9.668  -6.813  -1.428  1.00  0.00    -0.203 F 
ATOM     43  C   UNL     1       9.353  -8.601  -2.926  1.00  0.00     0.198 A 
ATOM     44  C   UNL     1       8.047 -10.505  -2.267  1.00  0.00     0.198 A 
ATOM     45  F   UNL     1       7.059 -10.573  -0.133  1.00  0.00    -0.203 F 
ATOM     46  F   UNL     1      10.081  -7.957  -3.849  1.00  0.00    -0.200 F 
ATOM     47  C   UNL     1       8.817  -9.848  -3.215  1.00  0.00     0.200 A 
ATOM     48  F   UNL     1       7.538 -11.714  -2.541  1.00  0.00    -0.200 F 
ATOM     49  F   UNL     1       9.041 -10.415  -4.409  1.00  0.00    -0.200 F 
ENDBRANCH  25  39
BRANCH  26  50
ATOM     50  C   UNL     1       6.851  -4.541   8.257  1.00  0.00     0.064 A 
ATOM     51  C   UNL     1       7.870  -3.837   8.911  1.00  0.00     0.173 A 
ATOM     52  C   UNL     1       5.611  -4.647   8.904  1.00  0.00     0.173 A 
ATOM     53  F   UNL     1       9.079  -3.725   8.341  1.00  0.00    -0.203 F 
ATOM     54  C   UNL     1       7.664  -3.277  10.170  1.00  0.00     0.198 A 
ATOM     55  C   UNL     1       5.396  -4.062  10.149  1.00  0.00     0.198 A 
ATOM     56  F   UNL     1       4.601  -5.307   8.317  1.00  0.00    -0.203 F 
ATOM     57  F   UNL     1       8.668  -2.647  10.793  1.00  0.00    -0.200 F 
ATOM     58  C   UNL     1       6.425  -3.385  10.785  1.00  0.00     0.200 A 
ATOM     59  F   UNL     1       4.193  -4.154  10.732  1.00  0.00    -0.200 F 
ATOM     60  F   UNL     1       6.225  -2.841  11.993  1.00  0.00    -0.200 F 
ENDBRANCH  26  50
BRANCH  38  61
ATOM     61  C   UNL     1      10.681  -9.887   6.002  1.00  0.00     0.064 A 
ATOM     62  C   UNL     1      10.163 -10.882   6.845  1.00  0.00     0.173 A 
ATOM     63  C   UNL     1      12.072  -9.817   5.841  1.00  0.00     0.173 A 
ATOM     64  F   UNL     1       8.840 -10.976   7.045  1.00  0.00    -0.203 F 
ATOM     65  C   UNL     1      11.009 -11.753   7.526  1.00  0.00     0.198 A 
ATOM     66  C   UNL     1      12.913 -10.707   6.503  1.00  0.00     0.198 A 
ATOM     67  F   UNL     1      12.614  -8.886   5.042  1.00  0.00    -0.203 F 
ATOM     68  F   UNL     1      10.496 -12.662   8.367  1.00  0.00    -0.200 F 
ATOM     69  C   UNL     1      12.383 -11.667   7.351  1.00  0.00     0.200 A 
ATOM     70  F   UNL     1      14.240 -10.628   6.328  1.00  0.00    -0.200 F 
ATOM     71  F   UNL     1      13.196 -12.504   8.010  1.00  0.00    -0.200 F 
ENDBRANCH  38  61
ENDBRANCH  12  13
ENDBRANCH   5   7
ENDBRANCH   2   3
ENDBRANCH   1   2
BRANCH   1  72
ATOM     72  C   UNL     1       4.337   2.670  -3.065  1.00  0.00     0.118 C 
BRANCH  72  73
ATOM     73  N   UNL     1       4.811   3.920  -2.492  1.00  0.00    -0.352 N 
ATOM     74  C   UNL     1       5.619   4.903  -3.004  1.00  0.00     0.251 C 
ATOM     75  H   UNL     1       4.498   4.089  -1.574  1.00  0.00     0.163 HD
ATOM     76  O   UNL     1       6.033   5.782  -2.252  1.00  0.00    -0.269 OA
BRANCH  74  77
ATOM     77  C   UNL     1       6.024   4.917  -4.429  1.00  0.00     0.039 A 
ATOM     78  C   UNL     1       7.333   5.279  -4.742  1.00  0.00     0.016 A 
ATOM     79  C   UNL     1       5.134   4.643  -5.464  1.00  0.00     0.016 A 
ATOM     80  C   UNL     1       7.766   5.288  -6.075  1.00  0.00     0.027 A 
ATOM     81  C   UNL     1       5.582   4.621  -6.793  1.00  0.00     0.027 A 
ATOM     82  C   UNL     1       6.908   4.941  -7.132  1.00  0.00     0.051 A 
BRANCH  82  83
ATOM     83  N   UNL     1       7.383   4.815  -8.485  1.00  0.00    -0.261 N 
ATOM     84  C   UNL     1       8.692   4.398  -8.735  1.00  0.00     0.270 C 
ATOM     85  C   UNL     1       6.654   5.102  -9.634  1.00  0.00     0.152 C 
ATOM     86  O   UNL     1       9.684   4.553  -8.038  1.00  0.00    -0.268 OA
ATOM     87  C   UNL     1       8.773   3.838 -10.112  1.00  0.00     0.081 C 
ATOM     88  S   UNL     1       7.580   4.628 -11.072  1.00  0.00    -0.054 SA
ATOM     89  S   UNL     1       5.176   5.867  -9.830  1.00  0.00    -0.051 S 
ATOM     90  C   UNL     1       9.437   2.760 -10.561  1.00  0.00     0.028 C 
BRANCH  90  91
ATOM     91  C   UNL     1      10.144   1.712  -9.811  1.00  0.00    -0.009 C 
ATOM     92  C   UNL     1      10.583   1.846  -8.543  1.00  0.00     0.019 C 
ATOM     93  C   UNL     1       9.509   0.345 -10.055  1.00  0.00     0.265 C 
ATOM     94  C   UNL     1       9.511   1.472  -7.573  1.00  0.00     0.017 A 
ATOM     95  O   UNL     1       8.293   0.219  -9.286  1.00  0.00    -0.488 OA
ATOM     96  C   UNL     1       9.556   1.947  -6.261  1.00  0.00     0.012 A 
ATOM     97  C   UNL     1       8.398   0.726  -8.007  1.00  0.00     0.127 A 
ATOM     98  C   UNL     1       8.473   1.732  -5.407  1.00  0.00     0.001 A 
ATOM     99  C   UNL     1       7.312   0.529  -7.159  1.00  0.00     0.047 A 
ATOM    100  C   UNL     1       7.347   1.041  -5.860  1.00  0.00     0.004 A 
ENDBRANCH  90  91
ENDBRANCH  82  83
ENDBRANCH  74  77
ENDBRANCH  72  73
ENDBRANCH   1  72
TORSDOF 12
