REMARK SMILES CC/C=C/C/C=C/C/C=C/C/C=C/CC/C=C/COCC(=O)NCCCNC(=O)c1ccc(-c2c3nc(c(-c4c(F)c(F)c(F)c(F)c4F)c4ccc([nH]4)c(-c4c(F)c(F)c(F)c(F)c4F)c4nc(c(-c5c(F)c(F)c(F)c(F)c5F)c5ccc2[nH]5)C=C4)C=C3)cc1
REMARK SMILES IDX 16 1 17 2 15 3 14 4 13 5 12 6 11 7 10 8 9 9 8 10 7 11 6 12
REMARK SMILES IDX 5 13 4 14 3 15 2 16 1 17 18 18 19 19 20 20 21 21 22 22 23 23
REMARK SMILES IDX 24 25 25 26 26 27 27 28 28 29 29 31 30 32 31 33 92 34 32 35
REMARK SMILES IDX 91 36 33 37 34 38 35 39 85 40 36 41 90 42 84 43 86 44 37 45
REMARK SMILES IDX 89 46 83 47 82 48 38 50 70 51 50 52 69 53 51 54 54 55 68 56
REMARK SMILES IDX 87 57 52 58 53 59 67 61 88 62 55 63 39 64 40 65 48 66 41 67
REMARK SMILES IDX 42 68 46 69 49 70 43 71 44 72 47 73 45 74 71 75 72 76 80 77
REMARK SMILES IDX 73 78 74 79 78 80 81 81 75 82 76 83 79 84 77 85 56 86 57 87
REMARK SMILES IDX 65 88 58 89 59 90 63 91 66 92 60 93 61 94 64 95 62 96
REMARK H PARENT 23 24 27 30 86 49 54 60
REMARK Flexibility Score: inf
ROOT
ATOM      1  C   UNL     1      -6.650  -5.905  11.713  1.00  0.00    -0.029 C 
ATOM      2  C   UNL     1      -7.466  -6.482  12.609  1.00  0.00    -0.003 C 
ENDROOT
BRANCH   1   3
ATOM      3  C   UNL     1      -6.158  -6.567  10.455  1.00  0.00     0.031 C 
BRANCH   3   4
ATOM      4  C   UNL     1      -6.734  -5.917   9.185  1.00  0.00     0.031 C 
BRANCH   4   5
ATOM      5  C   UNL     1      -6.287  -4.492   8.996  1.00  0.00    -0.031 C 
ATOM      6  C   UNL     1      -5.477  -4.077   8.010  1.00  0.00    -0.027 C 
BRANCH   6   7
ATOM      7  C   UNL     1      -5.000  -2.661   7.862  1.00  0.00     0.054 C 
BRANCH   7   8
ATOM      8  C   UNL     1      -3.498  -2.610   7.885  1.00  0.00    -0.027 C 
ATOM      9  C   UNL     1      -2.747  -2.121   6.886  1.00  0.00    -0.027 C 
BRANCH   9  10
ATOM     10  C   UNL     1      -1.245  -2.115   6.885  1.00  0.00     0.054 C 
BRANCH  10  11
ATOM     11  C   UNL     1      -0.718  -2.895   5.715  1.00  0.00    -0.027 C 
ATOM     12  C   UNL     1       0.054  -2.373   4.747  1.00  0.00    -0.027 C 
BRANCH  12  13
ATOM     13  C   UNL     1       0.556  -3.145   3.561  1.00  0.00     0.054 C 
BRANCH  13  14
ATOM     14  C   UNL     1       0.082  -2.520   2.280  1.00  0.00    -0.027 C 
ATOM     15  C   UNL     1       0.898  -2.030   1.333  1.00  0.00    -0.031 C 
BRANCH  15  16
ATOM     16  C   UNL     1       0.417  -1.397   0.059  1.00  0.00     0.023 C 
ATOM     17  C   UNL     1       0.894   0.043  -0.054  1.00  0.00     0.008 C 
ENDBRANCH  15  16
ENDBRANCH  13  14
ENDBRANCH  12  13
ENDBRANCH  10  11
ENDBRANCH   9  10
ENDBRANCH   7   8
ENDBRANCH   6   7
ENDBRANCH   4   5
ENDBRANCH   3   4
ENDBRANCH   1   3
BRANCH   2  18
ATOM     18  C   UNL     1      -8.057  -5.738  13.766  1.00  0.00     0.188 C 
BRANCH  18  19
ATOM     19  O   UNL     1      -9.483  -5.712  13.674  1.00  0.00    -0.368 OA
BRANCH  19  20
ATOM     20  C   UNL     1      -9.975  -5.015  12.536  1.00  0.00     0.260 C 
BRANCH  20  21
ATOM     21  C   UNL     1      -9.617  -3.528  12.431  1.00  0.00     0.246 C 
ATOM     22  O   UNL     1      -8.893  -3.087  11.538  1.00  0.00    -0.272 OA
ATOM     23  N   UNL     1     -10.127  -2.658  13.353  1.00  0.00    -0.354 N 
ATOM     24  H   UNL     1      -9.907  -1.708  13.216  1.00  0.00     0.163 HD
BRANCH  23  25
ATOM     25  C   UNL     1     -10.951  -2.958  14.508  1.00  0.00     0.117 C 
BRANCH  25  26
ATOM     26  C   UNL     1     -10.173  -2.846  15.815  1.00  0.00     0.042 C 
BRANCH  26  27
ATOM     27  C   UNL     1      -9.620  -1.452  16.105  1.00  0.00     0.118 C 
BRANCH  27  28
ATOM     28  N   UNL     1     -10.659  -0.439  16.224  1.00  0.00    -0.352 N 
ATOM     29  C   UNL     1     -10.946   0.430  17.245  1.00  0.00     0.251 C 
ATOM     30  H   UNL     1     -11.254  -0.366  15.443  1.00  0.00     0.163 HD
ATOM     31  O   UNL     1     -11.976   1.103  17.192  1.00  0.00    -0.269 OA
BRANCH  29  32
ATOM     32  C   UNL     1     -10.054   0.558  18.417  1.00  0.00     0.039 A 
ATOM     33  C   UNL     1     -10.630   0.679  19.686  1.00  0.00     0.014 A 
ATOM     34  C   UNL     1      -8.665   0.602  18.279  1.00  0.00     0.014 A 
ATOM     35  C   UNL     1      -9.817   0.774  20.817  1.00  0.00     0.010 A 
ATOM     36  C   UNL     1      -7.853   0.627  19.412  1.00  0.00     0.010 A 
ATOM     37  C   UNL     1      -8.420   0.711  20.693  1.00  0.00    -0.014 A 
BRANCH  37  38
ATOM     38  C   UNL     1      -7.540   0.717  21.891  1.00  0.00     0.031 A 
ATOM     39  C   UNL     1      -6.577   1.848  22.123  1.00  0.00     0.074 A 
ATOM     40  C   UNL     1      -7.556  -0.336  22.731  1.00  0.00     0.049 A 
ATOM     41  N   UNL     1      -5.672   1.986  23.060  1.00  0.00    -0.248 NA
ATOM     42  C   UNL     1      -6.615   2.958  21.159  1.00  0.00     0.031 C 
ATOM     43  C   UNL     1      -8.407  -1.518  22.588  1.00  0.00     0.029 A 
ATOM     44  N   UNL     1      -6.821  -0.592  23.862  1.00  0.00    -0.354 N 
ATOM     45  C   UNL     1      -5.021   3.182  22.786  1.00  0.00     0.074 A 
ATOM     46  C   UNL     1      -5.607   3.713  21.574  1.00  0.00     0.031 C 
ATOM     47  C   UNL     1      -8.153  -2.368  23.596  1.00  0.00     0.029 A 
ATOM     48  C   UNL     1      -7.098  -1.809  24.435  1.00  0.00     0.049 A 
ATOM     49  H   UNL     1      -6.158   0.037  24.228  1.00  0.00     0.167 HD
ATOM     50  C   UNL     1      -4.037   3.788  23.491  1.00  0.00     0.037 A 
ATOM     51  C   UNL     1      -6.553  -2.414  25.508  1.00  0.00     0.037 A 
ATOM     52  C   UNL     1      -3.483   3.277  24.718  1.00  0.00     0.049 A 
ATOM     53  C   UNL     1      -5.472  -1.709  26.282  1.00  0.00     0.074 A 
ATOM     54  C   UNL     1      -2.544   3.864  25.550  1.00  0.00     0.029 A 
ATOM     55  N   UNL     1      -3.814   2.057  25.287  1.00  0.00    -0.354 N 
ATOM     56  N   UNL     1      -4.923  -0.541  26.058  1.00  0.00    -0.248 NA
ATOM     57  C   UNL     1      -4.941  -2.405  27.463  1.00  0.00     0.031 C 
ATOM     58  C   UNL     1      -2.273   2.978  26.597  1.00  0.00     0.029 A 
ATOM     59  C   UNL     1      -3.080   1.861  26.446  1.00  0.00     0.049 A 
ATOM     60  H   UNL     1      -4.474   1.424  24.922  1.00  0.00     0.167 HD
ATOM     61  C   UNL     1      -4.005  -0.349  27.081  1.00  0.00     0.074 A 
ATOM     62  C   UNL     1      -4.080  -1.514  27.936  1.00  0.00     0.031 C 
ATOM     63  C   UNL     1      -3.172   0.700  27.292  1.00  0.00     0.037 A 
BRANCH  50  64
ATOM     64  C   UNL     1      -3.489   5.080  22.958  1.00  0.00     0.064 A 
ATOM     65  C   UNL     1      -4.235   6.267  22.989  1.00  0.00     0.173 A 
ATOM     66  C   UNL     1      -2.177   5.143  22.461  1.00  0.00     0.173 A 
ATOM     67  F   UNL     1      -5.497   6.259  23.446  1.00  0.00    -0.203 F 
ATOM     68  C   UNL     1      -3.698   7.464  22.522  1.00  0.00     0.198 A 
ATOM     69  C   UNL     1      -1.634   6.347  22.022  1.00  0.00     0.198 A 
ATOM     70  F   UNL     1      -1.418   4.038  22.416  1.00  0.00    -0.203 F 
ATOM     71  F   UNL     1      -4.445   8.577  22.525  1.00  0.00    -0.200 F 
ATOM     72  C   UNL     1      -2.396   7.505  22.047  1.00  0.00     0.200 A 
ATOM     73  F   UNL     1      -0.371   6.387  21.575  1.00  0.00    -0.200 F 
ATOM     74  F   UNL     1      -1.877   8.660  21.609  1.00  0.00    -0.200 F 
ENDBRANCH  50  64
BRANCH  51  75
ATOM     75  C   UNL     1      -7.028  -3.760  25.922  1.00  0.00     0.064 A 
ATOM     76  C   UNL     1      -7.758  -3.934  27.106  1.00  0.00     0.173 A 
ATOM     77  C   UNL     1      -6.751  -4.899  25.152  1.00  0.00     0.173 A 
ATOM     78  F   UNL     1      -8.028  -2.878  27.887  1.00  0.00    -0.203 F 
ATOM     79  C   UNL     1      -8.173  -5.199  27.517  1.00  0.00     0.198 A 
ATOM     80  C   UNL     1      -7.192  -6.160  25.549  1.00  0.00     0.198 A 
ATOM     81  F   UNL     1      -6.060  -4.786  24.009  1.00  0.00    -0.203 F 
ATOM     82  F   UNL     1      -8.826  -5.343  28.678  1.00  0.00    -0.200 F 
ATOM     83  C   UNL     1      -7.894  -6.311  26.735  1.00  0.00     0.200 A 
ATOM     84  F   UNL     1      -6.932  -7.230  24.784  1.00  0.00    -0.200 F 
ATOM     85  F   UNL     1      -8.294  -7.527  27.130  1.00  0.00    -0.200 F 
ENDBRANCH  51  75
BRANCH  63  86
ATOM     86  C   UNL     1      -2.300   0.651  28.512  1.00  0.00     0.064 A 
ATOM     87  C   UNL     1      -1.200  -0.215  28.597  1.00  0.00     0.173 A 
ATOM     88  C   UNL     1      -2.545   1.511  29.594  1.00  0.00     0.173 A 
ATOM     89  F   UNL     1      -0.933  -1.067  27.596  1.00  0.00    -0.203 F 
ATOM     90  C   UNL     1      -0.392  -0.235  29.730  1.00  0.00     0.198 A 
ATOM     91  C   UNL     1      -1.717   1.508  30.713  1.00  0.00     0.198 A 
ATOM     92  F   UNL     1      -3.580   2.363  29.560  1.00  0.00    -0.203 F 
ATOM     93  F   UNL     1       0.627  -1.103  29.809  1.00  0.00    -0.200 F 
ATOM     94  C   UNL     1      -0.646   0.631  30.783  1.00  0.00     0.200 A 
ATOM     95  F   UNL     1      -1.957   2.355  31.724  1.00  0.00    -0.200 F 
ATOM     96  F   UNL     1       0.138   0.615  31.870  1.00  0.00    -0.200 F 
ENDBRANCH  63  86
ENDBRANCH  37  38
ENDBRANCH  29  32
ENDBRANCH  27  28
ENDBRANCH  26  27
ENDBRANCH  25  26
ENDBRANCH  23  25
ENDBRANCH  20  21
ENDBRANCH  19  20
ENDBRANCH  18  19
ENDBRANCH   2  18
TORSDOF 23
