REMARK SMILES O=C(CSc1nnnn1-c1ccc(C(=O)NCCCNC(=O)c2ccc(-c3c4nc(c(-c5c(F)c(F)c(F)c(F)c5F)c5ccc([nH]5)c(-c5c(F)c(F)c(F)c(F)c5F)c5nc(c(-c6c(F)c(F)c(F)c(F)c6F)c6ccc3[nH]6)C=C5)C=C4)cc2)cc1)Nc1nc(-c2ccccc2)cs1
REMARK SMILES IDX 14 1 15 2 16 3 13 5 10 6 11 7 87 8 12 9 86 10 9 11 5 12 6 13
REMARK SMILES IDX 7 14 8 15 4 16 3 17 2 18 1 19 88 20 89 22 90 23 99 24 91 25
REMARK SMILES IDX 98 26 92 27 93 28 97 29 94 30 96 31 95 32 17 33 18 34 19 35
REMARK SMILES IDX 20 36 21 37 22 39 23 40 24 41 85 42 25 43 84 44 26 45 27 46
REMARK SMILES IDX 28 47 78 48 29 49 83 50 77 51 79 52 30 53 82 54 76 55 75 56
REMARK SMILES IDX 31 58 63 59 43 60 62 61 44 62 47 63 61 64 80 65 45 66 46 67
REMARK SMILES IDX 60 69 81 70 48 71 32 72 33 73 41 74 34 75 35 76 39 77 42 78
REMARK SMILES IDX 36 79 37 80 40 81 38 82 64 83 65 84 73 85 66 86 67 87 71 88
REMARK SMILES IDX 74 89 68 90 69 91 72 92 70 93 49 94 50 95 58 96 51 97 52 98
REMARK SMILES IDX 56 99 59 100 53 101 54 102 57 103 55 104
REMARK H PARENT 16 4 88 21 20 38 79 57 47 68
REMARK Flexibility Score: inf
ROOT
ATOM      1  C   UNL     1       6.097   5.570  -1.407  1.00  0.00     0.251 C 
ATOM      2  O   UNL     1       5.641   6.687  -1.160  1.00  0.00    -0.269 OA
ATOM      3  N   UNL     1       7.390   5.313  -1.013  1.00  0.00    -0.352 N 
ATOM      4  H   UNL     1       7.846   6.094  -0.625  1.00  0.00     0.163 HD
ENDROOT
BRANCH   1   5
ATOM      5  C   UNL     1       5.215   4.557  -2.059  1.00  0.00     0.039 A 
ATOM      6  C   UNL     1       3.449   2.596  -3.015  1.00  0.00     0.069 A 
ATOM      7  C   UNL     1       2.934   3.787  -2.502  1.00  0.00     0.029 A 
ATOM      8  C   UNL     1       4.826   2.434  -3.166  1.00  0.00     0.029 A 
ATOM      9  C   UNL     1       3.823   4.752  -2.003  1.00  0.00     0.016 A 
ATOM     10  C   UNL     1       5.692   3.428  -2.723  1.00  0.00     0.016 A 
BRANCH   6  11
ATOM     11  N   UNL     1       2.595   1.533  -3.361  1.00  0.00    -0.187 N 
ATOM     12  C   UNL     1       2.743   0.179  -3.118  1.00  0.00     0.214 A 
ATOM     13  N   UNL     1       1.784  -0.471  -3.732  1.00  0.00    -0.101 NA
ATOM     14  N   UNL     1       0.995   0.496  -4.310  1.00  0.00    -0.022 NA
ATOM     15  N   UNL     1       1.435   1.716  -4.022  1.00  0.00    -0.039 NA
BRANCH  12  16
ATOM     16  S   UNL     1       3.883  -0.495  -1.994  1.00  0.00    -0.074 SA
BRANCH  16  17
ATOM     17  C   UNL     1       2.780  -1.059  -0.666  1.00  0.00     0.178 C 
BRANCH  17  18
ATOM     18  C   UNL     1       1.985   0.064  -0.016  1.00  0.00     0.236 C 
ATOM     19  O   UNL     1       0.767  -0.038   0.095  1.00  0.00    -0.274 OA
ATOM     20  N   UNL     1       2.752   1.117   0.438  1.00  0.00    -0.301 N 
ATOM     21  H   UNL     1       3.712   1.140   0.220  1.00  0.00     0.172 HD
BRANCH  20  22
ATOM     22  C   UNL     1       2.214   2.133   1.183  1.00  0.00     0.189 A 
ATOM     23  N   UNL     1       1.064   2.187   1.801  1.00  0.00    -0.220 NA
ATOM     24  S   UNL     1       3.218   3.506   1.333  1.00  0.00    -0.105 S 
ATOM     25  C   UNL     1       0.915   3.430   2.389  1.00  0.00     0.084 A 
ATOM     26  C   UNL     1       1.957   4.312   2.178  1.00  0.00     0.097 A 
BRANCH  25  27
ATOM     27  C   UNL     1      -0.231   3.749   3.217  1.00  0.00     0.001 A 
ATOM     28  C   UNL     1      -0.356   3.147   4.475  1.00  0.00     0.010 A 
ATOM     29  C   UNL     1      -1.205   4.657   2.786  1.00  0.00     0.010 A 
ATOM     30  C   UNL     1      -1.435   3.463   5.303  1.00  0.00     0.001 A 
ATOM     31  C   UNL     1      -2.290   4.963   3.613  1.00  0.00     0.001 A 
ATOM     32  C   UNL     1      -2.401   4.371   4.872  1.00  0.00     0.000 A 
ENDBRANCH  25  27
ENDBRANCH  20  22
ENDBRANCH  17  18
ENDBRANCH  16  17
ENDBRANCH  12  16
ENDBRANCH   6  11
ENDBRANCH   1   5
BRANCH   3  33
ATOM     33  C   UNL     1       8.218   4.115  -1.053  1.00  0.00     0.118 C 
BRANCH  33  34
ATOM     34  C   UNL     1       9.061   4.037  -2.335  1.00  0.00     0.042 C 
BRANCH  34  35
ATOM     35  C   UNL     1      10.335   4.855  -2.245  1.00  0.00     0.118 C 
BRANCH  35  36
ATOM     36  N   UNL     1      11.310   4.258  -1.335  1.00  0.00    -0.352 N 
ATOM     37  C   UNL     1      12.530   4.766  -0.929  1.00  0.00     0.251 C 
ATOM     38  H   UNL     1      11.067   3.381  -0.962  1.00  0.00     0.163 HD
ATOM     39  O   UNL     1      13.390   4.031  -0.474  1.00  0.00    -0.269 OA
BRANCH  37  40
ATOM     40  C   UNL     1      12.776   6.212  -1.069  1.00  0.00     0.039 A 
ATOM     41  C   UNL     1      14.021   6.688  -1.486  1.00  0.00     0.014 A 
ATOM     42  C   UNL     1      11.729   7.091  -0.807  1.00  0.00     0.014 A 
ATOM     43  C   UNL     1      14.169   8.051  -1.720  1.00  0.00     0.010 A 
ATOM     44  C   UNL     1      11.825   8.404  -1.194  1.00  0.00     0.010 A 
ATOM     45  C   UNL     1      13.055   8.900  -1.601  1.00  0.00    -0.014 A 
BRANCH  45  46
ATOM     46  C   UNL     1      13.143  10.296  -2.011  1.00  0.00     0.031 A 
ATOM     47  C   UNL     1      13.655  10.492  -3.391  1.00  0.00     0.074 A 
ATOM     48  C   UNL     1      12.649  11.326  -1.292  1.00  0.00     0.049 A 
ATOM     49  N   UNL     1      14.810  10.957  -3.731  1.00  0.00    -0.248 NA
ATOM     50  C   UNL     1      12.863   9.981  -4.520  1.00  0.00     0.031 C 
ATOM     51  C   UNL     1      11.839  11.288  -0.069  1.00  0.00     0.029 A 
ATOM     52  N   UNL     1      12.711  12.658  -1.565  1.00  0.00    -0.354 N 
ATOM     53  C   UNL     1      14.824  10.984  -5.121  1.00  0.00     0.074 A 
ATOM     54  C   UNL     1      13.684  10.214  -5.548  1.00  0.00     0.031 C 
ATOM     55  C   UNL     1      11.306  12.509   0.162  1.00  0.00     0.029 A 
ATOM     56  C   UNL     1      11.878  13.449  -0.784  1.00  0.00     0.049 A 
ATOM     57  H   UNL     1      13.299  13.031  -2.262  1.00  0.00     0.167 HD
ATOM     58  C   UNL     1      15.643  11.845  -5.787  1.00  0.00     0.037 A 
ATOM     59  C   UNL     1      11.671  14.783  -0.915  1.00  0.00     0.037 A 
ATOM     60  C   UNL     1      16.647  12.383  -4.901  1.00  0.00     0.049 A 
ATOM     61  C   UNL     1      12.824  15.330  -1.669  1.00  0.00     0.074 A 
ATOM     62  C   UNL     1      17.674  11.847  -4.149  1.00  0.00     0.029 A 
ATOM     63  N   UNL     1      16.424  13.637  -4.391  1.00  0.00    -0.354 N 
ATOM     64  N   UNL     1      14.038  15.388  -1.196  1.00  0.00    -0.248 NA
ATOM     65  C   UNL     1      12.713  15.408  -3.116  1.00  0.00     0.031 C 
ATOM     66  C   UNL     1      17.686  12.611  -2.943  1.00  0.00     0.029 A 
ATOM     67  C   UNL     1      16.720  13.612  -3.054  1.00  0.00     0.049 A 
ATOM     68  H   UNL     1      16.105  14.419  -4.898  1.00  0.00     0.167 HD
ATOM     69  C   UNL     1      14.846  15.053  -2.271  1.00  0.00     0.074 A 
ATOM     70  C   UNL     1      13.988  15.185  -3.446  1.00  0.00     0.031 C 
ATOM     71  C   UNL     1      16.041  14.425  -2.072  1.00  0.00     0.037 A 
BRANCH  58  72
ATOM     72  C   UNL     1      15.312  12.517  -7.099  1.00  0.00     0.064 A 
ATOM     73  C   UNL     1      16.295  13.318  -7.718  1.00  0.00     0.173 A 
ATOM     74  C   UNL     1      14.001  12.674  -7.597  1.00  0.00     0.173 A 
ATOM     75  F   UNL     1      17.574  13.261  -7.319  1.00  0.00    -0.203 F 
ATOM     76  C   UNL     1      15.970  14.271  -8.687  1.00  0.00     0.198 A 
ATOM     77  C   UNL     1      13.690  13.588  -8.603  1.00  0.00     0.198 A 
ATOM     78  F   UNL     1      12.951  12.043  -7.059  1.00  0.00    -0.203 F 
ATOM     79  F   UNL     1      16.915  15.105  -9.143  1.00  0.00    -0.200 F 
ATOM     80  C   UNL     1      14.666  14.411  -9.122  1.00  0.00     0.200 A 
ATOM     81  F   UNL     1      12.416  13.722  -8.998  1.00  0.00    -0.200 F 
ATOM     82  F   UNL     1      14.339  15.369  -9.999  1.00  0.00    -0.200 F 
ENDBRANCH  58  72
BRANCH  59  83
ATOM     83  C   UNL     1      10.439  15.571  -0.682  1.00  0.00     0.064 A 
ATOM     84  C   UNL     1      10.486  16.973  -0.597  1.00  0.00     0.173 A 
ATOM     85  C   UNL     1       9.165  14.996  -0.849  1.00  0.00     0.173 A 
ATOM     86  F   UNL     1      11.663  17.602  -0.476  1.00  0.00    -0.203 F 
ATOM     87  C   UNL     1       9.332  17.755  -0.716  1.00  0.00     0.198 A 
ATOM     88  C   UNL     1       8.013  15.778  -0.963  1.00  0.00     0.198 A 
ATOM     89  F   UNL     1       9.025  13.672  -1.007  1.00  0.00    -0.203 F 
ATOM     90  F   UNL     1       9.427  19.092  -0.705  1.00  0.00    -0.200 F 
ATOM     91  C   UNL     1       8.099  17.157  -0.914  1.00  0.00     0.200 A 
ATOM     92  F   UNL     1       6.830  15.190  -1.191  1.00  0.00    -0.200 F 
ATOM     93  F   UNL     1       7.005  17.907  -1.102  1.00  0.00    -0.200 F 
ENDBRANCH  59  83
BRANCH  71  94
ATOM     94  C   UNL     1      16.593  14.399  -0.672  1.00  0.00     0.064 A 
ATOM     95  C   UNL     1      15.973  13.765   0.419  1.00  0.00     0.173 A 
ATOM     96  C   UNL     1      17.871  14.934  -0.464  1.00  0.00     0.173 A 
ATOM     97  F   UNL     1      14.795  13.145   0.283  1.00  0.00    -0.203 F 
ATOM     98  C   UNL     1      16.590  13.712   1.669  1.00  0.00     0.198 A 
ATOM     99  C   UNL     1      18.501  14.845   0.774  1.00  0.00     0.198 A 
ATOM    100  F   UNL     1      18.532  15.508  -1.481  1.00  0.00    -0.203 F 
ATOM    101  F   UNL     1      15.972  13.115   2.700  1.00  0.00    -0.200 F 
ATOM    102  C   UNL     1      17.856  14.245   1.842  1.00  0.00     0.200 A 
ATOM    103  F   UNL     1      19.745  15.320   0.922  1.00  0.00    -0.200 F 
ATOM    104  F   UNL     1      18.467  14.158   3.033  1.00  0.00    -0.200 F 
ENDBRANCH  71  94
ENDBRANCH  45  46
ENDBRANCH  37  40
ENDBRANCH  35  36
ENDBRANCH  34  35
ENDBRANCH  33  34
ENDBRANCH   3  33
TORSDOF 16
