REMARK SMILES COc1ccc(C[N@@H+]2C[C@@H](C(=O)NCCCNC(=O)c3ccc(-c4c5nc(c(-c6c(F)c(F)c(F)c(F)c6F)c6ccc([nH]6)c(-c6c(F)c(F)c(F)c(F)c6F)c6nc(c(-c7c(F)c(F)c(F)c(F)c7F)c7ccc4[nH]7)C=C6)C=C5)cc3)[C@H](c3ccccc3OC)C2)c(OC)c1
REMARK SMILES IDX 14 1 13 2 11 3 12 4 10 6 8 7 9 8 92 9 83 11 7 12 6 13 3 14
REMARK SMILES IDX 4 15 96 16 5 17 93 18 2 19 1 20 94 21 95 22 84 23 85 24
REMARK SMILES IDX 89 25 86 26 88 27 87 28 90 29 91 30 15 31 16 32 17 33 18 34
REMARK SMILES IDX 19 36 20 37 21 38 82 39 22 40 81 41 23 42 24 43 25 44 75 45
REMARK SMILES IDX 26 46 80 47 74 48 76 49 27 50 79 51 73 52 72 53 28 55 60 56
REMARK SMILES IDX 40 57 59 58 41 59 44 60 58 61 77 62 42 63 43 64 57 66 78 67
REMARK SMILES IDX 45 68 29 69 30 70 38 71 31 72 32 73 36 74 39 75 33 76 34 77
REMARK SMILES IDX 37 78 35 79 61 80 62 81 70 82 63 83 64 84 68 85 71 86 65 87
REMARK SMILES IDX 66 88 69 89 67 90 46 91 47 92 55 93 48 94 49 95 53 96 56 97
REMARK SMILES IDX 50 98 51 99 54 100 52 101
REMARK H PARENT 13 5 8 10 17 35 76 54 44 65
REMARK Flexibility Score: inf
ROOT
ATOM      1  C   UNL     1      -2.100  -2.697   4.446  1.00  0.00     0.117 C 
ENDROOT
BRANCH   1   2
ATOM      2  N   UNL     1      -1.870  -3.277   5.759  1.00  0.00    -0.356 N 
ATOM      3  C   UNL     1      -0.697  -3.679   6.344  1.00  0.00     0.229 C 
ATOM      4  O   UNL     1      -0.740  -4.026   7.524  1.00  0.00    -0.275 OA
ATOM      5  H   UNL     1      -2.676  -3.399   6.311  1.00  0.00     0.163 HD
BRANCH   3   6
ATOM      6  C   UNL     1       0.558  -3.798   5.499  1.00  0.00     0.146 C 
ATOM      7  N   UNL     1       2.100  -5.489   4.854  1.00  0.00    -0.330 N 
ATOM      8  C   UNL     1       0.703  -5.291   5.202  1.00  0.00     0.276 C 
ATOM      9  C   UNL     1       2.847  -4.560   5.715  1.00  0.00     0.272 C 
ATOM     10  H   UNL     1       2.392  -6.448   5.044  1.00  0.00     0.348 HD
ATOM     11  C   UNL     1       1.900  -3.409   6.162  1.00  0.00     0.096 C 
BRANCH   7  12
ATOM     12  C   UNL     1       2.429  -5.508   3.417  1.00  0.00     0.303 C 
BRANCH  12  13
ATOM     13  C   UNL     1       2.025  -4.327   2.550  1.00  0.00     0.048 A 
ATOM     14  C   UNL     1       1.149  -1.987   1.249  1.00  0.00     0.122 A 
ATOM     15  C   UNL     1       0.260  -3.024   1.493  1.00  0.00     0.047 A 
ATOM     16  C   UNL     1       2.499  -2.158   1.543  1.00  0.00     0.093 A 
ATOM     17  C   UNL     1       0.692  -4.189   2.127  1.00  0.00     0.017 A 
ATOM     18  C   UNL     1       2.947  -3.348   2.142  1.00  0.00     0.131 A 
BRANCH  14  19
ATOM     19  O   UNL     1       0.585  -0.815   0.831  1.00  0.00    -0.497 OA
ATOM     20  C   UNL     1       1.267  -0.165  -0.234  1.00  0.00     0.278 C 
ENDBRANCH  14  19
BRANCH  18  21
ATOM     21  O   UNL     1       4.266  -3.600   2.420  1.00  0.00    -0.496 OA
ATOM     22  C   UNL     1       5.214  -2.968   1.568  1.00  0.00     0.278 C 
ENDBRANCH  18  21
ENDBRANCH  12  13
ENDBRANCH   7  12
BRANCH  11  23
ATOM     23  C   UNL     1       2.338  -1.973   5.834  1.00  0.00     0.004 A 
ATOM     24  C   UNL     1       3.392  -1.681   4.956  1.00  0.00     0.008 A 
ATOM     25  C   UNL     1       1.680  -0.869   6.406  1.00  0.00     0.122 A 
ATOM     26  C   UNL     1       3.716  -0.372   4.582  1.00  0.00     0.001 A 
ATOM     27  C   UNL     1       1.996   0.449   6.037  1.00  0.00     0.047 A 
ATOM     28  C   UNL     1       2.999   0.695   5.102  1.00  0.00     0.004 A 
BRANCH  25  29
ATOM     29  O   UNL     1       0.831  -1.105   7.454  1.00  0.00    -0.496 OA
ATOM     30  C   UNL     1      -0.489  -0.633   7.227  1.00  0.00     0.278 C 
ENDBRANCH  25  29
ENDBRANCH  11  23
ENDBRANCH   3   6
ENDBRANCH   1   2
BRANCH   1  31
ATOM     31  C   UNL     1      -2.802  -3.669   3.505  1.00  0.00     0.042 C 
BRANCH  31  32
ATOM     32  C   UNL     1      -4.315  -3.511   3.527  1.00  0.00     0.118 C 
BRANCH  32  33
ATOM     33  N   UNL     1      -4.754  -2.288   2.858  1.00  0.00    -0.352 N 
ATOM     34  C   UNL     1      -5.821  -2.106   2.010  1.00  0.00     0.251 C 
ATOM     35  H   UNL     1      -4.213  -1.485   3.040  1.00  0.00     0.163 HD
ATOM     36  O   UNL     1      -5.976  -1.041   1.419  1.00  0.00    -0.269 OA
BRANCH  34  37
ATOM     37  C   UNL     1      -6.763  -3.220   1.786  1.00  0.00     0.039 A 
ATOM     38  C   UNL     1      -7.134  -3.552   0.480  1.00  0.00     0.014 A 
ATOM     39  C   UNL     1      -7.243  -3.961   2.868  1.00  0.00     0.014 A 
ATOM     40  C   UNL     1      -7.929  -4.678   0.254  1.00  0.00     0.010 A 
ATOM     41  C   UNL     1      -7.964  -5.124   2.637  1.00  0.00     0.010 A 
ATOM     42  C   UNL     1      -8.316  -5.493   1.328  1.00  0.00    -0.014 A 
BRANCH  42  43
ATOM     43  C   UNL     1      -9.120  -6.725   1.140  1.00  0.00     0.031 A 
ATOM     44  C   UNL     1     -10.479  -6.812   1.776  1.00  0.00     0.074 A 
ATOM     45  C   UNL     1      -8.594  -7.791   0.507  1.00  0.00     0.049 A 
ATOM     46  N   UNL     1     -11.257  -7.851   1.937  1.00  0.00    -0.248 NA
ATOM     47  C   UNL     1     -11.016  -5.565   2.346  1.00  0.00     0.031 C 
ATOM     48  C   UNL     1      -7.274  -7.838  -0.124  1.00  0.00     0.029 A 
ATOM     49  N   UNL     1      -9.096  -9.055   0.319  1.00  0.00    -0.354 N 
ATOM     50  C   UNL     1     -12.354  -7.390   2.652  1.00  0.00     0.074 A 
ATOM     51  C   UNL     1     -12.123  -5.991   2.935  1.00  0.00     0.031 C 
ATOM     52  C   UNL     1      -7.072  -9.066  -0.630  1.00  0.00     0.029 A 
ATOM     53  C   UNL     1      -8.224  -9.905  -0.317  1.00  0.00     0.049 A 
ATOM     54  H   UNL     1      -9.996  -9.326   0.612  1.00  0.00     0.167 HD
ATOM     55  C   UNL     1     -13.466  -8.070   3.020  1.00  0.00     0.037 A 
ATOM     56  C   UNL     1      -8.336 -11.219  -0.593  1.00  0.00     0.037 A 
ATOM     57  C   UNL     1     -13.706  -9.450   2.699  1.00  0.00     0.049 A 
ATOM     58  C   UNL     1      -9.588 -11.949  -0.182  1.00  0.00     0.074 A 
ATOM     59  C   UNL     1     -14.811 -10.227   2.999  1.00  0.00     0.029 A 
ATOM     60  N   UNL     1     -12.828 -10.256   1.991  1.00  0.00    -0.354 N 
ATOM     61  N   UNL     1     -10.632 -11.498   0.469  1.00  0.00    -0.248 NA
ATOM     62  C   UNL     1      -9.681 -13.370  -0.550  1.00  0.00     0.031 C 
ATOM     63  C   UNL     1     -14.591 -11.511   2.492  1.00  0.00     0.029 A 
ATOM     64  C   UNL     1     -13.369 -11.521   1.840  1.00  0.00     0.049 A 
ATOM     65  H   UNL     1     -11.950  -9.972   1.647  1.00  0.00     0.167 HD
ATOM     66  C   UNL     1     -11.520 -12.562   0.553  1.00  0.00     0.074 A 
ATOM     67  C   UNL     1     -10.894 -13.683  -0.115  1.00  0.00     0.031 C 
ATOM     68  C   UNL     1     -12.744 -12.607   1.131  1.00  0.00     0.037 A 
BRANCH  55  69
ATOM     69  C   UNL     1     -14.511  -7.325   3.796  1.00  0.00     0.064 A 
ATOM     70  C   UNL     1     -15.298  -6.330   3.196  1.00  0.00     0.173 A 
ATOM     71  C   UNL     1     -14.758  -7.635   5.141  1.00  0.00     0.173 A 
ATOM     72  F   UNL     1     -15.090  -5.986   1.916  1.00  0.00    -0.203 F 
ATOM     73  C   UNL     1     -16.276  -5.656   3.921  1.00  0.00     0.198 A 
ATOM     74  C   UNL     1     -15.759  -6.980   5.855  1.00  0.00     0.198 A 
ATOM     75  F   UNL     1     -14.037  -8.581   5.762  1.00  0.00    -0.203 F 
ATOM     76  F   UNL     1     -16.983  -4.677   3.339  1.00  0.00    -0.200 F 
ATOM     77  C   UNL     1     -16.512  -5.987   5.247  1.00  0.00     0.200 A 
ATOM     78  F   UNL     1     -15.994  -7.310   7.133  1.00  0.00    -0.200 F 
ATOM     79  F   UNL     1     -17.461  -5.345   5.940  1.00  0.00    -0.200 F 
ENDBRANCH  55  69
BRANCH  56  80
ATOM     80  C   UNL     1      -7.239 -11.932  -1.299  1.00  0.00     0.064 A 
ATOM     81  C   UNL     1      -7.410 -12.397  -2.610  1.00  0.00     0.173 A 
ATOM     82  C   UNL     1      -6.008 -12.183  -0.674  1.00  0.00     0.173 A 
ATOM     83  F   UNL     1      -8.576 -12.198  -3.243  1.00  0.00    -0.203 F 
ATOM     84  C   UNL     1      -6.405 -13.111  -3.260  1.00  0.00     0.198 A 
ATOM     85  C   UNL     1      -4.992 -12.871  -1.336  1.00  0.00     0.198 A 
ATOM     86  F   UNL     1      -5.789 -11.754   0.577  1.00  0.00    -0.203 F 
ATOM     87  F   UNL     1      -6.617 -13.590  -4.493  1.00  0.00    -0.200 F 
ATOM     88  C   UNL     1      -5.196 -13.344  -2.623  1.00  0.00     0.200 A 
ATOM     89  F   UNL     1      -3.820 -13.082  -0.723  1.00  0.00    -0.200 F 
ATOM     90  F   UNL     1      -4.230 -14.032  -3.247  1.00  0.00    -0.200 F 
ENDBRANCH  56  80
BRANCH  68  91
ATOM     91  C   UNL     1     -13.525 -13.880   1.006  1.00  0.00     0.064 A 
ATOM     92  C   UNL     1     -13.210 -15.018   1.761  1.00  0.00     0.173 A 
ATOM     93  C   UNL     1     -14.654 -13.931   0.174  1.00  0.00     0.173 A 
ATOM     94  F   UNL     1     -12.132 -15.021   2.560  1.00  0.00    -0.203 F 
ATOM     95  C   UNL     1     -13.992 -16.167   1.679  1.00  0.00     0.198 A 
ATOM     96  C   UNL     1     -15.448 -15.072   0.114  1.00  0.00     0.198 A 
ATOM     97  F   UNL     1     -14.999 -12.864  -0.563  1.00  0.00    -0.203 F 
ATOM     98  F   UNL     1     -13.657 -17.254   2.387  1.00  0.00    -0.200 F 
ATOM     99  C   UNL     1     -15.115 -16.189   0.864  1.00  0.00     0.200 A 
ATOM    100  F   UNL     1     -16.540 -15.086  -0.663  1.00  0.00    -0.200 F 
ATOM    101  F   UNL     1     -15.876 -17.290   0.800  1.00  0.00    -0.200 F 
ENDBRANCH  68  91
ENDBRANCH  42  43
ENDBRANCH  34  37
ENDBRANCH  32  33
ENDBRANCH  31  32
ENDBRANCH   1  31
TORSDOF 16
