REMARK SMILES O=C(CN1CC2(CCC1=O)CC[NH+](Cc1ccc(Cl)c(F)c1)CC2)NCCCNC(=O)c1ccc(-c2c3nc(c(-c4c(F)c(F)c(F)c(F)c4F)c4ccc([nH]4)c(-c4c(F)c(F)c(F)c(F)c4F)c4nc(c(-c5c(F)c(F)c(F)c(F)c5F)c5ccc2[nH]5)C=C4)C=C3)cc1
REMARK SMILES IDX 26 1 25 2 1 3 2 4 3 6 4 7 5 8 9 9 6 10 8 11 10 12 7 13 11 14
REMARK SMILES IDX 24 15 12 16 23 17 13 18 14 20 15 21 16 22 22 23 17 24 20 25
REMARK SMILES IDX 18 26 21 27 19 28 27 29 28 30 29 31 30 32 31 34 32 35 33 36
REMARK SMILES IDX 94 37 34 38 93 39 35 40 36 41 37 42 87 43 38 44 92 45 86 46
REMARK SMILES IDX 88 47 39 48 91 49 85 50 84 51 40 53 72 54 52 55 71 56 53 57
REMARK SMILES IDX 56 58 70 59 89 60 54 61 55 62 69 64 90 65 57 66 41 67 42 68
REMARK SMILES IDX 50 69 43 70 44 71 48 72 51 73 45 74 46 75 49 76 47 77 73 78
REMARK SMILES IDX 74 79 82 80 75 81 76 82 80 83 83 84 77 85 78 86 81 87 79 88
REMARK SMILES IDX 58 89 59 90 67 91 60 92 61 93 65 94 68 95 62 96 63 97 66 98
REMARK SMILES IDX 64 99
REMARK H PARENT 25 5 13 19 29 33 88 52 56 63
REMARK Flexibility Score: inf
ROOT
ATOM      1  C   UNL     1       2.155  -1.380   2.324  1.00  0.00     0.117 C 
ENDROOT
BRANCH   1   2
ATOM      2  N   UNL     1       2.758  -0.588   1.281  1.00  0.00    -0.354 N 
ATOM      3  O   UNL     1       0.969  -0.662  -0.154  1.00  0.00    -0.273 OA
ATOM      4  C   UNL     1       2.103  -0.275   0.114  1.00  0.00     0.239 C 
ATOM      5  H   UNL     1       3.677  -0.258   1.410  1.00  0.00     0.163 HD
BRANCH   4   6
ATOM      6  C   UNL     1       2.978   0.426  -0.911  1.00  0.00     0.219 C 
BRANCH   6   7
ATOM      7  N   UNL     1       3.818   1.484  -0.350  1.00  0.00    -0.333 N 
ATOM      8  C   UNL     1       3.231   2.805  -0.166  1.00  0.00     0.127 C 
ATOM      9  C   UNL     1       5.137   1.229  -0.032  1.00  0.00     0.223 C 
ATOM     10  C   UNL     1       4.101   3.857  -0.860  1.00  0.00    -0.001 C 
ATOM     11  C   UNL     1       6.105   2.387  -0.207  1.00  0.00     0.101 C 
ATOM     12  O   UNL     1       5.529   0.094   0.236  1.00  0.00    -0.275 OA
ATOM     13  C   UNL     1       5.483   3.777  -0.162  1.00  0.00     0.019 C 
ATOM     14  C   UNL     1       4.215   3.515  -2.366  1.00  0.00     0.070 C 
ATOM     15  C   UNL     1       3.535   5.279  -0.644  1.00  0.00     0.070 C 
ATOM     16  C   UNL     1       3.021   3.973  -3.202  1.00  0.00     0.263 C 
ATOM     17  C   UNL     1       2.410   5.682  -1.601  1.00  0.00     0.263 C 
ATOM     18  N   UNL     1       2.648   5.364  -3.002  1.00  0.00    -0.331 N 
ATOM     19  H   UNL     1       1.728   5.460  -3.433  1.00  0.00     0.348 HD
BRANCH  18  20
ATOM     20  C   UNL     1       3.349   6.363  -3.822  1.00  0.00     0.299 C 
BRANCH  20  21
ATOM     21  C   UNL     1       4.798   6.636  -3.481  1.00  0.00     0.009 A 
ATOM     22  C   UNL     1       5.139   7.643  -2.565  1.00  0.00     0.011 A 
ATOM     23  C   UNL     1       5.821   5.829  -4.000  1.00  0.00     0.050 A 
ATOM     24  C   UNL     1       6.443   7.741  -2.067  1.00  0.00     0.024 A 
ATOM     25  C   UNL     1       7.109   5.904  -3.473  1.00  0.00     0.142 A 
ATOM     26  C   UNL     1       7.417   6.839  -2.491  1.00  0.00     0.076 A 
ATOM     27  F   UNL     1       8.018   5.003  -3.874  1.00  0.00    -0.205 F 
ATOM     28  Cl  UNL     1       8.972   6.861  -1.754  1.00  0.00    -0.081 Cl
ENDBRANCH  20  21
ENDBRANCH  18  20
ENDBRANCH   6   7
ENDBRANCH   4   6
ENDBRANCH   1   2
BRANCH   1  29
ATOM     29  C   UNL     1       2.545  -2.849   2.213  1.00  0.00     0.042 C 
BRANCH  29  30
ATOM     30  C   UNL     1       4.049  -3.102   2.300  1.00  0.00     0.118 C 
BRANCH  30  31
ATOM     31  N   UNL     1       4.630  -2.647   3.557  1.00  0.00    -0.352 N 
ATOM     32  C   UNL     1       5.274  -3.342   4.546  1.00  0.00     0.251 C 
ATOM     33  H   UNL     1       4.545  -1.681   3.723  1.00  0.00     0.163 HD
ATOM     34  O   UNL     1       5.537  -2.784   5.612  1.00  0.00    -0.269 OA
BRANCH  32  35
ATOM     35  C   UNL     1       5.634  -4.764   4.361  1.00  0.00     0.039 A 
ATOM     36  C   UNL     1       5.428  -5.651   5.421  1.00  0.00     0.014 A 
ATOM     37  C   UNL     1       6.186  -5.225   3.163  1.00  0.00     0.014 A 
ATOM     38  C   UNL     1       5.698  -7.011   5.252  1.00  0.00     0.010 A 
ATOM     39  C   UNL     1       6.381  -6.591   2.969  1.00  0.00     0.010 A 
ATOM     40  C   UNL     1       6.130  -7.500   4.008  1.00  0.00    -0.014 A 
BRANCH  40  41
ATOM     41  C   UNL     1       6.281  -8.959   3.769  1.00  0.00     0.031 A 
ATOM     42  C   UNL     1       7.623  -9.546   3.435  1.00  0.00     0.074 A 
ATOM     43  C   UNL     1       5.188  -9.746   3.787  1.00  0.00     0.049 A 
ATOM     44  N   UNL     1       7.933 -10.782   3.130  1.00  0.00    -0.248 NA
ATOM     45  C   UNL     1       8.766  -8.620   3.420  1.00  0.00     0.031 C 
ATOM     46  C   UNL     1       3.823  -9.290   4.055  1.00  0.00     0.029 A 
ATOM     47  N   UNL     1       5.048 -11.094   3.565  1.00  0.00    -0.354 N 
ATOM     48  C   UNL     1       9.299 -10.780   2.879  1.00  0.00     0.074 A 
ATOM     49  C   UNL     1       9.750  -9.411   3.016  1.00  0.00     0.031 C 
ATOM     50  C   UNL     1       2.989 -10.340   4.004  1.00  0.00     0.029 A 
ATOM     51  C   UNL     1       3.750 -11.535   3.652  1.00  0.00     0.049 A 
ATOM     52  H   UNL     1       5.807 -11.689   3.363  1.00  0.00     0.167 HD
ATOM     53  C   UNL     1      10.105 -11.827   2.581  1.00  0.00     0.037 A 
ATOM     54  C   UNL     1       3.227 -12.760   3.454  1.00  0.00     0.037 A 
ATOM     55  C   UNL     1       9.653 -13.189   2.454  1.00  0.00     0.049 A 
ATOM     56  C   UNL     1       4.141 -13.899   3.092  1.00  0.00     0.074 A 
ATOM     57  C   UNL     1      10.403 -14.328   2.212  1.00  0.00     0.029 A 
ATOM     58  N   UNL     1       8.330 -13.597   2.548  1.00  0.00    -0.354 N 
ATOM     59  N   UNL     1       5.442 -13.898   2.930  1.00  0.00    -0.248 NA
ATOM     60  C   UNL     1       3.513 -15.211   2.887  1.00  0.00     0.031 C 
ATOM     61  C   UNL     1       9.528 -15.413   2.098  1.00  0.00     0.029 A 
ATOM     62  C   UNL     1       8.239 -14.964   2.334  1.00  0.00     0.049 A 
ATOM     63  H   UNL     1       7.568 -13.003   2.738  1.00  0.00     0.167 HD
ATOM     64  C   UNL     1       5.790 -15.208   2.631  1.00  0.00     0.074 A 
ATOM     65  C   UNL     1       4.566 -15.981   2.655  1.00  0.00     0.031 C 
ATOM     66  C   UNL     1       7.014 -15.724   2.359  1.00  0.00     0.037 A 
BRANCH  53  67
ATOM     67  C   UNL     1      11.565 -11.543   2.365  1.00  0.00     0.064 A 
ATOM     68  C   UNL     1      12.404 -11.149   3.419  1.00  0.00     0.173 A 
ATOM     69  C   UNL     1      12.143 -11.712   1.097  1.00  0.00     0.173 A 
ATOM     70  F   UNL     1      11.903 -10.966   4.649  1.00  0.00    -0.203 F 
ATOM     71  C   UNL     1      13.759 -10.907   3.205  1.00  0.00     0.198 A 
ATOM     72  C   UNL     1      13.505 -11.501   0.894  1.00  0.00     0.198 A 
ATOM     73  F   UNL     1      11.390 -12.095   0.055  1.00  0.00    -0.203 F 
ATOM     74  F   UNL     1      14.530 -10.484   4.217  1.00  0.00    -0.200 F 
ATOM     75  C   UNL     1      14.310 -11.091   1.946  1.00  0.00     0.200 A 
ATOM     76  F   UNL     1      14.038 -11.696  -0.319  1.00  0.00    -0.200 F 
ATOM     77  F   UNL     1      15.616 -10.867   1.745  1.00  0.00    -0.200 F 
ENDBRANCH  53  67
BRANCH  54  78
ATOM     78  C   UNL     1       1.763 -12.976   3.603  1.00  0.00     0.064 A 
ATOM     79  C   UNL     1       1.252 -13.759   4.647  1.00  0.00     0.173 A 
ATOM     80  C   UNL     1       0.847 -12.416   2.700  1.00  0.00     0.173 A 
ATOM     81  F   UNL     1       2.088 -14.335   5.523  1.00  0.00    -0.203 F 
ATOM     82  C   UNL     1      -0.117 -13.992   4.770  1.00  0.00     0.198 A 
ATOM     83  C   UNL     1      -0.524 -12.622   2.843  1.00  0.00     0.198 A 
ATOM     84  F   UNL     1       1.282 -11.656   1.684  1.00  0.00    -0.203 F 
ATOM     85  F   UNL     1      -0.573 -14.787   5.747  1.00  0.00    -0.200 F 
ATOM     86  C   UNL     1      -1.004 -13.418   3.872  1.00  0.00     0.200 A 
ATOM     87  F   UNL     1      -1.378 -12.053   1.982  1.00  0.00    -0.200 F 
ATOM     88  F   UNL     1      -2.320 -13.640   3.992  1.00  0.00    -0.200 F 
ENDBRANCH  54  78
BRANCH  66  89
ATOM     89  C   UNL     1       7.096 -17.200   2.093  1.00  0.00     0.064 A 
ATOM     90  C   UNL     1       6.573 -17.770   0.922  1.00  0.00     0.173 A 
ATOM     91  C   UNL     1       7.735 -18.053   3.007  1.00  0.00     0.173 A 
ATOM     92  F   UNL     1       5.939 -17.003   0.023  1.00  0.00    -0.203 F 
ATOM     93  C   UNL     1       6.660 -19.141   0.692  1.00  0.00     0.198 A 
ATOM     94  C   UNL     1       7.850 -19.417   2.757  1.00  0.00     0.198 A 
ATOM     95  F   UNL     1       8.258 -17.560   4.140  1.00  0.00    -0.203 F 
ATOM     96  F   UNL     1       6.103 -19.670  -0.407  1.00  0.00    -0.200 F 
ATOM     97  C   UNL     1       7.305 -19.962   1.605  1.00  0.00     0.200 A 
ATOM     98  F   UNL     1       8.489 -20.206   3.633  1.00  0.00    -0.200 F 
ATOM     99  F   UNL     1       7.394 -21.279   1.377  1.00  0.00    -0.200 F 
ENDBRANCH  66  89
ENDBRANCH  40  41
ENDBRANCH  32  35
ENDBRANCH  30  31
ENDBRANCH  29  30
ENDBRANCH   1  29
TORSDOF 13
