REMARK SMILES COC(=O)C[C@@H](NC(=O)c1ccccc1C(=O)NCCCNC(=O)c1ccc(-c2c3nc(c(-c4c(F)c(F)c(F)c(F)c4F)c4ccc([nH]4)c(-c4c(F)c(F)c(F)c(F)c4F)c4nc(c(-c5c(F)c(F)c(F)c(F)c5F)c5ccc2[nH]5)C=C4)C=C3)cc1)c1cccc(C)c1C
REMARK SMILES IDX 16 1 17 2 18 3 15 5 10 6 11 7 12 8 14 9 13 10 8 11 7 12 9 14
REMARK SMILES IDX 6 15 5 16 3 17 4 18 2 19 1 20 88 21 89 22 94 23 90 24 92 25
REMARK SMILES IDX 95 26 91 27 93 28 19 29 20 30 21 31 22 32 23 33 24 35 25 36
REMARK SMILES IDX 26 37 87 38 27 39 86 40 28 41 29 42 30 43 80 44 31 45 85 46
REMARK SMILES IDX 79 47 81 48 32 49 84 50 78 51 77 52 33 54 65 55 45 56 64 57
REMARK SMILES IDX 46 58 49 59 63 60 82 61 47 62 48 63 62 65 83 66 50 67 34 68
REMARK SMILES IDX 35 69 43 70 36 71 37 72 41 73 44 74 38 75 39 76 42 77 40 78
REMARK SMILES IDX 66 79 67 80 75 81 68 82 69 83 73 84 76 85 70 86 71 87 74 88
REMARK SMILES IDX 72 89 51 90 52 91 60 92 53 93 54 94 58 95 61 96 55 97 56 98
REMARK SMILES IDX 59 99 57 100
REMARK H PARENT 18 4 7 13 22 34 81 53 49 64
REMARK Flexibility Score: inf
ROOT
ATOM      1  C   UNL     1       0.712  -5.223  -3.183  1.00  0.00     0.252 C 
ATOM      2  O   UNL     1       1.659  -5.938  -3.499  1.00  0.00    -0.269 OA
ATOM      3  N   UNL     1       0.905  -4.294  -2.204  1.00  0.00    -0.352 N 
ATOM      4  H   UNL     1       1.545  -3.566  -2.380  1.00  0.00     0.163 HD
ENDROOT
BRANCH   1   5
ATOM      5  C   UNL     1      -0.585  -5.288  -3.900  1.00  0.00     0.052 A 
ATOM      6  C   UNL     1      -1.581  -4.311  -3.846  1.00  0.00     0.052 A 
ATOM      7  C   UNL     1      -2.825  -4.532  -4.459  1.00  0.00     0.014 A 
ATOM      8  C   UNL     1      -3.029  -5.659  -5.249  1.00  0.00     0.001 A 
ATOM      9  C   UNL     1      -0.785  -6.393  -4.745  1.00  0.00     0.014 A 
ATOM     10  C   UNL     1      -1.991  -6.566  -5.429  1.00  0.00     0.001 A 
BRANCH   6  11
ATOM     11  C   UNL     1      -1.465  -3.018  -3.170  1.00  0.00     0.252 C 
ATOM     12  N   UNL     1      -0.640  -2.028  -3.618  1.00  0.00    -0.345 N 
ATOM     13  H   UNL     1      -0.906  -1.140  -3.286  1.00  0.00     0.164 HD
ATOM     14  O   UNL     1      -2.215  -2.788  -2.220  1.00  0.00    -0.269 OA
BRANCH  12  15
ATOM     15  C   UNL     1       0.562  -1.968  -4.486  1.00  0.00     0.124 C 
BRANCH  15  16
ATOM     16  C   UNL     1       0.997  -0.492  -4.626  1.00  0.00     0.152 C 
BRANCH  16  17
ATOM     17  C   UNL     1       1.486   0.134  -3.334  1.00  0.00     0.307 C 
ATOM     18  O   UNL     1       2.424   0.918  -3.276  1.00  0.00    -0.252 OA
BRANCH  17  19
ATOM     19  O   UNL     1       0.689  -0.199  -2.283  1.00  0.00    -0.469 OA
ATOM     20  C   UNL     1       1.002   0.410  -1.024  1.00  0.00     0.282 C 
ENDBRANCH  17  19
ENDBRANCH  16  17
ENDBRANCH  15  16
BRANCH  15  21
ATOM     21  C   UNL     1       0.354  -2.600  -5.864  1.00  0.00    -0.022 A 
ATOM     22  C   UNL     1      -0.712  -2.111  -6.646  1.00  0.00     0.006 A 
ATOM     23  C   UNL     1       1.158  -3.648  -6.400  1.00  0.00    -0.043 A 
ATOM     24  C   UNL     1      -1.016  -2.662  -7.887  1.00  0.00     0.001 A 
ATOM     25  C   UNL     1       0.742  -4.302  -7.591  1.00  0.00    -0.048 A 
ATOM     26  C   UNL     1       2.483  -4.064  -5.804  1.00  0.00     0.045 C 
ATOM     27  C   UNL     1      -0.317  -3.771  -8.338  1.00  0.00     0.004 A 
ATOM     28  C   UNL     1       1.383  -5.562  -8.121  1.00  0.00     0.044 C 
ENDBRANCH  15  21
ENDBRANCH  12  15
ENDBRANCH   6  11
ENDBRANCH   1   5
BRANCH   3  29
ATOM     29  C   UNL     1       0.229  -4.306  -0.918  1.00  0.00     0.118 C 
BRANCH  29  30
ATOM     30  C   UNL     1       1.128  -4.920   0.149  1.00  0.00     0.042 C 
BRANCH  30  31
ATOM     31  C   UNL     1       2.544  -4.353   0.149  1.00  0.00     0.118 C 
BRANCH  31  32
ATOM     32  N   UNL     1       2.579  -2.901   0.330  1.00  0.00    -0.352 N 
ATOM     33  C   UNL     1       2.890  -2.174   1.454  1.00  0.00     0.251 C 
ATOM     34  H   UNL     1       2.347  -2.371  -0.466  1.00  0.00     0.163 HD
ATOM     35  O   UNL     1       2.678  -0.967   1.508  1.00  0.00    -0.269 OA
BRANCH  33  36
ATOM     36  C   UNL     1       3.444  -2.891   2.612  1.00  0.00     0.039 A 
ATOM     37  C   UNL     1       2.844  -2.748   3.862  1.00  0.00     0.014 A 
ATOM     38  C   UNL     1       4.480  -3.802   2.414  1.00  0.00     0.014 A 
ATOM     39  C   UNL     1       3.229  -3.600   4.896  1.00  0.00     0.010 A 
ATOM     40  C   UNL     1       4.748  -4.742   3.393  1.00  0.00     0.010 A 
ATOM     41  C   UNL     1       4.144  -4.639   4.654  1.00  0.00    -0.014 A 
BRANCH  41  42
ATOM     42  C   UNL     1       4.507  -5.610   5.715  1.00  0.00     0.031 A 
ATOM     43  C   UNL     1       5.945  -5.749   6.138  1.00  0.00     0.074 A 
ATOM     44  C   UNL     1       3.555  -6.399   6.253  1.00  0.00     0.049 A 
ATOM     45  N   UNL     1       6.472  -6.545   7.033  1.00  0.00    -0.248 NA
ATOM     46  C   UNL     1       6.933  -4.922   5.424  1.00  0.00     0.031 C 
ATOM     47  C   UNL     1       2.147  -6.429   5.848  1.00  0.00     0.029 A 
ATOM     48  N   UNL     1       3.626  -7.322   7.263  1.00  0.00    -0.354 N 
ATOM     49  C   UNL     1       7.843  -6.330   6.963  1.00  0.00     0.074 A 
ATOM     50  C   UNL     1       8.077  -5.404   5.881  1.00  0.00     0.031 C 
ATOM     51  C   UNL     1       1.477  -7.278   6.644  1.00  0.00     0.029 A 
ATOM     52  C   UNL     1       2.410  -7.871   7.595  1.00  0.00     0.049 A 
ATOM     53  H   UNL     1       4.468  -7.570   7.710  1.00  0.00     0.167 HD
ATOM     54  C   UNL     1       8.818  -6.822   7.762  1.00  0.00     0.037 A 
ATOM     55  C   UNL     1       2.089  -8.734   8.576  1.00  0.00     0.037 A 
ATOM     56  C   UNL     1       8.567  -7.697   8.874  1.00  0.00     0.049 A 
ATOM     57  C   UNL     1       3.177  -9.204   9.505  1.00  0.00     0.074 A 
ATOM     58  C   UNL     1       9.462  -8.205   9.797  1.00  0.00     0.029 A 
ATOM     59  N   UNL     1       7.313  -8.182   9.218  1.00  0.00    -0.354 N 
ATOM     60  N   UNL     1       4.459  -8.926   9.486  1.00  0.00    -0.248 NA
ATOM     61  C   UNL     1       2.769 -10.088  10.603  1.00  0.00     0.031 C 
ATOM     62  C   UNL     1       8.753  -9.024  10.682  1.00  0.00     0.029 A 
ATOM     63  C   UNL     1       7.410  -8.989  10.338  1.00  0.00     0.049 A 
ATOM     64  H   UNL     1       6.478  -7.982   8.736  1.00  0.00     0.167 HD
ATOM     65  C   UNL     1       5.007  -9.580  10.581  1.00  0.00     0.074 A 
ATOM     66  C   UNL     1       3.911 -10.245  11.257  1.00  0.00     0.031 C 
ATOM     67  C   UNL     1       6.299  -9.633  10.990  1.00  0.00     0.037 A 
BRANCH  54  68
ATOM     68  C   UNL     1      10.229  -6.397   7.471  1.00  0.00     0.064 A 
ATOM     69  C   UNL     1      10.651  -5.068   7.648  1.00  0.00     0.173 A 
ATOM     70  C   UNL     1      11.173  -7.324   7.004  1.00  0.00     0.173 A 
ATOM     71  F   UNL     1       9.784  -4.136   8.075  1.00  0.00    -0.203 F 
ATOM     72  C   UNL     1      11.948  -4.676   7.329  1.00  0.00     0.198 A 
ATOM     73  C   UNL     1      12.480  -6.935   6.720  1.00  0.00     0.198 A 
ATOM     74  F   UNL     1      10.827  -8.606   6.816  1.00  0.00    -0.203 F 
ATOM     75  F   UNL     1      12.304  -3.389   7.442  1.00  0.00    -0.200 F 
ATOM     76  C   UNL     1      12.863  -5.611   6.872  1.00  0.00     0.200 A 
ATOM     77  F   UNL     1      13.368  -7.841   6.287  1.00  0.00    -0.200 F 
ATOM     78  F   UNL     1      14.112  -5.233   6.566  1.00  0.00    -0.200 F 
ENDBRANCH  54  68
BRANCH  55  79
ATOM     79  C   UNL     1       0.674  -9.145   8.778  1.00  0.00     0.064 A 
ATOM     80  C   UNL     1      -0.049  -8.707   9.897  1.00  0.00     0.173 A 
ATOM     81  C   UNL     1       0.013  -9.978   7.864  1.00  0.00     0.173 A 
ATOM     82  F   UNL     1       0.542  -7.920  10.809  1.00  0.00    -0.203 F 
ATOM     83  C   UNL     1      -1.368  -9.106  10.108  1.00  0.00     0.198 A 
ATOM     84  C   UNL     1      -1.315 -10.354   8.060  1.00  0.00     0.198 A 
ATOM     85  F   UNL     1       0.654 -10.418   6.771  1.00  0.00    -0.203 F 
ATOM     86  F   UNL     1      -2.017  -8.710  11.211  1.00  0.00    -0.200 F 
ATOM     87  C   UNL     1      -2.002  -9.925   9.187  1.00  0.00     0.200 A 
ATOM     88  F   UNL     1      -1.929 -11.132   7.160  1.00  0.00    -0.200 F 
ATOM     89  F   UNL     1      -3.271 -10.306   9.387  1.00  0.00    -0.200 F 
ENDBRANCH  55  79
BRANCH  67  90
ATOM     90  C   UNL     1       6.582 -10.413  12.239  1.00  0.00     0.064 A 
ATOM     91  C   UNL     1       6.499 -11.812  12.267  1.00  0.00     0.173 A 
ATOM     92  C   UNL     1       6.958  -9.750  13.418  1.00  0.00     0.173 A 
ATOM     93  F   UNL     1       6.131 -12.489  11.168  1.00  0.00    -0.203 F 
ATOM     94  C   UNL     1       6.741 -12.518  13.441  1.00  0.00     0.198 A 
ATOM     95  C   UNL     1       7.232 -10.462  14.581  1.00  0.00     0.198 A 
ATOM     96  F   UNL     1       7.062  -8.413  13.439  1.00  0.00    -0.203 F 
ATOM     97  F   UNL     1       6.595 -13.850  13.462  1.00  0.00    -0.200 F 
ATOM     98  C   UNL     1       7.112 -11.844  14.595  1.00  0.00     0.200 A 
ATOM     99  F   UNL     1       7.605  -9.810  15.691  1.00  0.00    -0.200 F 
ATOM    100  F   UNL     1       7.344 -12.525  15.725  1.00  0.00    -0.200 F 
ENDBRANCH  67  90
ENDBRANCH  41  42
ENDBRANCH  33  36
ENDBRANCH  31  32
ENDBRANCH  30  31
ENDBRANCH  29  30
ENDBRANCH   3  29
TORSDOF 16
