REMARK SMILES O=CN1CCC[C@@H](C(=O)NCCCNC(=O)c2ccc(-c3c4nc(c(-c5c(F)c(F)c(F)c(F)c5F)c5ccc([nH]5)c(-c5c(F)c(F)c(F)c(F)c5F)c5nc(c(-c6c(F)c(F)c(F)c(F)c6F)c6ccc3[nH]6)C=C5)C=C4)cc2)C1
REMARK SMILES IDX 12 1 11 2 10 3 8 4 9 5 7 7 3 8 4 9 80 10 5 11 6 12 2 13 1 14
REMARK SMILES IDX 13 15 14 16 15 17 16 19 17 20 18 21 79 22 19 23 78 24 20 25
REMARK SMILES IDX 21 26 22 27 72 28 23 29 77 30 71 31 73 32 24 33 76 34 70 35
REMARK SMILES IDX 69 36 25 38 57 39 37 40 56 41 38 42 41 43 55 44 74 45 39 46
REMARK SMILES IDX 40 47 54 49 75 50 42 51 26 52 27 53 35 54 28 55 29 56 33 57
REMARK SMILES IDX 36 58 30 59 31 60 34 61 32 62 58 63 59 64 67 65 60 66 61 67
REMARK SMILES IDX 65 68 68 69 62 70 63 71 66 72 64 73 43 74 44 75 52 76 45 77
REMARK SMILES IDX 46 78 50 79 53 80 47 81 48 82 51 83 49 84
REMARK H PARENT 10 6 14 18 73 37 41 48
REMARK Flexibility Score: inf
ROOT
ATOM      1  C   UNL     1       0.475  -0.969   4.946  1.00  0.00     0.042 C 
ENDROOT
BRANCH   1   2
ATOM      2  C   UNL     1       1.110   0.174   4.174  1.00  0.00     0.117 C 
BRANCH   2   3
ATOM      3  N   UNL     1       2.230   0.792   4.863  1.00  0.00    -0.356 N 
ATOM      4  C   UNL     1       3.421   1.231   4.367  1.00  0.00     0.224 C 
ATOM      5  O   UNL     1       4.186   1.798   5.149  1.00  0.00    -0.275 OA
ATOM      6  H   UNL     1       2.111   0.912   5.833  1.00  0.00     0.163 HD
BRANCH   4   7
ATOM      7  C   UNL     1       3.787   0.970   2.915  1.00  0.00     0.098 C 
ATOM      8  N   UNL     1       3.257   1.367   0.582  1.00  0.00    -0.344 N 
ATOM      9  C   UNL     1       4.585   1.802   0.193  1.00  0.00     0.119 C 
ATOM     10  C   UNL     1       2.862   1.705   1.942  1.00  0.00     0.132 C 
ATOM     11  C   UNL     1       5.623   1.212   1.149  1.00  0.00     0.022 C 
ATOM     12  C   UNL     1       5.239   1.416   2.622  1.00  0.00     0.017 C 
BRANCH   8  13
ATOM     13  C   UNL     1       2.551   0.428  -0.139  1.00  0.00     0.339 C 
ATOM     14  O   UNL     1       1.544  -0.153   0.248  1.00  0.00    -0.279 OA
ENDBRANCH   8  13
ENDBRANCH   4   7
ENDBRANCH   2   3
ENDBRANCH   1   2
BRANCH   1  15
ATOM     15  C   UNL     1       0.008  -0.620   6.350  1.00  0.00     0.118 C 
BRANCH  15  16
ATOM     16  N   UNL     1      -1.083   0.344   6.385  1.00  0.00    -0.352 N 
ATOM     17  C   UNL     1      -2.397   0.197   6.769  1.00  0.00     0.251 C 
ATOM     18  H   UNL     1      -0.841   1.250   6.084  1.00  0.00     0.163 HD
ATOM     19  O   UNL     1      -3.187   1.118   6.601  1.00  0.00    -0.269 OA
BRANCH  17  20
ATOM     20  C   UNL     1      -2.873  -1.081   7.346  1.00  0.00     0.039 A 
ATOM     21  C   UNL     1      -4.110  -1.588   6.938  1.00  0.00     0.014 A 
ATOM     22  C   UNL     1      -2.110  -1.785   8.277  1.00  0.00     0.014 A 
ATOM     23  C   UNL     1      -4.531  -2.840   7.392  1.00  0.00     0.010 A 
ATOM     24  C   UNL     1      -2.473  -3.079   8.635  1.00  0.00     0.010 A 
ATOM     25  C   UNL     1      -3.692  -3.621   8.202  1.00  0.00    -0.014 A 
BRANCH  25  26
ATOM     26  C   UNL     1      -4.068  -4.999   8.617  1.00  0.00     0.031 A 
ATOM     27  C   UNL     1      -4.192  -5.340  10.078  1.00  0.00     0.074 A 
ATOM     28  C   UNL     1      -4.227  -5.960   7.686  1.00  0.00     0.049 A 
ATOM     29  N   UNL     1      -4.421  -6.499  10.643  1.00  0.00    -0.248 NA
ATOM     30  C   UNL     1      -3.999  -4.237  11.034  1.00  0.00     0.031 C 
ATOM     31  C   UNL     1      -4.079  -5.774   6.242  1.00  0.00     0.029 A 
ATOM     32  N   UNL     1      -4.535  -7.292   7.817  1.00  0.00    -0.354 N 
ATOM     33  C   UNL     1      -4.384  -6.265  12.012  1.00  0.00     0.074 A 
ATOM     34  C   UNL     1      -4.043  -4.872  12.195  1.00  0.00     0.031 C 
ATOM     35  C   UNL     1      -4.324  -6.937   5.619  1.00  0.00     0.029 A 
ATOM     36  C   UNL     1      -4.599  -7.964   6.619  1.00  0.00     0.049 A 
ATOM     37  H   UNL     1      -4.695  -7.725   8.686  1.00  0.00     0.167 HD
ATOM     38  C   UNL     1      -4.641  -7.126  13.025  1.00  0.00     0.037 A 
ATOM     39  C   UNL     1      -4.842  -9.262   6.358  1.00  0.00     0.037 A 
ATOM     40  C   UNL     1      -5.005  -8.506  12.839  1.00  0.00     0.049 A 
ATOM     41  C   UNL     1      -5.115 -10.202   7.502  1.00  0.00     0.074 A 
ATOM     42  C   UNL     1      -5.339  -9.447  13.798  1.00  0.00     0.029 A 
ATOM     43  N   UNL     1      -5.081  -9.144  11.609  1.00  0.00    -0.354 N 
ATOM     44  N   UNL     1      -5.143  -9.954   8.789  1.00  0.00    -0.248 NA
ATOM     45  C   UNL     1      -5.397 -11.602   7.156  1.00  0.00     0.031 C 
ATOM     46  C   UNL     1      -5.564 -10.667  13.153  1.00  0.00     0.029 A 
ATOM     47  C   UNL     1      -5.433 -10.472  11.787  1.00  0.00     0.049 A 
ATOM     48  H   UNL     1      -4.910  -8.716  10.739  1.00  0.00     0.167 HD
ATOM     49  C   UNL     1      -5.475 -11.154   9.403  1.00  0.00     0.074 A 
ATOM     50  C   UNL     1      -5.654 -12.127   8.345  1.00  0.00     0.031 C 
ATOM     51  C   UNL     1      -5.617 -11.427  10.723  1.00  0.00     0.037 A 
BRANCH  38  52
ATOM     52  C   UNL     1      -4.546  -6.597  14.429  1.00  0.00     0.064 A 
ATOM     53  C   UNL     1      -5.464  -5.658  14.925  1.00  0.00     0.173 A 
ATOM     54  C   UNL     1      -3.548  -7.059  15.300  1.00  0.00     0.173 A 
ATOM     55  F   UNL     1      -6.431  -5.174  14.132  1.00  0.00    -0.203 F 
ATOM     56  C   UNL     1      -5.366  -5.178  16.229  1.00  0.00     0.198 A 
ATOM     57  C   UNL     1      -3.475  -6.604  16.614  1.00  0.00     0.198 A 
ATOM     58  F   UNL     1      -2.648  -7.961  14.880  1.00  0.00    -0.203 F 
ATOM     59  F   UNL     1      -6.221  -4.241  16.662  1.00  0.00    -0.200 F 
ATOM     60  C   UNL     1      -4.377  -5.658  17.074  1.00  0.00     0.200 A 
ATOM     61  F   UNL     1      -2.528  -7.080  17.434  1.00  0.00    -0.200 F 
ATOM     62  F   UNL     1      -4.290  -5.202  18.332  1.00  0.00    -0.200 F 
ENDBRANCH  38  52
BRANCH  39  63
ATOM     63  C   UNL     1      -4.857  -9.749   4.952  1.00  0.00     0.064 A 
ATOM     64  C   UNL     1      -6.048 -10.179   4.350  1.00  0.00     0.173 A 
ATOM     65  C   UNL     1      -3.684  -9.802   4.185  1.00  0.00     0.173 A 
ATOM     66  F   UNL     1      -7.193 -10.168   5.048  1.00  0.00    -0.203 F 
ATOM     67  C   UNL     1      -6.061 -10.666   3.044  1.00  0.00     0.198 A 
ATOM     68  C   UNL     1      -3.703 -10.259   2.868  1.00  0.00     0.198 A 
ATOM     69  F   UNL     1      -2.518  -9.398   4.711  1.00  0.00    -0.203 F 
ATOM     70  F   UNL     1      -7.204 -11.119   2.512  1.00  0.00    -0.200 F 
ATOM     71  C   UNL     1      -4.890 -10.699   2.302  1.00  0.00     0.200 A 
ATOM     72  F   UNL     1      -2.572 -10.275   2.150  1.00  0.00    -0.200 F 
ATOM     73  F   UNL     1      -4.903 -11.165   1.046  1.00  0.00    -0.200 F 
ENDBRANCH  39  63
BRANCH  51  74
ATOM     74  C   UNL     1      -6.025 -12.822  11.101  1.00  0.00     0.064 A 
ATOM     75  C   UNL     1      -5.152 -13.911  10.962  1.00  0.00     0.173 A 
ATOM     76  C   UNL     1      -7.295 -13.064  11.649  1.00  0.00     0.173 A 
ATOM     77  F   UNL     1      -3.933 -13.736  10.431  1.00  0.00    -0.203 F 
ATOM     78  C   UNL     1      -5.545 -15.195  11.332  1.00  0.00     0.198 A 
ATOM     79  C   UNL     1      -7.671 -14.342  12.050  1.00  0.00     0.198 A 
ATOM     80  F   UNL     1      -8.165 -12.056  11.811  1.00  0.00    -0.203 F 
ATOM     81  F   UNL     1      -4.714 -16.229  11.142  1.00  0.00    -0.200 F 
ATOM     82  C   UNL     1      -6.800 -15.408  11.883  1.00  0.00     0.200 A 
ATOM     83  F   UNL     1      -8.878 -14.543  12.598  1.00  0.00    -0.200 F 
ATOM     84  F   UNL     1      -7.173 -16.642  12.248  1.00  0.00    -0.200 F 
ENDBRANCH  51  74
ENDBRANCH  25  26
ENDBRANCH  17  20
ENDBRANCH  15  16
ENDBRANCH   1  15
TORSDOF 11
