REMARK SMILES CC1(C)S[C@@H]2c3ccccc3C(=O)N2[C@H]1C(=O)N[C@H](Cc1c[nH]c2ccccc12)C(=O)NCCCNC(=O)c1ccc(-c2c3nc(c(-c4c(F)c(F)c(F)c(F)c4F)c4ccc([nH]4)c(-c4c(F)c(F)c(F)c(F)c4F)c4nc(c(-c5c(F)c(F)c(F)c(F)c5F)c5ccc2[nH]5)C=C4)C=C3)cc1
REMARK SMILES IDX 34 1 33 2 32 3 30 4 31 5 19 7 18 8 16 9 17 10 15 12 1 13
REMARK SMILES IDX 2 14 3 15 4 16 5 17 14 18 6 19 12 20 7 21 11 22 13 23 8 24
REMARK SMILES IDX 10 25 9 26 20 27 21 28 22 29 29 30 23 31 24 32 28 33 25 35
REMARK SMILES IDX 27 36 26 37 35 38 36 39 37 40 38 42 39 43 40 44 101 45 41 46
REMARK SMILES IDX 100 47 42 48 43 49 44 50 94 51 45 52 99 53 93 54 95 55 46 56
REMARK SMILES IDX 98 57 92 58 91 59 47 61 79 62 59 63 78 64 60 65 63 66 77 67
REMARK SMILES IDX 96 68 61 69 62 70 76 72 97 73 64 74 48 75 49 76 57 77 50 78
REMARK SMILES IDX 51 79 55 80 58 81 52 82 53 83 56 84 54 85 80 86 81 87 89 88
REMARK SMILES IDX 82 89 83 90 87 91 90 92 84 93 85 94 88 95 86 96 65 97 66 98
REMARK SMILES IDX 74 99 67 100 68 101 72 102 75 103 69 104 70 105 73 106
REMARK SMILES IDX 71 107
REMARK H PARENT 32 6 18 11 23 34 36 41 95 60 63 71
REMARK Flexibility Score: inf
ROOT
ATOM      1  C   UNL     1       8.009  -1.109   3.840  1.00  0.00     0.042 C 
ENDROOT
BRANCH   1   2
ATOM      2  C   UNL     1       6.949  -1.990   3.128  1.00  0.00     0.117 C 
BRANCH   2   3
ATOM      3  N   UNL     1       5.630  -1.040   2.723  1.00  0.00    -0.354 N 
ATOM      4  C   UNL     1       3.842  -0.734   2.020  1.00  0.00     0.242 C 
ATOM      5  O   UNL     1       3.212   0.343   2.098  1.00  0.00    -0.273 OA
ATOM      6  H   UNL     1       5.919  -0.137   2.988  1.00  0.00     0.163 HD
BRANCH   4   7
ATOM      7  C   UNL     1       2.642  -1.922   1.490  1.00  0.00     0.175 C 
BRANCH   7   8
ATOM      8  N   UNL     1       3.031  -2.744   0.395  1.00  0.00    -0.342 N 
ATOM      9  C   UNL     1       4.325  -3.086   0.370  1.00  0.00     0.244 C 
ATOM     10  O   UNL     1       4.842  -3.703  -0.549  1.00  0.00    -0.273 OA
ATOM     11  H   UNL     1       2.394  -3.040  -0.295  1.00  0.00     0.164 HD
BRANCH   9  12
ATOM     12  C   UNL     1       5.068  -2.378   1.462  1.00  0.00     0.191 C 
ATOM     13  C   UNL     1       4.819   0.052  -0.339  1.00  0.00     0.026 C 
ATOM     14  C   UNL     1       5.624  -0.509   0.863  1.00  0.00     0.042 C 
ATOM     15  C   UNL     1       7.098  -0.470   0.395  1.00  0.00     0.026 C 
ATOM     16  S   UNL     1       5.377   1.065   2.679  1.00  0.00    -0.123 SA
ATOM     17  C   UNL     1       4.267  -0.559   4.085  1.00  0.00     0.176 C 
ATOM     18  N   UNL     1       4.278  -2.278   3.254  1.00  0.00    -0.309 N 
ATOM     19  C   UNL     1       4.888  -0.975   5.384  1.00  0.00    -0.002 A 
ATOM     20  C   UNL     1       4.460  -3.182   4.280  1.00  0.00     0.256 C 
ATOM     21  C   UNL     1       5.317  -0.172   6.428  1.00  0.00     0.007 A 
ATOM     22  C   UNL     1       4.837  -2.396   5.528  1.00  0.00     0.046 A 
ATOM     23  O   UNL     1       4.538  -4.394   4.181  1.00  0.00    -0.269 OA
ATOM     24  C   UNL     1       5.765  -0.794   7.598  1.00  0.00     0.000 A 
ATOM     25  C   UNL     1       5.297  -3.006   6.688  1.00  0.00     0.014 A 
ATOM     26  C   UNL     1       5.763  -2.195   7.725  1.00  0.00     0.001 A 
ENDBRANCH   9  12
ENDBRANCH   7   8
BRANCH   7  27
ATOM     27  C   UNL     1       1.271  -1.230   1.134  1.00  0.00     0.072 C 
BRANCH  27  28
ATOM     28  C   UNL     1       1.178  -0.581  -0.230  1.00  0.00    -0.020 A 
ATOM     29  C   UNL     1       1.577   0.702  -0.554  1.00  0.00     0.087 A 
ATOM     30  C   UNL     1       0.601  -1.128  -1.430  1.00  0.00     0.003 A 
ATOM     31  N   UNL     1       1.429   0.885  -1.901  1.00  0.00    -0.361 N 
ATOM     32  C   UNL     1       0.806  -0.205  -2.458  1.00  0.00     0.046 A 
ATOM     33  C   UNL     1      -0.082  -2.323  -1.743  1.00  0.00     0.010 A 
ATOM     34  H   UNL     1       1.725   1.681  -2.399  1.00  0.00     0.166 HD
ATOM     35  C   UNL     1       0.404  -0.429  -3.781  1.00  0.00     0.026 A 
ATOM     36  C   UNL     1      -0.524  -2.547  -3.055  1.00  0.00     0.001 A 
ATOM     37  C   UNL     1      -0.274  -1.617  -4.060  1.00  0.00     0.002 A 
ENDBRANCH  27  28
ENDBRANCH   7  27
ENDBRANCH   4   7
ENDBRANCH   2   3
ENDBRANCH   1   2
BRANCH   1  38
ATOM     38  C   UNL     1       9.185  -1.913   4.384  1.00  0.00     0.118 C 
BRANCH  38  39
ATOM     39  N   UNL     1       9.987  -2.559   3.359  1.00  0.00    -0.352 N 
ATOM     40  C   UNL     1      10.990  -2.181   2.504  1.00  0.00     0.251 C 
ATOM     41  H   UNL     1       9.751  -3.509   3.252  1.00  0.00     0.163 HD
ATOM     42  O   UNL     1      11.416  -3.060   1.750  1.00  0.00    -0.269 OA
BRANCH  40  43
ATOM     43  C   UNL     1      11.576  -0.812   2.389  1.00  0.00     0.039 A 
ATOM     44  C   UNL     1      11.489   0.183   3.356  1.00  0.00     0.014 A 
ATOM     45  C   UNL     1      12.326  -0.532   1.228  1.00  0.00     0.014 A 
ATOM     46  C   UNL     1      12.057   1.446   3.136  1.00  0.00     0.010 A 
ATOM     47  C   UNL     1      12.956   0.709   1.038  1.00  0.00     0.010 A 
ATOM     48  C   UNL     1      12.808   1.727   1.983  1.00  0.00    -0.014 A 
BRANCH  48  49
ATOM     49  C   UNL     1      13.414   3.080   1.804  1.00  0.00     0.031 A 
ATOM     50  C   UNL     1      13.014   3.968   0.654  1.00  0.00     0.074 A 
ATOM     51  C   UNL     1      14.276   3.552   2.729  1.00  0.00     0.049 A 
ATOM     52  N   UNL     1      13.425   5.179   0.363  1.00  0.00    -0.248 NA
ATOM     53  C   UNL     1      12.036   3.428  -0.301  1.00  0.00     0.031 C 
ATOM     54  C   UNL     1      14.761   2.799   3.886  1.00  0.00     0.029 A 
ATOM     55  N   UNL     1      14.852   4.791   2.879  1.00  0.00    -0.354 N 
ATOM     56  C   UNL     1      12.795   5.523  -0.826  1.00  0.00     0.074 A 
ATOM     57  C   UNL     1      11.973   4.394  -1.208  1.00  0.00     0.031 C 
ATOM     58  C   UNL     1      15.461   3.619   4.684  1.00  0.00     0.029 A 
ATOM     59  C   UNL     1      15.540   4.937   4.061  1.00  0.00     0.049 A 
ATOM     60  H   UNL     1      14.780   5.505   2.205  1.00  0.00     0.167 HD
ATOM     61  C   UNL     1      12.889   6.674  -1.534  1.00  0.00     0.037 A 
ATOM     62  C   UNL     1      16.159   6.010   4.590  1.00  0.00     0.037 A 
ATOM     63  C   UNL     1      13.657   7.823  -1.131  1.00  0.00     0.049 A 
ATOM     64  C   UNL     1      16.213   7.290   3.808  1.00  0.00     0.074 A 
ATOM     65  C   UNL     1      13.811   9.034  -1.786  1.00  0.00     0.029 A 
ATOM     66  N   UNL     1      14.382   7.912   0.047  1.00  0.00    -0.354 N 
ATOM     67  N   UNL     1      15.660   7.575   2.656  1.00  0.00    -0.248 NA
ATOM     68  C   UNL     1      17.009   8.386   4.382  1.00  0.00     0.031 C 
ATOM     69  C   UNL     1      14.643   9.850  -1.011  1.00  0.00     0.029 A 
ATOM     70  C   UNL     1      14.985   9.157   0.138  1.00  0.00     0.049 A 
ATOM     71  H   UNL     1      14.457   7.198   0.720  1.00  0.00     0.167 HD
ATOM     72  C   UNL     1      16.060   8.868   2.352  1.00  0.00     0.074 A 
ATOM     73  C   UNL     1      16.866   9.331   3.463  1.00  0.00     0.031 C 
ATOM     74  C   UNL     1      15.800   9.595   1.240  1.00  0.00     0.037 A 
BRANCH  61  75
ATOM     75  C   UNL     1      12.153   6.751  -2.839  1.00  0.00     0.064 A 
ATOM     76  C   UNL     1      10.765   6.937  -2.893  1.00  0.00     0.173 A 
ATOM     77  C   UNL     1      12.857   6.693  -4.052  1.00  0.00     0.173 A 
ATOM     78  F   UNL     1      10.047   6.987  -1.760  1.00  0.00    -0.203 F 
ATOM     79  C   UNL     1      10.104   7.046  -4.114  1.00  0.00     0.198 A 
ATOM     80  C   UNL     1      12.196   6.824  -5.271  1.00  0.00     0.198 A 
ATOM     81  F   UNL     1      14.187   6.523  -4.054  1.00  0.00    -0.203 F 
ATOM     82  F   UNL     1       8.773   7.192  -4.144  1.00  0.00    -0.200 F 
ATOM     83  C   UNL     1      10.821   6.997  -5.301  1.00  0.00     0.200 A 
ATOM     84  F   UNL     1      12.891   6.786  -6.417  1.00  0.00    -0.200 F 
ATOM     85  F   UNL     1      10.184   7.111  -6.475  1.00  0.00    -0.200 F 
ENDBRANCH  61  75
BRANCH  62  86
ATOM     86  C   UNL     1      16.768   5.914   5.942  1.00  0.00     0.064 A 
ATOM     87  C   UNL     1      16.186   6.570   7.036  1.00  0.00     0.173 A 
ATOM     88  C   UNL     1      17.911   5.138   6.178  1.00  0.00     0.173 A 
ATOM     89  F   UNL     1      15.106   7.345   6.855  1.00  0.00    -0.203 F 
ATOM     90  C   UNL     1      16.720   6.445   8.317  1.00  0.00     0.198 A 
ATOM     91  C   UNL     1      18.429   4.993   7.463  1.00  0.00     0.198 A 
ATOM     92  F   UNL     1      18.505   4.493   5.164  1.00  0.00    -0.203 F 
ATOM     93  F   UNL     1      16.155   7.095   9.343  1.00  0.00    -0.200 F 
ATOM     94  C   UNL     1      17.834   5.647   8.531  1.00  0.00     0.200 A 
ATOM     95  F   UNL     1      19.496   4.209   7.668  1.00  0.00    -0.200 F 
ATOM     96  F   UNL     1      18.333   5.508   9.767  1.00  0.00    -0.200 F 
ENDBRANCH  62  86
BRANCH  74  97
ATOM     97  C   UNL     1      16.420  10.955   1.153  1.00  0.00     0.064 A 
ATOM     98  C   UNL     1      17.774  11.110   0.824  1.00  0.00     0.173 A 
ATOM     99  C   UNL     1      15.650  12.110   1.347  1.00  0.00     0.173 A 
ATOM    100  F   UNL     1      18.551  10.031   0.642  1.00  0.00    -0.203 F 
ATOM    101  C   UNL     1      18.340  12.375   0.705  1.00  0.00     0.198 A 
ATOM    102  C   UNL     1      16.215  13.375   1.211  1.00  0.00     0.198 A 
ATOM    103  F   UNL     1      14.349  12.011   1.661  1.00  0.00    -0.203 F 
ATOM    104  F   UNL     1      19.642  12.501   0.416  1.00  0.00    -0.200 F 
ATOM    105  C   UNL     1      17.559  13.506   0.892  1.00  0.00     0.200 A 
ATOM    106  F   UNL     1      15.460  14.468   1.387  1.00  0.00    -0.200 F 
ATOM    107  F   UNL     1      18.104  14.725   0.772  1.00  0.00    -0.200 F 
ENDBRANCH  74  97
ENDBRANCH  48  49
ENDBRANCH  40  43
ENDBRANCH  38  39
ENDBRANCH   1  38
TORSDOF 14
