REMARK SMILES Cc1ccc(NC(=O)C[C@H]([NH2+]Cc2cccnc2)C(=O)NCCCNC(=O)c2ccc(-c3c4nc(c(-c5c(F)c(F)c(F)c(F)c5F)c5ccc([nH]5)c(-c5c(F)c(F)c(F)c(F)c5F)c5nc(c(-c6c(F)c(F)c(F)c(F)c6F)c6ccc3[nH]6)C=C5)C=C4)cc2)cc1Cl
REMARK SMILES IDX 22 1 21 2 19 3 20 4 10 6 9 7 7 8 6 9 8 11 5 12 1 13 2 14
REMARK SMILES IDX 3 15 92 16 4 17 91 18 93 19 11 20 12 23 13 24 14 25 18 26
REMARK SMILES IDX 15 27 17 28 16 29 23 30 24 31 25 32 26 33 27 35 28 36 29 37
REMARK SMILES IDX 90 38 30 39 89 40 31 41 32 42 33 43 83 44 34 45 88 46 82 47
REMARK SMILES IDX 84 48 35 49 87 50 81 51 80 52 36 54 68 55 48 56 67 57 49 58
REMARK SMILES IDX 52 59 66 60 85 61 50 62 51 63 65 65 86 66 53 67 37 68 38 69
REMARK SMILES IDX 46 70 39 71 40 72 44 73 47 74 41 75 42 76 45 77 43 78 69 79
REMARK SMILES IDX 70 80 78 81 71 82 72 83 76 84 79 85 73 86 74 87 77 88 75 89
REMARK SMILES IDX 54 90 55 91 63 92 56 93 57 94 61 95 64 96 58 97 59 98 62 99
REMARK SMILES IDX 60 100
REMARK H PARENT 21 5 6 10 11 21 11 22 25 34 84 53 52 64
REMARK Flexibility Score: inf
ROOT
ATOM      1  C   UNL     1       2.608  -1.940  -0.008  1.00  0.00     0.118 C 
ENDROOT
BRANCH   1   2
ATOM      2  N   UNL     1       2.180  -2.936  -0.999  1.00  0.00    -0.351 N 
ATOM      3  C   UNL     1       1.019  -3.331  -1.586  1.00  0.00     0.278 C 
ATOM      4  O   UNL     1       1.139  -4.285  -2.373  1.00  0.00    -0.268 OA
ATOM      5  H   UNL     1       2.944  -3.462  -1.329  1.00  0.00     0.163 HD
BRANCH   3   6
ATOM      6  C   UNL     1      -0.424  -2.772  -1.335  1.00  0.00     0.282 C 
BRANCH   6   7
ATOM      7  C   UNL     1      -0.525  -1.378  -0.762  1.00  0.00     0.175 C 
BRANCH   7   8
ATOM      8  C   UNL     1      -0.682  -0.915   0.678  1.00  0.00     0.230 C 
ATOM      9  N   UNL     1      -0.615  -1.534   1.870  1.00  0.00    -0.326 N 
ATOM     10  H   UNL     1      -0.808  -0.886   2.586  1.00  0.00     0.169 HD
ATOM     11  O   UNL     1      -0.919   0.307   0.797  1.00  0.00    -0.274 OA
BRANCH   9  12
ATOM     12  C   UNL     1      -0.362  -2.793   2.436  1.00  0.00     0.042 A 
ATOM     13  C   UNL     1       0.243  -6.590   4.465  1.00  0.00     0.046 C 
ATOM     14  C   UNL     1       0.071  -5.274   3.769  1.00  0.00    -0.032 A 
ATOM     15  C   UNL     1      -0.331  -4.137   4.478  1.00  0.00     0.007 A 
ATOM     16  C   UNL     1       0.273  -5.147   2.398  1.00  0.00     0.046 A 
ATOM     17  C   UNL     1      -0.544  -2.917   3.818  1.00  0.00     0.026 A 
ATOM     18  C   UNL     1       0.083  -3.914   1.767  1.00  0.00     0.047 A 
ATOM     19  Cl  UNL     1       0.786  -6.477   1.418  1.00  0.00    -0.084 Cl
ENDBRANCH   9  12
ENDBRANCH   7   8
ENDBRANCH   6   7
BRANCH   6  20
ATOM     20  N   UNL     1      -1.278  -3.842  -0.789  1.00  0.00    -0.332 N 
ATOM     21  H   UNL     1      -0.884  -4.109   0.114  1.00  0.00     0.347 HD
ATOM     22  H   UNL     1      -1.271  -4.557  -1.516  1.00  0.00     0.347 HD
BRANCH  20  23
ATOM     23  C   UNL     1      -2.694  -3.573  -0.575  1.00  0.00     0.299 C 
BRANCH  23  24
ATOM     24  C   UNL     1      -3.163  -4.218   0.710  1.00  0.00     0.024 A 
ATOM     25  C   UNL     1      -3.106  -5.602   0.915  1.00  0.00     0.013 A 
ATOM     26  C   UNL     1      -3.614  -3.445   1.778  1.00  0.00     0.120 A 
ATOM     27  C   UNL     1      -3.459  -6.137   2.152  1.00  0.00     0.021 A 
ATOM     28  N   UNL     1      -3.973  -3.936   2.989  1.00  0.00    -0.264 NA
ATOM     29  C   UNL     1      -3.874  -5.271   3.150  1.00  0.00     0.111 A 
ENDBRANCH  23  24
ENDBRANCH  20  23
ENDBRANCH   6  20
ENDBRANCH   3   6
ENDBRANCH   1   2
BRANCH   1  30
ATOM     30  C   UNL     1       2.848  -2.559   1.371  1.00  0.00     0.042 C 
BRANCH  30  31
ATOM     31  C   UNL     1       4.272  -2.545   1.906  1.00  0.00     0.118 C 
BRANCH  31  32
ATOM     32  N   UNL     1       4.670  -1.259   2.451  1.00  0.00    -0.352 N 
ATOM     33  C   UNL     1       5.016  -0.852   3.716  1.00  0.00     0.251 C 
ATOM     34  H   UNL     1       4.698  -0.538   1.782  1.00  0.00     0.163 HD
ATOM     35  O   UNL     1       5.183   0.362   3.889  1.00  0.00    -0.269 OA
BRANCH  33  36
ATOM     36  C   UNL     1       5.189  -1.764   4.883  1.00  0.00     0.039 A 
ATOM     37  C   UNL     1       5.034  -1.216   6.167  1.00  0.00     0.014 A 
ATOM     38  C   UNL     1       5.588  -3.099   4.786  1.00  0.00     0.014 A 
ATOM     39  C   UNL     1       5.253  -1.988   7.316  1.00  0.00     0.010 A 
ATOM     40  C   UNL     1       5.706  -3.900   5.931  1.00  0.00     0.010 A 
ATOM     41  C   UNL     1       5.573  -3.350   7.213  1.00  0.00    -0.014 A 
BRANCH  41  42
ATOM     42  C   UNL     1       5.820  -4.177   8.431  1.00  0.00     0.031 A 
ATOM     43  C   UNL     1       7.167  -4.816   8.668  1.00  0.00     0.074 A 
ATOM     44  C   UNL     1       4.830  -4.375   9.325  1.00  0.00     0.049 A 
ATOM     45  N   UNL     1       7.567  -5.569   9.665  1.00  0.00    -0.248 NA
ATOM     46  C   UNL     1       8.194  -4.608   7.636  1.00  0.00     0.031 C 
ATOM     47  C   UNL     1       3.464  -3.868   9.199  1.00  0.00     0.029 A 
ATOM     48  N   UNL     1       4.822  -5.056  10.519  1.00  0.00    -0.354 N 
ATOM     49  C   UNL     1       8.875  -5.936   9.368  1.00  0.00     0.074 A 
ATOM     50  C   UNL     1       9.183  -5.373   8.072  1.00  0.00     0.031 C 
ATOM     51  C   UNL     1       2.761  -4.219  10.288  1.00  0.00     0.029 A 
ATOM     52  C   UNL     1       3.616  -5.002  11.176  1.00  0.00     0.049 A 
ATOM     53  H   UNL     1       5.606  -5.536  10.871  1.00  0.00     0.167 HD
ATOM     54  C   UNL     1       9.753  -6.651  10.114  1.00  0.00     0.037 A 
ATOM     55  C   UNL     1       3.241  -5.517  12.364  1.00  0.00     0.037 A 
ATOM     56  C   UNL     1       9.466  -7.180  11.423  1.00  0.00     0.049 A 
ATOM     57  C   UNL     1       4.245  -6.273  13.192  1.00  0.00     0.074 A 
ATOM     58  C   UNL     1      10.308  -7.867  12.282  1.00  0.00     0.029 A 
ATOM     59  N   UNL     1       8.242  -7.073  12.066  1.00  0.00    -0.354 N 
ATOM     60  N   UNL     1       5.497  -6.553  12.926  1.00  0.00    -0.248 NA
ATOM     61  C   UNL     1       3.784  -6.769  14.497  1.00  0.00     0.031 C 
ATOM     62  C   UNL     1       9.582  -8.209  13.428  1.00  0.00     0.029 A 
ATOM     63  C   UNL     1       8.303  -7.692  13.306  1.00  0.00     0.049 A 
ATOM     64  H   UNL     1       7.448  -6.625  11.697  1.00  0.00     0.167 HD
ATOM     65  C   UNL     1       5.981  -7.231  14.037  1.00  0.00     0.074 A 
ATOM     66  C   UNL     1       4.893  -7.302  14.990  1.00  0.00     0.031 C 
ATOM     67  C   UNL     1       7.216  -7.750  14.248  1.00  0.00     0.037 A 
BRANCH  54  68
ATOM     68  C   UNL     1      11.119  -6.896   9.537  1.00  0.00     0.064 A 
ATOM     69  C   UNL     1      12.051  -5.858   9.384  1.00  0.00     0.173 A 
ATOM     70  C   UNL     1      11.515  -8.190   9.164  1.00  0.00     0.173 A 
ATOM     71  F   UNL     1      11.721  -4.600   9.716  1.00  0.00    -0.203 F 
ATOM     72  C   UNL     1      13.314  -6.099   8.849  1.00  0.00     0.198 A 
ATOM     73  C   UNL     1      12.791  -8.433   8.659  1.00  0.00     0.198 A 
ATOM     74  F   UNL     1      10.669  -9.222   9.296  1.00  0.00    -0.203 F 
ATOM     75  F   UNL     1      14.167  -5.081   8.663  1.00  0.00    -0.200 F 
ATOM     76  C   UNL     1      13.685  -7.386   8.493  1.00  0.00     0.200 A 
ATOM     77  F   UNL     1      13.153  -9.680   8.329  1.00  0.00    -0.200 F 
ATOM     78  F   UNL     1      14.903  -7.618   7.984  1.00  0.00    -0.200 F 
ENDBRANCH  54  68
BRANCH  55  79
ATOM     79  C   UNL     1       1.860  -5.292  12.867  1.00  0.00     0.064 A 
ATOM     80  C   UNL     1       1.622  -4.449  13.962  1.00  0.00     0.173 A 
ATOM     81  C   UNL     1       0.755  -5.917  12.273  1.00  0.00     0.173 A 
ATOM     82  F   UNL     1       2.650  -3.846  14.578  1.00  0.00    -0.203 F 
ATOM     83  C   UNL     1       0.334  -4.257  14.457  1.00  0.00     0.198 A 
ATOM     84  C   UNL     1      -0.536  -5.701  12.751  1.00  0.00     0.198 A 
ATOM     85  F   UNL     1       0.928  -6.729  11.219  1.00  0.00    -0.203 F 
ATOM     86  F   UNL     1       0.142  -3.484  15.535  1.00  0.00    -0.200 F 
ATOM     87  C   UNL     1      -0.745  -4.878  13.848  1.00  0.00     0.200 A 
ATOM     88  F   UNL     1      -1.578  -6.292  12.150  1.00  0.00    -0.200 F 
ATOM     89  F   UNL     1      -1.984  -4.691  14.321  1.00  0.00    -0.200 F 
ENDBRANCH  55  79
BRANCH  67  90
ATOM     90  C   UNL     1       7.466  -8.405  15.576  1.00  0.00     0.064 A 
ATOM     91  C   UNL     1       6.880  -9.634  15.915  1.00  0.00     0.173 A 
ATOM     92  C   UNL     1       8.312  -7.799  16.518  1.00  0.00     0.173 A 
ATOM     93  F   UNL     1       6.053 -10.247  15.055  1.00  0.00    -0.203 F 
ATOM     94  C   UNL     1       7.102 -10.213  17.162  1.00  0.00     0.198 A 
ATOM     95  C   UNL     1       8.556  -8.397  17.752  1.00  0.00     0.198 A 
ATOM     96  F   UNL     1       8.904  -6.628  16.241  1.00  0.00    -0.203 F 
ATOM     97  F   UNL     1       6.484 -11.358  17.486  1.00  0.00    -0.200 F 
ATOM     98  C   UNL     1       7.942  -9.597  18.077  1.00  0.00     0.200 A 
ATOM     99  F   UNL     1       9.378  -7.806  18.630  1.00  0.00    -0.200 F 
ATOM    100  F   UNL     1       8.152 -10.155  19.277  1.00  0.00    -0.200 F 
ENDBRANCH  67  90
ENDBRANCH  41  42
ENDBRANCH  33  36
ENDBRANCH  31  32
ENDBRANCH  30  31
ENDBRANCH   1  30
TORSDOF 16
