REMARK SMILES CC[C@H](C(=O)NCCCNC(=O)c1ccc(-c2c3nc(c(-c4c(F)c(F)c(F)c(F)c4F)c4ccc([nH]4)c(-c4c(F)c(F)c(F)c(F)c4F)c4nc(c(-c5c(F)c(F)c(F)c(F)c5F)c5ccc2[nH]5)C=C4)C=C3)cc1)N1C(=O)/C(=C\c2cccs2)SC1=S
REMARK SMILES IDX 8 1 7 2 6 3 4 4 5 5 3 7 2 8 1 9 76 10 77 11 87 12 78 13
REMARK SMILES IDX 79 14 86 15 88 16 80 17 81 18 82 19 85 20 83 21 84 22 9 23
REMARK SMILES IDX 10 24 11 25 12 27 13 28 14 29 75 30 15 31 74 32 16 33 17 34
REMARK SMILES IDX 18 35 68 36 19 37 73 38 67 39 69 40 20 41 72 42 66 43 65 44
REMARK SMILES IDX 21 46 53 47 33 48 52 49 34 50 37 51 51 52 70 53 35 54 36 55
REMARK SMILES IDX 50 57 71 58 38 59 22 60 23 61 31 62 24 63 25 64 29 65 32 66
REMARK SMILES IDX 26 67 27 68 30 69 28 70 54 71 55 72 63 73 56 74 57 75 61 76
REMARK SMILES IDX 64 77 58 78 59 79 62 80 60 81 39 82 40 83 48 84 41 85 42 86
REMARK SMILES IDX 46 87 49 88 43 89 44 90 47 91 45 92
REMARK H PARENT 6 6 10 26 69 45 37 56
REMARK Flexibility Score: inf
ROOT
ATOM      1  C   UNL     1      -2.757  -2.295   0.761  1.00  0.00     0.042 C 
ENDROOT
BRANCH   1   2
ATOM      2  C   UNL     1      -1.833  -2.613  -0.404  1.00  0.00     0.117 C 
BRANCH   2   3
ATOM      3  N   UNL     1      -0.989  -1.477  -0.734  1.00  0.00    -0.354 N 
ATOM      4  C   UNL     1       0.368  -1.337  -0.700  1.00  0.00     0.243 C 
ATOM      5  O   UNL     1       0.822  -0.198  -0.837  1.00  0.00    -0.273 OA
ATOM      6  H   UNL     1      -1.478  -0.675  -1.030  1.00  0.00     0.163 HD
BRANCH   4   7
ATOM      7  C   UNL     1       1.290  -2.522  -0.344  1.00  0.00     0.181 C 
BRANCH   7   8
ATOM      8  C   UNL     1       1.158  -2.659   1.209  1.00  0.00     0.032 C 
ATOM      9  C   UNL     1       1.995  -1.634   1.965  1.00  0.00     0.006 C 
ENDBRANCH   7   8
BRANCH   7  10
ATOM     10  N   UNL     1       0.953  -3.759  -1.110  1.00  0.00    -0.280 N 
ATOM     11  C   UNL     1       1.418  -4.975  -0.644  1.00  0.00     0.266 C 
ATOM     12  C   UNL     1       0.633  -3.817  -2.455  1.00  0.00     0.149 C 
ATOM     13  O   UNL     1       2.279  -5.118   0.212  1.00  0.00    -0.268 OA
ATOM     14  C   UNL     1       0.855  -6.101  -1.440  1.00  0.00     0.081 C 
ATOM     15  S   UNL     1       0.166  -5.468  -2.879  1.00  0.00    -0.054 SA
ATOM     16  S   UNL     1       0.623  -2.619  -3.615  1.00  0.00    -0.052 S 
ATOM     17  C   UNL     1       0.896  -7.408  -1.145  1.00  0.00     0.040 C 
BRANCH  17  18
ATOM     18  C   UNL     1       1.521  -7.887   0.036  1.00  0.00     0.028 A 
ATOM     19  C   UNL     1       1.110  -7.785   1.353  1.00  0.00     0.020 A 
ATOM     20  S   UNL     1       3.040  -8.683  -0.074  1.00  0.00    -0.144 S 
ATOM     21  C   UNL     1       2.093  -8.259   2.271  1.00  0.00     0.012 A 
ATOM     22  C   UNL     1       3.204  -8.750   1.625  1.00  0.00     0.065 A 
ENDBRANCH  17  18
ENDBRANCH   7  10
ENDBRANCH   4   7
ENDBRANCH   2   3
ENDBRANCH   1   2
BRANCH   1  23
ATOM     23  C   UNL     1      -3.781  -1.221   0.432  1.00  0.00     0.118 C 
BRANCH  23  24
ATOM     24  N   UNL     1      -4.743  -1.666  -0.567  1.00  0.00    -0.352 N 
ATOM     25  C   UNL     1      -6.094  -1.873  -0.441  1.00  0.00     0.251 C 
ATOM     26  H   UNL     1      -4.371  -1.844  -1.461  1.00  0.00     0.163 HD
ATOM     27  O   UNL     1      -6.713  -2.473  -1.315  1.00  0.00    -0.269 OA
BRANCH  25  28
ATOM     28  C   UNL     1      -6.796  -1.386   0.763  1.00  0.00     0.039 A 
ATOM     29  C   UNL     1      -7.740  -2.205   1.384  1.00  0.00     0.014 A 
ATOM     30  C   UNL     1      -6.510  -0.120   1.281  1.00  0.00     0.014 A 
ATOM     31  C   UNL     1      -8.350  -1.779   2.564  1.00  0.00     0.010 A 
ATOM     32  C   UNL     1      -7.036   0.257   2.508  1.00  0.00     0.010 A 
ATOM     33  C   UNL     1      -7.975  -0.560   3.154  1.00  0.00    -0.014 A 
BRANCH  33  34
ATOM     34  C   UNL     1      -8.571  -0.099   4.431  1.00  0.00     0.031 A 
ATOM     35  C   UNL     1      -9.357   1.182   4.467  1.00  0.00     0.074 A 
ATOM     36  C   UNL     1      -8.335  -0.784   5.565  1.00  0.00     0.049 A 
ATOM     37  N   UNL     1      -9.878   1.807   5.492  1.00  0.00    -0.248 NA
ATOM     38  C   UNL     1      -9.547   1.877   3.183  1.00  0.00     0.031 C 
ATOM     39  C   UNL     1      -7.532  -2.004   5.666  1.00  0.00     0.029 A 
ATOM     40  N   UNL     1      -8.736  -0.543   6.855  1.00  0.00    -0.354 N 
ATOM     41  C   UNL     1     -10.429   2.974   4.980  1.00  0.00     0.074 A 
ATOM     42  C   UNL     1     -10.125   3.004   3.567  1.00  0.00     0.031 C 
ATOM     43  C   UNL     1      -7.522  -2.420   6.942  1.00  0.00     0.029 A 
ATOM     44  C   UNL     1      -8.285  -1.477   7.755  1.00  0.00     0.049 A 
ATOM     45  H   UNL     1      -9.294   0.226   7.111  1.00  0.00     0.167 HD
ATOM     46  C   UNL     1     -11.149   3.923   5.625  1.00  0.00     0.037 A 
ATOM     47  C   UNL     1      -8.464  -1.559   9.086  1.00  0.00     0.037 A 
ATOM     48  C   UNL     1     -11.483   3.864   7.023  1.00  0.00     0.049 A 
ATOM     49  C   UNL     1      -9.292  -0.510   9.777  1.00  0.00     0.074 A 
ATOM     50  C   UNL     1     -12.273   4.728   7.759  1.00  0.00     0.029 A 
ATOM     51  N   UNL     1     -11.041   2.881   7.896  1.00  0.00    -0.354 N 
ATOM     52  N   UNL     1      -9.875   0.549   9.270  1.00  0.00    -0.248 NA
ATOM     53  C   UNL     1      -9.494  -0.672  11.223  1.00  0.00     0.031 C 
ATOM     54  C   UNL     1     -12.274   4.291   9.088  1.00  0.00     0.029 A 
ATOM     55  C   UNL     1     -11.526   3.127   9.170  1.00  0.00     0.049 A 
ATOM     56  H   UNL     1     -10.468   2.120   7.647  1.00  0.00     0.167 HD
ATOM     57  C   UNL     1     -10.533   1.166  10.326  1.00  0.00     0.074 A 
ATOM     58  C   UNL     1     -10.288   0.353  11.500  1.00  0.00     0.031 C 
ATOM     59  C   UNL     1     -11.273   2.302  10.324  1.00  0.00     0.037 A 
BRANCH  46  60
ATOM     60  C   UNL     1     -11.625   5.097   4.818  1.00  0.00     0.064 A 
ATOM     61  C   UNL     1     -12.601   4.960   3.818  1.00  0.00     0.173 A 
ATOM     62  C   UNL     1     -11.105   6.379   5.053  1.00  0.00     0.173 A 
ATOM     63  F   UNL     1     -13.121   3.754   3.544  1.00  0.00    -0.203 F 
ATOM     64  C   UNL     1     -13.007   6.052   3.057  1.00  0.00     0.198 A 
ATOM     65  C   UNL     1     -11.540   7.476   4.312  1.00  0.00     0.198 A 
ATOM     66  F   UNL     1     -10.174   6.569   6.000  1.00  0.00    -0.203 F 
ATOM     67  F   UNL     1     -13.893   5.883   2.065  1.00  0.00    -0.200 F 
ATOM     68  C   UNL     1     -12.481   7.310   3.308  1.00  0.00     0.200 A 
ATOM     69  F   UNL     1     -11.039   8.693   4.565  1.00  0.00    -0.200 F 
ATOM     70  F   UNL     1     -12.874   8.361   2.575  1.00  0.00    -0.200 F 
ENDBRANCH  46  60
BRANCH  47  71
ATOM     71  C   UNL     1      -7.881  -2.698   9.840  1.00  0.00     0.064 A 
ATOM     72  C   UNL     1      -8.700  -3.711  10.357  1.00  0.00     0.173 A 
ATOM     73  C   UNL     1      -6.497  -2.813  10.037  1.00  0.00     0.173 A 
ATOM     74  F   UNL     1     -10.031  -3.637  10.207  1.00  0.00    -0.203 F 
ATOM     75  C   UNL     1      -8.159  -4.788  11.056  1.00  0.00     0.198 A 
ATOM     76  C   UNL     1      -5.955  -3.904  10.714  1.00  0.00     0.198 A 
ATOM     77  F   UNL     1      -5.670  -1.875   9.554  1.00  0.00    -0.203 F 
ATOM     78  F   UNL     1      -8.968  -5.725  11.569  1.00  0.00    -0.200 F 
ATOM     79  C   UNL     1      -6.787  -4.888  11.227  1.00  0.00     0.200 A 
ATOM     80  F   UNL     1      -4.628  -4.005  10.862  1.00  0.00    -0.200 F 
ATOM     81  F   UNL     1      -6.266  -5.930  11.889  1.00  0.00    -0.200 F 
ENDBRANCH  47  71
BRANCH  59  82
ATOM     82  C   UNL     1     -11.896   2.717  11.624  1.00  0.00     0.064 A 
ATOM     83  C   UNL     1     -11.128   3.243  12.673  1.00  0.00     0.173 A 
ATOM     84  C   UNL     1     -13.285   2.631  11.803  1.00  0.00     0.173 A 
ATOM     85  F   UNL     1      -9.794   3.331  12.555  1.00  0.00    -0.203 F 
ATOM     86  C   UNL     1     -11.726   3.647  13.863  1.00  0.00     0.198 A 
ATOM     87  C   UNL     1     -13.882   3.064  12.983  1.00  0.00     0.198 A 
ATOM     88  F   UNL     1     -14.064   2.142  10.827  1.00  0.00    -0.203 F 
ATOM     89  F   UNL     1     -10.969   4.104  14.870  1.00  0.00    -0.200 F 
ATOM     90  C   UNL     1     -13.102   3.564  14.014  1.00  0.00     0.200 A 
ATOM     91  F   UNL     1     -15.214   2.996  13.122  1.00  0.00    -0.200 F 
ATOM     92  F   UNL     1     -13.677   3.962  15.158  1.00  0.00    -0.200 F 
ENDBRANCH  59  82
ENDBRANCH  33  34
ENDBRANCH  25  28
ENDBRANCH  23  24
ENDBRANCH   1  23
TORSDOF 13
