REMARK SMILES O=C(Cc1ccccc1C(=O)NCCCNC(=O)c1ccc(-c2c3nc(c(-c4c(F)c(F)c(F)c(F)c4F)c4ccc([nH]4)c(-c4c(F)c(F)c(F)c(F)c4F)c4nc(c(-c5c(F)c(F)c(F)c(F)c5F)c5ccc2[nH]5)C=C4)C=C3)cc1)Nc1cccc(OC[C@@H]2CCCO2)c1
REMARK SMILES IDX 10 1 11 2 12 3 9 5 4 6 5 7 6 8 8 9 7 10 3 11 2 12 1 13 82 14
REMARK SMILES IDX 83 16 84 17 95 18 85 19 87 20 86 21 88 22 89 23 90 24 91 25
REMARK SMILES IDX 94 26 92 27 93 28 13 29 14 30 15 31 16 32 17 33 18 35 19 36
REMARK SMILES IDX 20 37 81 38 21 39 80 40 22 41 23 42 24 43 74 44 25 45 79 46
REMARK SMILES IDX 73 47 75 48 26 49 78 50 72 51 71 52 27 54 59 55 39 56 58 57
REMARK SMILES IDX 40 58 43 59 57 60 76 61 41 62 42 63 56 65 77 66 44 67 28 68
REMARK SMILES IDX 29 69 37 70 30 71 31 72 35 73 38 74 32 75 33 76 36 77 34 78
REMARK SMILES IDX 60 79 61 80 69 81 62 82 63 83 67 84 70 85 64 86 65 87 68 88
REMARK SMILES IDX 66 89 45 90 46 91 54 92 47 93 48 94 52 95 55 96 49 97 50 98
REMARK SMILES IDX 53 99 51 100
REMARK H PARENT 12 4 82 15 16 34 75 53 43 64
REMARK Flexibility Score: inf
ROOT
ATOM      1  C   UNL     1       2.865   3.727  -0.864  1.00  0.00     0.251 C 
ATOM      2  O   UNL     1       2.341   4.822  -0.621  1.00  0.00    -0.269 OA
ATOM      3  N   UNL     1       2.508   3.203  -2.080  1.00  0.00    -0.352 N 
ATOM      4  H   UNL     1       1.929   3.821  -2.582  1.00  0.00     0.163 HD
ENDROOT
BRANCH   1   5
ATOM      5  C   UNL     1       3.861   3.199   0.140  1.00  0.00     0.043 A 
ATOM      6  C   UNL     1       4.125   1.879   0.568  1.00  0.00    -0.026 A 
ATOM      7  C   UNL     1       5.095   1.658   1.577  1.00  0.00     0.005 A 
ATOM      8  C   UNL     1       5.744   2.707   2.218  1.00  0.00     0.000 A 
ATOM      9  C   UNL     1       4.543   4.242   0.816  1.00  0.00     0.014 A 
ATOM     10  C   UNL     1       5.458   4.006   1.845  1.00  0.00     0.001 A 
BRANCH   6  11
ATOM     11  C   UNL     1       3.438   0.651   0.058  1.00  0.00     0.136 C 
BRANCH  11  12
ATOM     12  C   UNL     1       2.611  -0.121   1.053  1.00  0.00     0.228 C 
ATOM     13  O   UNL     1       1.465   0.239   1.317  1.00  0.00    -0.274 OA
ATOM     14  N   UNL     1       3.217  -1.257   1.558  1.00  0.00    -0.326 N 
ATOM     15  H   UNL     1       4.200  -1.299   1.584  1.00  0.00     0.169 HD
BRANCH  14  16
ATOM     16  C   UNL     1       2.477  -2.353   2.035  1.00  0.00     0.044 A 
ATOM     17  C   UNL     1       2.925  -3.062   3.144  1.00  0.00     0.026 A 
ATOM     18  C   UNL     1       1.313  -2.758   1.371  1.00  0.00     0.072 A 
ATOM     19  C   UNL     1       2.153  -4.115   3.639  1.00  0.00     0.006 A 
ATOM     20  C   UNL     1       0.554  -3.831   1.833  1.00  0.00     0.121 A 
ATOM     21  C   UNL     1       0.973  -4.493   2.987  1.00  0.00     0.046 A 
BRANCH  20  22
ATOM     22  O   UNL     1      -0.600  -4.302   1.264  1.00  0.00    -0.491 OA
BRANCH  22  23
ATOM     23  C   UNL     1      -1.012  -3.741   0.009  1.00  0.00     0.261 C 
BRANCH  23  24
ATOM     24  C   UNL     1      -1.926  -2.515   0.176  1.00  0.00     0.156 C 
ATOM     25  C   UNL     1      -2.351  -1.915  -1.156  1.00  0.00     0.038 C 
ATOM     26  O   UNL     1      -1.279  -1.449   0.890  1.00  0.00    -0.375 OA
ATOM     27  C   UNL     1      -2.482  -0.446  -0.847  1.00  0.00     0.031 C 
ATOM     28  C   UNL     1      -1.348  -0.247   0.121  1.00  0.00     0.161 C 
ENDBRANCH  23  24
ENDBRANCH  22  23
ENDBRANCH  20  22
ENDBRANCH  14  16
ENDBRANCH  11  12
ENDBRANCH   6  11
ENDBRANCH   1   5
BRANCH   3  29
ATOM     29  C   UNL     1       2.754   1.980  -2.826  1.00  0.00     0.118 C 
BRANCH  29  30
ATOM     30  C   UNL     1       1.534   1.045  -2.728  1.00  0.00     0.042 C 
BRANCH  30  31
ATOM     31  C   UNL     1       0.453   1.263  -3.780  1.00  0.00     0.118 C 
BRANCH  31  32
ATOM     32  N   UNL     1       0.762   0.590  -5.030  1.00  0.00    -0.352 N 
ATOM     33  C   UNL     1       0.164  -0.468  -5.673  1.00  0.00     0.251 C 
ATOM     34  H   UNL     1       1.543   0.959  -5.503  1.00  0.00     0.163 HD
ATOM     35  O   UNL     1       0.765  -0.985  -6.614  1.00  0.00    -0.269 OA
BRANCH  33  36
ATOM     36  C   UNL     1      -1.164  -1.016  -5.282  1.00  0.00     0.039 A 
ATOM     37  C   UNL     1      -1.416  -2.376  -5.522  1.00  0.00     0.014 A 
ATOM     38  C   UNL     1      -2.201  -0.226  -4.788  1.00  0.00     0.014 A 
ATOM     39  C   UNL     1      -2.670  -2.940  -5.241  1.00  0.00     0.010 A 
ATOM     40  C   UNL     1      -3.424  -0.806  -4.427  1.00  0.00     0.010 A 
ATOM     41  C   UNL     1      -3.685  -2.168  -4.661  1.00  0.00    -0.014 A 
BRANCH  41  42
ATOM     42  C   UNL     1      -5.026  -2.735  -4.319  1.00  0.00     0.031 A 
ATOM     43  C   UNL     1      -6.275  -2.136  -4.922  1.00  0.00     0.074 A 
ATOM     44  C   UNL     1      -5.151  -3.726  -3.410  1.00  0.00     0.049 A 
ATOM     45  N   UNL     1      -7.533  -2.377  -4.643  1.00  0.00    -0.248 NA
ATOM     46  C   UNL     1      -6.083  -1.128  -5.978  1.00  0.00     0.031 C 
ATOM     47  C   UNL     1      -4.050  -4.432  -2.753  1.00  0.00     0.029 A 
ATOM     48  N   UNL     1      -6.275  -4.270  -2.830  1.00  0.00    -0.354 N 
ATOM     49  C   UNL     1      -8.274  -1.574  -5.503  1.00  0.00     0.074 A 
ATOM     50  C   UNL     1      -7.330  -0.768  -6.245  1.00  0.00     0.031 C 
ATOM     51  C   UNL     1      -4.543  -5.240  -1.801  1.00  0.00     0.029 A 
ATOM     52  C   UNL     1      -5.996  -5.127  -1.790  1.00  0.00     0.049 A 
ATOM     53  H   UNL     1      -7.190  -4.066  -3.130  1.00  0.00     0.167 HD
ATOM     54  C   UNL     1      -9.614  -1.550  -5.702  1.00  0.00     0.037 A 
ATOM     55  C   UNL     1      -6.812  -5.742  -0.912  1.00  0.00     0.037 A 
ATOM     56  C   UNL     1     -10.562  -2.362  -4.986  1.00  0.00     0.049 A 
ATOM     57  C   UNL     1      -8.301  -5.617  -1.074  1.00  0.00     0.074 A 
ATOM     58  C   UNL     1     -11.933  -2.447  -5.160  1.00  0.00     0.029 A 
ATOM     59  N   UNL     1     -10.236  -3.231  -3.957  1.00  0.00    -0.354 N 
ATOM     60  N   UNL     1      -8.982  -4.920  -1.949  1.00  0.00    -0.248 NA
ATOM     61  C   UNL     1      -9.136  -6.406  -0.156  1.00  0.00     0.031 C 
ATOM     62  C   UNL     1     -12.442  -3.342  -4.213  1.00  0.00     0.029 A 
ATOM     63  C   UNL     1     -11.382  -3.846  -3.478  1.00  0.00     0.049 A 
ATOM     64  H   UNL     1      -9.326  -3.389  -3.617  1.00  0.00     0.167 HD
ATOM     65  C   UNL     1     -10.315  -5.242  -1.737  1.00  0.00     0.074 A 
ATOM     66  C   UNL     1     -10.350  -6.184  -0.638  1.00  0.00     0.031 C 
ATOM     67  C   UNL     1     -11.409  -4.810  -2.410  1.00  0.00     0.037 A 
BRANCH  54  68
ATOM     68  C   UNL     1     -10.139  -0.650  -6.785  1.00  0.00     0.064 A 
ATOM     69  C   UNL     1      -9.918  -0.946  -8.139  1.00  0.00     0.173 A 
ATOM     70  C   UNL     1     -10.925   0.470  -6.478  1.00  0.00     0.173 A 
ATOM     71  F   UNL     1      -9.168  -2.003  -8.486  1.00  0.00    -0.203 F 
ATOM     72  C   UNL     1     -10.445  -0.141  -9.145  1.00  0.00     0.198 A 
ATOM     73  C   UNL     1     -11.474   1.257  -7.487  1.00  0.00     0.198 A 
ATOM     74  F   UNL     1     -11.176   0.791  -5.200  1.00  0.00    -0.203 F 
ATOM     75  F   UNL     1     -10.188  -0.423 -10.430  1.00  0.00    -0.200 F 
ATOM     76  C   UNL     1     -11.230   0.954  -8.819  1.00  0.00     0.200 A 
ATOM     77  F   UNL     1     -12.245   2.307  -7.172  1.00  0.00    -0.200 F 
ATOM     78  F   UNL     1     -11.749   1.720  -9.789  1.00  0.00    -0.200 F 
ENDBRANCH  54  68
BRANCH  55  79
ATOM     79  C   UNL     1      -6.243  -6.568   0.185  1.00  0.00     0.064 A 
ATOM     80  C   UNL     1      -6.351  -7.965   0.166  1.00  0.00     0.173 A 
ATOM     81  C   UNL     1      -5.619  -5.975   1.292  1.00  0.00     0.173 A 
ATOM     82  F   UNL     1      -6.957  -8.574  -0.864  1.00  0.00    -0.203 F 
ATOM     83  C   UNL     1      -5.891  -8.737   1.230  1.00  0.00     0.198 A 
ATOM     84  C   UNL     1      -5.138  -6.750   2.346  1.00  0.00     0.198 A 
ATOM     85  F   UNL     1      -5.485  -4.642   1.352  1.00  0.00    -0.203 F 
ATOM     86  F   UNL     1      -6.060 -10.066   1.212  1.00  0.00    -0.200 F 
ATOM     87  C   UNL     1      -5.285  -8.129   2.319  1.00  0.00     0.200 A 
ATOM     88  F   UNL     1      -4.550  -6.162   3.396  1.00  0.00    -0.200 F 
ATOM     89  F   UNL     1      -4.855  -8.872   3.348  1.00  0.00    -0.200 F 
ENDBRANCH  55  79
BRANCH  67  90
ATOM     90  C   UNL     1     -12.731  -5.416  -2.041  1.00  0.00     0.064 A 
ATOM     91  C   UNL     1     -13.379  -5.109  -0.837  1.00  0.00     0.173 A 
ATOM     92  C   UNL     1     -13.370  -6.299  -2.925  1.00  0.00     0.173 A 
ATOM     93  F   UNL     1     -12.800  -4.284   0.050  1.00  0.00    -0.203 F 
ATOM     94  C   UNL     1     -14.605  -5.685  -0.518  1.00  0.00     0.198 A 
ATOM     95  C   UNL     1     -14.611  -6.849  -2.617  1.00  0.00     0.198 A 
ATOM     96  F   UNL     1     -12.795  -6.622  -4.094  1.00  0.00    -0.203 F 
ATOM     97  F   UNL     1     -15.183  -5.418   0.662  1.00  0.00    -0.200 F 
ATOM     98  C   UNL     1     -15.224  -6.549  -1.411  1.00  0.00     0.200 A 
ATOM     99  F   UNL     1     -15.212  -7.673  -3.487  1.00  0.00    -0.200 F 
ATOM    100  F   UNL     1     -16.407  -7.098  -1.104  1.00  0.00    -0.200 F 
ENDBRANCH  67  90
ENDBRANCH  41  42
ENDBRANCH  33  36
ENDBRANCH  31  32
ENDBRANCH  30  31
ENDBRANCH  29  30
ENDBRANCH   3  29
TORSDOF 16
