REMARK SMILES O=C(NCCCNC(=O)c1ccc(-c2c3nc(c(-c4c(F)c(F)c(F)c(F)c4F)c4ccc([nH]4)c(-c4c(F)c(F)c(F)c(F)c4F)c4nc(c(-c5c(F)c(F)c(F)c(F)c5F)c5ccc2[nH]5)C=C4)C=C3)cc1)C1=C([O-])N(c2ccc3c(c2)OCCO3)CC1
REMARK SMILES IDX 5 1 4 2 3 3 1 4 2 5 73 7 74 8 88 9 75 10 76 11 87 12 77 13
REMARK SMILES IDX 78 14 82 15 79 16 81 17 80 18 83 19 86 20 84 21 85 22 6 23
REMARK SMILES IDX 7 24 8 25 9 27 10 28 11 29 72 30 12 31 71 32 13 33 14 34
REMARK SMILES IDX 15 35 65 36 16 37 70 38 64 39 66 40 17 41 69 42 63 43 62 44
REMARK SMILES IDX 18 46 50 47 30 48 49 49 31 50 34 51 48 52 67 53 32 54 33 55
REMARK SMILES IDX 47 57 68 58 35 59 19 60 20 61 28 62 21 63 22 64 26 65 29 66
REMARK SMILES IDX 23 67 24 68 27 69 25 70 51 71 52 72 60 73 53 74 54 75 58 76
REMARK SMILES IDX 61 77 55 78 56 79 59 80 57 81 36 82 37 83 45 84 38 85 39 86
REMARK SMILES IDX 43 87 46 88 40 89 41 90 44 91 42 92
REMARK H PARENT 3 6 7 26 66 45 34 56
REMARK Flexibility Score: inf
ROOT
ATOM      1  C   UNL     1       4.925   1.442   1.714  1.00  0.00     0.042 C 
ENDROOT
BRANCH   1   2
ATOM      2  C   UNL     1       4.620   0.046   1.196  1.00  0.00     0.118 C 
BRANCH   2   3
ATOM      3  N   UNL     1       3.197  -0.236   1.098  1.00  0.00    -0.352 N 
ATOM      4  O   UNL     1       1.198  -0.593   0.136  1.00  0.00    -0.270 OA
ATOM      5  C   UNL     1       2.406  -0.400  -0.002  1.00  0.00     0.248 C 
ATOM      6  H   UNL     1       2.730  -0.321   1.961  1.00  0.00     0.163 HD
BRANCH   5   7
ATOM      7  C   UNL     1       3.046  -0.394  -1.312  1.00  0.00     0.027 C 
ATOM      8  C   UNL     1       2.768   0.416  -2.345  1.00  0.00    -0.028 C 
ATOM      9  C   UNL     1       4.101  -1.380  -1.722  1.00  0.00     0.064 C 
ATOM     10  O   UNL     1       1.817   1.380  -2.392  1.00  0.00    -0.860 OA
ATOM     11  N   UNL     1       3.668   0.251  -3.379  1.00  0.00    -0.354 N 
ATOM     12  C   UNL     1       4.742  -0.662  -2.919  1.00  0.00     0.126 C 
BRANCH  11  13
ATOM     13  C   UNL     1       3.362   0.072  -4.744  1.00  0.00     0.044 A 
ATOM     14  C   UNL     1       3.817   1.017  -5.672  1.00  0.00     0.030 A 
ATOM     15  C   UNL     1       2.893  -1.170  -5.199  1.00  0.00     0.076 A 
ATOM     16  C   UNL     1       3.940   0.676  -7.020  1.00  0.00     0.052 A 
ATOM     17  C   UNL     1       3.101  -1.542  -6.521  1.00  0.00     0.163 A 
ATOM     18  C   UNL     1       3.662  -0.629  -7.417  1.00  0.00     0.161 A 
ATOM     19  O   UNL     1       2.863  -2.857  -6.821  1.00  0.00    -0.486 OA
ATOM     20  O   UNL     1       4.060  -0.999  -8.678  1.00  0.00    -0.486 OA
ATOM     21  C   UNL     1       3.260  -3.215  -8.150  1.00  0.00     0.271 C 
ATOM     22  C   UNL     1       4.433  -2.383  -8.646  1.00  0.00     0.271 C 
ENDBRANCH  11  13
ENDBRANCH   5   7
ENDBRANCH   2   3
ENDBRANCH   1   2
BRANCH   1  23
ATOM     23  C   UNL     1       4.366   1.738   3.097  1.00  0.00     0.118 C 
BRANCH  23  24
ATOM     24  N   UNL     1       4.872   0.835   4.122  1.00  0.00    -0.352 N 
ATOM     25  C   UNL     1       5.662   1.064   5.220  1.00  0.00     0.251 C 
ATOM     26  H   UNL     1       4.599  -0.104   4.007  1.00  0.00     0.163 HD
ATOM     27  O   UNL     1       6.093   0.105   5.858  1.00  0.00    -0.269 OA
BRANCH  25  28
ATOM     28  C   UNL     1       6.024   2.437   5.637  1.00  0.00     0.039 A 
ATOM     29  C   UNL     1       7.307   2.665   6.146  1.00  0.00     0.014 A 
ATOM     30  C   UNL     1       5.107   3.488   5.580  1.00  0.00     0.014 A 
ATOM     31  C   UNL     1       7.688   3.953   6.534  1.00  0.00     0.010 A 
ATOM     32  C   UNL     1       5.514   4.786   5.880  1.00  0.00     0.010 A 
ATOM     33  C   UNL     1       6.804   5.030   6.372  1.00  0.00    -0.014 A 
BRANCH  33  34
ATOM     34  C   UNL     1       7.192   6.415   6.741  1.00  0.00     0.031 A 
ATOM     35  C   UNL     1       6.453   7.135   7.836  1.00  0.00     0.074 A 
ATOM     36  C   UNL     1       8.154   7.051   6.046  1.00  0.00     0.049 A 
ATOM     37  N   UNL     1       6.559   8.379   8.229  1.00  0.00    -0.248 NA
ATOM     38  C   UNL     1       5.436   6.360   8.564  1.00  0.00     0.031 C 
ATOM     39  C   UNL     1       8.911   6.482   4.930  1.00  0.00     0.029 A 
ATOM     40  N   UNL     1       8.649   8.325   6.169  1.00  0.00    -0.354 N 
ATOM     41  C   UNL     1       5.599   8.544   9.219  1.00  0.00     0.074 A 
ATOM     42  C   UNL     1       4.896   7.286   9.343  1.00  0.00     0.031 C 
ATOM     43  C   UNL     1       9.789   7.396   4.484  1.00  0.00     0.029 A 
ATOM     44  C   UNL     1       9.634   8.622   5.260  1.00  0.00     0.049 A 
ATOM     45  H   UNL     1       8.329   8.965   6.845  1.00  0.00     0.167 HD
ATOM     46  C   UNL     1       5.339   9.641   9.970  1.00  0.00     0.037 A 
ATOM     47  C   UNL     1      10.332   9.759   5.073  1.00  0.00     0.037 A 
ATOM     48  C   UNL     1       6.073  10.875   9.886  1.00  0.00     0.049 A 
ATOM     49  C   UNL     1      10.064  10.943   5.960  1.00  0.00     0.074 A 
ATOM     50  C   UNL     1       5.925  12.023  10.644  1.00  0.00     0.029 A 
ATOM     51  N   UNL     1       7.107  11.114   8.993  1.00  0.00    -0.354 N 
ATOM     52  N   UNL     1       9.183  11.073   6.921  1.00  0.00    -0.248 NA
ATOM     53  C   UNL     1      10.894  12.135   5.740  1.00  0.00     0.031 C 
ATOM     54  C   UNL     1       6.858  12.965  10.198  1.00  0.00     0.029 A 
ATOM     55  C   UNL     1       7.606  12.393   9.182  1.00  0.00     0.049 A 
ATOM     56  H   UNL     1       7.437  10.472   8.325  1.00  0.00     0.167 HD
ATOM     57  C   UNL     1       9.369  12.347   7.438  1.00  0.00     0.074 A 
ATOM     58  C   UNL     1      10.454  12.948   6.690  1.00  0.00     0.031 C 
ATOM     59  C   UNL     1       8.699  12.965   8.440  1.00  0.00     0.037 A 
BRANCH  46  60
ATOM     60  C   UNL     1       4.214   9.548  10.957  1.00  0.00     0.064 A 
ATOM     61  C   UNL     1       4.329   8.789  12.131  1.00  0.00     0.173 A 
ATOM     62  C   UNL     1       3.016  10.245  10.739  1.00  0.00     0.173 A 
ATOM     63  F   UNL     1       5.449   8.093  12.377  1.00  0.00    -0.203 F 
ATOM     64  C   UNL     1       3.274   8.707  13.036  1.00  0.00     0.198 A 
ATOM     65  C   UNL     1       1.973  10.181  11.659  1.00  0.00     0.198 A 
ATOM     66  F   UNL     1       2.858  10.988   9.633  1.00  0.00    -0.203 F 
ATOM     67  F   UNL     1       3.389   7.936  14.127  1.00  0.00    -0.200 F 
ATOM     68  C   UNL     1       2.100   9.407  12.803  1.00  0.00     0.200 A 
ATOM     69  F   UNL     1       0.842  10.865  11.437  1.00  0.00    -0.200 F 
ATOM     70  F   UNL     1       1.087   9.328  13.676  1.00  0.00    -0.200 F 
ENDBRANCH  46  60
BRANCH  47  71
ATOM     71  C   UNL     1      11.381   9.817   4.026  1.00  0.00     0.064 A 
ATOM     72  C   UNL     1      12.739   9.811   4.374  1.00  0.00     0.173 A 
ATOM     73  C   UNL     1      11.053   9.876   2.664  1.00  0.00     0.173 A 
ATOM     74  F   UNL     1      13.097   9.775   5.666  1.00  0.00    -0.203 F 
ATOM     75  C   UNL     1      13.731   9.880   3.399  1.00  0.00     0.198 A 
ATOM     76  C   UNL     1      12.047   9.923   1.689  1.00  0.00     0.198 A 
ATOM     77  F   UNL     1       9.768   9.879   2.282  1.00  0.00    -0.203 F 
ATOM     78  F   UNL     1      15.021   9.910   3.760  1.00  0.00    -0.200 F 
ATOM     79  C   UNL     1      13.385   9.931   2.057  1.00  0.00     0.200 A 
ATOM     80  F   UNL     1      11.710   9.961   0.393  1.00  0.00    -0.200 F 
ATOM     81  F   UNL     1      14.340   9.994   1.119  1.00  0.00    -0.200 F 
ENDBRANCH  47  71
BRANCH  59  82
ATOM     82  C   UNL     1       9.147  14.345   8.813  1.00  0.00     0.064 A 
ATOM     83  C   UNL     1       8.842  15.456   8.014  1.00  0.00     0.173 A 
ATOM     84  C   UNL     1       9.861  14.560  10.001  1.00  0.00     0.173 A 
ATOM     85  F   UNL     1       8.175  15.296   6.862  1.00  0.00    -0.203 F 
ATOM     86  C   UNL     1       9.256  16.733   8.382  1.00  0.00     0.198 A 
ATOM     87  C   UNL     1      10.254  15.842  10.377  1.00  0.00     0.198 A 
ATOM     88  F   UNL     1      10.173  13.528  10.799  1.00  0.00    -0.203 F 
ATOM     89  F   UNL     1       8.989  17.777   7.585  1.00  0.00    -0.200 F 
ATOM     90  C   UNL     1       9.956  16.926   9.565  1.00  0.00     0.200 A 
ATOM     91  F   UNL     1      10.923  16.027  11.522  1.00  0.00    -0.200 F 
ATOM     92  F   UNL     1      10.350  18.157   9.918  1.00  0.00    -0.200 F 
ENDBRANCH  59  82
ENDBRANCH  33  34
ENDBRANCH  25  28
ENDBRANCH  23  24
ENDBRANCH   1  23
TORSDOF 11
