REMARK SMILES O=C(C[C@@H](C(=O)NCCCNC(=O)c1ccc(-c2c3nc(c(-c4c(F)c(F)c(F)c(F)c4F)c4ccc([nH]4)c(-c4c(F)c(F)c(F)c(F)c4F)c4nc(c(-c5c(F)c(F)c(F)c(F)c5F)c5ccc2[nH]5)C=C4)C=C3)cc1)[NH+]1CCN(c2cccc(Cl)c2)CC1)c1ccc(F)cc1
REMARK SMILES IDX 8 1 7 2 5 3 6 4 4 6 3 7 2 8 1 9 90 10 91 11 96 12 92 13
REMARK SMILES IDX 95 14 93 15 94 16 77 17 78 18 89 19 79 21 88 22 80 23 81 24
REMARK SMILES IDX 82 25 87 26 83 27 85 28 84 29 86 30 9 31 10 32 11 33 12 34
REMARK SMILES IDX 13 36 14 37 15 38 76 39 16 40 75 41 17 42 18 43 19 44 69 45
REMARK SMILES IDX 20 46 74 47 68 48 70 49 21 50 73 51 67 52 66 53 22 55 54 56
REMARK SMILES IDX 34 57 53 58 35 59 38 60 52 61 71 62 36 63 37 64 51 66 72 67
REMARK SMILES IDX 39 68 23 69 24 70 32 71 25 72 26 73 30 74 33 75 27 76 28 77
REMARK SMILES IDX 31 78 29 79 55 80 56 81 64 82 57 83 58 84 62 85 65 86 59 87
REMARK SMILES IDX 60 88 63 89 61 90 40 91 41 92 49 93 42 94 43 95 47 96 50 97
REMARK SMILES IDX 44 98 45 99 48 100 46 101
REMARK H PARENT 7 5 77 20 11 35 70 54 38 65
REMARK Flexibility Score: inf
ROOT
ATOM      1  C   UNL     1       2.242  -1.093  -2.417  1.00  0.00     0.118 C 
ENDROOT
BRANCH   1   2
ATOM      2  N   UNL     1       3.666  -1.104  -2.118  1.00  0.00    -0.351 N 
ATOM      3  C   UNL     1       4.386  -1.443  -1.006  1.00  0.00     0.278 C 
ATOM      4  O   UNL     1       5.605  -1.550  -1.180  1.00  0.00    -0.268 OA
ATOM      5  H   UNL     1       4.226  -0.806  -2.871  1.00  0.00     0.163 HD
BRANCH   3   6
ATOM      6  C   UNL     1       3.741  -1.543   0.405  1.00  0.00     0.282 C 
BRANCH   6   7
ATOM      7  C   UNL     1       4.074  -0.206   1.111  1.00  0.00     0.156 C 
BRANCH   7   8
ATOM      8  C   UNL     1       3.394   0.989   0.496  1.00  0.00     0.169 C 
ATOM      9  O   UNL     1       2.182   1.154   0.635  1.00  0.00    -0.294 OA
BRANCH   8  10
ATOM     10  C   UNL     1       4.188   1.999  -0.268  1.00  0.00     0.018 A 
ATOM     11  C   UNL     1       5.438   1.717  -0.835  1.00  0.00     0.015 A 
ATOM     12  C   UNL     1       3.615   3.263  -0.473  1.00  0.00     0.015 A 
ATOM     13  C   UNL     1       6.079   2.659  -1.642  1.00  0.00     0.040 A 
ATOM     14  C   UNL     1       4.277   4.218  -1.247  1.00  0.00     0.040 A 
ATOM     15  C   UNL     1       5.492   3.900  -1.842  1.00  0.00     0.123 A 
ATOM     16  F   UNL     1       6.088   4.792  -2.642  1.00  0.00    -0.207 F 
ENDBRANCH   8  10
ENDBRANCH   7   8
ENDBRANCH   6   7
BRANCH   6  17
ATOM     17  N   UNL     1       4.361  -2.594   1.277  1.00  0.00    -0.321 N 
ATOM     18  C   UNL     1       3.516  -2.937   2.455  1.00  0.00     0.284 C 
ATOM     19  C   UNL     1       4.809  -3.857   0.652  1.00  0.00     0.284 C 
ATOM     20  H   UNL     1       5.217  -2.110   1.547  1.00  0.00     0.348 HD
ATOM     21  C   UNL     1       2.348  -3.916   2.175  1.00  0.00     0.178 C 
ATOM     22  C   UNL     1       3.706  -4.884   0.331  1.00  0.00     0.178 C 
ATOM     23  N   UNL     1       2.844  -5.117   1.494  1.00  0.00    -0.360 N 
BRANCH  23  24
ATOM     24  C   UNL     1       2.785  -6.334   2.145  1.00  0.00     0.038 A 
ATOM     25  C   UNL     1       1.548  -6.834   2.583  1.00  0.00     0.026 A 
ATOM     26  C   UNL     1       3.923  -7.109   2.403  1.00  0.00     0.046 A 
ATOM     27  C   UNL     1       1.441  -8.064   3.240  1.00  0.00     0.004 A 
ATOM     28  C   UNL     1       3.821  -8.331   3.075  1.00  0.00     0.043 A 
ATOM     29  C   UNL     1       2.584  -8.815   3.490  1.00  0.00     0.020 A 
ATOM     30  Cl  UNL     1       5.243  -9.246   3.406  1.00  0.00    -0.084 Cl
ENDBRANCH  23  24
ENDBRANCH   6  17
ENDBRANCH   3   6
ENDBRANCH   1   2
BRANCH   1  31
ATOM     31  C   UNL     1       1.577   0.287  -2.550  1.00  0.00     0.042 C 
BRANCH  31  32
ATOM     32  C   UNL     1       2.319   1.390  -3.317  1.00  0.00     0.118 C 
BRANCH  32  33
ATOM     33  N   UNL     1       2.191   1.300  -4.763  1.00  0.00    -0.352 N 
ATOM     34  C   UNL     1       1.959   2.283  -5.695  1.00  0.00     0.251 C 
ATOM     35  H   UNL     1       2.286   0.393  -5.132  1.00  0.00     0.163 HD
ATOM     36  O   UNL     1       1.812   1.951  -6.879  1.00  0.00    -0.269 OA
BRANCH  34  37
ATOM     37  C   UNL     1       1.844   3.725  -5.347  1.00  0.00     0.039 A 
ATOM     38  C   UNL     1       0.814   4.469  -5.936  1.00  0.00     0.014 A 
ATOM     39  C   UNL     1       2.777   4.388  -4.546  1.00  0.00     0.014 A 
ATOM     40  C   UNL     1       0.684   5.842  -5.678  1.00  0.00     0.010 A 
ATOM     41  C   UNL     1       2.628   5.760  -4.263  1.00  0.00     0.010 A 
ATOM     42  C   UNL     1       1.572   6.504  -4.814  1.00  0.00    -0.014 A 
BRANCH  42  43
ATOM     43  C   UNL     1       1.344   7.940  -4.460  1.00  0.00     0.031 A 
ATOM     44  C   UNL     1       2.273   9.038  -4.912  1.00  0.00     0.074 A 
ATOM     45  C   UNL     1       0.277   8.274  -3.705  1.00  0.00     0.049 A 
ATOM     46  N   UNL     1       2.158  10.336  -4.750  1.00  0.00    -0.248 NA
ATOM     47  C   UNL     1       3.492   8.632  -5.623  1.00  0.00     0.031 C 
ATOM     48  C   UNL     1      -0.682   7.326  -3.139  1.00  0.00     0.029 A 
ATOM     49  N   UNL     1      -0.183   9.502  -3.286  1.00  0.00    -0.354 N 
ATOM     50  C   UNL     1       3.283  10.901  -5.337  1.00  0.00     0.074 A 
ATOM     51  C   UNL     1       4.091   9.800  -5.824  1.00  0.00     0.031 C 
ATOM     52  C   UNL     1      -1.629   8.005  -2.472  1.00  0.00     0.029 A 
ATOM     53  C   UNL     1      -1.338   9.435  -2.546  1.00  0.00     0.049 A 
ATOM     54  H   UNL     1       0.274  10.348  -3.498  1.00  0.00     0.167 HD
ATOM     55  C   UNL     1       3.608  12.211  -5.477  1.00  0.00     0.037 A 
ATOM     56  C   UNL     1      -2.091  10.408  -1.994  1.00  0.00     0.037 A 
ATOM     57  C   UNL     1       2.808  13.321  -5.019  1.00  0.00     0.049 A 
ATOM     58  C   UNL     1      -1.717  11.853  -2.175  1.00  0.00     0.074 A 
ATOM     59  C   UNL     1       3.029  14.677  -5.205  1.00  0.00     0.029 A 
ATOM     60  N   UNL     1       1.644  13.210  -4.277  1.00  0.00    -0.354 N 
ATOM     61  N   UNL     1      -0.706  12.370  -2.826  1.00  0.00    -0.248 NA
ATOM     62  C   UNL     1      -2.601  12.851  -1.554  1.00  0.00     0.031 C 
ATOM     63  C   UNL     1       2.023  15.386  -4.539  1.00  0.00     0.029 A 
ATOM     64  C   UNL     1       1.152  14.472  -3.974  1.00  0.00     0.049 A 
ATOM     65  H   UNL     1       1.227  12.360  -4.005  1.00  0.00     0.167 HD
ATOM     66  C   UNL     1      -0.844  13.747  -2.714  1.00  0.00     0.074 A 
ATOM     67  C   UNL     1      -2.045  13.989  -1.944  1.00  0.00     0.031 C 
ATOM     68  C   UNL     1      -0.042  14.720  -3.209  1.00  0.00     0.037 A 
BRANCH  55  69
ATOM     69  C   UNL     1       4.894  12.540  -6.178  1.00  0.00     0.064 A 
ATOM     70  C   UNL     1       5.022  12.409  -7.568  1.00  0.00     0.173 A 
ATOM     71  C   UNL     1       5.977  13.080  -5.466  1.00  0.00     0.173 A 
ATOM     72  F   UNL     1       4.014  11.900  -8.293  1.00  0.00    -0.203 F 
ATOM     73  C   UNL     1       6.194  12.788  -8.218  1.00  0.00     0.198 A 
ATOM     74  C   UNL     1       7.138  13.480  -6.122  1.00  0.00     0.198 A 
ATOM     75  F   UNL     1       5.898  13.243  -4.136  1.00  0.00    -0.203 F 
ATOM     76  F   UNL     1       6.303  12.629  -9.544  1.00  0.00    -0.200 F 
ATOM     77  C   UNL     1       7.247  13.330  -7.497  1.00  0.00     0.200 A 
ATOM     78  F   UNL     1       8.148  14.019  -5.426  1.00  0.00    -0.200 F 
ATOM     79  F   UNL     1       8.367  13.708  -8.127  1.00  0.00    -0.200 F 
ENDBRANCH  55  69
BRANCH  56  80
ATOM     80  C   UNL     1      -3.314  10.045  -1.233  1.00  0.00     0.064 A 
ATOM     81  C   UNL     1      -4.588  10.291  -1.762  1.00  0.00     0.173 A 
ATOM     82  C   UNL     1      -3.232   9.459   0.037  1.00  0.00     0.173 A 
ATOM     83  F   UNL     1      -4.713  10.875  -2.963  1.00  0.00    -0.203 F 
ATOM     84  C   UNL     1      -5.737   9.976  -1.041  1.00  0.00     0.198 A 
ATOM     85  C   UNL     1      -4.381   9.122   0.747  1.00  0.00     0.198 A 
ATOM     86  F   UNL     1      -2.033   9.206   0.583  1.00  0.00    -0.203 F 
ATOM     87  F   UNL     1      -6.944  10.258  -1.551  1.00  0.00    -0.200 F 
ATOM     88  C   UNL     1      -5.633   9.387   0.210  1.00  0.00     0.200 A 
ATOM     89  F   UNL     1      -4.277   8.546   1.952  1.00  0.00    -0.200 F 
ATOM     90  F   UNL     1      -6.739   9.082   0.903  1.00  0.00    -0.200 F 
ENDBRANCH  56  80
BRANCH  68  91
ATOM     91  C   UNL     1      -0.444  16.145  -2.955  1.00  0.00     0.064 A 
ATOM     92  C   UNL     1      -0.319  16.728  -1.685  1.00  0.00     0.173 A 
ATOM     93  C   UNL     1      -0.937  16.944  -3.998  1.00  0.00     0.173 A 
ATOM     94  F   UNL     1       0.132  16.002  -0.651  1.00  0.00    -0.203 F 
ATOM     95  C   UNL     1      -0.695  18.051  -1.464  1.00  0.00     0.198 A 
ATOM     96  C   UNL     1      -1.289  18.273  -3.778  1.00  0.00     0.198 A 
ATOM     97  F   UNL     1      -1.074  16.436  -5.232  1.00  0.00    -0.203 F 
ATOM     98  F   UNL     1      -0.607  18.574  -0.233  1.00  0.00    -0.200 F 
ATOM     99  C   UNL     1      -1.174  18.824  -2.511  1.00  0.00     0.200 A 
ATOM    100  F   UNL     1      -1.745  19.021  -4.793  1.00  0.00    -0.200 F 
ATOM    101  F   UNL     1      -1.534  20.097  -2.296  1.00  0.00    -0.200 F 
ENDBRANCH  68  91
ENDBRANCH  42  43
ENDBRANCH  34  37
ENDBRANCH  32  33
ENDBRANCH  31  32
ENDBRANCH   1  31
TORSDOF 15
