REMARK SMILES C[N@H+]1CCCN(C(=O)N[C@@H]2CCCCC[C@@H]2C(=O)NCCCNC(=O)c2ccc(-c3c4nc(c(-c5c(F)c(F)c(F)c(F)c5F)c5ccc([nH]5)c(-c5c(F)c(F)c(F)c(F)c5F)c5nc(c(-c6c(F)c(F)c(F)c(F)c6F)c6ccc3[nH]6)C=C5)C=C4)cc2)CC1
REMARK SMILES IDX 16 1 10 2 9 3 7 4 8 5 6 7 89 8 90 9 2 10 1 11 3 13 4 14 5 16
REMARK SMILES IDX 11 18 12 19 15 21 14 22 13 23 17 25 18 26 19 27 20 29 21 30
REMARK SMILES IDX 22 31 23 32 24 33 25 35 26 36 27 37 88 38 28 39 87 40 29 41
REMARK SMILES IDX 30 42 31 43 81 44 32 45 86 46 80 47 82 48 33 49 85 50 79 51
REMARK SMILES IDX 78 52 34 54 66 55 46 56 65 57 47 58 50 59 64 60 83 61 48 62
REMARK SMILES IDX 49 63 63 65 84 66 51 67 35 68 36 69 44 70 37 71 38 72 42 73
REMARK SMILES IDX 45 74 39 75 40 76 43 77 41 78 67 79 68 80 76 81 69 82 70 83
REMARK SMILES IDX 74 84 77 85 71 86 72 87 75 88 73 89 52 90 53 91 61 92 54 93
REMARK SMILES IDX 55 94 59 95 62 96 56 97 57 98 60 99 58 100
REMARK H PARENT 9 6 2 12 19 28 23 34 82 53 50 64
REMARK Flexibility Score: 170.00
ROOT
ATOM      1  C   UNL     1      -0.961  -2.293  -5.733  1.00  0.00     0.101 C 
ENDROOT
BRANCH   1   2
ATOM      2  C   UNL     1       0.578  -2.334  -5.784  1.00  0.00     0.096 C 
BRANCH   2   3
ATOM      3  N   UNL     1       1.114  -1.064  -6.257  1.00  0.00    -0.334 N 
ATOM      4  C   UNL     1       1.301   0.157  -5.708  1.00  0.00     0.317 C 
ATOM      5  O   UNL     1       1.806   0.991  -6.470  1.00  0.00    -0.249 OA
ATOM      6  H   UNL     1       1.409  -1.105  -7.196  1.00  0.00     0.165 HD
BRANCH   4   7
ATOM      7  N   UNL     1       0.961   0.487  -4.414  1.00  0.00    -0.319 N 
BRANCH   7   8
ATOM      8  C   UNL     1       0.374  -0.336  -3.356  1.00  0.00     0.182 C 
BRANCH   8   9
ATOM      9  C   UNL     1       1.210  -0.381  -2.071  1.00  0.00     0.283 C 
BRANCH   9  10
ATOM     10  N   UNL     1       0.678   0.570  -1.090  1.00  0.00    -0.336 N 
ATOM     11  C   UNL     1       1.169   0.243   0.250  1.00  0.00     0.332 C 
ATOM     12  H   UNL     1      -0.338   0.484  -1.102  1.00  0.00     0.347 HD
BRANCH  10  13
ATOM     13  C   UNL     1       0.989   1.964  -1.435  1.00  0.00     0.263 C 
BRANCH  13  14
ATOM     14  C   UNL     1       0.505   2.438  -2.816  1.00  0.00     0.083 CG0
ATOM     15  G   UNL     1       1.287   1.864  -4.006  1.00  0.00     0.000 G0
ENDBRANCH  13  14
ENDBRANCH  10  13
ENDBRANCH   9  10
ENDBRANCH   8   9
ENDBRANCH   7   8
BRANCH   7  16
ATOM     16  C   UNL     1       1.287   1.864  -4.006  1.00  0.00     0.127 CG0
ATOM     17  G   UNL     1       0.505   2.438  -2.816  1.00  0.00     0.000 G0
ENDBRANCH   7  16
ENDBRANCH   4   7
ENDBRANCH   2   3
BRANCH   2  18
ATOM     18  C   UNL     1       1.196  -3.571  -6.461  1.00  0.00     0.026 C 
BRANCH  18  19
ATOM     19  C   UNL     1       1.207  -4.768  -5.503  1.00  0.00     0.002 CG1
ATOM     20  G   UNL     1      -0.101  -5.536  -5.317  1.00  0.00     0.000 G1
ENDBRANCH  18  19
ENDBRANCH   2  18
ENDBRANCH   1   2
BRANCH   1  21
ATOM     21  C   UNL     1      -1.522  -3.419  -4.848  1.00  0.00     0.015 C 
BRANCH  21  22
ATOM     22  C   UNL     1      -1.433  -4.810  -5.463  1.00  0.00     0.001 C 
BRANCH  22  23
ATOM     23  C   UNL     1      -0.101  -5.536  -5.317  1.00  0.00     0.000 CG1
ATOM     24  G   UNL     1       1.207  -4.768  -5.503  1.00  0.00     0.000 G1
ENDBRANCH  22  23
ENDBRANCH  21  22
ENDBRANCH   1  21
BRANCH   1  25
ATOM     25  C   UNL     1      -1.635  -2.273  -7.106  1.00  0.00     0.225 C 
ATOM     26  O   UNL     1      -1.072  -2.601  -8.149  1.00  0.00    -0.275 OA
ATOM     27  N   UNL     1      -2.952  -1.932  -7.194  1.00  0.00    -0.356 N 
ATOM     28  H   UNL     1      -3.402  -2.208  -8.025  1.00  0.00     0.163 HD
BRANCH  27  29
ATOM     29  C   UNL     1      -3.790  -1.222  -6.245  1.00  0.00     0.117 C 
BRANCH  29  30
ATOM     30  C   UNL     1      -4.049   0.209  -6.704  1.00  0.00     0.042 C 
BRANCH  30  31
ATOM     31  C   UNL     1      -4.757   0.311  -8.052  1.00  0.00     0.118 C 
BRANCH  31  32
ATOM     32  N   UNL     1      -6.071  -0.317  -8.053  1.00  0.00    -0.352 N 
ATOM     33  C   UNL     1      -7.298   0.203  -8.384  1.00  0.00     0.251 C 
ATOM     34  H   UNL     1      -6.081  -1.261  -7.772  1.00  0.00     0.163 HD
ATOM     35  O   UNL     1      -8.315  -0.442  -8.159  1.00  0.00    -0.269 OA
BRANCH  33  36
ATOM     36  C   UNL     1      -7.397   1.550  -8.986  1.00  0.00     0.039 A 
ATOM     37  C   UNL     1      -8.398   2.414  -8.534  1.00  0.00     0.014 A 
ATOM     38  C   UNL     1      -6.522   1.958  -9.995  1.00  0.00     0.014 A 
ATOM     39  C   UNL     1      -8.475   3.712  -9.044  1.00  0.00     0.010 A 
ATOM     40  C   UNL     1      -6.547   3.276 -10.442  1.00  0.00     0.010 A 
ATOM     41  C   UNL     1      -7.524   4.167  -9.972  1.00  0.00    -0.014 A 
BRANCH  41  42
ATOM     42  C   UNL     1      -7.532   5.572 -10.454  1.00  0.00     0.031 A 
ATOM     43  C   UNL     1      -7.764   5.874 -11.909  1.00  0.00     0.074 A 
ATOM     44  C   UNL     1      -7.271   6.572  -9.591  1.00  0.00     0.049 A 
ATOM     45  N   UNL     1      -7.748   7.028 -12.528  1.00  0.00    -0.248 NA
ATOM     46  C   UNL     1      -8.024   4.725 -12.789  1.00  0.00     0.031 C 
ATOM     47  C   UNL     1      -6.989   6.406  -8.165  1.00  0.00     0.029 A 
ATOM     48  N   UNL     1      -7.191   7.929  -9.788  1.00  0.00    -0.354 N 
ATOM     49  C   UNL     1      -7.985   6.742 -13.866  1.00  0.00     0.074 A 
ATOM     50  C   UNL     1      -8.082   5.302 -13.979  1.00  0.00     0.031 C 
ATOM     51  C   UNL     1      -6.794   7.613  -7.611  1.00  0.00     0.029 A 
ATOM     52  C   UNL     1      -6.892   8.634  -8.649  1.00  0.00     0.049 A 
ATOM     53  H   UNL     1      -7.335   8.355 -10.664  1.00  0.00     0.167 HD
ATOM     54  C   UNL     1      -8.135   7.602 -14.902  1.00  0.00     0.037 A 
ATOM     55  C   UNL     1      -6.707   9.955  -8.463  1.00  0.00     0.037 A 
ATOM     56  C   UNL     1      -8.048   9.035 -14.783  1.00  0.00     0.049 A 
ATOM     57  C   UNL     1      -6.845  10.887  -9.638  1.00  0.00     0.074 A 
ATOM     58  C   UNL     1      -8.231   9.995 -15.762  1.00  0.00     0.029 A 
ATOM     59  N   UNL     1      -7.742   9.713 -13.611  1.00  0.00    -0.354 N 
ATOM     60  N   UNL     1      -7.140  10.611 -10.885  1.00  0.00    -0.248 NA
ATOM     61  C   UNL     1      -6.628  12.316  -9.376  1.00  0.00     0.031 C 
ATOM     62  C   UNL     1      -7.982  11.250 -15.197  1.00  0.00     0.029 A 
ATOM     63  C   UNL     1      -7.706  11.078 -13.851  1.00  0.00     0.049 A 
ATOM     64  H   UNL     1      -7.577   9.288 -12.739  1.00  0.00     0.167 HD
ATOM     65  C   UNL     1      -7.177  11.831 -11.547  1.00  0.00     0.074 A 
ATOM     66  C   UNL     1      -6.890  12.850 -10.560  1.00  0.00     0.031 C 
ATOM     67  C   UNL     1      -7.427  12.084 -12.856  1.00  0.00     0.037 A 
BRANCH  54  68
ATOM     68  C   UNL     1      -8.407   7.014 -16.258  1.00  0.00     0.064 A 
ATOM     69  C   UNL     1      -9.618   6.367 -16.551  1.00  0.00     0.173 A 
ATOM     70  C   UNL     1      -7.459   7.125 -17.287  1.00  0.00     0.173 A 
ATOM     71  F   UNL     1     -10.555   6.226 -15.602  1.00  0.00    -0.203 F 
ATOM     72  C   UNL     1      -9.855   5.822 -17.811  1.00  0.00     0.198 A 
ATOM     73  C   UNL     1      -7.714   6.609 -18.556  1.00  0.00     0.198 A 
ATOM     74  F   UNL     1      -6.288   7.740 -17.066  1.00  0.00    -0.203 F 
ATOM     75  F   UNL     1     -10.995   5.160 -18.048  1.00  0.00    -0.200 F 
ATOM     76  C   UNL     1      -8.906   5.950 -18.814  1.00  0.00     0.200 A 
ATOM     77  F   UNL     1      -6.803   6.748 -19.529  1.00  0.00    -0.200 F 
ATOM     78  F   UNL     1      -9.138   5.431 -20.027  1.00  0.00    -0.200 F 
ENDBRANCH  54  68
BRANCH  55  79
ATOM     79  C   UNL     1      -6.394  10.481  -7.108  1.00  0.00     0.064 A 
ATOM     80  C   UNL     1      -7.317  11.279  -6.416  1.00  0.00     0.173 A 
ATOM     81  C   UNL     1      -5.169  10.210  -6.482  1.00  0.00     0.173 A 
ATOM     82  F   UNL     1      -8.495  11.583  -6.980  1.00  0.00    -0.203 F 
ATOM     83  C   UNL     1      -7.016  11.805  -5.161  1.00  0.00     0.198 A 
ATOM     84  C   UNL     1      -4.882  10.711  -5.214  1.00  0.00     0.198 A 
ATOM     85  F   UNL     1      -4.253   9.449  -7.098  1.00  0.00    -0.203 F 
ATOM     86  F   UNL     1      -7.895  12.607  -4.545  1.00  0.00    -0.200 F 
ATOM     87  C   UNL     1      -5.801  11.516  -4.559  1.00  0.00     0.200 A 
ATOM     88  F   UNL     1      -3.713  10.415  -4.628  1.00  0.00    -0.200 F 
ATOM     89  F   UNL     1      -5.513  12.020  -3.351  1.00  0.00    -0.200 F 
ENDBRANCH  55  79
BRANCH  67  90
ATOM     90  C   UNL     1      -7.445  13.522 -13.290  1.00  0.00     0.064 A 
ATOM     91  C   UNL     1      -6.274  14.292 -13.351  1.00  0.00     0.173 A 
ATOM     92  C   UNL     1      -8.649  14.128 -13.684  1.00  0.00     0.173 A 
ATOM     93  F   UNL     1      -5.099  13.766 -12.971  1.00  0.00    -0.203 F 
ATOM     94  C   UNL     1      -6.311  15.622 -13.763  1.00  0.00     0.198 A 
ATOM     95  C   UNL     1      -8.677  15.447 -14.128  1.00  0.00     0.198 A 
ATOM     96  F   UNL     1      -9.797  13.435 -13.651  1.00  0.00    -0.203 F 
ATOM     97  F   UNL     1      -5.189  16.353 -13.761  1.00  0.00    -0.200 F 
ATOM     98  C   UNL     1      -7.511  16.195 -14.159  1.00  0.00     0.200 A 
ATOM     99  F   UNL     1      -9.834  15.993 -14.526  1.00  0.00    -0.200 F 
ATOM    100  F   UNL     1      -7.543  17.472 -14.562  1.00  0.00    -0.200 F 
ENDBRANCH  67  90
ENDBRANCH  41  42
ENDBRANCH  33  36
ENDBRANCH  31  32
ENDBRANCH  30  31
ENDBRANCH  29  30
ENDBRANCH  27  29
ENDBRANCH   1  25
TORSDOF 12
