REMARK SMILES CCN1C(=O)/C(=C/c2ccccc2O[C@H](C)C(=O)NCCCNC(=O)c2ccc(-c3c4nc(c(-c5c(F)c(F)c(F)c(F)c5F)c5ccc([nH]5)c(-c5c(F)c(F)c(F)c(F)c5F)c5nc(c(-c6c(F)c(F)c(F)c(F)c6F)c6ccc3[nH]6)C=C5)C=C4)cc2)S/C1=[NH+]\c1ccc(C)cc1O
REMARK SMILES IDX 17 1 18 2 19 3 15 5 16 6 14 7 13 8 8 9 9 10 10 11 12 12
REMARK SMILES IDX 11 13 7 14 3 15 4 16 90 17 5 18 6 19 89 20 91 21 2 23 1 24
REMARK SMILES IDX 92 25 93 26 98 27 94 28 97 29 95 30 96 31 99 32 20 34 21 35
REMARK SMILES IDX 22 36 23 37 24 38 25 40 26 41 27 42 88 43 28 44 87 45 29 46
REMARK SMILES IDX 30 47 31 48 81 49 32 50 86 51 80 52 82 53 33 54 85 55 79 56
REMARK SMILES IDX 78 57 34 59 66 60 46 61 65 62 47 63 50 64 64 65 83 66 48 67
REMARK SMILES IDX 49 68 63 70 84 71 51 72 35 73 36 74 44 75 37 76 38 77 42 78
REMARK SMILES IDX 45 79 39 80 40 81 43 82 41 83 67 84 68 85 76 86 69 87 70 88
REMARK SMILES IDX 74 89 77 90 71 91 72 92 75 93 73 94 52 95 53 96 61 97 54 98
REMARK SMILES IDX 55 99 59 100 62 101 56 102 57 103 60 104 58 105
REMARK H PARENT 19 4 91 22 99 33 23 39 82 58 50 69
REMARK Flexibility Score: inf
ROOT
ATOM      1  C   UNL     1       4.594   4.262   1.412  1.00  0.00     0.260 C 
ATOM      2  O   UNL     1       5.292   3.516   2.104  1.00  0.00    -0.271 OA
ATOM      3  N   UNL     1       5.193   4.874   0.352  1.00  0.00    -0.353 N 
ATOM      4  H   UNL     1       6.170   4.763   0.300  1.00  0.00     0.163 HD
ENDROOT
BRANCH   1   5
ATOM      5  C   UNL     1       3.102   4.490   1.735  1.00  0.00     0.258 C 
ATOM      6  C   UNL     1       2.895   5.984   2.058  1.00  0.00     0.064 C 
BRANCH   5   7
ATOM      7  O   UNL     1       1.998   3.972   0.995  1.00  0.00    -0.480 OA
BRANCH   7   8
ATOM      8  C   UNL     1       2.126   3.461  -0.266  1.00  0.00     0.127 A 
ATOM      9  C   UNL     1       1.030   3.619  -1.136  1.00  0.00     0.018 A 
ATOM     10  C   UNL     1       1.160   3.316  -2.500  1.00  0.00     0.012 A 
ATOM     11  C   UNL     1       2.338   2.751  -2.981  1.00  0.00     0.001 A 
ATOM     12  C   UNL     1       3.219   2.729  -0.727  1.00  0.00     0.047 A 
ATOM     13  C   UNL     1       3.342   2.402  -2.083  1.00  0.00     0.004 A 
BRANCH   9  14
ATOM     14  C   UNL     1      -0.317   3.852  -0.603  1.00  0.00     0.036 C 
ATOM     15  N   UNL     1      -2.558   6.279   0.811  1.00  0.00    -0.186 N 
ATOM     16  C   UNL     1      -2.181   4.984   0.517  1.00  0.00     0.348 C 
ATOM     17  C   UNL     1      -1.650   7.263   0.503  1.00  0.00     0.324 C 
ATOM     18  O   UNL     1      -2.813   3.970   0.757  1.00  0.00    -0.240 OA
ATOM     19  C   UNL     1      -0.846   4.984  -0.135  1.00  0.00     0.110 C 
ATOM     20  S   UNL     1      -0.189   6.556  -0.155  1.00  0.00     0.007 SA
ATOM     21  N   UNL     1      -1.903   8.521   0.665  1.00  0.00    -0.231 N 
ATOM     22  H   UNL     1      -2.790   8.795   0.994  1.00  0.00     0.313 HD
BRANCH  15  23
ATOM     23  C   UNL     1      -3.808   6.536   1.518  1.00  0.00     0.244 C 
ATOM     24  C   UNL     1      -5.041   6.027   0.781  1.00  0.00     0.055 C 
ENDBRANCH  15  23
BRANCH  21  25
ATOM     25  C   UNL     1      -0.938   9.509   0.382  1.00  0.00     0.167 A 
ATOM     26  C   UNL     1      -0.442  10.288   1.430  1.00  0.00     0.056 A 
ATOM     27  C   UNL     1      -0.502   9.802  -0.920  1.00  0.00     0.162 A 
ATOM     28  C   UNL     1       0.498  11.297   1.189  1.00  0.00     0.008 A 
ATOM     29  C   UNL     1       0.459  10.779  -1.166  1.00  0.00     0.054 A 
ATOM     30  C   UNL     1       0.969  11.537  -0.108  1.00  0.00    -0.047 A 
ATOM     31  C   UNL     1       1.962  12.632  -0.362  1.00  0.00     0.044 C 
BRANCH  27  32
ATOM     32  O   UNL     1      -1.016   9.145  -2.007  1.00  0.00    -0.504 OA
ATOM     33  H   UNL     1      -1.665   8.480  -1.888  1.00  0.00     0.293 HD
ENDBRANCH  27  32
ENDBRANCH  21  25
ENDBRANCH   9  14
ENDBRANCH   7   8
ENDBRANCH   5   7
ENDBRANCH   1   5
BRANCH   3  34
ATOM     34  C   UNL     1       4.599   5.666  -0.712  1.00  0.00     0.118 C 
BRANCH  34  35
ATOM     35  C   UNL     1       5.605   6.604  -1.346  1.00  0.00     0.042 C 
BRANCH  35  36
ATOM     36  C   UNL     1       6.768   5.878  -2.007  1.00  0.00     0.118 C 
BRANCH  36  37
ATOM     37  N   UNL     1       6.378   5.031  -3.130  1.00  0.00    -0.352 N 
ATOM     38  C   UNL     1       6.866   5.024  -4.417  1.00  0.00     0.251 C 
ATOM     39  H   UNL     1       5.669   4.375  -2.941  1.00  0.00     0.163 HD
ATOM     40  O   UNL     1       6.358   4.318  -5.280  1.00  0.00    -0.269 OA
BRANCH  38  41
ATOM     41  C   UNL     1       7.986   5.926  -4.753  1.00  0.00     0.039 A 
ATOM     42  C   UNL     1       7.872   6.769  -5.858  1.00  0.00     0.014 A 
ATOM     43  C   UNL     1       9.092   6.009  -3.906  1.00  0.00     0.014 A 
ATOM     44  C   UNL     1       8.826   7.769  -6.055  1.00  0.00     0.010 A 
ATOM     45  C   UNL     1       9.966   7.079  -4.032  1.00  0.00     0.010 A 
ATOM     46  C   UNL     1       9.846   7.968  -5.110  1.00  0.00    -0.014 A 
BRANCH  46  47
ATOM     47  C   UNL     1      10.808   9.094  -5.229  1.00  0.00     0.031 A 
ATOM     48  C   UNL     1      12.281   8.808  -5.329  1.00  0.00     0.074 A 
ATOM     49  C   UNL     1      10.365  10.366  -5.168  1.00  0.00     0.049 A 
ATOM     50  N   UNL     1      13.288   9.643  -5.354  1.00  0.00    -0.248 NA
ATOM     51  C   UNL     1      12.679   7.391  -5.364  1.00  0.00     0.031 C 
ATOM     52  C   UNL     1       8.967  10.772  -5.008  1.00  0.00     0.029 A 
ATOM     53  N   UNL     1      11.048  11.555  -5.225  1.00  0.00    -0.354 N 
ATOM     54  C   UNL     1      14.430   8.853  -5.388  1.00  0.00     0.074 A 
ATOM     55  C   UNL     1      13.998   7.476  -5.304  1.00  0.00     0.031 C 
ATOM     56  C   UNL     1       8.893  12.112  -5.015  1.00  0.00     0.029 A 
ATOM     57  C   UNL     1      10.239  12.662  -5.133  1.00  0.00     0.049 A 
ATOM     58  H   UNL     1      12.026  11.610  -5.323  1.00  0.00     0.167 HD
ATOM     59  C   UNL     1      15.721   9.239  -5.512  1.00  0.00     0.037 A 
ATOM     60  C   UNL     1      10.551  13.973  -5.136  1.00  0.00     0.037 A 
ATOM     61  C   UNL     1      16.141  10.610  -5.626  1.00  0.00     0.049 A 
ATOM     62  C   UNL     1      11.996  14.376  -5.273  1.00  0.00     0.074 A 
ATOM     63  C   UNL     1      17.416  11.108  -5.821  1.00  0.00     0.029 A 
ATOM     64  N   UNL     1      15.289  11.703  -5.551  1.00  0.00    -0.354 N 
ATOM     65  N   UNL     1      13.061  13.620  -5.384  1.00  0.00    -0.248 NA
ATOM     66  C   UNL     1      12.281  15.818  -5.292  1.00  0.00     0.031 C 
ATOM     67  C   UNL     1      17.345  12.504  -5.808  1.00  0.00     0.029 A 
ATOM     68  C   UNL     1      16.017  12.876  -5.670  1.00  0.00     0.049 A 
ATOM     69  H   UNL     1      14.313  11.652  -5.432  1.00  0.00     0.167 HD
ATOM     70  C   UNL     1      14.135  14.488  -5.518  1.00  0.00     0.074 A 
ATOM     71  C   UNL     1      13.591  15.830  -5.490  1.00  0.00     0.031 C 
ATOM     72  C   UNL     1      15.454  14.203  -5.650  1.00  0.00     0.037 A 
BRANCH  59  73
ATOM     73  C   UNL     1      16.769   8.162  -5.536  1.00  0.00     0.064 A 
ATOM     74  C   UNL     1      16.872   7.256  -6.603  1.00  0.00     0.173 A 
ATOM     75  C   UNL     1      17.698   8.050  -4.491  1.00  0.00     0.173 A 
ATOM     76  F   UNL     1      16.001   7.309  -7.622  1.00  0.00    -0.203 F 
ATOM     77  C   UNL     1      17.842   6.257  -6.606  1.00  0.00     0.198 A 
ATOM     78  C   UNL     1      18.690   7.073  -4.514  1.00  0.00     0.198 A 
ATOM     79  F   UNL     1      17.648   8.891  -3.447  1.00  0.00    -0.203 F 
ATOM     80  F   UNL     1      17.882   5.366  -7.606  1.00  0.00    -0.200 F 
ATOM     81  C   UNL     1      18.755   6.171  -5.566  1.00  0.00     0.200 A 
ATOM     82  F   UNL     1      19.581   7.001  -3.516  1.00  0.00    -0.200 F 
ATOM     83  F   UNL     1      19.694   5.215  -5.574  1.00  0.00    -0.200 F 
ENDBRANCH  59  73
BRANCH  60  84
ATOM     84  C   UNL     1       9.478  14.998  -5.031  1.00  0.00     0.064 A 
ATOM     85  C   UNL     1       9.178  15.841  -6.111  1.00  0.00     0.173 A 
ATOM     86  C   UNL     1       8.737  15.165  -3.852  1.00  0.00     0.173 A 
ATOM     87  F   UNL     1       9.871  15.735  -7.255  1.00  0.00    -0.203 F 
ATOM     88  C   UNL     1       8.199  16.828  -6.007  1.00  0.00     0.198 A 
ATOM     89  C   UNL     1       7.736  16.130  -3.760  1.00  0.00     0.198 A 
ATOM     90  F   UNL     1       8.977  14.381  -2.791  1.00  0.00    -0.203 F 
ATOM     91  F   UNL     1       7.972  17.654  -7.037  1.00  0.00    -0.200 F 
ATOM     92  C   UNL     1       7.475  16.967  -4.833  1.00  0.00     0.200 A 
ATOM     93  F   UNL     1       7.026  16.249  -2.630  1.00  0.00    -0.200 F 
ATOM     94  F   UNL     1       6.531  17.913  -4.734  1.00  0.00    -0.200 F 
ENDBRANCH  60  84
BRANCH  72  95
ATOM     95  C   UNL     1      16.397  15.359  -5.817  1.00  0.00     0.064 A 
ATOM     96  C   UNL     1      16.683  16.239  -4.763  1.00  0.00     0.173 A 
ATOM     97  C   UNL     1      17.058  15.561  -7.039  1.00  0.00     0.173 A 
ATOM     98  F   UNL     1      16.067  16.098  -3.579  1.00  0.00    -0.203 F 
ATOM     99  C   UNL     1      17.573  17.296  -4.935  1.00  0.00     0.198 A 
ATOM    100  C   UNL     1      17.974  16.597  -7.196  1.00  0.00     0.198 A 
ATOM    101  F   UNL     1      16.828  14.743  -8.077  1.00  0.00    -0.203 F 
ATOM    102  F   UNL     1      17.790  18.156  -3.930  1.00  0.00    -0.200 F 
ATOM    103  C   UNL     1      18.224  17.468  -6.147  1.00  0.00     0.200 A 
ATOM    104  F   UNL     1      18.616  16.750  -8.362  1.00  0.00    -0.200 F 
ATOM    105  F   UNL     1      19.089  18.480  -6.307  1.00  0.00    -0.200 F 
ENDBRANCH  72  95
ENDBRANCH  46  47
ENDBRANCH  38  41
ENDBRANCH  36  37
ENDBRANCH  35  36
ENDBRANCH  34  35
ENDBRANCH   3  34
TORSDOF 16
