REMARK SMILES [NH3+][C@@H](C(=O)NCCCNC(=O)c1ccc(-c2c3nc(c(-c4c(F)c(F)c(F)c(F)c4F)c4ccc([nH]4)c(-c4c(F)c(F)c(F)c(F)c4F)c4nc(c(-c5c(F)c(F)c(F)c(F)c5F)c5ccc2[nH]5)C=C4)C=C3)cc1)[C@@H](O)c1cccs1
REMARK SMILES IDX 7 1 6 2 5 3 3 4 4 5 2 7 1 8 75 12 76 13 77 15 78 16 81 17
REMARK SMILES IDX 79 18 80 19 8 20 9 21 10 22 11 24 12 25 13 26 74 27 14 28
REMARK SMILES IDX 73 29 15 30 16 31 17 32 67 33 18 34 72 35 66 36 68 37 19 38
REMARK SMILES IDX 71 39 65 40 64 41 20 43 52 44 32 45 51 46 33 47 36 48 50 49
REMARK SMILES IDX 69 50 34 51 35 52 49 54 70 55 37 56 21 57 22 58 30 59 23 60
REMARK SMILES IDX 24 61 28 62 31 63 25 64 26 65 29 66 27 67 53 68 54 69 62 70
REMARK SMILES IDX 55 71 56 72 60 73 63 74 57 75 58 76 61 77 59 78 38 79 39 80
REMARK SMILES IDX 47 81 40 82 41 83 45 84 48 85 42 86 43 87 46 88 44 89
REMARK H PARENT 5 6 1 9 1 10 1 11 76 14 9 23 68 42 36 53
REMARK Flexibility Score: inf
ROOT
ATOM      1  C   UNL     1       4.244  -0.935   0.477  1.00  0.00     0.042 C 
ENDROOT
BRANCH   1   2
ATOM      2  C   UNL     1       3.267  -1.944  -0.122  1.00  0.00     0.118 C 
BRANCH   2   3
ATOM      3  N   UNL     1       2.259  -2.334   0.847  1.00  0.00    -0.351 N 
ATOM      4  C   UNL     1       0.944  -1.971   0.933  1.00  0.00     0.281 C 
ATOM      5  O   UNL     1       0.333  -2.261   1.961  1.00  0.00    -0.268 OA
ATOM      6  H   UNL     1       2.568  -2.953   1.547  1.00  0.00     0.163 HD
BRANCH   4   7
ATOM      7  C   UNL     1       0.306  -1.189  -0.223  1.00  0.00     0.305 C 
BRANCH   7   8
ATOM      8  N   UNL     1       0.621   0.268  -0.053  1.00  0.00    -0.345 N 
ATOM      9  H   UNL     1       1.632   0.397  -0.027  1.00  0.00     0.345 HD
ATOM     10  H   UNL     1       0.213   0.604   0.820  1.00  0.00     0.345 HD
ATOM     11  H   UNL     1       0.231   0.794  -0.835  1.00  0.00     0.345 HD
ENDBRANCH   7   8
BRANCH   7  12
ATOM     12  C   UNL     1      -1.232  -1.382  -0.262  1.00  0.00     0.222 C 
BRANCH  12  13
ATOM     13  O   UNL     1      -1.745  -0.421  -1.206  1.00  0.00    -0.381 OA
ATOM     14  H   UNL     1      -1.376  -0.602  -2.085  1.00  0.00     0.211 HD
ENDBRANCH  12  13
BRANCH  12  15
ATOM     15  C   UNL     1      -1.699  -2.756  -0.702  1.00  0.00     0.040 A 
ATOM     16  C   UNL     1      -1.056  -3.983  -0.625  1.00  0.00     0.018 A 
ATOM     17  S   UNL     1      -3.302  -2.964  -1.309  1.00  0.00    -0.146 S 
ATOM     18  C   UNL     1      -1.863  -5.069  -1.073  1.00  0.00     0.012 A 
ATOM     19  C   UNL     1      -3.104  -4.649  -1.487  1.00  0.00     0.065 A 
ENDBRANCH  12  15
ENDBRANCH   7  12
ENDBRANCH   4   7
ENDBRANCH   2   3
ENDBRANCH   1   2
BRANCH   1  20
ATOM     20  C   UNL     1       5.070  -1.484   1.637  1.00  0.00     0.118 C 
BRANCH  20  21
ATOM     21  N   UNL     1       5.985  -2.535   1.225  1.00  0.00    -0.352 N 
ATOM     22  C   UNL     1       7.310  -2.707   1.527  1.00  0.00     0.251 C 
ATOM     23  H   UNL     1       5.595  -3.226   0.643  1.00  0.00     0.163 HD
ATOM     24  O   UNL     1       7.951  -3.583   0.945  1.00  0.00    -0.269 OA
BRANCH  22  25
ATOM     25  C   UNL     1       7.985  -1.851   2.526  1.00  0.00     0.039 A 
ATOM     26  C   UNL     1       9.300  -1.446   2.276  1.00  0.00     0.014 A 
ATOM     27  C   UNL     1       7.364  -1.496   3.728  1.00  0.00     0.014 A 
ATOM     28  C   UNL     1       9.981  -0.668   3.215  1.00  0.00     0.010 A 
ATOM     29  C   UNL     1       8.019  -0.661   4.632  1.00  0.00     0.010 A 
ATOM     30  C   UNL     1       9.342  -0.261   4.396  1.00  0.00    -0.014 A 
BRANCH  30  31
ATOM     31  C   UNL     1      10.070   0.537   5.415  1.00  0.00     0.031 A 
ATOM     32  C   UNL     1      10.374  -0.060   6.762  1.00  0.00     0.074 A 
ATOM     33  C   UNL     1      10.428   1.806   5.144  1.00  0.00     0.049 A 
ATOM     34  N   UNL     1      10.975   0.480   7.793  1.00  0.00    -0.248 NA
ATOM     35  C   UNL     1       9.918  -1.440   6.990  1.00  0.00     0.031 C 
ATOM     36  C   UNL     1      10.145   2.515   3.897  1.00  0.00     0.029 A 
ATOM     37  N   UNL     1      11.104   2.725   5.906  1.00  0.00    -0.354 N 
ATOM     38  C   UNL     1      10.957  -0.487   8.790  1.00  0.00     0.074 A 
ATOM     39  C   UNL     1      10.234  -1.624   8.263  1.00  0.00     0.031 C 
ATOM     40  C   UNL     1      10.659   3.754   3.971  1.00  0.00     0.029 A 
ATOM     41  C   UNL     1      11.288   3.932   5.277  1.00  0.00     0.049 A 
ATOM     42  H   UNL     1      11.427   2.538   6.817  1.00  0.00     0.167 HD
ATOM     43  C   UNL     1      11.516  -0.444  10.023  1.00  0.00     0.037 A 
ATOM     44  C   UNL     1      11.899   5.052   5.705  1.00  0.00     0.037 A 
ATOM     45  C   UNL     1      12.256   0.678  10.537  1.00  0.00     0.049 A 
ATOM     46  C   UNL     1      12.544   5.065   7.064  1.00  0.00     0.074 A 
ATOM     47  C   UNL     1      12.891   0.810  11.760  1.00  0.00     0.029 A 
ATOM     48  N   UNL     1      12.464   1.865   9.849  1.00  0.00    -0.354 N 
ATOM     49  N   UNL     1      12.570   4.124   7.976  1.00  0.00    -0.248 NA
ATOM     50  C   UNL     1      13.262   6.289   7.444  1.00  0.00     0.031 C 
ATOM     51  C   UNL     1      13.459   2.087  11.823  1.00  0.00     0.029 A 
ATOM     52  C   UNL     1      13.215   2.735  10.623  1.00  0.00     0.049 A 
ATOM     53  H   UNL     1      12.128   2.060   8.945  1.00  0.00     0.167 HD
ATOM     54  C   UNL     1      13.328   4.629   9.024  1.00  0.00     0.074 A 
ATOM     55  C   UNL     1      13.755   5.955   8.628  1.00  0.00     0.031 C 
ATOM     56  C   UNL     1      13.642   4.047  10.207  1.00  0.00     0.037 A 
BRANCH  43  57
ATOM     57  C   UNL     1      11.351  -1.655  10.895  1.00  0.00     0.064 A 
ATOM     58  C   UNL     1      12.005  -2.863  10.603  1.00  0.00     0.173 A 
ATOM     59  C   UNL     1      10.543  -1.608  12.040  1.00  0.00     0.173 A 
ATOM     60  F   UNL     1      12.778  -2.964   9.511  1.00  0.00    -0.203 F 
ATOM     61  C   UNL     1      11.825  -3.987  11.403  1.00  0.00     0.198 A 
ATOM     62  C   UNL     1      10.390  -2.727  12.856  1.00  0.00     0.198 A 
ATOM     63  F   UNL     1       9.899  -0.478  12.369  1.00  0.00    -0.203 F 
ATOM     64  F   UNL     1      12.413  -5.145  11.070  1.00  0.00    -0.200 F 
ATOM     65  C   UNL     1      11.023  -3.917  12.532  1.00  0.00     0.200 A 
ATOM     66  F   UNL     1       9.624  -2.655  13.953  1.00  0.00    -0.200 F 
ATOM     67  F   UNL     1      10.852  -5.001  13.302  1.00  0.00    -0.200 F 
ENDBRANCH  43  57
BRANCH  44  68
ATOM     68  C   UNL     1      11.967   6.239   4.815  1.00  0.00     0.064 A 
ATOM     69  C   UNL     1      13.175   6.622   4.216  1.00  0.00     0.173 A 
ATOM     70  C   UNL     1      10.827   7.005   4.536  1.00  0.00     0.173 A 
ATOM     71  F   UNL     1      14.296   5.929   4.467  1.00  0.00    -0.203 F 
ATOM     72  C   UNL     1      13.244   7.738   3.385  1.00  0.00     0.198 A 
ATOM     73  C   UNL     1      10.892   8.107   3.685  1.00  0.00     0.198 A 
ATOM     74  F   UNL     1       9.646   6.675   5.078  1.00  0.00    -0.203 F 
ATOM     75  F   UNL     1      14.419   8.105   2.857  1.00  0.00    -0.200 F 
ATOM     76  C   UNL     1      12.101   8.476   3.116  1.00  0.00     0.200 A 
ATOM     77  F   UNL     1       9.783   8.809   3.415  1.00  0.00    -0.200 F 
ATOM     78  F   UNL     1      12.167   9.546   2.312  1.00  0.00    -0.200 F 
ENDBRANCH  44  68
BRANCH  56  79
ATOM     79  C   UNL     1      14.522   4.824  11.142  1.00  0.00     0.064 A 
ATOM     80  C   UNL     1      14.048   5.944  11.841  1.00  0.00     0.173 A 
ATOM     81  C   UNL     1      15.848   4.422  11.362  1.00  0.00     0.173 A 
ATOM     82  F   UNL     1      12.792   6.375  11.653  1.00  0.00    -0.203 F 
ATOM     83  C   UNL     1      14.880   6.651  12.705  1.00  0.00     0.198 A 
ATOM     84  C   UNL     1      16.668   5.115  12.248  1.00  0.00     0.198 A 
ATOM     85  F   UNL     1      16.346   3.354  10.722  1.00  0.00    -0.203 F 
ATOM     86  F   UNL     1      14.422   7.747  13.325  1.00  0.00    -0.200 F 
ATOM     87  C   UNL     1      16.187   6.233  12.912  1.00  0.00     0.200 A 
ATOM     88  F   UNL     1      17.927   4.704  12.455  1.00  0.00    -0.200 F 
ATOM     89  F   UNL     1      16.985   6.914  13.746  1.00  0.00    -0.200 F 
ENDBRANCH  56  79
ENDBRANCH  30  31
ENDBRANCH  22  25
ENDBRANCH  20  21
ENDBRANCH   1  20
TORSDOF 14
