REMARK SMILES Nc1ccc(-c2cc(Cl)cc3c2O[C@H](C(F)(F)F)C(C(=O)NCCCNC(=O)c2ccc(-c4c5nc(c(-c6c(F)c(F)c(F)c(F)c6F)c6ccc([nH]6)c(-c6c(F)c(F)c(F)c(F)c6F)c6nc(c(-c7c(F)c(F)c(F)c(F)c7F)c7ccc4[nH]7)C=C6)C=C5)cc2)=C3)cc1
REMARK SMILES IDX 24 1 23 2 22 3 20 4 21 5 19 7 6 8 7 9 12 10 8 11 11 12 13 13
REMARK SMILES IDX 9 14 10 15 92 16 14 17 5 18 2 19 3 20 94 21 4 22 93 23 1 24
REMARK SMILES IDX 15 27 16 28 17 29 18 30 25 31 26 32 27 33 28 35 29 36 30 37
REMARK SMILES IDX 91 38 31 39 90 40 32 41 33 42 34 43 84 44 35 45 89 46 83 47
REMARK SMILES IDX 85 48 36 49 88 50 82 51 81 52 37 54 69 55 49 56 68 57 50 58
REMARK SMILES IDX 53 59 67 60 86 61 51 62 52 63 66 65 87 66 54 67 38 68 39 69
REMARK SMILES IDX 47 70 40 71 41 72 45 73 48 74 42 75 43 76 46 77 44 78 70 79
REMARK SMILES IDX 71 80 79 81 72 82 73 83 77 84 80 85 74 86 75 87 78 88 76 89
REMARK SMILES IDX 55 90 56 91 64 92 57 93 58 94 62 95 65 96 59 97 60 98 63 99
REMARK SMILES IDX 61 100
REMARK H PARENT 22 6 1 25 1 26 26 34 85 53 53 64
REMARK Flexibility Score: inf
ROOT
ATOM      1  C   UNL     1      -3.634  -2.850   6.512  1.00  0.00     0.042 C 
ENDROOT
BRANCH   1   2
ATOM      2  C   UNL     1      -4.290  -3.646   5.394  1.00  0.00     0.118 C 
BRANCH   2   3
ATOM      3  N   UNL     1      -5.611  -3.138   5.058  1.00  0.00    -0.352 N 
ATOM      4  C   UNL     1      -6.163  -2.385   4.076  1.00  0.00     0.251 C 
ATOM      5  O   UNL     1      -7.380  -2.200   4.179  1.00  0.00    -0.270 OA
ATOM      6  H   UNL     1      -6.284  -3.415   5.721  1.00  0.00     0.163 HD
BRANCH   4   7
ATOM      7  C   UNL     1      -5.419  -1.787   2.931  1.00  0.00     0.067 C 
ATOM      8  C   UNL     1      -3.360   0.146  -0.188  1.00  0.00     0.026 A 
ATOM      9  C   UNL     1      -4.101   0.699  -1.242  1.00  0.00     0.033 A 
ATOM     10  C   UNL     1      -4.069  -0.416   0.891  1.00  0.00     0.135 A 
ATOM     11  C   UNL     1      -5.498   0.681  -1.210  1.00  0.00     0.042 A 
ATOM     12  C   UNL     1      -5.469  -0.445   0.921  1.00  0.00     0.019 A 
ATOM     13  O   UNL     1      -3.338  -0.890   1.952  1.00  0.00    -0.475 OA
ATOM     14  Cl  UNL     1      -6.386   1.367  -2.517  1.00  0.00    -0.084 Cl
ATOM     15  C   UNL     1      -6.186   0.113  -0.136  1.00  0.00     0.032 A 
ATOM     16  C   UNL     1      -6.143  -1.042   2.072  1.00  0.00     0.025 C 
ATOM     17  C   UNL     1      -3.950  -1.975   2.692  1.00  0.00     0.314 C 
BRANCH   8  18
ATOM     18  C   UNL     1      -1.889   0.133  -0.220  1.00  0.00    -0.014 A 
ATOM     19  C   UNL     1       0.942   0.079  -0.123  1.00  0.00     0.031 A 
ATOM     20  C   UNL     1       0.212  -1.106  -0.174  1.00  0.00     0.026 A 
ATOM     21  C   UNL     1       0.248   1.290  -0.103  1.00  0.00     0.026 A 
ATOM     22  C   UNL     1      -1.185  -1.081  -0.240  1.00  0.00     0.011 A 
ATOM     23  C   UNL     1      -1.150   1.321  -0.164  1.00  0.00     0.011 A 
BRANCH  19  24
ATOM     24  N   UNL     1       2.317   0.051   0.038  1.00  0.00    -0.399 N 
ATOM     25  H   UNL     1       2.797  -0.809   0.022  1.00  0.00     0.156 HD
ATOM     26  H   UNL     1       2.816   0.890   0.168  1.00  0.00     0.156 HD
ENDBRANCH  19  24
ENDBRANCH   8  18
BRANCH  17  27
ATOM     27  C   UNL     1      -3.612  -3.321   2.020  1.00  0.00     0.429 C 
ATOM     28  F   UNL     1      -2.297  -3.612   2.179  1.00  0.00    -0.167 F 
ATOM     29  F   UNL     1      -4.302  -4.356   2.558  1.00  0.00    -0.167 F 
ATOM     30  F   UNL     1      -3.870  -3.331   0.694  1.00  0.00    -0.167 F 
ENDBRANCH  17  27
ENDBRANCH   4   7
ENDBRANCH   2   3
ENDBRANCH   1   2
BRANCH   1  31
ATOM     31  C   UNL     1      -4.103  -3.284   7.894  1.00  0.00     0.118 C 
BRANCH  31  32
ATOM     32  N   UNL     1      -3.672  -4.640   8.232  1.00  0.00    -0.352 N 
ATOM     33  C   UNL     1      -2.968  -5.108   9.315  1.00  0.00     0.251 C 
ATOM     34  H   UNL     1      -3.929  -5.329   7.578  1.00  0.00     0.163 HD
ATOM     35  O   UNL     1      -2.561  -6.267   9.324  1.00  0.00    -0.269 OA
BRANCH  33  36
ATOM     36  C   UNL     1      -2.672  -4.215  10.453  1.00  0.00     0.039 A 
ATOM     37  C   UNL     1      -3.626  -3.305  10.904  1.00  0.00     0.014 A 
ATOM     38  C   UNL     1      -1.417  -4.276  11.069  1.00  0.00     0.014 A 
ATOM     39  C   UNL     1      -3.259  -2.323  11.812  1.00  0.00     0.010 A 
ATOM     40  C   UNL     1      -1.089  -3.357  12.071  1.00  0.00     0.010 A 
ATOM     41  C   UNL     1      -1.986  -2.333  12.406  1.00  0.00    -0.014 A 
BRANCH  41  42
ATOM     42  C   UNL     1      -1.637  -1.241  13.353  1.00  0.00     0.031 A 
ATOM     43  C   UNL     1      -0.535  -0.267  13.037  1.00  0.00     0.074 A 
ATOM     44  C   UNL     1      -2.403  -1.065  14.448  1.00  0.00     0.049 A 
ATOM     45  N   UNL     1      -0.176   0.810  13.690  1.00  0.00    -0.248 NA
ATOM     46  C   UNL     1       0.277  -0.532  11.838  1.00  0.00     0.031 C 
ATOM     47  C   UNL     1      -3.500  -1.946  14.853  1.00  0.00     0.029 A 
ATOM     48  N   UNL     1      -2.421  -0.062  15.383  1.00  0.00    -0.354 N 
ATOM     49  C   UNL     1       0.906   1.336  12.997  1.00  0.00     0.074 A 
ATOM     50  C   UNL     1       1.172   0.445  11.890  1.00  0.00     0.031 C 
ATOM     51  C   UNL     1      -4.145  -1.396  15.891  1.00  0.00     0.029 A 
ATOM     52  C   UNL     1      -3.466  -0.162  16.270  1.00  0.00     0.049 A 
ATOM     53  H   UNL     1      -1.751   0.659  15.416  1.00  0.00     0.167 HD
ATOM     54  C   UNL     1       1.601   2.469  13.250  1.00  0.00     0.037 A 
ATOM     55  C   UNL     1      -3.840   0.651  17.276  1.00  0.00     0.037 A 
ATOM     56  C   UNL     1       1.308   3.374  14.330  1.00  0.00     0.049 A 
ATOM     57  C   UNL     1      -3.032   1.885  17.553  1.00  0.00     0.074 A 
ATOM     58  C   UNL     1       1.934   4.567  14.648  1.00  0.00     0.029 A 
ATOM     59  N   UNL     1       0.299   3.189  15.263  1.00  0.00    -0.354 N 
ATOM     60  N   UNL     1      -2.018   2.374  16.881  1.00  0.00    -0.248 NA
ATOM     61  C   UNL     1      -3.403   2.668  18.740  1.00  0.00     0.031 C 
ATOM     62  C   UNL     1       1.329   5.083  15.798  1.00  0.00     0.029 A 
ATOM     63  C   UNL     1       0.302   4.232  16.174  1.00  0.00     0.049 A 
ATOM     64  H   UNL     1      -0.327   2.429  15.275  1.00  0.00     0.167 HD
ATOM     65  C   UNL     1      -1.626   3.516  17.563  1.00  0.00     0.074 A 
ATOM     66  C   UNL     1      -2.530   3.665  18.686  1.00  0.00     0.031 C 
ATOM     67  C   UNL     1      -0.600   4.357  17.289  1.00  0.00     0.037 A 
BRANCH  54  68
ATOM     68  C   UNL     1       2.752   2.803  12.347  1.00  0.00     0.064 A 
ATOM     69  C   UNL     1       2.549   3.270  11.040  1.00  0.00     0.173 A 
ATOM     70  C   UNL     1       4.072   2.716  12.816  1.00  0.00     0.173 A 
ATOM     71  F   UNL     1       1.307   3.361  10.541  1.00  0.00    -0.203 F 
ATOM     72  C   UNL     1       3.626   3.621  10.230  1.00  0.00     0.198 A 
ATOM     73  C   UNL     1       5.145   3.092  12.011  1.00  0.00     0.198 A 
ATOM     74  F   UNL     1       4.320   2.283  14.061  1.00  0.00    -0.203 F 
ATOM     75  F   UNL     1       3.410   4.033   8.973  1.00  0.00    -0.200 F 
ATOM     76  C   UNL     1       4.921   3.540  10.718  1.00  0.00     0.200 A 
ATOM     77  F   UNL     1       6.395   3.024  12.489  1.00  0.00    -0.200 F 
ATOM     78  F   UNL     1       5.955   3.890   9.941  1.00  0.00    -0.200 F 
ENDBRANCH  54  68
BRANCH  55  79
ATOM     79  C   UNL     1      -5.044   0.318  18.078  1.00  0.00     0.064 A 
ATOM     80  C   UNL     1      -6.209   1.091  17.981  1.00  0.00     0.173 A 
ATOM     81  C   UNL     1      -5.073  -0.803  18.921  1.00  0.00     0.173 A 
ATOM     82  F   UNL     1      -6.225   2.183  17.202  1.00  0.00    -0.203 F 
ATOM     83  C   UNL     1      -7.357   0.754  18.695  1.00  0.00     0.198 A 
ATOM     84  C   UNL     1      -6.229  -1.155  19.612  1.00  0.00     0.198 A 
ATOM     85  F   UNL     1      -3.984  -1.576  19.046  1.00  0.00    -0.203 F 
ATOM     86  F   UNL     1      -8.451   1.522  18.601  1.00  0.00    -0.200 F 
ATOM     87  C   UNL     1      -7.370  -0.375  19.501  1.00  0.00     0.200 A 
ATOM     88  F   UNL     1      -6.242  -2.256  20.375  1.00  0.00    -0.200 F 
ATOM     89  F   UNL     1      -8.481  -0.710  20.171  1.00  0.00    -0.200 F 
ENDBRANCH  55  79
BRANCH  67  90
ATOM     90  C   UNL     1      -0.382   5.508  18.223  1.00  0.00     0.064 A 
ATOM     91  C   UNL     1       0.210   5.316  19.479  1.00  0.00     0.173 A 
ATOM     92  C   UNL     1      -0.681   6.819  17.826  1.00  0.00     0.173 A 
ATOM     93  F   UNL     1       0.501   4.078  19.906  1.00  0.00    -0.203 F 
ATOM     94  C   UNL     1       0.495   6.398  20.306  1.00  0.00     0.198 A 
ATOM     95  C   UNL     1      -0.374   7.901  18.646  1.00  0.00     0.198 A 
ATOM     96  F   UNL     1      -1.243   7.052  16.630  1.00  0.00    -0.203 F 
ATOM     97  F   UNL     1       1.044   6.192  21.511  1.00  0.00    -0.200 F 
ATOM     98  C   UNL     1       0.212   7.689  19.885  1.00  0.00     0.200 A 
ATOM     99  F   UNL     1      -0.635   9.148  18.233  1.00  0.00    -0.200 F 
ATOM    100  F   UNL     1       0.507   8.732  20.674  1.00  0.00    -0.200 F 
ENDBRANCH  67  90
ENDBRANCH  41  42
ENDBRANCH  33  36
ENDBRANCH  31  32
ENDBRANCH   1  31
TORSDOF 13
