REMARK SMILES Cc1cccc2[nH]cc(C[C@H](NC(=O)OC(C)(C)C)C(=O)NCCCNC(=O)c3ccc(-c4c5nc(c(-c6c(F)c(F)c(F)c(F)c6F)c6ccc([nH]6)c(-c6c(F)c(F)c(F)c(F)c6F)c6nc(c(-c7c(F)c(F)c(F)c(F)c7F)c7ccc4[nH]7)C=C6)C=C5)cc3)c12
REMARK SMILES IDX 23 1 22 2 20 3 21 4 11 6 10 7 9 8 1 9 2 10 3 11 92 12 4 13
REMARK SMILES IDX 6 14 5 15 7 16 8 17 12 19 13 20 14 22 15 23 16 24 17 25
REMARK SMILES IDX 18 26 19 27 24 28 25 29 26 30 27 31 28 33 29 34 30 35 91 36
REMARK SMILES IDX 31 37 90 38 32 39 33 40 34 41 84 42 35 43 89 44 83 45 85 46
REMARK SMILES IDX 36 47 88 48 82 49 81 50 37 52 69 53 49 54 68 55 50 56 53 57
REMARK SMILES IDX 67 58 86 59 51 60 52 61 66 63 87 64 54 65 38 66 39 67 47 68
REMARK SMILES IDX 40 69 41 70 45 71 48 72 42 73 43 74 46 75 44 76 70 77 71 78
REMARK SMILES IDX 79 79 72 80 73 81 77 82 80 83 74 84 75 85 78 86 76 87 55 88
REMARK SMILES IDX 56 89 64 90 57 91 58 92 62 93 65 94 59 95 60 96 63 97 61 98
REMARK H PARENT 22 5 7 18 12 21 26 32 85 51 53 62
REMARK Flexibility Score: inf
ROOT
ATOM      1  C   UNL     1       6.409  -1.220   0.944  1.00  0.00     0.117 C 
ENDROOT
BRANCH   1   2
ATOM      2  N   UNL     1       5.774  -0.296   1.887  1.00  0.00    -0.354 N 
ATOM      3  C   UNL     1       4.710  -0.538   2.737  1.00  0.00     0.243 C 
ATOM      4  O   UNL     1       4.429   0.304   3.590  1.00  0.00    -0.273 OA
ATOM      5  H   UNL     1       6.152   0.612   1.920  1.00  0.00     0.163 HD
BRANCH   3   6
ATOM      6  C   UNL     1       3.894  -1.837   2.564  1.00  0.00     0.179 C 
BRANCH   6   7
ATOM      7  C   UNL     1       4.848  -3.017   2.788  1.00  0.00     0.073 C 
BRANCH   7   8
ATOM      8  C   UNL     1       4.602  -4.003   3.873  1.00  0.00    -0.020 A 
ATOM      9  C   UNL     1       6.023  -5.733   1.448  1.00  0.00     0.045 C 
ATOM     10  C   UNL     1       5.584  -6.218   2.805  1.00  0.00    -0.041 A 
ATOM     11  C   UNL     1       5.772  -7.582   3.101  1.00  0.00     0.004 A 
ATOM     12  C   UNL     1       4.985  -5.394   3.803  1.00  0.00     0.006 A 
ATOM     13  C   UNL     1       5.448  -8.107   4.347  1.00  0.00     0.002 A 
ATOM     14  C   UNL     1       4.694  -5.950   5.049  1.00  0.00     0.046 A 
ATOM     15  C   UNL     1       4.923  -7.296   5.352  1.00  0.00     0.027 A 
ATOM     16  N   UNL     1       4.202  -4.942   5.847  1.00  0.00    -0.361 N 
ATOM     17  C   UNL     1       4.147  -3.764   5.153  1.00  0.00     0.087 A 
ATOM     18  H   UNL     1       3.929  -5.053   6.786  1.00  0.00     0.166 HD
ENDBRANCH   7   8
ENDBRANCH   6   7
BRANCH   6  19
ATOM     19  N   UNL     1       3.373  -1.687   1.189  1.00  0.00    -0.309 N 
ATOM     20  C   UNL     1       2.765  -2.584   0.368  1.00  0.00     0.408 C 
ATOM     21  H   UNL     1       3.483  -0.788   0.804  1.00  0.00     0.167 HD
ATOM     22  O   UNL     1       2.455  -2.265  -0.761  1.00  0.00    -0.225 OA
BRANCH  20  23
ATOM     23  O   UNL     1       2.597  -3.797   0.938  1.00  0.00    -0.444 OA
BRANCH  23  24
ATOM     24  C   UNL     1       1.948  -4.864   0.199  1.00  0.00     0.106 C 
ATOM     25  C   UNL     1       0.517  -4.481  -0.194  1.00  0.00     0.056 C 
ATOM     26  C   UNL     1       2.759  -5.292  -1.032  1.00  0.00     0.056 C 
ATOM     27  C   UNL     1       1.887  -6.035   1.189  1.00  0.00     0.056 C 
ENDBRANCH  23  24
ENDBRANCH  20  23
ENDBRANCH   6  19
ENDBRANCH   3   6
ENDBRANCH   1   2
BRANCH   1  28
ATOM     28  C   UNL     1       6.621  -0.668  -0.456  1.00  0.00     0.042 C 
BRANCH  28  29
ATOM     29  C   UNL     1       7.811   0.256  -0.507  1.00  0.00     0.118 C 
BRANCH  29  30
ATOM     30  N   UNL     1       9.082  -0.439  -0.280  1.00  0.00    -0.352 N 
ATOM     31  C   UNL     1      10.352   0.091  -0.366  1.00  0.00     0.251 C 
ATOM     32  H   UNL     1       9.021  -1.391  -0.038  1.00  0.00     0.163 HD
ATOM     33  O   UNL     1      11.340  -0.626  -0.460  1.00  0.00    -0.269 OA
BRANCH  31  34
ATOM     34  C   UNL     1      10.488   1.554  -0.334  1.00  0.00     0.039 A 
ATOM     35  C   UNL     1      11.366   2.225  -1.186  1.00  0.00     0.014 A 
ATOM     36  C   UNL     1       9.670   2.250   0.555  1.00  0.00     0.014 A 
ATOM     37  C   UNL     1      11.370   3.615  -1.166  1.00  0.00     0.010 A 
ATOM     38  C   UNL     1       9.535   3.603   0.435  1.00  0.00     0.010 A 
ATOM     39  C   UNL     1      10.443   4.288  -0.355  1.00  0.00    -0.014 A 
BRANCH  39  40
ATOM     40  C   UNL     1      10.354   5.735  -0.350  1.00  0.00     0.031 A 
ATOM     41  C   UNL     1       9.979   6.322  -1.658  1.00  0.00     0.074 A 
ATOM     42  C   UNL     1      10.398   6.447   0.795  1.00  0.00     0.049 A 
ATOM     43  N   UNL     1      10.731   7.000  -2.457  1.00  0.00    -0.248 NA
ATOM     44  C   UNL     1       8.660   5.987  -2.219  1.00  0.00     0.031 C 
ATOM     45  C   UNL     1      10.422   5.954   2.179  1.00  0.00     0.029 A 
ATOM     46  N   UNL     1      10.346   7.795   0.962  1.00  0.00    -0.354 N 
ATOM     47  C   UNL     1       9.919   7.362  -3.526  1.00  0.00     0.074 A 
ATOM     48  C   UNL     1       8.734   6.552  -3.426  1.00  0.00     0.031 C 
ATOM     49  C   UNL     1      10.171   6.972   3.032  1.00  0.00     0.029 A 
ATOM     50  C   UNL     1      10.149   8.208   2.275  1.00  0.00     0.049 A 
ATOM     51  H   UNL     1      10.440   8.427   0.213  1.00  0.00     0.167 HD
ATOM     52  C   UNL     1      10.179   8.493  -4.238  1.00  0.00     0.037 A 
ATOM     53  C   UNL     1       9.966   9.485   2.691  1.00  0.00     0.037 A 
ATOM     54  C   UNL     1      11.515   8.967  -3.967  1.00  0.00     0.049 A 
ATOM     55  C   UNL     1      10.505  10.358   1.621  1.00  0.00     0.074 A 
ATOM     56  C   UNL     1      12.790   8.487  -4.178  1.00  0.00     0.029 A 
ATOM     57  N   UNL     1      11.624   9.944  -3.011  1.00  0.00    -0.354 N 
ATOM     58  N   UNL     1      11.767  10.420   1.296  1.00  0.00    -0.248 NA
ATOM     59  C   UNL     1       9.576  10.859   0.621  1.00  0.00     0.031 C 
ATOM     60  C   UNL     1      13.544   8.912  -3.042  1.00  0.00     0.029 A 
ATOM     61  C   UNL     1      12.714   9.682  -2.225  1.00  0.00     0.049 A 
ATOM     62  H   UNL     1      11.016  10.711  -2.906  1.00  0.00     0.167 HD
ATOM     63  C   UNL     1      11.768  10.557  -0.083  1.00  0.00     0.074 A 
ATOM     64  C   UNL     1      10.403  10.950  -0.423  1.00  0.00     0.031 C 
ATOM     65  C   UNL     1      12.797  10.057  -0.828  1.00  0.00     0.037 A 
BRANCH  52  66
ATOM     66  C   UNL     1       9.119   9.400  -4.822  1.00  0.00     0.064 A 
ATOM     67  C   UNL     1       9.519  10.489  -5.624  1.00  0.00     0.173 A 
ATOM     68  C   UNL     1       7.774   9.432  -4.391  1.00  0.00     0.173 A 
ATOM     69  F   UNL     1      10.782  10.583  -6.067  1.00  0.00    -0.203 F 
ATOM     70  C   UNL     1       8.660  11.554  -5.911  1.00  0.00     0.198 A 
ATOM     71  C   UNL     1       6.904  10.469  -4.725  1.00  0.00     0.198 A 
ATOM     72  F   UNL     1       7.275   8.533  -3.536  1.00  0.00    -0.203 F 
ATOM     73  F   UNL     1       9.124  12.625  -6.569  1.00  0.00    -0.200 F 
ATOM     74  C   UNL     1       7.354  11.544  -5.459  1.00  0.00     0.200 A 
ATOM     75  F   UNL     1       5.649  10.451  -4.254  1.00  0.00    -0.200 F 
ATOM     76  F   UNL     1       6.545  12.588  -5.683  1.00  0.00    -0.200 F 
ENDBRANCH  52  66
BRANCH  53  77
ATOM     77  C   UNL     1       9.058  10.000   3.744  1.00  0.00     0.064 A 
ATOM     78  C   UNL     1       9.168  11.327   4.193  1.00  0.00     0.173 A 
ATOM     79  C   UNL     1       7.875   9.318   4.088  1.00  0.00     0.173 A 
ATOM     80  F   UNL     1      10.247  12.058   3.877  1.00  0.00    -0.203 F 
ATOM     81  C   UNL     1       8.133  11.953   4.896  1.00  0.00     0.198 A 
ATOM     82  C   UNL     1       6.845   9.943   4.793  1.00  0.00     0.198 A 
ATOM     83  F   UNL     1       7.651   8.069   3.654  1.00  0.00    -0.203 F 
ATOM     84  F   UNL     1       8.242  13.245   5.235  1.00  0.00    -0.200 F 
ATOM     85  C   UNL     1       6.966  11.265   5.181  1.00  0.00     0.200 A 
ATOM     86  F   UNL     1       5.704   9.279   5.030  1.00  0.00    -0.200 F 
ATOM     87  F   UNL     1       5.943  11.887   5.784  1.00  0.00    -0.200 F 
ENDBRANCH  53  77
BRANCH  65  88
ATOM     88  C   UNL     1      14.061   9.678  -0.101  1.00  0.00     0.064 A 
ATOM     89  C   UNL     1      14.164   8.628   0.829  1.00  0.00     0.173 A 
ATOM     90  C   UNL     1      15.248  10.325  -0.471  1.00  0.00     0.173 A 
ATOM     91  F   UNL     1      13.093   7.905   1.175  1.00  0.00    -0.203 F 
ATOM     92  C   UNL     1      15.393   8.267   1.380  1.00  0.00     0.198 A 
ATOM     93  C   UNL     1      16.478   9.938   0.052  1.00  0.00     0.198 A 
ATOM     94  F   UNL     1      15.218  11.306  -1.387  1.00  0.00    -0.203 F 
ATOM     95  F   UNL     1      15.464   7.266   2.271  1.00  0.00    -0.200 F 
ATOM     96  C   UNL     1      16.550   8.915   0.983  1.00  0.00     0.200 A 
ATOM     97  F   UNL     1      17.599  10.540  -0.370  1.00  0.00    -0.200 F 
ATOM     98  F   UNL     1      17.738   8.537   1.476  1.00  0.00    -0.200 F 
ENDBRANCH  65  88
ENDBRANCH  39  40
ENDBRANCH  31  34
ENDBRANCH  29  30
ENDBRANCH  28  29
ENDBRANCH   1  28
TORSDOF 15
