REMARK SMILES COc1cc2c(c(OC)c1)[C@H](C)C[C@H](CC(=O)NCCCNC(=O)c1ccc(-c3c4nc(c(-c5c(F)c(F)c(F)c(F)c5F)c5ccc([nH]5)c(-c5c(F)c(F)c(F)c(F)c5F)c5nc(c(-c6c(F)c(F)c(F)c(F)c6F)c6ccc3[nH]6)C=C5)C=C4)cc1)C2
REMARK SMILES IDX 20 1 19 2 18 3 16 4 17 5 15 7 14 8 3 9 4 10 10 11 5 12 7 13
REMARK SMILES IDX 6 14 88 15 11 16 12 17 13 18 2 19 1 20 8 21 9 22 21 23 22 24
REMARK SMILES IDX 23 25 24 27 25 28 26 29 87 30 27 31 86 32 28 33 29 34 30 35
REMARK SMILES IDX 80 36 31 37 85 38 79 39 81 40 32 41 84 42 78 43 77 44 33 46
REMARK SMILES IDX 65 47 45 48 64 49 46 50 49 51 63 52 82 53 47 54 48 55 62 57
REMARK SMILES IDX 83 58 50 59 34 60 35 61 43 62 36 63 37 64 41 65 44 66 38 67
REMARK SMILES IDX 39 68 42 69 40 70 66 71 67 72 75 73 68 74 69 75 73 76 76 77
REMARK SMILES IDX 70 78 71 79 74 80 72 81 51 82 52 83 60 84 53 85 54 86 58 87
REMARK SMILES IDX 61 88 55 89 56 90 59 91 57 92
REMARK H PARENT 18 6 22 26 81 45 49 56
REMARK Flexibility Score: inf
ROOT
ATOM      1  C   UNL     1       1.657   9.193  -4.383  1.00  0.00     0.042 C 
ENDROOT
BRANCH   1   2
ATOM      2  C   UNL     1       0.183   9.035  -4.799  1.00  0.00     0.117 C 
BRANCH   2   3
ATOM      3  N   UNL     1      -0.036   8.201  -5.976  1.00  0.00    -0.356 N 
ATOM      4  C   UNL     1      -0.704   7.022  -6.156  1.00  0.00     0.220 C 
ATOM      5  O   UNL     1      -0.831   6.615  -7.314  1.00  0.00    -0.275 OA
ATOM      6  H   UNL     1       0.375   8.555  -6.798  1.00  0.00     0.163 HD
BRANCH   4   7
ATOM      7  C   UNL     1      -1.234   6.194  -4.990  1.00  0.00     0.104 C 
BRANCH   7   8
ATOM      8  C   UNL     1      -0.184   5.181  -4.477  1.00  0.00     0.003 C 
ATOM      9  C   UNL     1       0.911   1.217  -1.764  1.00  0.00     0.122 A 
ATOM     10  C   UNL     1      -0.030   2.021  -2.407  1.00  0.00     0.050 A 
ATOM     11  C   UNL     1       2.228   1.646  -1.646  1.00  0.00     0.093 A 
ATOM     12  C   UNL     1       0.314   3.302  -2.867  1.00  0.00    -0.037 A 
ATOM     13  C   UNL     1       2.593   2.909  -2.108  1.00  0.00     0.126 A 
ATOM     14  C   UNL     1       1.632   3.775  -2.673  1.00  0.00     0.000 A 
ATOM     15  C   UNL     1      -0.763   4.176  -3.478  1.00  0.00     0.040 C 
ATOM     16  C   UNL     1       1.993   5.194  -3.028  1.00  0.00     0.020 C 
ATOM     17  C   UNL     1       2.353   6.019  -1.780  1.00  0.00     0.013 C 
ATOM     18  C   UNL     1       0.937   5.960  -3.816  1.00  0.00     0.012 C 
BRANCH   9  19
ATOM     19  O   UNL     1       0.473   0.009  -1.293  1.00  0.00    -0.497 OA
ATOM     20  C   UNL     1       0.911  -0.253   0.041  1.00  0.00     0.278 C 
ENDBRANCH   9  19
BRANCH  13  21
ATOM     21  O   UNL     1       3.890   3.267  -1.837  1.00  0.00    -0.496 OA
ATOM     22  C   UNL     1       4.676   3.561  -2.990  1.00  0.00     0.278 C 
ENDBRANCH  13  21
ENDBRANCH   7   8
ENDBRANCH   4   7
ENDBRANCH   2   3
ENDBRANCH   1   2
BRANCH   1  23
ATOM     23  C   UNL     1       2.563   9.865  -5.414  1.00  0.00     0.118 C 
BRANCH  23  24
ATOM     24  N   UNL     1       2.959  11.192  -4.971  1.00  0.00    -0.352 N 
ATOM     25  C   UNL     1       4.098  11.647  -4.354  1.00  0.00     0.251 C 
ATOM     26  H   UNL     1       2.288  11.891  -5.146  1.00  0.00     0.163 HD
ATOM     27  O   UNL     1       4.053  12.744  -3.801  1.00  0.00    -0.269 OA
BRANCH  25  28
ATOM     28  C   UNL     1       5.378  10.888  -4.333  1.00  0.00     0.039 A 
ATOM     29  C   UNL     1       6.230  11.071  -3.233  1.00  0.00     0.014 A 
ATOM     30  C   UNL     1       5.834  10.133  -5.416  1.00  0.00     0.014 A 
ATOM     31  C   UNL     1       7.513  10.505  -3.216  1.00  0.00     0.010 A 
ATOM     32  C   UNL     1       7.093   9.517  -5.373  1.00  0.00     0.010 A 
ATOM     33  C   UNL     1       7.958   9.716  -4.285  1.00  0.00    -0.014 A 
BRANCH  33  34
ATOM     34  C   UNL     1       9.337   9.146  -4.299  1.00  0.00     0.031 A 
ATOM     35  C   UNL     1      10.343   9.606  -5.326  1.00  0.00     0.074 A 
ATOM     36  C   UNL     1       9.689   8.190  -3.416  1.00  0.00     0.049 A 
ATOM     37  N   UNL     1      11.561   9.174  -5.548  1.00  0.00    -0.248 NA
ATOM     38  C   UNL     1       9.918  10.680  -6.236  1.00  0.00     0.031 C 
ATOM     39  C   UNL     1       8.819   7.632  -2.382  1.00  0.00     0.029 A 
ATOM     40  N   UNL     1      10.873   7.510  -3.256  1.00  0.00    -0.354 N 
ATOM     41  C   UNL     1      12.030   9.896  -6.639  1.00  0.00     0.074 A 
ATOM     42  C   UNL     1      10.960  10.779  -7.050  1.00  0.00     0.031 C 
ATOM     43  C   UNL     1       9.499   6.702  -1.690  1.00  0.00     0.029 A 
ATOM     44  C   UNL     1      10.842   6.575  -2.249  1.00  0.00     0.049 A 
ATOM     45  H   UNL     1      11.670   7.676  -3.811  1.00  0.00     0.167 HD
ATOM     46  C   UNL     1      13.246   9.841  -7.236  1.00  0.00     0.037 A 
ATOM     47  C   UNL     1      11.782   5.705  -1.831  1.00  0.00     0.037 A 
ATOM     48  C   UNL     1      14.340   9.014  -6.796  1.00  0.00     0.049 A 
ATOM     49  C   UNL     1      13.132   5.683  -2.498  1.00  0.00     0.074 A 
ATOM     50  C   UNL     1      15.632   8.961  -7.291  1.00  0.00     0.029 A 
ATOM     51  N   UNL     1      14.273   8.104  -5.754  1.00  0.00    -0.354 N 
ATOM     52  N   UNL     1      13.576   6.413  -3.490  1.00  0.00    -0.248 NA
ATOM     53  C   UNL     1      14.112   4.715  -1.981  1.00  0.00     0.031 C 
ATOM     54  C   UNL     1      16.339   7.993  -6.569  1.00  0.00     0.029 A 
ATOM     55  C   UNL     1      15.497   7.471  -5.603  1.00  0.00     0.049 A 
ATOM     56  H   UNL     1      13.476   7.933  -5.203  1.00  0.00     0.167 HD
ATOM     57  C   UNL     1      14.891   6.016  -3.696  1.00  0.00     0.074 A 
ATOM     58  C   UNL     1      15.179   4.987  -2.720  1.00  0.00     0.031 C 
ATOM     59  C   UNL     1      15.780   6.464  -4.615  1.00  0.00     0.037 A 
BRANCH  46  60
ATOM     60  C   UNL     1      13.477  10.705  -8.440  1.00  0.00     0.064 A 
ATOM     61  C   UNL     1      13.674  12.088  -8.325  1.00  0.00     0.173 A 
ATOM     62  C   UNL     1      13.583  10.128  -9.715  1.00  0.00     0.173 A 
ATOM     63  F   UNL     1      13.576  12.687  -7.129  1.00  0.00    -0.203 F 
ATOM     64  C   UNL     1      13.955  12.865  -9.446  1.00  0.00     0.198 A 
ATOM     65  C   UNL     1      13.887  10.904 -10.830  1.00  0.00     0.198 A 
ATOM     66  F   UNL     1      13.413   8.807  -9.875  1.00  0.00    -0.203 F 
ATOM     67  F   UNL     1      14.113  14.190  -9.318  1.00  0.00    -0.200 F 
ATOM     68  C   UNL     1      14.069  12.272 -10.695  1.00  0.00     0.200 A 
ATOM     69  F   UNL     1      14.010  10.328 -12.033  1.00  0.00    -0.200 F 
ATOM     70  F   UNL     1      14.354  13.020 -11.770  1.00  0.00    -0.200 F 
ENDBRANCH  46  60
BRANCH  47  71
ATOM     71  C   UNL     1      11.490   4.776  -0.708  1.00  0.00     0.064 A 
ATOM     72  C   UNL     1      12.111   4.936   0.538  1.00  0.00     0.173 A 
ATOM     73  C   UNL     1      10.613   3.693  -0.868  1.00  0.00     0.173 A 
ATOM     74  F   UNL     1      12.978   5.941   0.729  1.00  0.00    -0.203 F 
ATOM     75  C   UNL     1      11.885   4.034   1.575  1.00  0.00     0.198 A 
ATOM     76  C   UNL     1      10.369   2.807   0.178  1.00  0.00     0.198 A 
ATOM     77  F   UNL     1       9.995   3.497  -2.042  1.00  0.00    -0.203 F 
ATOM     78  F   UNL     1      12.532   4.180   2.740  1.00  0.00    -0.200 F 
ATOM     79  C   UNL     1      11.012   2.972   1.396  1.00  0.00     0.200 A 
ATOM     80  F   UNL     1       9.518   1.786   0.003  1.00  0.00    -0.200 F 
ATOM     81  F   UNL     1      10.799   2.102   2.392  1.00  0.00    -0.200 F 
ENDBRANCH  47  71
BRANCH  59  82
ATOM     82  C   UNL     1      17.160   5.878  -4.586  1.00  0.00     0.064 A 
ATOM     83  C   UNL     1      17.416   4.583  -5.056  1.00  0.00     0.173 A 
ATOM     84  C   UNL     1      18.244   6.638  -4.122  1.00  0.00     0.173 A 
ATOM     85  F   UNL     1      16.410   3.813  -5.496  1.00  0.00    -0.203 F 
ATOM     86  C   UNL     1      18.707   4.061  -5.043  1.00  0.00     0.198 A 
ATOM     87  C   UNL     1      19.537   6.122  -4.132  1.00  0.00     0.198 A 
ATOM     88  F   UNL     1      18.050   7.885  -3.667  1.00  0.00    -0.203 F 
ATOM     89  F   UNL     1      18.925   2.806  -5.461  1.00  0.00    -0.200 F 
ATOM     90  C   UNL     1      19.767   4.832  -4.588  1.00  0.00     0.200 A 
ATOM     91  F   UNL     1      20.560   6.872  -3.701  1.00  0.00    -0.200 F 
ATOM     92  F   UNL     1      21.009   4.330  -4.582  1.00  0.00    -0.200 F 
ENDBRANCH  59  82
ENDBRANCH  33  34
ENDBRANCH  25  28
ENDBRANCH  23  24
ENDBRANCH   1  23
TORSDOF 13
