REMARK SMILES CC1(C)[C@@H](C(=O)NCCCNC(=O)c2ccc(-c3c4nc(c(-c5c(F)c(F)c(F)c(F)c5F)c5ccc([nH]5)c(-c5c(F)c(F)c(F)c(F)c5F)c5nc(c(-c6c(F)c(F)c(F)c(F)c6F)c6ccc3[nH]6)C=C5)C=C4)cc2)CC[C@@]1(C)C(N)=O
REMARK SMILES IDX 9 1 8 2 7 3 5 4 6 5 4 7 1 8 2 9 3 10 79 11 77 12 78 13 80 14
REMARK SMILES IDX 81 15 82 16 83 17 10 20 11 21 12 22 13 24 14 25 15 26 76 27
REMARK SMILES IDX 16 28 75 29 17 30 18 31 19 32 69 33 20 34 74 35 68 36 70 37
REMARK SMILES IDX 21 38 73 39 67 40 66 41 22 43 54 44 34 45 53 46 35 47 38 48
REMARK SMILES IDX 52 49 71 50 36 51 37 52 51 54 72 55 39 56 23 57 24 58 32 59
REMARK SMILES IDX 25 60 26 61 30 62 33 63 27 64 28 65 31 66 29 67 55 68 56 69
REMARK SMILES IDX 64 70 57 71 58 72 62 73 65 74 59 75 60 76 63 77 61 78 40 79
REMARK SMILES IDX 41 80 49 81 42 82 43 83 47 84 50 85 44 86 45 87 48 88 46 89
REMARK H PARENT 7 6 82 18 82 19 11 23 70 42 38 53
REMARK Flexibility Score: inf
ROOT
ATOM      1  C   UNL     1      -4.035  -2.480  -0.997  1.00  0.00     0.042 C 
ENDROOT
BRANCH   1   2
ATOM      2  C   UNL     1      -3.869  -1.046  -1.488  1.00  0.00     0.117 C 
BRANCH   2   3
ATOM      3  N   UNL     1      -3.295  -0.199  -0.460  1.00  0.00    -0.356 N 
ATOM      4  C   UNL     1      -2.020   0.268  -0.332  1.00  0.00     0.223 C 
ATOM      5  O   UNL     1      -1.725   0.826   0.721  1.00  0.00    -0.275 OA
ATOM      6  H   UNL     1      -3.917   0.080   0.250  1.00  0.00     0.163 HD
BRANCH   4   7
ATOM      7  C   UNL     1      -1.053   0.082  -1.502  1.00  0.00     0.085 C 
ATOM      8  C   UNL     1       0.980  -0.300   0.014  1.00  0.00     0.013 C 
ATOM      9  C   UNL     1       0.451   0.390  -1.254  1.00  0.00    -0.010 C 
ATOM     10  C   UNL     1       1.257  -0.271  -2.421  1.00  0.00     0.013 C 
ATOM     11  C   UNL     1       0.531   1.971  -1.330  1.00  0.00     0.052 C 
ATOM     12  C   UNL     1      -1.421   1.060  -2.616  1.00  0.00     0.015 C 
ATOM     13  C   UNL     1      -0.624   2.334  -2.328  1.00  0.00     0.018 C 
ATOM     14  C   UNL     1       1.879   2.498  -1.878  1.00  0.00     0.022 C 
BRANCH  11  15
ATOM     15  C   UNL     1       0.303   2.757  -0.009  1.00  0.00     0.223 C 
ATOM     16  N   UNL     1       1.157   2.521   1.024  1.00  0.00    -0.369 N 
ATOM     17  O   UNL     1      -0.508   3.673   0.114  1.00  0.00    -0.275 OA
ATOM     18  H   UNL     1       1.819   1.796   0.960  1.00  0.00     0.159 HD
ATOM     19  H   UNL     1       1.113   3.076   1.836  1.00  0.00     0.159 HD
ENDBRANCH  11  15
ENDBRANCH   4   7
ENDBRANCH   2   3
ENDBRANCH   1   2
BRANCH   1  20
ATOM     20  C   UNL     1      -4.951  -2.618   0.217  1.00  0.00     0.118 C 
BRANCH  20  21
ATOM     21  N   UNL     1      -6.303  -2.142  -0.038  1.00  0.00    -0.352 N 
ATOM     22  C   UNL     1      -7.509  -2.791   0.058  1.00  0.00     0.251 C 
ATOM     23  H   UNL     1      -6.362  -1.202  -0.326  1.00  0.00     0.163 HD
ATOM     24  O   UNL     1      -8.523  -2.256  -0.375  1.00  0.00    -0.269 OA
BRANCH  22  25
ATOM     25  C   UNL     1      -7.590  -4.140   0.658  1.00  0.00     0.039 A 
ATOM     26  C   UNL     1      -8.412  -5.093   0.052  1.00  0.00     0.014 A 
ATOM     27  C   UNL     1      -6.886  -4.462   1.820  1.00  0.00     0.014 A 
ATOM     28  C   UNL     1      -8.472  -6.388   0.570  1.00  0.00     0.010 A 
ATOM     29  C   UNL     1      -6.883  -5.774   2.288  1.00  0.00     0.010 A 
ATOM     30  C   UNL     1      -7.676  -6.751   1.668  1.00  0.00    -0.014 A 
BRANCH  30  31
ATOM     31  C   UNL     1      -7.651  -8.150   2.170  1.00  0.00     0.031 A 
ATOM     32  C   UNL     1      -8.119  -8.468   3.562  1.00  0.00     0.074 A 
ATOM     33  C   UNL     1      -7.148  -9.126   1.388  1.00  0.00     0.049 A 
ATOM     34  N   UNL     1      -8.114  -9.614   4.196  1.00  0.00    -0.248 NA
ATOM     35  C   UNL     1      -8.637  -7.345   4.359  1.00  0.00     0.031 C 
ATOM     36  C   UNL     1      -6.622  -8.937   0.035  1.00  0.00     0.029 A 
ATOM     37  N   UNL     1      -6.988 -10.469   1.622  1.00  0.00    -0.354 N 
ATOM     38  C   UNL     1      -8.616  -9.348   5.463  1.00  0.00     0.074 A 
ATOM     39  C   UNL     1      -8.862  -7.924   5.530  1.00  0.00     0.031 C 
ATOM     40  C   UNL     1      -6.221 -10.123  -0.450  1.00  0.00     0.029 A 
ATOM     41  C   UNL     1      -6.418 -11.146   0.572  1.00  0.00     0.049 A 
ATOM     42  H   UNL     1      -7.256 -10.905   2.463  1.00  0.00     0.167 HD
ATOM     43  C   UNL     1      -8.870 -10.216   6.472  1.00  0.00     0.037 A 
ATOM     44  C   UNL     1      -6.082 -12.445   0.449  1.00  0.00     0.037 A 
ATOM     45  C   UNL     1      -8.638 -11.636   6.396  1.00  0.00     0.049 A 
ATOM     46  C   UNL     1      -6.354 -13.384   1.594  1.00  0.00     0.074 A 
ATOM     47  C   UNL     1      -8.915 -12.607   7.342  1.00  0.00     0.029 A 
ATOM     48  N   UNL     1      -8.066 -12.287   5.312  1.00  0.00    -0.354 N 
ATOM     49  N   UNL     1      -6.895 -13.133   2.761  1.00  0.00    -0.248 NA
ATOM     50  C   UNL     1      -5.973 -14.790   1.400  1.00  0.00     0.031 C 
ATOM     51  C   UNL     1      -8.457 -13.836   6.856  1.00  0.00     0.029 A 
ATOM     52  C   UNL     1      -7.955 -13.643   5.580  1.00  0.00     0.049 A 
ATOM     53  H   UNL     1      -7.780 -11.850   4.477  1.00  0.00     0.167 HD
ATOM     54  C   UNL     1      -6.949 -14.351   3.426  1.00  0.00     0.074 A 
ATOM     55  C   UNL     1      -6.401 -15.343   2.526  1.00  0.00     0.031 C 
ATOM     56  C   UNL     1      -7.412 -14.622   4.672  1.00  0.00     0.037 A 
BRANCH  43  57
ATOM     57  C   UNL     1      -9.427  -9.656   7.750  1.00  0.00     0.064 A 
ATOM     58  C   UNL     1     -10.726  -9.129   7.821  1.00  0.00     0.173 A 
ATOM     59  C   UNL     1      -8.667  -9.682   8.930  1.00  0.00     0.173 A 
ATOM     60  F   UNL     1     -11.492  -9.071   6.721  1.00  0.00    -0.203 F 
ATOM     61  C   UNL     1     -11.231  -8.623   9.015  1.00  0.00     0.198 A 
ATOM     62  C   UNL     1      -9.188  -9.206  10.130  1.00  0.00     0.198 A 
ATOM     63  F   UNL     1      -7.422 -10.181   8.922  1.00  0.00    -0.203 F 
ATOM     64  F   UNL     1     -12.455  -8.077   9.045  1.00  0.00    -0.200 F 
ATOM     65  C   UNL     1     -10.466  -8.669  10.171  1.00  0.00     0.200 A 
ATOM     66  F   UNL     1      -8.453  -9.267  11.249  1.00  0.00    -0.200 F 
ATOM     67  F   UNL     1     -10.957  -8.190  11.322  1.00  0.00    -0.200 F 
ENDBRANCH  43  57
BRANCH  44  68
ATOM     68  C   UNL     1      -5.466 -12.938  -0.811  1.00  0.00     0.064 A 
ATOM     69  C   UNL     1      -6.159 -13.818  -1.655  1.00  0.00     0.173 A 
ATOM     70  C   UNL     1      -4.173 -12.552  -1.193  1.00  0.00     0.173 A 
ATOM     71  F   UNL     1      -7.390 -14.233  -1.324  1.00  0.00    -0.203 F 
ATOM     72  C   UNL     1      -5.572 -14.311  -2.819  1.00  0.00     0.198 A 
ATOM     73  C   UNL     1      -3.600 -13.020  -2.374  1.00  0.00     0.198 A 
ATOM     74  F   UNL     1      -3.469 -11.707  -0.424  1.00  0.00    -0.203 F 
ATOM     75  F   UNL     1      -6.237 -15.191  -3.580  1.00  0.00    -0.200 F 
ATOM     76  C   UNL     1      -4.296 -13.907  -3.180  1.00  0.00     0.200 A 
ATOM     77  F   UNL     1      -2.374 -12.613  -2.728  1.00  0.00    -0.200 F 
ATOM     78  F   UNL     1      -3.734 -14.379  -4.302  1.00  0.00    -0.200 F 
ENDBRANCH  44  68
BRANCH  56  79
ATOM     79  C   UNL     1      -7.385 -16.055   5.121  1.00  0.00     0.064 A 
ATOM     80  C   UNL     1      -6.182 -16.717   5.410  1.00  0.00     0.173 A 
ATOM     81  C   UNL     1      -8.583 -16.764   5.301  1.00  0.00     0.173 A 
ATOM     82  F   UNL     1      -5.008 -16.090   5.240  1.00  0.00    -0.203 F 
ATOM     83  C   UNL     1      -6.179 -18.044   5.833  1.00  0.00     0.198 A 
ATOM     84  C   UNL     1      -8.577 -18.079   5.758  1.00  0.00     0.198 A 
ATOM     85  F   UNL     1      -9.762 -16.176   5.047  1.00  0.00    -0.203 F 
ATOM     86  F   UNL     1      -5.015 -18.673   6.051  1.00  0.00    -0.200 F 
ATOM     87  C   UNL     1      -7.376 -18.721   6.015  1.00  0.00     0.200 A 
ATOM     88  F   UNL     1      -9.736 -18.725   5.949  1.00  0.00    -0.200 F 
ATOM     89  F   UNL     1      -7.371 -19.994   6.431  1.00  0.00    -0.200 F 
ENDBRANCH  56  79
ENDBRANCH  30  31
ENDBRANCH  22  25
ENDBRANCH  20  21
ENDBRANCH   1  20
TORSDOF 11
