REMARK SMILES C[C@@H]([C@H]1CC=CS1)n1nccc1NC(=O)CC1(CC(=O)NCCCNC(=O)c2ccc(-c3c4nc(c(-c5c(F)c(F)c(F)c(F)c5F)c5ccc([nH]5)c(-c5c(F)c(F)c(F)c(F)c5F)c5nc(c(-c6c(F)c(F)c(F)c(F)c6F)c6ccc3[nH]6)C=C5)C=C4)cc2)CCCCC1
REMARK SMILES IDX 19 1 20 2 21 3 18 5 17 6 91 7 95 8 92 9 94 10 93 11 16 12
REMARK SMILES IDX 14 13 13 14 15 16 12 17 8 18 9 19 10 20 11 21 2 22 1 23 3 24
REMARK SMILES IDX 4 25 7 26 5 27 6 28 22 29 23 30 24 31 25 32 26 33 27 35
REMARK SMILES IDX 28 36 29 37 90 38 30 39 89 40 31 41 32 42 33 43 83 44 34 45
REMARK SMILES IDX 88 46 82 47 84 48 35 49 87 50 81 51 80 52 36 54 68 55 48 56
REMARK SMILES IDX 67 57 49 58 52 59 66 60 85 61 50 62 51 63 65 65 86 66 53 67
REMARK SMILES IDX 37 68 38 69 46 70 39 71 40 72 44 73 47 74 41 75 42 76 45 77
REMARK SMILES IDX 43 78 69 79 70 80 78 81 71 82 72 83 76 84 79 85 73 86 74 87
REMARK SMILES IDX 77 88 75 89 54 90 55 91 63 92 56 93 57 94 61 95 64 96 58 97
REMARK SMILES IDX 59 98 62 99 60 100
REMARK H PARENT 21 4 13 15 25 34 84 53 52 64
REMARK Flexibility Score: inf
ROOT
ATOM      1  C   UNL     1       2.525   8.384  -1.450  1.00  0.00     0.220 C 
ATOM      2  O   UNL     1       1.825   8.362  -0.437  1.00  0.00    -0.275 OA
ATOM      3  N   UNL     1       3.034   9.578  -1.847  1.00  0.00    -0.356 N 
ATOM      4  H   UNL     1       2.782  10.345  -1.284  1.00  0.00     0.163 HD
ENDROOT
BRANCH   1   5
ATOM      5  C   UNL     1       2.809   7.101  -2.213  1.00  0.00     0.107 C 
BRANCH   5   6
ATOM      6  C   UNL     1       1.834   6.674  -3.352  1.00  0.00    -0.012 C 
ATOM      7  C   UNL     1       2.165   5.204  -3.711  1.00  0.00     0.008 C 
ATOM      8  C   UNL     1       2.012   7.418  -4.700  1.00  0.00     0.008 C 
ATOM      9  C   UNL     1       3.506   4.960  -4.415  1.00  0.00     0.001 C 
ATOM     10  C   UNL     1       3.381   7.268  -5.354  1.00  0.00     0.001 C 
ATOM     11  C   UNL     1       3.644   5.810  -5.674  1.00  0.00     0.000 C 
BRANCH   6  12
ATOM     12  C   UNL     1       0.334   6.929  -2.957  1.00  0.00     0.108 C 
BRANCH  12  13
ATOM     13  C   UNL     1      -0.330   6.165  -1.831  1.00  0.00     0.226 C 
ATOM     14  N   UNL     1      -0.746   4.800  -1.961  1.00  0.00    -0.311 N 
ATOM     15  H   UNL     1      -1.144   4.378  -1.165  1.00  0.00     0.171 HD
ATOM     16  O   UNL     1      -0.581   6.652  -0.740  1.00  0.00    -0.275 OA
BRANCH  14  17
ATOM     17  C   UNL     1      -0.643   4.023  -3.090  1.00  0.00     0.131 A 
ATOM     18  N   UNL     1      -0.137   2.739  -3.171  1.00  0.00    -0.246 N 
ATOM     19  N   UNL     1       0.091   2.384  -4.460  1.00  0.00    -0.179 NA
ATOM     20  C   UNL     1      -0.493   3.343  -5.179  1.00  0.00     0.137 A 
ATOM     21  C   UNL     1      -1.008   4.372  -4.372  1.00  0.00     0.068 A 
BRANCH  18  22
ATOM     22  C   UNL     1      -0.004   1.740  -2.111  1.00  0.00     0.120 C 
ATOM     23  C   UNL     1       0.126   0.320  -2.699  1.00  0.00     0.034 C 
BRANCH  22  24
ATOM     24  C   UNL     1       1.097   1.927  -1.034  1.00  0.00     0.079 C 
ATOM     25  C   UNL     1       2.557   1.789  -1.496  1.00  0.00     0.045 C 
ATOM     26  S   UNL     1       1.045   3.448  -0.008  1.00  0.00    -0.128 SA
ATOM     27  C   UNL     1       3.408   2.590  -0.555  1.00  0.00    -0.019 C 
ATOM     28  C   UNL     1       2.757   3.458   0.224  1.00  0.00     0.037 C 
ENDBRANCH  22  24
ENDBRANCH  18  22
ENDBRANCH  14  17
ENDBRANCH  12  13
ENDBRANCH   6  12
ENDBRANCH   5   6
ENDBRANCH   1   5
BRANCH   3  29
ATOM     29  C   UNL     1       3.892   9.901  -2.974  1.00  0.00     0.117 C 
BRANCH  29  30
ATOM     30  C   UNL     1       3.079  10.402  -4.169  1.00  0.00     0.042 C 
BRANCH  30  31
ATOM     31  C   UNL     1       3.049  11.895  -4.293  1.00  0.00     0.118 C 
BRANCH  31  32
ATOM     32  N   UNL     1       4.283  12.500  -4.795  1.00  0.00    -0.352 N 
ATOM     33  C   UNL     1       4.486  13.852  -5.095  1.00  0.00     0.251 C 
ATOM     34  H   UNL     1       5.047  11.896  -4.935  1.00  0.00     0.163 HD
ATOM     35  O   UNL     1       5.394  14.225  -5.802  1.00  0.00    -0.269 OA
BRANCH  33  36
ATOM     36  C   UNL     1       3.535  14.811  -4.490  1.00  0.00     0.039 A 
ATOM     37  C   UNL     1       2.924  15.875  -5.157  1.00  0.00     0.014 A 
ATOM     38  C   UNL     1       3.118  14.458  -3.228  1.00  0.00     0.014 A 
ATOM     39  C   UNL     1       1.859  16.515  -4.515  1.00  0.00     0.010 A 
ATOM     40  C   UNL     1       1.812  14.686  -2.963  1.00  0.00     0.010 A 
ATOM     41  C   UNL     1       1.319  15.897  -3.383  1.00  0.00    -0.014 A 
BRANCH  41  42
ATOM     42  C   UNL     1       0.217  16.373  -2.563  1.00  0.00     0.031 A 
ATOM     43  C   UNL     1      -1.065  16.508  -3.286  1.00  0.00     0.074 A 
ATOM     44  C   UNL     1       0.313  16.348  -1.208  1.00  0.00     0.049 A 
ATOM     45  N   UNL     1      -1.724  17.589  -3.529  1.00  0.00    -0.248 NA
ATOM     46  C   UNL     1      -1.610  15.312  -3.952  1.00  0.00     0.031 C 
ATOM     47  C   UNL     1       1.437  15.901  -0.360  1.00  0.00     0.029 A 
ATOM     48  N   UNL     1      -0.642  16.625  -0.280  1.00  0.00    -0.354 N 
ATOM     49  C   UNL     1      -2.877  17.184  -4.192  1.00  0.00     0.074 A 
ATOM     50  C   UNL     1      -2.647  15.828  -4.614  1.00  0.00     0.031 C 
ATOM     51  C   UNL     1       1.022  15.723   0.914  1.00  0.00     0.029 A 
ATOM     52  C   UNL     1      -0.334  16.215   1.019  1.00  0.00     0.049 A 
ATOM     53  H   UNL     1      -1.486  17.079  -0.506  1.00  0.00     0.167 HD
ATOM     54  C   UNL     1      -4.028  17.906  -4.095  1.00  0.00     0.037 A 
ATOM     55  C   UNL     1      -1.164  16.268   2.091  1.00  0.00     0.037 A 
ATOM     56  C   UNL     1      -3.767  19.224  -3.570  1.00  0.00     0.049 A 
ATOM     57  C   UNL     1      -2.230  17.248   1.750  1.00  0.00     0.074 A 
ATOM     58  C   UNL     1      -3.008  20.299  -3.993  1.00  0.00     0.029 A 
ATOM     59  N   UNL     1      -3.989  19.434  -2.230  1.00  0.00    -0.354 N 
ATOM     60  N   UNL     1      -1.996  18.520   1.558  1.00  0.00    -0.248 NA
ATOM     61  C   UNL     1      -3.426  16.726   1.105  1.00  0.00     0.031 C 
ATOM     62  C   UNL     1      -2.401  20.808  -2.806  1.00  0.00     0.029 A 
ATOM     63  C   UNL     1      -2.886  20.076  -1.722  1.00  0.00     0.049 A 
ATOM     64  H   UNL     1      -4.793  19.172  -1.726  1.00  0.00     0.167 HD
ATOM     65  C   UNL     1      -2.765  18.863   0.454  1.00  0.00     0.074 A 
ATOM     66  C   UNL     1      -3.661  17.724   0.248  1.00  0.00     0.031 C 
ATOM     67  C   UNL     1      -2.400  19.889  -0.373  1.00  0.00     0.037 A 
BRANCH  54  68
ATOM     68  C   UNL     1      -5.413  17.308  -4.106  1.00  0.00     0.064 A 
ATOM     69  C   UNL     1      -6.526  18.168  -4.171  1.00  0.00     0.173 A 
ATOM     70  C   UNL     1      -5.700  15.968  -3.763  1.00  0.00     0.173 A 
ATOM     71  F   UNL     1      -6.368  19.465  -4.475  1.00  0.00    -0.203 F 
ATOM     72  C   UNL     1      -7.813  17.736  -3.839  1.00  0.00     0.198 A 
ATOM     73  C   UNL     1      -6.993  15.528  -3.487  1.00  0.00     0.198 A 
ATOM     74  F   UNL     1      -4.741  15.056  -3.569  1.00  0.00    -0.203 F 
ATOM     75  F   UNL     1      -8.819  18.620  -3.793  1.00  0.00    -0.200 F 
ATOM     76  C   UNL     1      -8.044  16.419  -3.491  1.00  0.00     0.200 A 
ATOM     77  F   UNL     1      -7.191  14.249  -3.136  1.00  0.00    -0.200 F 
ATOM     78  F   UNL     1      -9.264  16.016  -3.112  1.00  0.00    -0.200 F 
ENDBRANCH  54  68
BRANCH  55  79
ATOM     79  C   UNL     1      -1.295  15.270   3.183  1.00  0.00     0.064 A 
ATOM     80  C   UNL     1      -1.953  15.575   4.386  1.00  0.00     0.173 A 
ATOM     81  C   UNL     1      -1.014  13.907   2.956  1.00  0.00     0.173 A 
ATOM     82  F   UNL     1      -2.303  16.840   4.658  1.00  0.00    -0.203 F 
ATOM     83  C   UNL     1      -2.321  14.575   5.297  1.00  0.00     0.198 A 
ATOM     84  C   UNL     1      -1.379  12.912   3.866  1.00  0.00     0.198 A 
ATOM     85  F   UNL     1      -0.462  13.504   1.802  1.00  0.00    -0.203 F 
ATOM     86  F   UNL     1      -2.996  14.898   6.410  1.00  0.00    -0.200 F 
ATOM     87  C   UNL     1      -2.042  13.244   5.031  1.00  0.00     0.200 A 
ATOM     88  F   UNL     1      -1.140  11.626   3.574  1.00  0.00    -0.200 F 
ATOM     89  F   UNL     1      -2.448  12.282   5.872  1.00  0.00    -0.200 F 
ENDBRANCH  55  79
BRANCH  67  90
ATOM     90  C   UNL     1      -1.246  20.761   0.056  1.00  0.00     0.064 A 
ATOM     91  C   UNL     1       0.084  20.312   0.155  1.00  0.00     0.173 A 
ATOM     92  C   UNL     1      -1.465  22.134   0.206  1.00  0.00     0.173 A 
ATOM     93  F   UNL     1       0.396  19.034  -0.073  1.00  0.00    -0.203 F 
ATOM     94  C   UNL     1       1.135  21.188   0.426  1.00  0.00     0.198 A 
ATOM     95  C   UNL     1      -0.411  23.014   0.445  1.00  0.00     0.198 A 
ATOM     96  F   UNL     1      -2.702  22.633   0.062  1.00  0.00    -0.203 F 
ATOM     97  F   UNL     1       2.391  20.726   0.514  1.00  0.00    -0.200 F 
ATOM     98  C   UNL     1       0.887  22.541   0.564  1.00  0.00     0.200 A 
ATOM     99  F   UNL     1      -0.650  24.330   0.527  1.00  0.00    -0.200 F 
ATOM    100  F   UNL     1       1.899  23.393   0.780  1.00  0.00    -0.200 F 
ENDBRANCH  67  90
ENDBRANCH  41  42
ENDBRANCH  33  36
ENDBRANCH  31  32
ENDBRANCH  30  31
ENDBRANCH  29  30
ENDBRANCH   3  29
TORSDOF 16
