REMARK SMILES Cc1c(NC(=O)c2ccccc2NC(=O)[C@@H]2CCCO2)cccc1C(=O)NCCCNC(=O)c1ccc(-c2c3nc(c(-c4c(F)c(F)c(F)c(F)c4F)c4ccc([nH]4)c(-c4c(F)c(F)c(F)c(F)c4F)c4nc(c(-c5c(F)c(F)c(F)c(F)c5F)c5ccc2[nH]5)C=C4)C=C3)cc1
REMARK SMILES IDX 28 1 27 2 25 3 26 4 24 6 1 7 2 8 3 9 21 10 23 11 22 12 4 13
REMARK SMILES IDX 5 14 6 16 7 17 8 18 12 19 9 20 11 21 10 22 13 23 14 24 15 26
REMARK SMILES IDX 16 27 17 28 20 29 18 30 19 31 29 32 30 33 31 34 32 35 33 37
REMARK SMILES IDX 34 38 35 39 96 40 36 41 95 42 37 43 38 44 39 45 89 46 40 47
REMARK SMILES IDX 94 48 88 49 90 50 41 51 93 52 87 53 86 54 42 56 74 57 54 58
REMARK SMILES IDX 73 59 55 60 58 61 72 62 91 63 56 64 57 65 71 67 92 68 59 69
REMARK SMILES IDX 43 70 44 71 52 72 45 73 46 74 50 75 53 76 47 77 48 78 51 79
REMARK SMILES IDX 49 80 75 81 76 82 84 83 77 84 78 85 82 86 85 87 79 88 80 89
REMARK SMILES IDX 83 90 81 91 60 92 61 93 69 94 62 95 63 96 67 97 70 98 64 99
REMARK SMILES IDX 65 100 68 101 66 102
REMARK H PARENT 27 5 4 15 13 25 31 36 90 55 58 66
REMARK Flexibility Score: inf
ROOT
ATOM      1  C   UNL     1       3.526   1.516   0.428  1.00  0.00     0.118 C 
ENDROOT
BRANCH   1   2
ATOM      2  N   UNL     1       2.361   2.281  -0.002  1.00  0.00    -0.352 N 
ATOM      3  C   UNL     1       1.006   2.071  -0.082  1.00  0.00     0.251 C 
ATOM      4  O   UNL     1       0.362   3.058  -0.459  1.00  0.00    -0.269 OA
ATOM      5  H   UNL     1       2.611   3.180  -0.315  1.00  0.00     0.163 HD
BRANCH   3   6
ATOM      6  C   UNL     1       0.233   0.831   0.289  1.00  0.00     0.044 A 
ATOM      7  C   UNL     1       1.899  -0.943  -0.472  1.00  0.00     0.047 C 
ATOM      8  C   UNL     1       0.632  -0.516   0.199  1.00  0.00    -0.015 A 
ATOM      9  C   UNL     1      -0.264  -1.560   0.561  1.00  0.00     0.045 A 
ATOM     10  C   UNL     1      -1.587  -1.291   0.882  1.00  0.00     0.026 A 
ATOM     11  C   UNL     1      -1.117   1.069   0.632  1.00  0.00     0.014 A 
ATOM     12  C   UNL     1      -2.017   0.030   0.903  1.00  0.00     0.003 A 
BRANCH   9  13
ATOM     13  N   UNL     1       0.254  -2.863   0.537  1.00  0.00    -0.322 N 
ATOM     14  C   UNL     1      -0.171  -4.028  -0.043  1.00  0.00     0.257 C 
ATOM     15  H   UNL     1       1.095  -2.959   1.041  1.00  0.00     0.170 HD
ATOM     16  O   UNL     1       0.531  -5.029   0.115  1.00  0.00    -0.269 OA
BRANCH  14  17
ATOM     17  C   UNL     1      -1.384  -4.143  -0.892  1.00  0.00     0.063 A 
ATOM     18  C   UNL     1      -2.098  -5.337  -0.673  1.00  0.00     0.016 A 
ATOM     19  C   UNL     1      -1.790  -3.245  -1.912  1.00  0.00     0.054 A 
ATOM     20  C   UNL     1      -3.257  -5.613  -1.381  1.00  0.00     0.001 A 
ATOM     21  C   UNL     1      -3.016  -3.501  -2.532  1.00  0.00     0.027 A 
ATOM     22  C   UNL     1      -3.736  -4.675  -2.280  1.00  0.00     0.002 A 
BRANCH  19  23
ATOM     23  N   UNL     1      -0.930  -2.195  -2.302  1.00  0.00    -0.323 N 
ATOM     24  C   UNL     1      -0.918  -1.182  -3.219  1.00  0.00     0.253 C 
ATOM     25  H   UNL     1      -0.108  -2.192  -1.761  1.00  0.00     0.170 HD
ATOM     26  O   UNL     1       0.079  -0.447  -3.199  1.00  0.00    -0.272 OA
BRANCH  24  27
ATOM     27  C   UNL     1      -2.026  -0.980  -4.254  1.00  0.00     0.207 C 
ATOM     28  C   UNL     1      -1.883  -2.003  -5.373  1.00  0.00     0.044 C 
ATOM     29  O   UNL     1      -1.995   0.302  -4.909  1.00  0.00    -0.368 OA
ATOM     30  C   UNL     1      -2.592  -1.324  -6.513  1.00  0.00     0.032 C 
ATOM     31  C   UNL     1      -2.168   0.113  -6.319  1.00  0.00     0.161 C 
ENDBRANCH  24  27
ENDBRANCH  19  23
ENDBRANCH  14  17
ENDBRANCH   9  13
ENDBRANCH   3   6
ENDBRANCH   1   2
BRANCH   1  32
ATOM     32  C   UNL     1       4.229   0.855  -0.766  1.00  0.00     0.042 C 
BRANCH  32  33
ATOM     33  C   UNL     1       5.569   1.427  -1.172  1.00  0.00     0.118 C 
BRANCH  33  34
ATOM     34  N   UNL     1       6.676   0.477  -1.034  1.00  0.00    -0.352 N 
ATOM     35  C   UNL     1       7.977   0.623  -1.495  1.00  0.00     0.251 C 
ATOM     36  H   UNL     1       6.474  -0.361  -0.559  1.00  0.00     0.163 HD
ATOM     37  O   UNL     1       8.838  -0.210  -1.288  1.00  0.00    -0.269 OA
BRANCH  35  38
ATOM     38  C   UNL     1       8.297   1.911  -2.150  1.00  0.00     0.039 A 
ATOM     39  C   UNL     1       9.008   2.829  -1.378  1.00  0.00     0.014 A 
ATOM     40  C   UNL     1       7.506   2.316  -3.222  1.00  0.00     0.014 A 
ATOM     41  C   UNL     1       8.697   4.179  -1.495  1.00  0.00     0.010 A 
ATOM     42  C   UNL     1       7.126   3.645  -3.269  1.00  0.00     0.010 A 
ATOM     43  C   UNL     1       7.662   4.559  -2.350  1.00  0.00    -0.014 A 
BRANCH  43  44
ATOM     44  C   UNL     1       7.039   5.877  -2.281  1.00  0.00     0.031 A 
ATOM     45  C   UNL     1       7.358   6.881  -3.314  1.00  0.00     0.074 A 
ATOM     46  C   UNL     1       6.189   6.214  -1.283  1.00  0.00     0.049 A 
ATOM     47  N   UNL     1       7.352   8.155  -3.108  1.00  0.00    -0.248 NA
ATOM     48  C   UNL     1       7.760   6.512  -4.663  1.00  0.00     0.031 C 
ATOM     49  C   UNL     1       5.379   7.429  -1.198  1.00  0.00     0.029 A 
ATOM     50  N   UNL     1       6.042   5.614  -0.021  1.00  0.00    -0.354 N 
ATOM     51  C   UNL     1       7.493   8.775  -4.326  1.00  0.00     0.074 A 
ATOM     52  C   UNL     1       7.799   7.709  -5.254  1.00  0.00     0.031 C 
ATOM     53  C   UNL     1       5.098   7.672   0.090  1.00  0.00     0.029 A 
ATOM     54  C   UNL     1       5.793   6.680   0.884  1.00  0.00     0.049 A 
ATOM     55  H   UNL     1       6.100   4.654   0.192  1.00  0.00     0.167 HD
ATOM     56  C   UNL     1       7.222  10.107  -4.437  1.00  0.00     0.037 A 
ATOM     57  C   UNL     1       6.629   6.936   1.931  1.00  0.00     0.037 A 
ATOM     58  C   UNL     1       6.854  10.700  -3.151  1.00  0.00     0.049 A 
ATOM     59  C   UNL     1       7.305   8.288   1.880  1.00  0.00     0.074 A 
ATOM     60  C   UNL     1       5.652  11.034  -2.549  1.00  0.00     0.029 A 
ATOM     61  N   UNL     1       7.807  10.767  -2.150  1.00  0.00    -0.354 N 
ATOM     62  N   UNL     1       7.101   9.186   0.957  1.00  0.00    -0.248 NA
ATOM     63  C   UNL     1       8.368   8.675   2.810  1.00  0.00     0.031 C 
ATOM     64  C   UNL     1       5.903  11.327  -1.177  1.00  0.00     0.029 A 
ATOM     65  C   UNL     1       7.256  11.167  -0.946  1.00  0.00     0.049 A 
ATOM     66  H   UNL     1       8.760  10.556  -2.278  1.00  0.00     0.167 HD
ATOM     67  C   UNL     1       8.013  10.198   1.103  1.00  0.00     0.074 A 
ATOM     68  C   UNL     1       8.787   9.832   2.274  1.00  0.00     0.031 C 
ATOM     69  C   UNL     1       8.110  11.240   0.227  1.00  0.00     0.037 A 
BRANCH  56  70
ATOM     70  C   UNL     1       7.048  10.808  -5.764  1.00  0.00     0.064 A 
ATOM     71  C   UNL     1       6.165  11.899  -5.898  1.00  0.00     0.173 A 
ATOM     72  C   UNL     1       7.686  10.419  -6.957  1.00  0.00     0.173 A 
ATOM     73  F   UNL     1       5.588  12.469  -4.832  1.00  0.00    -0.203 F 
ATOM     74  C   UNL     1       5.837  12.450  -7.139  1.00  0.00     0.198 A 
ATOM     75  C   UNL     1       7.309  10.921  -8.207  1.00  0.00     0.198 A 
ATOM     76  F   UNL     1       8.734   9.585  -6.945  1.00  0.00    -0.203 F 
ATOM     77  F   UNL     1       4.984  13.482  -7.203  1.00  0.00    -0.200 F 
ATOM     78  C   UNL     1       6.371  11.928  -8.299  1.00  0.00     0.200 A 
ATOM     79  F   UNL     1       7.865  10.421  -9.320  1.00  0.00    -0.200 F 
ATOM     80  F   UNL     1       6.010  12.414  -9.493  1.00  0.00    -0.200 F 
ENDBRANCH  56  70
BRANCH  57  81
ATOM     81  C   UNL     1       7.228   5.692   2.478  1.00  0.00     0.064 A 
ATOM     82  C   UNL     1       6.349   4.730   3.016  1.00  0.00     0.173 A 
ATOM     83  C   UNL     1       8.500   5.267   2.083  1.00  0.00     0.173 A 
ATOM     84  F   UNL     1       5.125   5.096   3.429  1.00  0.00    -0.203 F 
ATOM     85  C   UNL     1       6.662   3.376   2.978  1.00  0.00     0.198 A 
ATOM     86  C   UNL     1       8.823   3.911   2.085  1.00  0.00     0.198 A 
ATOM     87  F   UNL     1       9.380   6.138   1.568  1.00  0.00    -0.203 F 
ATOM     88  F   UNL     1       5.741   2.467   3.330  1.00  0.00    -0.200 F 
ATOM     89  C   UNL     1       7.885   2.966   2.475  1.00  0.00     0.200 A 
ATOM     90  F   UNL     1      10.010   3.514   1.608  1.00  0.00    -0.200 F 
ATOM     91  F   UNL     1       8.138   1.659   2.319  1.00  0.00    -0.200 F 
ENDBRANCH  57  81
BRANCH  69  92
ATOM     92  C   UNL     1       9.060  12.395   0.409  1.00  0.00     0.064 A 
ATOM     93  C   UNL     1       9.315  12.972   1.665  1.00  0.00     0.173 A 
ATOM     94  C   UNL     1       9.676  13.032  -0.691  1.00  0.00     0.173 A 
ATOM     95  F   UNL     1       8.693  12.525   2.767  1.00  0.00    -0.203 F 
ATOM     96  C   UNL     1      10.199  14.041   1.822  1.00  0.00     0.198 A 
ATOM     97  C   UNL     1      10.515  14.135  -0.538  1.00  0.00     0.198 A 
ATOM     98  F   UNL     1       9.504  12.593  -1.945  1.00  0.00    -0.203 F 
ATOM     99  F   UNL     1      10.467  14.506   3.050  1.00  0.00    -0.200 F 
ATOM    100  C   UNL     1      10.796  14.625   0.721  1.00  0.00     0.200 A 
ATOM    101  F   UNL     1      11.055  14.713  -1.620  1.00  0.00    -0.200 F 
ATOM    102  F   UNL     1      11.635  15.658   0.871  1.00  0.00    -0.200 F 
ENDBRANCH  69  92
ENDBRANCH  43  44
ENDBRANCH  35  38
ENDBRANCH  33  34
ENDBRANCH  32  33
ENDBRANCH   1  32
TORSDOF 14
