REMARK SMILES O=C(CCCC[C@@H]1CCSS1)NCCCNC(=O)c1ccc(-c2c3nc(c(-c4c(F)c(F)c(F)c(F)c4F)c4ccc([nH]4)c(-c4c(F)c(F)c(F)c(F)c4F)c4nc(c(-c5c(F)c(F)c(F)c(F)c5F)c5ccc2[nH]5)C=C4)C=C3)cc1
REMARK SMILES IDX 13 1 12 2 1 3 2 4 3 6 4 7 5 8 6 9 7 10 8 11 11 12 9 13 10 14
REMARK SMILES IDX 14 15 15 16 16 17 17 18 18 20 19 21 20 22 81 23 21 24 80 25
REMARK SMILES IDX 22 26 23 27 24 28 74 29 25 30 79 31 73 32 75 33 26 34 78 35
REMARK SMILES IDX 72 36 71 37 27 39 59 40 39 41 58 42 40 43 43 44 57 45 76 46
REMARK SMILES IDX 41 47 42 48 56 50 77 51 44 52 28 53 29 54 37 55 30 56 31 57
REMARK SMILES IDX 35 58 38 59 32 60 33 61 36 62 34 63 60 64 61 65 69 66 62 67
REMARK SMILES IDX 63 68 67 69 70 70 64 71 65 72 68 73 66 74 45 75 46 76 54 77
REMARK SMILES IDX 47 78 48 79 52 80 55 81 49 82 50 83 53 84 51 85
REMARK H PARENT 12 5 16 19 75 38 43 49
REMARK Flexibility Score: inf
ROOT
ATOM      1  C   UNL     1       2.007   2.531  -0.485  1.00  0.00     0.117 C 
ENDROOT
BRANCH   1   2
ATOM      2  N   UNL     1       2.642   1.275  -0.144  1.00  0.00    -0.356 N 
ATOM      3  O   UNL     1       0.753  -0.013  -0.338  1.00  0.00    -0.275 OA
ATOM      4  C   UNL     1       1.965   0.080  -0.169  1.00  0.00     0.219 C 
ATOM      5  H   UNL     1       3.592   1.278   0.114  1.00  0.00     0.163 HD
BRANCH   4   6
ATOM      6  C   UNL     1       2.843  -1.140   0.021  1.00  0.00     0.100 C 
BRANCH   6   7
ATOM      7  C   UNL     1       3.742  -1.415  -1.190  1.00  0.00     0.010 C 
BRANCH   7   8
ATOM      8  C   UNL     1       5.044  -0.602  -1.307  1.00  0.00     0.002 C 
BRANCH   8   9
ATOM      9  C   UNL     1       5.912  -0.484  -0.046  1.00  0.00     0.015 C 
BRANCH   9  10
ATOM     10  C   UNL     1       6.863  -1.653   0.260  1.00  0.00     0.059 C 
ATOM     11  C   UNL     1       6.380  -3.060  -0.092  1.00  0.00     0.027 C 
ATOM     12  S   UNL     1       7.250  -1.680   2.048  1.00  0.00    -0.091 SA
ATOM     13  C   UNL     1       7.339  -4.098   0.481  1.00  0.00     0.083 C 
ATOM     14  S   UNL     1       7.494  -3.707   2.239  1.00  0.00    -0.094 SA
ENDBRANCH   9  10
ENDBRANCH   8   9
ENDBRANCH   7   8
ENDBRANCH   6   7
ENDBRANCH   4   6
ENDBRANCH   1   2
BRANCH   1  15
ATOM     15  C   UNL     1       2.344   3.649   0.493  1.00  0.00     0.042 C 
BRANCH  15  16
ATOM     16  C   UNL     1       3.827   3.987   0.605  1.00  0.00     0.118 C 
BRANCH  16  17
ATOM     17  N   UNL     1       4.408   4.476  -0.636  1.00  0.00    -0.352 N 
ATOM     18  C   UNL     1       5.160   5.597  -0.880  1.00  0.00     0.251 C 
ATOM     19  H   UNL     1       4.233   3.914  -1.425  1.00  0.00     0.163 HD
ATOM     20  O   UNL     1       5.452   5.883  -2.042  1.00  0.00    -0.269 OA
BRANCH  18  21
ATOM     21  C   UNL     1       5.607   6.482   0.220  1.00  0.00     0.039 A 
ATOM     22  C   UNL     1       5.592   7.865   0.009  1.00  0.00     0.014 A 
ATOM     23  C   UNL     1       6.082   5.975   1.432  1.00  0.00     0.014 A 
ATOM     24  C   UNL     1       6.007   8.733   1.021  1.00  0.00     0.010 A 
ATOM     25  C   UNL     1       6.422   6.844   2.470  1.00  0.00     0.010 A 
ATOM     26  C   UNL     1       6.404   8.232   2.271  1.00  0.00    -0.014 A 
BRANCH  26  27
ATOM     27  C   UNL     1       6.829   9.153   3.360  1.00  0.00     0.031 A 
ATOM     28  C   UNL     1       8.246   9.131   3.866  1.00  0.00     0.074 A 
ATOM     29  C   UNL     1       5.933   9.992   3.915  1.00  0.00     0.049 A 
ATOM     30  N   UNL     1       8.803   9.857   4.804  1.00  0.00    -0.248 NA
ATOM     31  C   UNL     1       9.153   8.146   3.257  1.00  0.00     0.031 C 
ATOM     32  C   UNL     1       4.517  10.074   3.556  1.00  0.00     0.029 A 
ATOM     33  N   UNL     1       6.082  10.936   4.901  1.00  0.00    -0.354 N 
ATOM     34  C   UNL     1      10.114   9.409   4.904  1.00  0.00     0.074 A 
ATOM     35  C   UNL     1      10.255   8.310   3.974  1.00  0.00     0.031 C 
ATOM     36  C   UNL     1       3.933  11.037   4.288  1.00  0.00     0.029 A 
ATOM     37  C   UNL     1       4.926  11.622   5.185  1.00  0.00     0.049 A 
ATOM     38  H   UNL     1       6.936  11.105   5.360  1.00  0.00     0.167 HD
ATOM     39  C   UNL     1      11.118   9.886   5.678  1.00  0.00     0.037 A 
ATOM     40  C   UNL     1       4.695  12.616   6.064  1.00  0.00     0.037 A 
ATOM     41  C   UNL     1      10.987  10.996   6.586  1.00  0.00     0.049 A 
ATOM     42  C   UNL     1       5.834  13.145   6.894  1.00  0.00     0.074 A 
ATOM     43  C   UNL     1      11.958  11.584   7.379  1.00  0.00     0.029 A 
ATOM     44  N   UNL     1       9.808  11.688   6.820  1.00  0.00    -0.354 N 
ATOM     45  N   UNL     1       7.086  12.761   6.925  1.00  0.00    -0.248 NA
ATOM     46  C   UNL     1       5.527  14.262   7.798  1.00  0.00     0.031 C 
ATOM     47  C   UNL     1      11.357  12.607   8.121  1.00  0.00     0.029 A 
ATOM     48  C   UNL     1      10.025  12.691   7.752  1.00  0.00     0.049 A 
ATOM     49  H   UNL     1       8.945  11.496   6.388  1.00  0.00     0.167 HD
ATOM     50  C   UNL     1       7.724  13.610   7.821  1.00  0.00     0.074 A 
ATOM     51  C   UNL     1       6.722  14.539   8.300  1.00  0.00     0.031 C 
ATOM     52  C   UNL     1       9.023  13.619   8.210  1.00  0.00     0.037 A 
BRANCH  39  53
ATOM     53  C   UNL     1      12.456   9.210   5.571  1.00  0.00     0.064 A 
ATOM     54  C   UNL     1      13.247   9.328   4.417  1.00  0.00     0.173 A 
ATOM     55  C   UNL     1      12.966   8.462   6.642  1.00  0.00     0.173 A 
ATOM     56  F   UNL     1      12.801  10.021   3.359  1.00  0.00    -0.203 F 
ATOM     57  C   UNL     1      14.485   8.694   4.329  1.00  0.00     0.198 A 
ATOM     58  C   UNL     1      14.218   7.857   6.562  1.00  0.00     0.198 A 
ATOM     59  F   UNL     1      12.255   8.323   7.770  1.00  0.00    -0.203 F 
ATOM     60  F   UNL     1      15.198   8.777   3.197  1.00  0.00    -0.200 F 
ATOM     61  C   UNL     1      14.972   7.966   5.403  1.00  0.00     0.200 A 
ATOM     62  F   UNL     1      14.694   7.164   7.606  1.00  0.00    -0.200 F 
ATOM     63  F   UNL     1      16.165   7.362   5.318  1.00  0.00    -0.200 F 
ENDBRANCH  39  53
BRANCH  40  64
ATOM     64  C   UNL     1       3.338  13.212   6.171  1.00  0.00     0.064 A 
ATOM     65  C   UNL     1       3.088  14.516   5.720  1.00  0.00     0.173 A 
ATOM     66  C   UNL     1       2.270  12.501   6.736  1.00  0.00     0.173 A 
ATOM     67  F   UNL     1       4.083  15.243   5.191  1.00  0.00    -0.203 F 
ATOM     68  C   UNL     1       1.828  15.095   5.852  1.00  0.00     0.198 A 
ATOM     69  C   UNL     1       1.003  13.070   6.841  1.00  0.00     0.198 A 
ATOM     70  F   UNL     1       2.456  11.248   7.177  1.00  0.00    -0.203 F 
ATOM     71  F   UNL     1       1.630  16.360   5.459  1.00  0.00    -0.200 F 
ATOM     72  C   UNL     1       0.785  14.370   6.408  1.00  0.00     0.200 A 
ATOM     73  F   UNL     1      -0.005  12.362   7.367  1.00  0.00    -0.200 F 
ATOM     74  F   UNL     1      -0.427  14.926   6.535  1.00  0.00    -0.200 F 
ENDBRANCH  40  64
BRANCH  52  75
ATOM     75  C   UNL     1       9.446  14.701   9.161  1.00  0.00     0.064 A 
ATOM     76  C   UNL     1       9.034  14.713  10.502  1.00  0.00     0.173 A 
ATOM     77  C   UNL     1      10.290  15.735   8.725  1.00  0.00     0.173 A 
ATOM     78  F   UNL     1       8.216  13.756  10.965  1.00  0.00    -0.203 F 
ATOM     79  C   UNL     1       9.418  15.741  11.360  1.00  0.00     0.198 A 
ATOM     80  C   UNL     1      10.698  16.743   9.594  1.00  0.00     0.198 A 
ATOM     81  F   UNL     1      10.720  15.767   7.455  1.00  0.00    -0.203 F 
ATOM     82  F   UNL     1       8.962  15.764  12.620  1.00  0.00    -0.200 F 
ATOM     83  C   UNL     1      10.253  16.751  10.907  1.00  0.00     0.200 A 
ATOM     84  F   UNL     1      11.516  17.711   9.158  1.00  0.00    -0.200 F 
ATOM     85  F   UNL     1      10.621  17.740  11.734  1.00  0.00    -0.200 F 
ENDBRANCH  52  75
ENDBRANCH  26  27
ENDBRANCH  18  21
ENDBRANCH  16  17
ENDBRANCH  15  16
ENDBRANCH   1  15
TORSDOF 14
