REMARK SMILES Nc1nc2ccccc2nc1N1CCCC[C@@H]1C(=O)NCCCNC(=O)c1ccc(-c2c3nc(c(-c4c(F)c(F)c(F)c(F)c4F)c4ccc([nH]4)c(-c4c(F)c(F)c(F)c(F)c4F)c4nc(c(-c5c(F)c(F)c(F)c(F)c5F)c5ccc2[nH]5)C=C4)C=C3)cc1
REMARK SMILES IDX 22 1 21 2 20 3 18 4 19 5 17 7 12 8 13 9 14 10 16 11 15 12
REMARK SMILES IDX 11 13 2 14 3 15 4 16 10 17 5 18 9 19 6 20 8 21 7 22 1 23
REMARK SMILES IDX 23 26 24 27 25 28 26 30 27 31 28 32 89 33 29 34 88 35 30 36
REMARK SMILES IDX 31 37 32 38 82 39 33 40 87 41 81 42 83 43 34 44 86 45 80 46
REMARK SMILES IDX 79 47 35 49 67 50 47 51 66 52 48 53 51 54 65 55 84 56 49 57
REMARK SMILES IDX 50 58 64 60 85 61 52 62 36 63 37 64 45 65 38 66 39 67 43 68
REMARK SMILES IDX 46 69 40 70 41 71 44 72 42 73 68 74 69 75 77 76 70 77 71 78
REMARK SMILES IDX 75 79 78 80 72 81 73 82 76 83 74 84 53 85 54 86 62 87 55 88
REMARK SMILES IDX 56 89 60 90 63 91 57 92 58 93 61 94 59 95
REMARK H PARENT 20 6 1 24 1 25 24 29 83 48 51 59
REMARK Flexibility Score: inf
ROOT
ATOM      1  C   UNL     1      -1.671   4.964   0.812  1.00  0.00     0.042 C 
ENDROOT
BRANCH   1   2
ATOM      2  C   UNL     1      -0.975   3.627   0.987  1.00  0.00     0.117 C 
BRANCH   2   3
ATOM      3  N   UNL     1      -0.638   3.009  -0.284  1.00  0.00    -0.354 N 
ATOM      4  C   UNL     1       0.565   2.576  -0.763  1.00  0.00     0.242 C 
ATOM      5  O   UNL     1       0.578   2.126  -1.915  1.00  0.00    -0.273 OA
ATOM      6  H   UNL     1      -1.398   2.882  -0.897  1.00  0.00     0.163 HD
BRANCH   4   7
ATOM      7  C   UNL     1       1.882   2.740   0.029  1.00  0.00     0.173 C 
ATOM      8  N   UNL     1       1.904   2.214   1.414  1.00  0.00    -0.342 N 
ATOM      9  C   UNL     1       3.034   2.551   2.268  1.00  0.00     0.119 C 
ATOM     10  C   UNL     1       3.247   4.059   2.288  1.00  0.00     0.022 C 
ATOM     11  C   UNL     1       2.248   4.239  -0.003  1.00  0.00     0.035 C 
ATOM     12  C   UNL     1       3.445   4.589   0.873  1.00  0.00     0.004 C 
BRANCH   8  13
ATOM     13  C   UNL     1       0.961   1.356   1.947  1.00  0.00     0.172 A 
ATOM     14  C   UNL     1       0.486   0.190   1.300  1.00  0.00     0.167 A 
ATOM     15  N   UNL     1      -0.587  -0.495   1.749  1.00  0.00    -0.226 NA
ATOM     16  C   UNL     1      -1.188  -0.028   2.858  1.00  0.00     0.091 A 
ATOM     17  N   UNL     1       0.407   1.750   3.120  1.00  0.00    -0.225 NA
ATOM     18  C   UNL     1      -2.353  -0.630   3.318  1.00  0.00     0.031 A 
ATOM     19  C   UNL     1      -0.678   1.089   3.554  1.00  0.00     0.091 A 
ATOM     20  C   UNL     1      -3.033  -0.141   4.436  1.00  0.00     0.002 A 
ATOM     21  C   UNL     1      -1.351   1.559   4.675  1.00  0.00     0.031 A 
ATOM     22  C   UNL     1      -2.530   0.959   5.117  1.00  0.00     0.002 A 
BRANCH  14  23
ATOM     23  N   UNL     1       1.050  -0.295   0.132  1.00  0.00    -0.381 N 
ATOM     24  H   UNL     1       0.690  -1.111  -0.286  1.00  0.00     0.158 HD
ATOM     25  H   UNL     1       1.810   0.175  -0.280  1.00  0.00     0.158 HD
ENDBRANCH  14  23
ENDBRANCH   8  13
ENDBRANCH   4   7
ENDBRANCH   2   3
ENDBRANCH   1   2
BRANCH   1  26
ATOM     26  C   UNL     1      -3.024   4.852   0.131  1.00  0.00     0.118 C 
BRANCH  26  27
ATOM     27  N   UNL     1      -4.037   4.211   0.964  1.00  0.00    -0.352 N 
ATOM     28  C   UNL     1      -5.186   4.731   1.514  1.00  0.00     0.251 C 
ATOM     29  H   UNL     1      -3.873   3.261   1.163  1.00  0.00     0.163 HD
ATOM     30  O   UNL     1      -5.845   4.077   2.316  1.00  0.00    -0.269 OA
BRANCH  28  31
ATOM     31  C   UNL     1      -5.600   6.108   1.170  1.00  0.00     0.039 A 
ATOM     32  C   UNL     1      -5.559   6.549  -0.152  1.00  0.00     0.014 A 
ATOM     33  C   UNL     1      -5.981   6.983   2.191  1.00  0.00     0.014 A 
ATOM     34  C   UNL     1      -5.674   7.906  -0.424  1.00  0.00     0.010 A 
ATOM     35  C   UNL     1      -6.207   8.330   1.897  1.00  0.00     0.010 A 
ATOM     36  C   UNL     1      -5.991   8.815   0.598  1.00  0.00    -0.014 A 
BRANCH  36  37
ATOM     37  C   UNL     1      -6.066  10.265   0.284  1.00  0.00     0.031 A 
ATOM     38  C   UNL     1      -5.106  11.239   0.914  1.00  0.00     0.074 A 
ATOM     39  C   UNL     1      -6.955  10.694  -0.632  1.00  0.00     0.049 A 
ATOM     40  N   UNL     1      -5.028  12.539   0.761  1.00  0.00    -0.248 NA
ATOM     41  C   UNL     1      -4.102  10.689   1.839  1.00  0.00     0.031 C 
ATOM     42  C   UNL     1      -7.919   9.842  -1.331  1.00  0.00     0.029 A 
ATOM     43  N   UNL     1      -7.173  11.942  -1.157  1.00  0.00    -0.354 N 
ATOM     44  C   UNL     1      -3.993  12.960   1.585  1.00  0.00     0.074 A 
ATOM     45  C   UNL     1      -3.481  11.784   2.255  1.00  0.00     0.031 C 
ATOM     46  C   UNL     1      -8.576  10.576  -2.240  1.00  0.00     0.029 A 
ATOM     47  C   UNL     1      -8.135  11.963  -2.136  1.00  0.00     0.049 A 
ATOM     48  H   UNL     1      -6.686  12.745  -0.862  1.00  0.00     0.167 HD
ATOM     49  C   UNL     1      -3.507  14.212   1.757  1.00  0.00     0.037 A 
ATOM     50  C   UNL     1      -8.622  12.987  -2.861  1.00  0.00     0.037 A 
ATOM     51  C   UNL     1      -3.994  15.376   1.063  1.00  0.00     0.049 A 
ATOM     52  C   UNL     1      -8.089  14.369  -2.623  1.00  0.00     0.074 A 
ATOM     53  C   UNL     1      -3.562  16.687   1.167  1.00  0.00     0.029 A 
ATOM     54  N   UNL     1      -5.015  15.364   0.124  1.00  0.00    -0.354 N 
ATOM     55  N   UNL     1      -7.133  14.757  -1.817  1.00  0.00    -0.248 NA
ATOM     56  C   UNL     1      -8.717  15.459  -3.382  1.00  0.00     0.031 C 
ATOM     57  C   UNL     1      -4.343  17.474   0.315  1.00  0.00     0.029 A 
ATOM     58  C   UNL     1      -5.235  16.648  -0.349  1.00  0.00     0.049 A 
ATOM     59  H   UNL     1      -5.510  14.563  -0.163  1.00  0.00     0.167 HD
ATOM     60  C   UNL     1      -7.038  16.132  -1.973  1.00  0.00     0.074 A 
ATOM     61  C   UNL     1      -8.019  16.509  -2.970  1.00  0.00     0.031 C 
ATOM     62  C   UNL     1      -6.218  17.004  -1.339  1.00  0.00     0.037 A 
BRANCH  49  63
ATOM     63  C   UNL     1      -2.391  14.403   2.742  1.00  0.00     0.064 A 
ATOM     64  C   UNL     1      -1.078  14.006   2.451  1.00  0.00     0.173 A 
ATOM     65  C   UNL     1      -2.624  15.058   3.961  1.00  0.00     0.173 A 
ATOM     66  F   UNL     1      -0.806  13.365   1.304  1.00  0.00    -0.203 F 
ATOM     67  C   UNL     1      -0.041  14.247   3.349  1.00  0.00     0.198 A 
ATOM     68  C   UNL     1      -1.581  15.319   4.846  1.00  0.00     0.198 A 
ATOM     69  F   UNL     1      -3.861  15.464   4.285  1.00  0.00    -0.203 F 
ATOM     70  F   UNL     1       1.201  13.834   3.062  1.00  0.00    -0.200 F 
ATOM     71  C   UNL     1      -0.292  14.911   4.541  1.00  0.00     0.200 A 
ATOM     72  F   UNL     1      -1.823  15.971   5.992  1.00  0.00    -0.200 F 
ATOM     73  F   UNL     1       0.710  15.156   5.396  1.00  0.00    -0.200 F 
ENDBRANCH  49  63
BRANCH  50  74
ATOM     74  C   UNL     1      -9.673  12.730  -3.877  1.00  0.00     0.064 A 
ATOM     75  C   UNL     1      -9.389  12.829  -5.245  1.00  0.00     0.173 A 
ATOM     76  C   UNL     1     -10.970  12.349  -3.503  1.00  0.00     0.173 A 
ATOM     77  F   UNL     1      -8.168  13.210  -5.649  1.00  0.00    -0.203 F 
ATOM     78  C   UNL     1     -10.364  12.557  -6.202  1.00  0.00     0.198 A 
ATOM     79  C   UNL     1     -11.936  12.051  -4.461  1.00  0.00     0.198 A 
ATOM     80  F   UNL     1     -11.290  12.238  -2.205  1.00  0.00    -0.203 F 
ATOM     81  F   UNL     1     -10.075  12.684  -7.504  1.00  0.00    -0.200 F 
ATOM     82  C   UNL     1     -11.633  12.159  -5.809  1.00  0.00     0.200 A 
ATOM     83  F   UNL     1     -13.156  11.651  -4.077  1.00  0.00    -0.200 F 
ATOM     84  F   UNL     1     -12.566  11.882  -6.731  1.00  0.00    -0.200 F 
ENDBRANCH  50  74
BRANCH  62  85
ATOM     85  C   UNL     1      -6.338  18.451  -1.711  1.00  0.00     0.064 A 
ATOM     86  C   UNL     1      -7.416  19.229  -1.266  1.00  0.00     0.173 A 
ATOM     87  C   UNL     1      -5.341  19.076  -2.473  1.00  0.00     0.173 A 
ATOM     88  F   UNL     1      -8.400  18.670  -0.546  1.00  0.00    -0.203 F 
ATOM     89  C   UNL     1      -7.500  20.581  -1.586  1.00  0.00     0.198 A 
ATOM     90  C   UNL     1      -5.416  20.433  -2.771  1.00  0.00     0.198 A 
ATOM     91  F   UNL     1      -4.288  18.373  -2.916  1.00  0.00    -0.203 F 
ATOM     92  F   UNL     1      -8.556  21.299  -1.180  1.00  0.00    -0.200 F 
ATOM     93  C   UNL     1      -6.497  21.183  -2.331  1.00  0.00     0.200 A 
ATOM     94  F   UNL     1      -4.441  21.017  -3.482  1.00  0.00    -0.200 F 
ATOM     95  F   UNL     1      -6.574  22.487  -2.630  1.00  0.00    -0.200 F 
ENDBRANCH  62  85
ENDBRANCH  36  37
ENDBRANCH  28  31
ENDBRANCH  26  27
ENDBRANCH   1  26
TORSDOF 12
