REMARK SMILES CO[C@H](C)[C@H](Br)C(=O)NCCCNC(=O)c1ccc(-c2c3nc(c(-c4c(F)c(F)c(F)c(F)c4F)c4ccc([nH]4)c(-c4c(F)c(F)c(F)c(F)c4F)c4nc(c(-c5c(F)c(F)c(F)c(F)c5F)c5ccc2[nH]5)C=C4)C=C3)cc1
REMARK SMILES IDX 11 1 10 2 9 3 7 4 8 5 5 7 6 8 3 9 4 10 2 11 1 12 12 13 13 14
REMARK SMILES IDX 14 15 15 17 16 18 17 19 78 20 18 21 77 22 19 23 20 24 21 25
REMARK SMILES IDX 71 26 22 27 76 28 70 29 72 30 23 31 75 32 69 33 68 34 24 36
REMARK SMILES IDX 56 37 36 38 55 39 37 40 40 41 54 42 73 43 38 44 39 45 53 47
REMARK SMILES IDX 74 48 41 49 25 50 26 51 34 52 27 53 28 54 32 55 35 56 29 57
REMARK SMILES IDX 30 58 33 59 31 60 57 61 58 62 66 63 59 64 60 65 64 66 67 67
REMARK SMILES IDX 61 68 62 69 65 70 63 71 42 72 43 73 51 74 44 75 45 76 49 77
REMARK SMILES IDX 52 78 46 79 47 80 50 81 48 82
REMARK H PARENT 9 6 13 16 72 35 40 46
REMARK Flexibility Score: inf
ROOT
ATOM      1  C   UNL     1       0.493   4.667   3.666  1.00  0.00     0.042 C 
ENDROOT
BRANCH   1   2
ATOM      2  C   UNL     1       1.755   4.224   2.947  1.00  0.00     0.117 C 
BRANCH   2   3
ATOM      3  N   UNL     1       2.402   3.107   3.610  1.00  0.00    -0.355 N 
ATOM      4  C   UNL     1       2.761   1.895   3.103  1.00  0.00     0.236 C 
ATOM      5  O   UNL     1       3.364   1.127   3.861  1.00  0.00    -0.274 OA
ATOM      6  H   UNL     1       2.612   3.246   4.562  1.00  0.00     0.163 HD
BRANCH   4   7
ATOM      7  C   UNL     1       2.454   1.480   1.670  1.00  0.00     0.174 C 
ATOM      8  Br  UNL     1       0.522   1.141   1.604  1.00  0.00    -0.076 Br
BRANCH   7   9
ATOM      9  C   UNL     1       3.054   2.307   0.510  1.00  0.00     0.137 C 
ATOM     10  C   UNL     1       2.074   2.809  -0.555  1.00  0.00     0.040 C 
BRANCH   9  11
ATOM     11  O   UNL     1       3.789   3.470   0.932  1.00  0.00    -0.380 OA
ATOM     12  C   UNL     1       5.124   3.198   1.345  1.00  0.00     0.195 C 
ENDBRANCH   9  11
ENDBRANCH   7   9
ENDBRANCH   4   7
ENDBRANCH   2   3
ENDBRANCH   1   2
BRANCH   1  13
ATOM     13  C   UNL     1       0.753   5.260   5.040  1.00  0.00     0.118 C 
BRANCH  13  14
ATOM     14  N   UNL     1       1.484   6.520   4.988  1.00  0.00    -0.352 N 
ATOM     15  C   UNL     1       1.130   7.758   5.468  1.00  0.00     0.251 C 
ATOM     16  H   UNL     1       2.361   6.478   4.543  1.00  0.00     0.163 HD
ATOM     17  O   UNL     1       1.806   8.745   5.193  1.00  0.00    -0.269 OA
BRANCH  15  18
ATOM     18  C   UNL     1      -0.088   7.905   6.290  1.00  0.00     0.039 A 
ATOM     19  C   UNL     1      -0.959   8.966   6.029  1.00  0.00     0.014 A 
ATOM     20  C   UNL     1      -0.384   6.986   7.299  1.00  0.00     0.014 A 
ATOM     21  C   UNL     1      -2.164   9.058   6.728  1.00  0.00     0.010 A 
ATOM     22  C   UNL     1      -1.625   7.021   7.922  1.00  0.00     0.010 A 
ATOM     23  C   UNL     1      -2.526   8.060   7.648  1.00  0.00    -0.014 A 
BRANCH  23  24
ATOM     24  C   UNL     1      -3.837   8.087   8.345  1.00  0.00     0.031 A 
ATOM     25  C   UNL     1      -3.886   8.191   9.844  1.00  0.00     0.074 A 
ATOM     26  C   UNL     1      -4.974   7.940   7.638  1.00  0.00     0.049 A 
ATOM     27  N   UNL     1      -4.920   8.139  10.645  1.00  0.00    -0.248 NA
ATOM     28  C   UNL     1      -2.597   8.336  10.539  1.00  0.00     0.031 C 
ATOM     29  C   UNL     1      -5.053   7.773   6.186  1.00  0.00     0.029 A 
ATOM     30  N   UNL     1      -6.283   7.894   8.049  1.00  0.00    -0.354 N 
ATOM     31  C   UNL     1      -4.404   8.224  11.931  1.00  0.00     0.074 A 
ATOM     32  C   UNL     1      -2.964   8.270  11.810  1.00  0.00     0.031 C 
ATOM     33  C   UNL     1      -6.342   7.669   5.825  1.00  0.00     0.029 A 
ATOM     34  C   UNL     1      -7.177   7.721   7.021  1.00  0.00     0.049 A 
ATOM     35  H   UNL     1      -6.555   7.977   8.991  1.00  0.00     0.167 HD
ATOM     36  C   UNL     1      -5.073   8.286  13.107  1.00  0.00     0.037 A 
ATOM     37  C   UNL     1      -8.519   7.612   7.043  1.00  0.00     0.037 A 
ATOM     38  C   UNL     1      -6.507   8.275  13.221  1.00  0.00     0.049 A 
ATOM     39  C   UNL     1      -9.239   7.692   8.362  1.00  0.00     0.074 A 
ATOM     40  C   UNL     1      -7.283   8.403  14.359  1.00  0.00     0.029 A 
ATOM     41  N   UNL     1      -7.381   8.129  12.154  1.00  0.00    -0.354 N 
ATOM     42  N   UNL     1      -8.745   7.846   9.566  1.00  0.00    -0.248 NA
ATOM     43  C   UNL     1     -10.704   7.590   8.323  1.00  0.00     0.031 C 
ATOM     44  C   UNL     1      -8.626   8.289  13.986  1.00  0.00     0.029 A 
ATOM     45  C   UNL     1      -8.689   8.142  12.610  1.00  0.00     0.049 A 
ATOM     46  H   UNL     1      -7.111   8.030  11.212  1.00  0.00     0.167 HD
ATOM     47  C   UNL     1      -9.835   7.888  10.424  1.00  0.00     0.074 A 
ATOM     48  C   UNL     1     -11.019   7.758   9.600  1.00  0.00     0.031 C 
ATOM     49  C   UNL     1      -9.855   8.021  11.773  1.00  0.00     0.037 A 
BRANCH  36  50
ATOM     50  C   UNL     1      -4.257   8.379  14.364  1.00  0.00     0.064 A 
ATOM     51  C   UNL     1      -3.520   9.531  14.681  1.00  0.00     0.173 A 
ATOM     52  C   UNL     1      -4.233   7.315  15.278  1.00  0.00     0.173 A 
ATOM     53  F   UNL     1      -3.498  10.572  13.835  1.00  0.00    -0.203 F 
ATOM     54  C   UNL     1      -2.763   9.601  15.847  1.00  0.00     0.198 A 
ATOM     55  C   UNL     1      -3.501   7.401  16.460  1.00  0.00     0.198 A 
ATOM     56  F   UNL     1      -4.923   6.192  15.029  1.00  0.00    -0.203 F 
ATOM     57  F   UNL     1      -2.024  10.690  16.100  1.00  0.00    -0.200 F 
ATOM     58  C   UNL     1      -2.760   8.539  16.739  1.00  0.00     0.200 A 
ATOM     59  F   UNL     1      -3.509   6.379  17.328  1.00  0.00    -0.200 F 
ATOM     60  F   UNL     1      -2.037   8.611  17.865  1.00  0.00    -0.200 F 
ENDBRANCH  36  50
BRANCH  37  61
ATOM     61  C   UNL     1      -9.272   7.444   5.772  1.00  0.00     0.064 A 
ATOM     62  C   UNL     1     -10.082   8.475   5.277  1.00  0.00     0.173 A 
ATOM     63  C   UNL     1      -9.200   6.257   5.030  1.00  0.00     0.173 A 
ATOM     64  F   UNL     1     -10.199   9.623   5.962  1.00  0.00    -0.203 F 
ATOM     65  C   UNL     1     -10.809   8.317   4.099  1.00  0.00     0.198 A 
ATOM     66  C   UNL     1      -9.906   6.110   3.837  1.00  0.00     0.198 A 
ATOM     67  F   UNL     1      -8.435   5.242   5.457  1.00  0.00    -0.203 F 
ATOM     68  F   UNL     1     -11.612   9.302   3.672  1.00  0.00    -0.200 F 
ATOM     69  C   UNL     1     -10.716   7.137   3.377  1.00  0.00     0.200 A 
ATOM     70  F   UNL     1      -9.802   4.974   3.134  1.00  0.00    -0.200 F 
ATOM     71  F   UNL     1     -11.412   6.987   2.242  1.00  0.00    -0.200 F 
ENDBRANCH  37  61
BRANCH  49  72
ATOM     72  C   UNL     1     -11.199   8.071  12.439  1.00  0.00     0.064 A 
ATOM     73  C   UNL     1     -12.007   6.931  12.555  1.00  0.00     0.173 A 
ATOM     74  C   UNL     1     -11.664   9.267  13.007  1.00  0.00     0.173 A 
ATOM     75  F   UNL     1     -11.613   5.767  12.015  1.00  0.00    -0.203 F 
ATOM     76  C   UNL     1     -13.242   6.992  13.193  1.00  0.00     0.198 A 
ATOM     77  C   UNL     1     -12.886   9.317  13.671  1.00  0.00     0.198 A 
ATOM     78  F   UNL     1     -10.926  10.385  12.930  1.00  0.00    -0.203 F 
ATOM     79  F   UNL     1     -14.019   5.901  13.251  1.00  0.00    -0.200 F 
ATOM     80  C   UNL     1     -13.677   8.182  13.757  1.00  0.00     0.200 A 
ATOM     81  F   UNL     1     -13.298  10.464  14.228  1.00  0.00    -0.200 F 
ATOM     82  F   UNL     1     -14.863   8.236  14.378  1.00  0.00    -0.200 F 
ENDBRANCH  49  72
ENDBRANCH  23  24
ENDBRANCH  15  18
ENDBRANCH  13  14
ENDBRANCH   1  13
TORSDOF 12
