REMARK SMILES CC(C)c1cccc2c1N[C@H](c1ccc(C(=O)NCCCNC(=O)c3ccc(-c4c5nc(c(-c6c(F)c(F)c(F)c(F)c6F)c6ccc([nH]6)c(-c6c(F)c(F)c(F)c(F)c6F)c6nc(c(-c7c(F)c(F)c(F)c(F)c7F)c7ccc4[nH]7)C=C6)C=C5)cc3)cc1)[C@H]1CC=C[C@H]21
REMARK SMILES IDX 20 1 19 2 18 3 16 4 17 5 15 7 12 8 13 9 89 10 14 11 88 12
REMARK SMILES IDX 11 13 4 14 5 15 9 16 6 17 8 18 10 19 7 20 94 21 90 23 93 24
REMARK SMILES IDX 91 25 92 26 2 27 1 28 3 29 21 30 22 31 23 32 24 34 25 35
REMARK SMILES IDX 26 36 87 37 27 38 86 39 28 40 29 41 30 42 80 43 31 44 85 45
REMARK SMILES IDX 79 46 81 47 32 48 84 49 78 50 77 51 33 53 65 54 45 55 64 56
REMARK SMILES IDX 46 57 49 58 63 59 82 60 47 61 48 62 62 64 83 65 50 66 34 67
REMARK SMILES IDX 35 68 43 69 36 70 37 71 41 72 44 73 38 74 39 75 42 76 40 77
REMARK SMILES IDX 66 78 67 79 75 80 68 81 69 82 73 83 76 84 70 85 71 86 74 87
REMARK SMILES IDX 72 88 51 89 52 90 60 91 53 92 54 93 58 94 61 95 55 96 56 97
REMARK SMILES IDX 59 98 57 99
REMARK H PARENT 18 6 10 22 22 33 81 52 49 63
REMARK Flexibility Score: inf
ROOT
ATOM      1  C   UNL     1      -1.308   5.684   6.030  1.00  0.00     0.042 C 
ENDROOT
BRANCH   1   2
ATOM      2  C   UNL     1      -1.238   6.280   4.633  1.00  0.00     0.118 C 
BRANCH   2   3
ATOM      3  N   UNL     1       0.103   6.688   4.228  1.00  0.00    -0.352 N 
ATOM      4  C   UNL     1       0.795   6.420   3.067  1.00  0.00     0.251 C 
ATOM      5  O   UNL     1       1.951   6.812   2.941  1.00  0.00    -0.269 OA
ATOM      6  H   UNL     1       0.587   7.240   4.884  1.00  0.00     0.163 HD
BRANCH   4   7
ATOM      7  C   UNL     1       0.172   5.595   2.010  1.00  0.00     0.039 A 
ATOM      8  C   UNL     1      -1.143   3.630   0.461  1.00  0.00    -0.025 A 
ATOM      9  C   UNL     1       0.251   3.595   0.667  1.00  0.00     0.006 A 
ATOM     10  C   UNL     1      -1.787   4.819   0.839  1.00  0.00     0.006 A 
ATOM     11  C   UNL     1       0.904   4.555   1.448  1.00  0.00     0.014 A 
ATOM     12  C   UNL     1      -1.141   5.795   1.601  1.00  0.00     0.014 A 
BRANCH   8  13
ATOM     13  C   UNL     1      -1.914   2.454  -0.177  1.00  0.00     0.114 C 
ATOM     14  C   UNL     1      -0.865  -1.244   0.272  1.00  0.00    -0.022 A 
ATOM     15  C   UNL     1      -1.520  -2.501   0.386  1.00  0.00     0.006 A 
ATOM     16  C   UNL     1      -1.664  -0.089   0.069  1.00  0.00     0.042 A 
ATOM     17  C   UNL     1      -2.900  -2.636   0.329  1.00  0.00     0.001 A 
ATOM     18  C   UNL     1      -3.080  -0.250   0.027  1.00  0.00    -0.017 A 
ATOM     19  N   UNL     1      -1.135   1.198  -0.019  1.00  0.00    -0.377 N 
ATOM     20  C   UNL     1      -3.680  -1.512   0.144  1.00  0.00     0.006 A 
ATOM     21  C   UNL     1      -3.897   0.962  -0.313  1.00  0.00     0.049 C 
ATOM     22  H   UNL     1      -0.156   1.282   0.027  1.00  0.00     0.161 HD
ATOM     23  C   UNL     1      -3.320   2.193   0.402  1.00  0.00     0.031 C 
ATOM     24  C   UNL     1      -5.344   1.055   0.071  1.00  0.00    -0.023 C 
ATOM     25  C   UNL     1      -4.459   3.211   0.253  1.00  0.00     0.034 C 
ATOM     26  C   UNL     1      -5.667   2.327   0.335  1.00  0.00    -0.030 C 
BRANCH  14  27
ATOM     27  C   UNL     1       0.662  -1.352   0.387  1.00  0.00     0.015 C 
ATOM     28  C   UNL     1       1.557  -0.230  -0.134  1.00  0.00     0.012 C 
ATOM     29  C   UNL     1       1.076  -1.687   1.829  1.00  0.00     0.012 C 
ENDBRANCH  14  27
ENDBRANCH   8  13
ENDBRANCH   4   7
ENDBRANCH   2   3
ENDBRANCH   1   2
BRANCH   1  30
ATOM     30  C   UNL     1      -0.935   6.646   7.146  1.00  0.00     0.118 C 
BRANCH  30  31
ATOM     31  N   UNL     1      -1.910   7.712   7.350  1.00  0.00    -0.352 N 
ATOM     32  C   UNL     1      -2.889   7.904   8.301  1.00  0.00     0.251 C 
ATOM     33  H   UNL     1      -1.859   8.432   6.680  1.00  0.00     0.163 HD
ATOM     34  O   UNL     1      -3.670   8.837   8.175  1.00  0.00    -0.269 OA
BRANCH  32  35
ATOM     35  C   UNL     1      -3.048   6.970   9.443  1.00  0.00     0.039 A 
ATOM     36  C   UNL     1      -1.951   6.408  10.087  1.00  0.00     0.014 A 
ATOM     37  C   UNL     1      -4.337   6.650   9.886  1.00  0.00     0.014 A 
ATOM     38  C   UNL     1      -2.133   5.351  10.971  1.00  0.00     0.010 A 
ATOM     39  C   UNL     1      -4.519   5.678  10.877  1.00  0.00     0.010 A 
ATOM     40  C   UNL     1      -3.420   4.962  11.374  1.00  0.00    -0.014 A 
BRANCH  40  41
ATOM     41  C   UNL     1      -3.579   3.792  12.283  1.00  0.00     0.031 A 
ATOM     42  C   UNL     1      -4.346   2.572  11.839  1.00  0.00     0.074 A 
ATOM     43  C   UNL     1      -2.955   3.788  13.478  1.00  0.00     0.049 A 
ATOM     44  N   UNL     1      -4.567   1.453  12.487  1.00  0.00    -0.248 NA
ATOM     45  C   UNL     1      -4.952   2.608  10.498  1.00  0.00     0.031 C 
ATOM     46  C   UNL     1      -2.168   4.897  14.020  1.00  0.00     0.029 A 
ATOM     47  N   UNL     1      -2.848   2.810  14.435  1.00  0.00    -0.354 N 
ATOM     48  C   UNL     1      -5.352   0.673  11.647  1.00  0.00     0.074 A 
ATOM     49  C   UNL     1      -5.597   1.451  10.454  1.00  0.00     0.031 C 
ATOM     50  C   UNL     1      -1.596   4.512  15.170  1.00  0.00     0.029 A 
ATOM     51  C   UNL     1      -2.038   3.159  15.489  1.00  0.00     0.049 A 
ATOM     52  H   UNL     1      -3.308   1.942  14.373  1.00  0.00     0.167 HD
ATOM     53  C   UNL     1      -5.813  -0.585  11.846  1.00  0.00     0.037 A 
ATOM     54  C   UNL     1      -1.698   2.475  16.598  1.00  0.00     0.037 A 
ATOM     55  C   UNL     1      -5.531  -1.381  13.012  1.00  0.00     0.049 A 
ATOM     56  C   UNL     1      -2.255   1.097  16.809  1.00  0.00     0.074 A 
ATOM     57  C   UNL     1      -5.931  -2.677  13.287  1.00  0.00     0.029 A 
ATOM     58  N   UNL     1      -4.769  -0.959  14.091  1.00  0.00    -0.354 N 
ATOM     59  N   UNL     1      -3.007   0.380  16.011  1.00  0.00    -0.248 NA
ATOM     60  C   UNL     1      -1.934   0.442  18.085  1.00  0.00     0.031 C 
ATOM     61  C   UNL     1      -5.443  -3.026  14.550  1.00  0.00     0.029 A 
ATOM     62  C   UNL     1      -4.706  -1.962  15.044  1.00  0.00     0.049 A 
ATOM     63  H   UNL     1      -4.338  -0.077  14.168  1.00  0.00     0.167 HD
ATOM     64  C   UNL     1      -3.250  -0.808  16.685  1.00  0.00     0.074 A 
ATOM     65  C   UNL     1      -2.542  -0.729  17.945  1.00  0.00     0.031 C 
ATOM     66  C   UNL     1      -4.004  -1.865  16.297  1.00  0.00     0.037 A 
BRANCH  53  67
ATOM     67  C   UNL     1      -6.678  -1.194  10.780  1.00  0.00     0.064 A 
ATOM     68  C   UNL     1      -6.141  -1.642   9.565  1.00  0.00     0.173 A 
ATOM     69  C   UNL     1      -8.047  -1.400  11.009  1.00  0.00     0.173 A 
ATOM     70  F   UNL     1      -4.840  -1.458   9.293  1.00  0.00    -0.203 F 
ATOM     71  C   UNL     1      -6.946  -2.262   8.612  1.00  0.00     0.198 A 
ATOM     72  C   UNL     1      -8.843  -2.043  10.066  1.00  0.00     0.198 A 
ATOM     73  F   UNL     1      -8.608  -0.997  12.159  1.00  0.00    -0.203 F 
ATOM     74  F   UNL     1      -6.417  -2.657   7.445  1.00  0.00    -0.200 F 
ATOM     75  C   UNL     1      -8.293  -2.471   8.867  1.00  0.00     0.200 A 
ATOM     76  F   UNL     1     -10.142  -2.256  10.319  1.00  0.00    -0.200 F 
ATOM     77  F   UNL     1      -9.062  -3.083   7.956  1.00  0.00    -0.200 F 
ENDBRANCH  53  67
BRANCH  54  78
ATOM     78  C   UNL     1      -0.788   3.096  17.595  1.00  0.00     0.064 A 
ATOM     79  C   UNL     1       0.511   2.610  17.785  1.00  0.00     0.173 A 
ATOM     80  C   UNL     1      -1.190   4.203  18.358  1.00  0.00     0.173 A 
ATOM     81  F   UNL     1       0.934   1.540  17.096  1.00  0.00    -0.203 F 
ATOM     82  C   UNL     1       1.375   3.206  18.703  1.00  0.00     0.198 A 
ATOM     83  C   UNL     1      -0.317   4.816  19.253  1.00  0.00     0.198 A 
ATOM     84  F   UNL     1      -2.425   4.706  18.212  1.00  0.00    -0.203 F 
ATOM     85  F   UNL     1       2.603   2.703  18.888  1.00  0.00    -0.200 F 
ATOM     86  C   UNL     1       0.963   4.314  19.428  1.00  0.00     0.200 A 
ATOM     87  F   UNL     1      -0.714   5.896  19.939  1.00  0.00    -0.200 F 
ATOM     88  F   UNL     1       1.799   4.896  20.299  1.00  0.00    -0.200 F 
ENDBRANCH  54  78
BRANCH  66  89
ATOM     89  C   UNL     1      -4.110  -3.021  17.244  1.00  0.00     0.064 A 
ATOM     90  C   UNL     1      -4.905  -2.943  18.397  1.00  0.00     0.173 A 
ATOM     91  C   UNL     1      -3.469  -4.236  16.966  1.00  0.00     0.173 A 
ATOM     92  F   UNL     1      -5.526  -1.796  18.712  1.00  0.00    -0.203 F 
ATOM     93  C   UNL     1      -5.044  -4.038  19.244  1.00  0.00     0.198 A 
ATOM     94  C   UNL     1      -3.630  -5.337  17.802  1.00  0.00     0.198 A 
ATOM     95  F   UNL     1      -2.703  -4.362  15.872  1.00  0.00    -0.203 F 
ATOM     96  F   UNL     1      -5.783  -3.933  20.357  1.00  0.00    -0.200 F 
ATOM     97  C   UNL     1      -4.414  -5.237  18.941  1.00  0.00     0.200 A 
ATOM     98  F   UNL     1      -3.031  -6.498  17.502  1.00  0.00    -0.200 F 
ATOM     99  F   UNL     1      -4.561  -6.295  19.751  1.00  0.00    -0.200 F 
ENDBRANCH  66  89
ENDBRANCH  40  41
ENDBRANCH  32  35
ENDBRANCH  30  31
ENDBRANCH   1  30
TORSDOF 12
