REMARK SMILES CC(C)C[C@H](NC(=O)c1cc(Cl)nnc1Cl)C(=O)NCCCNC(=O)c1ccc(-c2c3nc(c(-c4c(F)c(F)c(F)c(F)c4F)c4ccc([nH]4)c(-c4c(F)c(F)c(F)c(F)c4F)c4nc(c(-c5c(F)c(F)c(F)c(F)c5F)c5ccc2[nH]5)C=C4)C=C3)cc1
REMARK SMILES IDX 21 1 20 2 19 3 17 4 18 5 5 7 4 8 2 9 1 10 3 11 6 12 7 13
REMARK SMILES IDX 8 15 9 16 10 17 15 18 11 19 14 20 16 21 12 22 13 23 22 24
REMARK SMILES IDX 23 25 24 26 25 28 26 29 27 30 88 31 28 32 87 33 29 34 30 35
REMARK SMILES IDX 31 36 81 37 32 38 86 39 80 40 82 41 33 42 85 43 79 44 78 45
REMARK SMILES IDX 34 47 66 48 46 49 65 50 47 51 50 52 64 53 83 54 48 55 49 56
REMARK SMILES IDX 63 58 84 59 51 60 35 61 36 62 44 63 37 64 38 65 42 66 45 67
REMARK SMILES IDX 39 68 40 69 43 70 41 71 67 72 68 73 76 74 69 75 70 76 74 77
REMARK SMILES IDX 77 78 71 79 72 80 75 81 73 82 52 83 53 84 61 85 54 86 55 87
REMARK SMILES IDX 59 88 62 89 56 90 57 91 60 92 58 93
REMARK H PARENT 19 6 6 14 23 27 82 46 50 57
REMARK Flexibility Score: inf
ROOT
ATOM      1  C   UNL     1      -4.045  -2.298   3.157  1.00  0.00     0.042 C 
ENDROOT
BRANCH   1   2
ATOM      2  C   UNL     1      -3.571  -2.970   1.882  1.00  0.00     0.117 C 
BRANCH   2   3
ATOM      3  N   UNL     1      -3.838  -2.163   0.717  1.00  0.00    -0.354 N 
ATOM      4  C   UNL     1      -2.969  -1.618  -0.174  1.00  0.00     0.242 C 
ATOM      5  O   UNL     1      -3.455  -1.113  -1.190  1.00  0.00    -0.273 OA
ATOM      6  H   UNL     1      -4.789  -1.979   0.541  1.00  0.00     0.163 HD
BRANCH   4   7
ATOM      7  C   UNL     1      -1.435  -1.700   0.008  1.00  0.00     0.171 C 
BRANCH   7   8
ATOM      8  C   UNL     1      -0.778  -2.909  -0.688  1.00  0.00     0.038 C 
BRANCH   8   9
ATOM      9  C   UNL     1      -0.999  -4.341  -0.167  1.00  0.00    -0.015 C 
ATOM     10  C   UNL     1      -2.322  -4.980  -0.594  1.00  0.00     0.007 C 
ATOM     11  C   UNL     1       0.139  -5.246  -0.661  1.00  0.00     0.007 C 
ENDBRANCH   8   9
ENDBRANCH   7   8
BRANCH   7  12
ATOM     12  N   UNL     1      -0.941  -1.152   1.296  1.00  0.00    -0.340 N 
ATOM     13  C   UNL     1      -0.350  -1.538   2.461  1.00  0.00     0.255 C 
ATOM     14  H   UNL     1      -1.092  -0.179   1.315  1.00  0.00     0.164 HD
ATOM     15  O   UNL     1      -0.269  -0.729   3.385  1.00  0.00    -0.269 OA
BRANCH  13  16
ATOM     16  C   UNL     1       0.131  -2.882   2.732  1.00  0.00     0.082 A 
ATOM     17  C   UNL     1      -0.568  -3.645   3.672  1.00  0.00     0.060 A 
ATOM     18  C   UNL     1       1.305  -3.378   2.211  1.00  0.00     0.164 A 
ATOM     19  C   UNL     1      -0.138  -4.928   3.908  1.00  0.00     0.152 A 
ATOM     20  N   UNL     1       1.707  -4.639   2.477  1.00  0.00    -0.136 NA
ATOM     21  Cl  UNL     1       2.388  -2.480   1.235  1.00  0.00    -0.059 Cl
ATOM     22  Cl  UNL     1      -0.997  -5.981   4.944  1.00  0.00    -0.060 Cl
ATOM     23  N   UNL     1       0.955  -5.438   3.312  1.00  0.00    -0.137 NA
ENDBRANCH  13  16
ENDBRANCH   7  12
ENDBRANCH   4   7
ENDBRANCH   2   3
ENDBRANCH   1   2
BRANCH   1  24
ATOM     24  C   UNL     1      -5.563  -2.321   3.267  1.00  0.00     0.118 C 
BRANCH  24  25
ATOM     25  N   UNL     1      -6.059  -3.677   3.493  1.00  0.00    -0.352 N 
ATOM     26  C   UNL     1      -6.277  -4.341   4.675  1.00  0.00     0.251 C 
ATOM     27  H   UNL     1      -6.268  -4.189   2.679  1.00  0.00     0.163 HD
ATOM     28  O   UNL     1      -6.401  -5.563   4.685  1.00  0.00    -0.269 OA
BRANCH  26  29
ATOM     29  C   UNL     1      -6.343  -3.580   5.936  1.00  0.00     0.039 A 
ATOM     30  C   UNL     1      -5.692  -4.063   7.074  1.00  0.00     0.014 A 
ATOM     31  C   UNL     1      -7.066  -2.387   5.990  1.00  0.00     0.014 A 
ATOM     32  C   UNL     1      -5.712  -3.308   8.248  1.00  0.00     0.010 A 
ATOM     33  C   UNL     1      -7.001  -1.590   7.123  1.00  0.00     0.010 A 
ATOM     34  C   UNL     1      -6.341  -2.052   8.269  1.00  0.00    -0.014 A 
BRANCH  34  35
ATOM     35  C   UNL     1      -6.372  -1.222   9.494  1.00  0.00     0.031 A 
ATOM     36  C   UNL     1      -7.686  -0.948  10.169  1.00  0.00     0.074 A 
ATOM     37  C   UNL     1      -5.235  -0.671   9.958  1.00  0.00     0.049 A 
ATOM     38  N   UNL     1      -7.938  -0.214  11.222  1.00  0.00    -0.248 NA
ATOM     39  C   UNL     1      -8.883  -1.555   9.562  1.00  0.00     0.031 C 
ATOM     40  C   UNL     1      -3.912  -0.826   9.352  1.00  0.00     0.029 A 
ATOM     41  N   UNL     1      -5.011   0.135  11.045  1.00  0.00    -0.354 N 
ATOM     42  C   UNL     1      -9.313  -0.274  11.399  1.00  0.00     0.074 A 
ATOM     43  C   UNL     1      -9.854  -1.048  10.306  1.00  0.00     0.031 C 
ATOM     44  C   UNL     1      -3.009  -0.164  10.095  1.00  0.00     0.029 A 
ATOM     45  C   UNL     1      -3.693   0.484  11.210  1.00  0.00     0.049 A 
ATOM     46  H   UNL     1      -5.727   0.436  11.650  1.00  0.00     0.167 HD
ATOM     47  C   UNL     1     -10.054   0.236  12.410  1.00  0.00     0.037 A 
ATOM     48  C   UNL     1      -3.107   1.236  12.161  1.00  0.00     0.037 A 
ATOM     49  C   UNL     1      -9.505   0.981  13.509  1.00  0.00     0.049 A 
ATOM     50  C   UNL     1      -3.956   1.814  13.261  1.00  0.00     0.074 A 
ATOM     51  C   UNL     1     -10.160   1.495  14.613  1.00  0.00     0.029 A 
ATOM     52  N   UNL     1      -8.165   1.315  13.641  1.00  0.00    -0.354 N 
ATOM     53  N   UNL     1      -5.246   1.687  13.462  1.00  0.00    -0.248 NA
ATOM     54  C   UNL     1      -3.271   2.636  14.268  1.00  0.00     0.031 C 
ATOM     55  C   UNL     1      -9.223   2.178  15.393  1.00  0.00     0.029 A 
ATOM     56  C   UNL     1      -7.977   2.050  14.798  1.00  0.00     0.049 A 
ATOM     57  H   UNL     1      -7.455   1.067  13.006  1.00  0.00     0.167 HD
ATOM     58  C   UNL     1      -5.522   2.389  14.627  1.00  0.00     0.074 A 
ATOM     59  C   UNL     1      -4.264   2.931  15.097  1.00  0.00     0.031 C 
ATOM     60  C   UNL     1      -6.712   2.570  15.251  1.00  0.00     0.037 A 
BRANCH  47  61
ATOM     61  C   UNL     1     -11.531  -0.023  12.389  1.00  0.00     0.064 A 
ATOM     62  C   UNL     1     -12.048  -1.306  12.626  1.00  0.00     0.173 A 
ATOM     63  C   UNL     1     -12.440   1.024  12.180  1.00  0.00     0.173 A 
ATOM     64  F   UNL     1     -11.220  -2.344  12.816  1.00  0.00    -0.203 F 
ATOM     65  C   UNL     1     -13.421  -1.535  12.632  1.00  0.00     0.198 A 
ATOM     66  C   UNL     1     -13.813   0.796  12.216  1.00  0.00     0.198 A 
ATOM     67  F   UNL     1     -11.997   2.269  11.951  1.00  0.00    -0.203 F 
ATOM     68  F   UNL     1     -13.890  -2.777  12.818  1.00  0.00    -0.200 F 
ATOM     69  C   UNL     1     -14.302  -0.483  12.437  1.00  0.00     0.200 A 
ATOM     70  F   UNL     1     -14.664   1.816  12.039  1.00  0.00    -0.200 F 
ATOM     71  F   UNL     1     -15.624  -0.702  12.457  1.00  0.00    -0.200 F 
ENDBRANCH  47  61
BRANCH  48  72
ATOM     72  C   UNL     1      -1.635   1.436  12.142  1.00  0.00     0.064 A 
ATOM     73  C   UNL     1      -0.819   0.819  13.100  1.00  0.00     0.173 A 
ATOM     74  C   UNL     1      -1.012   2.223  11.163  1.00  0.00     0.173 A 
ATOM     75  F   UNL     1      -1.371   0.071  14.067  1.00  0.00    -0.203 F 
ATOM     76  C   UNL     1       0.564   0.990  13.087  1.00  0.00     0.198 A 
ATOM     77  C   UNL     1       0.374   2.374  11.136  1.00  0.00     0.198 A 
ATOM     78  F   UNL     1      -1.747   2.830  10.221  1.00  0.00    -0.203 F 
ATOM     79  F   UNL     1       1.317   0.415  14.034  1.00  0.00    -0.200 F 
ATOM     80  C   UNL     1       1.160   1.761  12.101  1.00  0.00     0.200 A 
ATOM     81  F   UNL     1       0.947   3.110  10.175  1.00  0.00    -0.200 F 
ATOM     82  F   UNL     1       2.491   1.919  12.083  1.00  0.00    -0.200 F 
ENDBRANCH  48  72
BRANCH  60  83
ATOM     83  C   UNL     1      -6.722   3.372  16.517  1.00  0.00     0.064 A 
ATOM     84  C   UNL     1      -6.590   4.767  16.497  1.00  0.00     0.173 A 
ATOM     85  C   UNL     1      -6.974   2.750  17.750  1.00  0.00     0.173 A 
ATOM     86  F   UNL     1      -6.337   5.404  15.344  1.00  0.00    -0.203 F 
ATOM     87  C   UNL     1      -6.710   5.512  17.666  1.00  0.00     0.198 A 
ATOM     88  C   UNL     1      -7.120   3.500  18.912  1.00  0.00     0.198 A 
ATOM     89  F   UNL     1      -7.118   1.418  17.818  1.00  0.00    -0.203 F 
ATOM     90  F   UNL     1      -6.561   6.843  17.628  1.00  0.00    -0.200 F 
ATOM     91  C   UNL     1      -6.987   4.880  18.869  1.00  0.00     0.200 A 
ATOM     92  F   UNL     1      -7.407   2.890  20.070  1.00  0.00    -0.200 F 
ATOM     93  F   UNL     1      -7.129   5.602  19.989  1.00  0.00    -0.200 F 
ENDBRANCH  60  83
ENDBRANCH  34  35
ENDBRANCH  26  29
ENDBRANCH  24  25
ENDBRANCH   1  24
TORSDOF 14
