REMARK SMILES CC[C@H](NC(=O)N1CCO[C@@H](CC(=O)NCCCNC(=O)c2ccc(-c3c4nc(c(-c5c(F)c(F)c(F)c(F)c5F)c5ccc([nH]5)c(-c5c(F)c(F)c(F)c(F)c5F)c5nc(c(-c6c(F)c(F)c(F)c(F)c6F)c6ccc3[nH]6)C=C5)C=C4)cc2)C1)c1cccs1
REMARK SMILES IDX 16 1 15 2 13 3 14 4 12 6 11 7 7 8 8 9 85 10 9 11 10 12 5 13
REMARK SMILES IDX 4 14 6 16 3 17 2 18 1 19 86 20 87 21 90 22 88 23 89 24 17 25
REMARK SMILES IDX 18 26 19 27 20 28 21 30 22 31 23 32 84 33 24 34 83 35 25 36
REMARK SMILES IDX 26 37 27 38 77 39 28 40 82 41 76 42 78 43 29 44 81 45 75 46
REMARK SMILES IDX 74 47 30 49 62 50 42 51 61 52 43 53 46 54 60 55 79 56 44 57
REMARK SMILES IDX 45 58 59 60 80 61 47 62 31 63 32 64 40 65 33 66 34 67 38 68
REMARK SMILES IDX 41 69 35 70 36 71 39 72 37 73 63 74 64 75 72 76 65 77 66 78
REMARK SMILES IDX 70 79 73 80 67 81 68 82 71 83 69 84 48 85 49 86 57 87 50 88
REMARK SMILES IDX 51 89 55 90 58 91 52 92 53 93 56 94 54 95
REMARK H PARENT 15 5 4 15 19 29 78 48 46 59
REMARK Flexibility Score: inf
ROOT
ATOM      1  C   UNL     1       2.072   4.912  -3.515  1.00  0.00     0.117 C 
ENDROOT
BRANCH   1   2
ATOM      2  N   UNL     1       3.127   4.771  -2.516  1.00  0.00    -0.356 N 
ATOM      3  C   UNL     1       4.230   3.969  -2.469  1.00  0.00     0.222 C 
ATOM      4  O   UNL     1       4.959   4.043  -1.478  1.00  0.00    -0.275 OA
ATOM      5  H   UNL     1       3.025   5.362  -1.736  1.00  0.00     0.163 HD
BRANCH   3   6
ATOM      6  C   UNL     1       4.530   2.975  -3.570  1.00  0.00     0.133 C 
BRANCH   6   7
ATOM      7  C   UNL     1       4.146   1.546  -3.170  1.00  0.00     0.147 C 
ATOM      8  N   UNL     1       2.092   0.151  -2.687  1.00  0.00    -0.320 N 
ATOM      9  C   UNL     1       2.503  -0.736  -3.778  1.00  0.00     0.150 C 
ATOM     10  C   UNL     1       2.659   1.485  -2.812  1.00  0.00     0.154 C 
ATOM     11  C   UNL     1       4.012  -0.659  -4.025  1.00  0.00     0.182 C 
ATOM     12  O   UNL     1       4.426   0.688  -4.295  1.00  0.00    -0.374 OA
BRANCH   8  13
ATOM     13  C   UNL     1       0.915   0.092  -1.988  1.00  0.00     0.318 C 
ATOM     14  N   UNL     1       0.308  -1.061  -1.686  1.00  0.00    -0.330 N 
ATOM     15  H   UNL     1      -0.615  -0.936  -1.368  1.00  0.00     0.166 HD
ATOM     16  O   UNL     1       0.348   1.110  -1.574  1.00  0.00    -0.249 OA
BRANCH  14  17
ATOM     17  C   UNL     1       0.708  -2.452  -1.724  1.00  0.00     0.124 C 
BRANCH  17  18
ATOM     18  C   UNL     1       0.259  -3.177  -0.443  1.00  0.00     0.027 C 
ATOM     19  C   UNL     1       0.888  -2.573   0.810  1.00  0.00     0.006 C 
ENDBRANCH  17  18
BRANCH  17  20
ATOM     20  C   UNL     1       0.141  -3.116  -2.965  1.00  0.00     0.027 A 
ATOM     21  C   UNL     1       0.624  -4.251  -3.596  1.00  0.00     0.017 A 
ATOM     22  S   UNL     1      -1.215  -2.481  -3.818  1.00  0.00    -0.147 S 
ATOM     23  C   UNL     1      -0.053  -4.532  -4.818  1.00  0.00     0.012 A 
ATOM     24  C   UNL     1      -1.054  -3.624  -5.073  1.00  0.00     0.065 A 
ENDBRANCH  17  20
ENDBRANCH  14  17
ENDBRANCH   8  13
ENDBRANCH   6   7
ENDBRANCH   3   6
ENDBRANCH   1   2
BRANCH   1  25
ATOM     25  C   UNL     1       0.732   4.325  -3.063  1.00  0.00     0.042 C 
BRANCH  25  26
ATOM     26  C   UNL     1       0.037   5.076  -1.935  1.00  0.00     0.118 C 
BRANCH  26  27
ATOM     27  N   UNL     1      -0.865   6.094  -2.443  1.00  0.00    -0.352 N 
ATOM     28  C   UNL     1      -2.237   6.159  -2.439  1.00  0.00     0.251 C 
ATOM     29  H   UNL     1      -0.419   6.867  -2.859  1.00  0.00     0.163 HD
ATOM     30  O   UNL     1      -2.782   6.999  -3.152  1.00  0.00    -0.269 OA
BRANCH  28  31
ATOM     31  C   UNL     1      -3.085   5.262  -1.606  1.00  0.00     0.039 A 
ATOM     32  C   UNL     1      -4.363   4.937  -2.083  1.00  0.00     0.014 A 
ATOM     33  C   UNL     1      -2.715   4.834  -0.329  1.00  0.00     0.014 A 
ATOM     34  C   UNL     1      -5.249   4.189  -1.298  1.00  0.00     0.010 A 
ATOM     35  C   UNL     1      -3.569   4.020   0.424  1.00  0.00     0.010 A 
ATOM     36  C   UNL     1      -4.859   3.716  -0.036  1.00  0.00    -0.014 A 
BRANCH  36  37
ATOM     37  C   UNL     1      -5.815   2.970   0.830  1.00  0.00     0.031 A 
ATOM     38  C   UNL     1      -6.290   3.570   2.130  1.00  0.00     0.074 A 
ATOM     39  C   UNL     1      -6.251   1.749   0.467  1.00  0.00     0.049 A 
ATOM     40  N   UNL     1      -7.106   3.071   3.027  1.00  0.00    -0.248 NA
ATOM     41  C   UNL     1      -5.761   4.897   2.479  1.00  0.00     0.031 C 
ATOM     42  C   UNL     1      -5.845   1.032  -0.742  1.00  0.00     0.029 A 
ATOM     43  N   UNL     1      -7.133   0.893   1.081  1.00  0.00    -0.354 N 
ATOM     44  C   UNL     1      -7.168   4.009   4.049  1.00  0.00     0.074 A 
ATOM     45  C   UNL     1      -6.274   5.087   3.685  1.00  0.00     0.031 C 
ATOM     46  C   UNL     1      -6.496  -0.142  -0.794  1.00  0.00     0.029 A 
ATOM     47  C   UNL     1      -7.344  -0.273   0.388  1.00  0.00     0.049 A 
ATOM     48  H   UNL     1      -7.572   1.097   1.938  1.00  0.00     0.167 HD
ATOM     49  C   UNL     1      -7.917   3.990   5.179  1.00  0.00     0.037 A 
ATOM     50  C   UNL     1      -8.134  -1.327   0.670  1.00  0.00     0.037 A 
ATOM     51  C   UNL     1      -8.839   2.942   5.529  1.00  0.00     0.049 A 
ATOM     52  C   UNL     1      -8.979  -1.312   1.915  1.00  0.00     0.074 A 
ATOM     53  C   UNL     1      -9.682   2.862   6.624  1.00  0.00     0.029 A 
ATOM     54  N   UNL     1      -9.044   1.791   4.783  1.00  0.00    -0.354 N 
ATOM     55  N   UNL     1      -9.070  -0.393   2.844  1.00  0.00    -0.248 NA
ATOM     56  C   UNL     1      -9.841  -2.482   2.145  1.00  0.00     0.031 C 
ATOM     57  C   UNL     1     -10.375   1.648   6.558  1.00  0.00     0.029 A 
ATOM     58  C   UNL     1      -9.992   0.991   5.401  1.00  0.00     0.049 A 
ATOM     59  H   UNL     1      -8.584   1.575   3.940  1.00  0.00     0.167 HD
ATOM     60  C   UNL     1     -10.014  -0.856   3.750  1.00  0.00     0.074 A 
ATOM     61  C   UNL     1     -10.478  -2.135   3.254  1.00  0.00     0.031 C 
ATOM     62  C   UNL     1     -10.455  -0.274   4.891  1.00  0.00     0.037 A 
BRANCH  49  63
ATOM     63  C   UNL     1      -7.774   5.148   6.123  1.00  0.00     0.064 A 
ATOM     64  C   UNL     1      -8.285   6.417   5.811  1.00  0.00     0.173 A 
ATOM     65  C   UNL     1      -7.150   4.979   7.369  1.00  0.00     0.173 A 
ATOM     66  F   UNL     1      -8.882   6.632   4.629  1.00  0.00    -0.203 F 
ATOM     67  C   UNL     1      -8.150   7.482   6.698  1.00  0.00     0.198 A 
ATOM     68  C   UNL     1      -7.041   6.040   8.265  1.00  0.00     0.198 A 
ATOM     69  F   UNL     1      -6.652   3.784   7.720  1.00  0.00    -0.203 F 
ATOM     70  F   UNL     1      -8.603   8.696   6.359  1.00  0.00    -0.200 F 
ATOM     71  C   UNL     1      -7.534   7.291   7.926  1.00  0.00     0.200 A 
ATOM     72  F   UNL     1      -6.457   5.851   9.456  1.00  0.00    -0.200 F 
ATOM     73  F   UNL     1      -7.409   8.316   8.781  1.00  0.00    -0.200 F 
ENDBRANCH  49  63
BRANCH  50  74
ATOM     74  C   UNL     1      -8.195  -2.475  -0.270  1.00  0.00     0.064 A 
ATOM     75  C   UNL     1      -9.336  -2.701  -1.054  1.00  0.00     0.173 A 
ATOM     76  C   UNL     1      -7.124  -3.369  -0.401  1.00  0.00     0.173 A 
ATOM     77  F   UNL     1     -10.395  -1.886  -0.944  1.00  0.00    -0.203 F 
ATOM     78  C   UNL     1      -9.409  -3.788  -1.921  1.00  0.00     0.198 A 
ATOM     79  C   UNL     1      -7.188  -4.442  -1.287  1.00  0.00     0.198 A 
ATOM     80  F   UNL     1      -6.011  -3.196   0.327  1.00  0.00    -0.203 F 
ATOM     81  F   UNL     1     -10.527  -4.006  -2.627  1.00  0.00    -0.200 F 
ATOM     82  C   UNL     1      -8.333  -4.655  -2.042  1.00  0.00     0.200 A 
ATOM     83  F   UNL     1      -6.144  -5.274  -1.408  1.00  0.00    -0.200 F 
ATOM     84  F   UNL     1      -8.402  -5.700  -2.878  1.00  0.00    -0.200 F 
ENDBRANCH  50  74
BRANCH  62  85
ATOM     85  C   UNL     1     -11.520  -0.994   5.665  1.00  0.00     0.064 A 
ATOM     86  C   UNL     1     -11.233  -2.148   6.410  1.00  0.00     0.173 A 
ATOM     87  C   UNL     1     -12.834  -0.503   5.690  1.00  0.00     0.173 A 
ATOM     88  F   UNL     1      -9.995  -2.664   6.405  1.00  0.00    -0.203 F 
ATOM     89  C   UNL     1     -12.231  -2.798   7.131  1.00  0.00     0.198 A 
ATOM     90  C   UNL     1     -13.823  -1.142   6.433  1.00  0.00     0.198 A 
ATOM     91  F   UNL     1     -13.157   0.600   5.000  1.00  0.00    -0.203 F 
ATOM     92  F   UNL     1     -11.945  -3.924   7.800  1.00  0.00    -0.200 F 
ATOM     93  C   UNL     1     -13.522  -2.292   7.148  1.00  0.00     0.200 A 
ATOM     94  F   UNL     1     -15.068  -0.646   6.456  1.00  0.00    -0.200 F 
ATOM     95  F   UNL     1     -14.480  -2.918   7.846  1.00  0.00    -0.200 F 
ENDBRANCH  62  85
ENDBRANCH  36  37
ENDBRANCH  28  31
ENDBRANCH  26  27
ENDBRANCH  25  26
ENDBRANCH   1  25
TORSDOF 15
