REMARK SMILES CC1=C(CCC(=O)NCCCNC(=O)c2ccc(-c3c4nc(c(-c5c(F)c(F)c(F)c(F)c5F)c5ccc([nH]5)c(-c5c(F)c(F)c(F)c(F)c5F)c5nc(c(-c6c(F)c(F)c(F)c(F)c6F)c6ccc3[nH]6)C=C5)C=C4)cc2)N=N[C@H]1C
REMARK SMILES IDX 10 1 9 2 8 3 6 4 7 5 5 7 4 8 3 9 1 10 2 11 80 12 78 13 79 14
REMARK SMILES IDX 81 15 11 16 12 17 13 18 14 20 15 21 16 22 77 23 17 24 76 25
REMARK SMILES IDX 18 26 19 27 20 28 70 29 21 30 75 31 69 32 71 33 22 34 74 35
REMARK SMILES IDX 68 36 67 37 23 39 55 40 35 41 54 42 36 43 39 44 53 45 72 46
REMARK SMILES IDX 37 47 38 48 52 50 73 51 40 52 24 53 25 54 33 55 26 56 27 57
REMARK SMILES IDX 31 58 34 59 28 60 29 61 32 62 30 63 56 64 57 65 65 66 58 67
REMARK SMILES IDX 59 68 63 69 66 70 60 71 61 72 64 73 62 74 41 75 42 76 50 77
REMARK SMILES IDX 43 78 44 79 48 80 51 81 45 82 46 83 49 84 47 85
REMARK H PARENT 8 6 12 19 71 38 39 49
REMARK Flexibility Score: inf
ROOT
ATOM      1  C   UNL     1      -0.558   4.339   0.457  1.00  0.00     0.042 C 
ENDROOT
BRANCH   1   2
ATOM      2  C   UNL     1      -1.493   3.684   1.465  1.00  0.00     0.117 C 
BRANCH   2   3
ATOM      3  N   UNL     1      -2.809   3.485   0.874  1.00  0.00    -0.356 N 
ATOM      4  C   UNL     1      -3.310   2.390   0.234  1.00  0.00     0.220 C 
ATOM      5  O   UNL     1      -4.345   2.521  -0.421  1.00  0.00    -0.275 OA
ATOM      6  H   UNL     1      -3.424   4.250   0.947  1.00  0.00     0.163 HD
BRANCH   4   7
ATOM      7  C   UNL     1      -2.648   1.032   0.388  1.00  0.00     0.106 C 
BRANCH   7   8
ATOM      8  C   UNL     1      -1.867   0.552  -0.842  1.00  0.00     0.068 C 
BRANCH   8   9
ATOM      9  C   UNL     1      -0.439   1.010  -0.871  1.00  0.00     0.064 C 
ATOM     10  C   UNL     1       0.820  -0.830   0.401  1.00  0.00     0.044 C 
ATOM     11  C   UNL     1       0.638   0.456  -0.305  1.00  0.00    -0.024 C 
ATOM     12  C   UNL     1       1.754   1.419  -0.528  1.00  0.00     0.153 C 
ATOM     13  N   UNL     1      -0.106   2.129  -1.588  1.00  0.00    -0.160 NA
ATOM     14  N   UNL     1       1.112   2.420  -1.421  1.00  0.00    -0.181 NA
ATOM     15  C   UNL     1       2.205   2.090   0.768  1.00  0.00     0.040 C 
ENDBRANCH   8   9
ENDBRANCH   7   8
ENDBRANCH   4   7
ENDBRANCH   2   3
ENDBRANCH   1   2
BRANCH   1  16
ATOM     16  C   UNL     1      -0.669   5.836   0.389  1.00  0.00     0.118 C 
BRANCH  16  17
ATOM     17  N   UNL     1       0.272   6.558   1.242  1.00  0.00    -0.352 N 
ATOM     18  C   UNL     1       0.748   7.845   1.047  1.00  0.00     0.251 C 
ATOM     19  H   UNL     1       0.602   6.081   2.038  1.00  0.00     0.163 HD
ATOM     20  O   UNL     1       1.713   8.264   1.680  1.00  0.00    -0.269 OA
BRANCH  18  21
ATOM     21  C   UNL     1       0.091   8.693   0.028  1.00  0.00     0.039 A 
ATOM     22  C   UNL     1       0.817   9.557  -0.791  1.00  0.00     0.014 A 
ATOM     23  C   UNL     1      -1.274   8.522  -0.180  1.00  0.00     0.014 A 
ATOM     24  C   UNL     1       0.167  10.153  -1.870  1.00  0.00     0.010 A 
ATOM     25  C   UNL     1      -1.829   8.885  -1.374  1.00  0.00     0.010 A 
ATOM     26  C   UNL     1      -1.153   9.775  -2.184  1.00  0.00    -0.014 A 
BRANCH  26  27
ATOM     27  C   UNL     1      -1.803  10.216  -3.415  1.00  0.00     0.031 A 
ATOM     28  C   UNL     1      -0.936  10.098  -4.608  1.00  0.00     0.074 A 
ATOM     29  C   UNL     1      -3.108  10.561  -3.514  1.00  0.00     0.049 A 
ATOM     30  N   UNL     1      -0.308  11.065  -5.186  1.00  0.00    -0.248 NA
ATOM     31  C   UNL     1      -0.560   8.765  -5.102  1.00  0.00     0.031 C 
ATOM     32  C   UNL     1      -4.158  10.447  -2.491  1.00  0.00     0.029 A 
ATOM     33  N   UNL     1      -3.807  11.013  -4.597  1.00  0.00    -0.354 N 
ATOM     34  C   UNL     1       0.329  10.498  -6.281  1.00  0.00     0.074 A 
ATOM     35  C   UNL     1       0.329   9.078  -6.051  1.00  0.00     0.031 C 
ATOM     36  C   UNL     1      -5.374  10.576  -3.062  1.00  0.00     0.029 A 
ATOM     37  C   UNL     1      -5.190  10.980  -4.441  1.00  0.00     0.049 A 
ATOM     38  H   UNL     1      -3.369  11.335  -5.418  1.00  0.00     0.167 HD
ATOM     39  C   UNL     1       0.476  11.235  -7.416  1.00  0.00     0.037 A 
ATOM     40  C   UNL     1      -6.128  11.277  -5.373  1.00  0.00     0.037 A 
ATOM     41  C   UNL     1       0.208  12.630  -7.142  1.00  0.00     0.049 A 
ATOM     42  C   UNL     1      -5.477  12.159  -6.365  1.00  0.00     0.074 A 
ATOM     43  C   UNL     1       0.770  13.626  -6.371  1.00  0.00     0.029 A 
ATOM     44  N   UNL     1      -1.081  13.010  -7.408  1.00  0.00    -0.354 N 
ATOM     45  N   UNL     1      -5.096  13.379  -6.107  1.00  0.00    -0.248 NA
ATOM     46  C   UNL     1      -4.910  11.568  -7.570  1.00  0.00     0.031 C 
ATOM     47  C   UNL     1      -0.313  14.467  -5.971  1.00  0.00     0.029 A 
ATOM     48  C   UNL     1      -1.488  14.000  -6.560  1.00  0.00     0.049 A 
ATOM     49  H   UNL     1      -1.641  12.621  -8.118  1.00  0.00     0.167 HD
ATOM     50  C   UNL     1      -3.920  13.520  -6.818  1.00  0.00     0.074 A 
ATOM     51  C   UNL     1      -3.966  12.474  -7.833  1.00  0.00     0.031 C 
ATOM     52  C   UNL     1      -2.889  14.251  -6.298  1.00  0.00     0.037 A 
BRANCH  39  53
ATOM     53  C   UNL     1       0.295  10.688  -8.822  1.00  0.00     0.064 A 
ATOM     54  C   UNL     1       0.488  11.568  -9.909  1.00  0.00     0.173 A 
ATOM     55  C   UNL     1      -0.392   9.493  -9.131  1.00  0.00     0.173 A 
ATOM     56  F   UNL     1       1.111  12.744  -9.732  1.00  0.00    -0.203 F 
ATOM     57  C   UNL     1      -0.056  11.318 -11.172  1.00  0.00     0.198 A 
ATOM     58  C   UNL     1      -0.889   9.224 -10.405  1.00  0.00     0.198 A 
ATOM     59  F   UNL     1      -0.725   8.593  -8.201  1.00  0.00    -0.203 F 
ATOM     60  F   UNL     1       0.028  12.251 -12.130  1.00  0.00    -0.200 F 
ATOM     61  C   UNL     1      -0.752  10.150 -11.416  1.00  0.00     0.200 A 
ATOM     62  F   UNL     1      -1.586   8.098 -10.614  1.00  0.00    -0.200 F 
ATOM     63  F   UNL     1      -1.337   9.938 -12.602  1.00  0.00    -0.200 F 
ENDBRANCH  39  53
BRANCH  40  64
ATOM     64  C   UNL     1      -7.479  10.708  -5.587  1.00  0.00     0.064 A 
ATOM     65  C   UNL     1      -8.383  11.316  -6.476  1.00  0.00     0.173 A 
ATOM     66  C   UNL     1      -7.797   9.401  -5.172  1.00  0.00     0.173 A 
ATOM     67  F   UNL     1      -8.146  12.552  -6.942  1.00  0.00    -0.203 F 
ATOM     68  C   UNL     1      -9.499  10.635  -6.972  1.00  0.00     0.198 A 
ATOM     69  C   UNL     1      -8.917   8.725  -5.662  1.00  0.00     0.198 A 
ATOM     70  F   UNL     1      -6.976   8.717  -4.363  1.00  0.00    -0.203 F 
ATOM     71  F   UNL     1     -10.286  11.220  -7.886  1.00  0.00    -0.200 F 
ATOM     72  C   UNL     1      -9.754   9.333  -6.579  1.00  0.00     0.200 A 
ATOM     73  F   UNL     1      -9.138   7.454  -5.297  1.00  0.00    -0.200 F 
ATOM     74  F   UNL     1     -10.777   8.653  -7.114  1.00  0.00    -0.200 F 
ENDBRANCH  40  64
BRANCH  52  75
ATOM     75  C   UNL     1      -3.233  15.291  -5.274  1.00  0.00     0.064 A 
ATOM     76  C   UNL     1      -3.792  15.032  -4.011  1.00  0.00     0.173 A 
ATOM     77  C   UNL     1      -2.913  16.622  -5.578  1.00  0.00     0.173 A 
ATOM     78  F   UNL     1      -4.048  13.781  -3.608  1.00  0.00    -0.203 F 
ATOM     79  C   UNL     1      -4.064  16.070  -3.120  1.00  0.00     0.198 A 
ATOM     80  C   UNL     1      -3.146  17.649  -4.671  1.00  0.00     0.198 A 
ATOM     81  F   UNL     1      -2.340  16.924  -6.755  1.00  0.00    -0.203 F 
ATOM     82  F   UNL     1      -4.628  15.806  -1.932  1.00  0.00    -0.200 F 
ATOM     83  C   UNL     1      -3.735  17.376  -3.449  1.00  0.00     0.200 A 
ATOM     84  F   UNL     1      -2.785  18.902  -4.979  1.00  0.00    -0.200 F 
ATOM     85  F   UNL     1      -3.970  18.369  -2.580  1.00  0.00    -0.200 F 
ENDBRANCH  52  75
ENDBRANCH  26  27
ENDBRANCH  18  21
ENDBRANCH  16  17
ENDBRANCH   1  16
TORSDOF 12
