REMARK SMILES Cc1cc(C(=O)N[C@H]2C=C[C@@H](C(=O)NCCCNC(=O)c3ccc(-c4c5nc(c(-c6c(F)c(F)c(F)c(F)c6F)c6ccc([nH]6)c(-c6c(F)c(F)c(F)c(F)c6F)c6nc(c(-c7c(F)c(F)c(F)c(F)c7F)c7ccc4[nH]7)C=C6)C=C5)cc3)C2)no1
REMARK SMILES IDX 16 1 15 2 14 3 12 4 13 5 11 7 8 8 9 9 84 10 10 11 7 12 5 13
REMARK SMILES IDX 6 14 4 16 1 17 2 18 3 19 86 20 85 21 17 22 18 23 19 24 20 26
REMARK SMILES IDX 21 27 22 28 83 29 23 30 82 31 24 32 25 33 26 34 76 35 27 36
REMARK SMILES IDX 81 37 75 38 77 39 28 40 80 41 74 42 73 43 29 45 61 46 41 47
REMARK SMILES IDX 60 48 42 49 45 50 59 51 78 52 43 53 44 54 58 56 79 57 46 58
REMARK SMILES IDX 30 59 31 60 39 61 32 62 33 63 37 64 40 65 34 66 35 67 38 68
REMARK SMILES IDX 36 69 62 70 63 71 71 72 64 73 65 74 69 75 72 76 66 77 67 78
REMARK SMILES IDX 70 79 68 80 47 81 48 82 56 83 49 84 50 85 54 86 57 87 51 88
REMARK SMILES IDX 52 89 55 90 53 91
REMARK H PARENT 14 6 7 15 18 25 77 44 45 55
REMARK Flexibility Score: inf
ROOT
ATOM      1  C   UNL     1      -3.610  -5.064   3.159  1.00  0.00     0.042 C 
ENDROOT
BRANCH   1   2
ATOM      2  C   UNL     1      -2.157  -4.766   3.500  1.00  0.00     0.117 C 
BRANCH   2   3
ATOM      3  N   UNL     1      -1.335  -5.964   3.446  1.00  0.00    -0.356 N 
ATOM      4  C   UNL     1      -0.355  -6.348   2.583  1.00  0.00     0.227 C 
ATOM      5  O   UNL     1       0.159  -7.455   2.771  1.00  0.00    -0.274 OA
ATOM      6  H   UNL     1      -1.520  -6.614   4.162  1.00  0.00     0.163 HD
BRANCH   4   7
ATOM      7  C   UNL     1       0.128  -5.463   1.435  1.00  0.00     0.103 C 
ATOM      8  C   UNL     1      -0.759  -3.618   0.074  1.00  0.00     0.106 C 
ATOM      9  C   UNL     1       0.071  -3.132   1.220  1.00  0.00    -0.006 C 
ATOM     10  C   UNL     1      -0.931  -5.117   0.383  1.00  0.00     0.047 C 
ATOM     11  C   UNL     1       0.597  -4.133   1.930  1.00  0.00    -0.016 C 
BRANCH   8  12
ATOM     12  N   UNL     1      -2.028  -2.925  -0.018  1.00  0.00    -0.344 N 
ATOM     13  C   UNL     1      -2.308  -1.597  -0.276  1.00  0.00     0.273 C 
ATOM     14  O   UNL     1      -3.492  -1.281  -0.399  1.00  0.00    -0.267 OA
ATOM     15  H   UNL     1      -2.819  -3.492   0.128  1.00  0.00     0.164 HD
BRANCH  13  16
ATOM     16  C   UNL     1      -1.214  -0.625  -0.312  1.00  0.00     0.171 A 
ATOM     17  C   UNL     1       2.212   0.668  -0.361  1.00  0.00     0.091 C 
ATOM     18  C   UNL     1       0.783   0.311  -0.371  1.00  0.00     0.134 A 
ATOM     19  C   UNL     1       0.065  -0.719  -0.924  1.00  0.00     0.082 A 
ATOM     20  O   UNL     1      -0.050   1.088   0.366  1.00  0.00    -0.361 OA
ATOM     21  N   UNL     1      -1.308   0.519   0.388  1.00  0.00    -0.074 NA
ENDBRANCH  13  16
ENDBRANCH   8  12
ENDBRANCH   4   7
ENDBRANCH   2   3
ENDBRANCH   1   2
BRANCH   1  22
ATOM     22  C   UNL     1      -4.304  -5.936   4.194  1.00  0.00     0.118 C 
BRANCH  22  23
ATOM     23  N   UNL     1      -4.486  -5.253   5.467  1.00  0.00    -0.352 N 
ATOM     24  C   UNL     1      -5.641  -4.992   6.161  1.00  0.00     0.251 C 
ATOM     25  H   UNL     1      -3.659  -4.930   5.892  1.00  0.00     0.163 HD
ATOM     26  O   UNL     1      -5.618  -4.244   7.133  1.00  0.00    -0.269 OA
BRANCH  24  27
ATOM     27  C   UNL     1      -6.917  -5.599   5.728  1.00  0.00     0.039 A 
ATOM     28  C   UNL     1      -8.070  -4.811   5.710  1.00  0.00     0.014 A 
ATOM     29  C   UNL     1      -6.978  -6.943   5.350  1.00  0.00     0.014 A 
ATOM     30  C   UNL     1      -9.273  -5.356   5.255  1.00  0.00     0.010 A 
ATOM     31  C   UNL     1      -8.153  -7.459   4.817  1.00  0.00     0.010 A 
ATOM     32  C   UNL     1      -9.316  -6.674   4.775  1.00  0.00    -0.014 A 
BRANCH  32  33
ATOM     33  C   UNL     1     -10.568  -7.268   4.245  1.00  0.00     0.031 A 
ATOM     34  C   UNL     1     -11.184  -8.451   4.938  1.00  0.00     0.074 A 
ATOM     35  C   UNL     1     -11.103  -6.796   3.103  1.00  0.00     0.049 A 
ATOM     36  N   UNL     1     -12.206  -9.185   4.577  1.00  0.00    -0.248 NA
ATOM     37  C   UNL     1     -10.544  -8.889   6.189  1.00  0.00     0.031 C 
ATOM     38  C   UNL     1     -10.572  -5.682   2.316  1.00  0.00     0.029 A 
ATOM     39  N   UNL     1     -12.206  -7.206   2.397  1.00  0.00    -0.354 N 
ATOM     40  C   UNL     1     -12.312 -10.182   5.538  1.00  0.00     0.074 A 
ATOM     41  C   UNL     1     -11.223  -9.991   6.471  1.00  0.00     0.031 C 
ATOM     42  C   UNL     1     -11.362  -5.484   1.248  1.00  0.00     0.029 A 
ATOM     43  C   UNL     1     -12.429  -6.480   1.253  1.00  0.00     0.049 A 
ATOM     44  H   UNL     1     -12.783  -7.951   2.684  1.00  0.00     0.167 HD
ATOM     45  C   UNL     1     -13.247 -11.156   5.644  1.00  0.00     0.037 A 
ATOM     46  C   UNL     1     -13.383  -6.610   0.312  1.00  0.00     0.037 A 
ATOM     47  C   UNL     1     -14.353 -11.315   4.738  1.00  0.00     0.049 A 
ATOM     48  C   UNL     1     -14.416  -7.693   0.460  1.00  0.00     0.074 A 
ATOM     49  C   UNL     1     -15.393 -12.225   4.797  1.00  0.00     0.029 A 
ATOM     50  N   UNL     1     -14.562 -10.539   3.607  1.00  0.00    -0.354 N 
ATOM     51  N   UNL     1     -14.543  -8.593   1.405  1.00  0.00    -0.248 NA
ATOM     52  C   UNL     1     -15.444  -7.775  -0.588  1.00  0.00     0.031 C 
ATOM     53  C   UNL     1     -16.212 -12.025   3.681  1.00  0.00     0.029 A 
ATOM     54  C   UNL     1     -15.707 -10.961   2.951  1.00  0.00     0.049 A 
ATOM     55  H   UNL     1     -13.983  -9.798   3.315  1.00  0.00     0.167 HD
ATOM     56  C   UNL     1     -15.677  -9.326   1.084  1.00  0.00     0.074 A 
ATOM     57  C   UNL     1     -16.208  -8.760  -0.138  1.00  0.00     0.031 C 
ATOM     58  C   UNL     1     -16.229 -10.374   1.744  1.00  0.00     0.037 A 
BRANCH  45  59
ATOM     59  C   UNL     1     -13.117 -12.122   6.785  1.00  0.00     0.064 A 
ATOM     60  C   UNL     1     -13.349 -11.729   8.112  1.00  0.00     0.173 A 
ATOM     61  C   UNL     1     -12.786 -13.464   6.546  1.00  0.00     0.173 A 
ATOM     62  F   UNL     1     -13.655 -10.454   8.396  1.00  0.00    -0.203 F 
ATOM     63  C   UNL     1     -13.226 -12.638   9.160  1.00  0.00     0.198 A 
ATOM     64  C   UNL     1     -12.693 -14.377   7.594  1.00  0.00     0.198 A 
ATOM     65  F   UNL     1     -12.558 -13.893   5.296  1.00  0.00    -0.203 F 
ATOM     66  F   UNL     1     -13.403 -12.228  10.424  1.00  0.00    -0.200 F 
ATOM     67  C   UNL     1     -12.905 -13.962   8.900  1.00  0.00     0.200 A 
ATOM     68  F   UNL     1     -12.395 -15.658   7.340  1.00  0.00    -0.200 F 
ATOM     69  F   UNL     1     -12.793 -14.836   9.909  1.00  0.00    -0.200 F 
ENDBRANCH  45  59
BRANCH  46  70
ATOM     70  C   UNL     1     -13.423  -5.671  -0.839  1.00  0.00     0.064 A 
ATOM     71  C   UNL     1     -14.440  -4.713  -0.946  1.00  0.00     0.173 A 
ATOM     72  C   UNL     1     -12.454  -5.712  -1.852  1.00  0.00     0.173 A 
ATOM     73  F   UNL     1     -15.401  -4.651  -0.012  1.00  0.00    -0.203 F 
ATOM     74  C   UNL     1     -14.498  -3.843  -2.033  1.00  0.00     0.198 A 
ATOM     75  C   UNL     1     -12.498  -4.824  -2.925  1.00  0.00     0.198 A 
ATOM     76  F   UNL     1     -11.458  -6.607  -1.794  1.00  0.00    -0.203 F 
ATOM     77  F   UNL     1     -15.507  -2.967  -2.133  1.00  0.00    -0.200 F 
ATOM     78  C   UNL     1     -13.525  -3.896  -3.018  1.00  0.00     0.200 A 
ATOM     79  F   UNL     1     -11.549  -4.870  -3.869  1.00  0.00    -0.200 F 
ATOM     80  F   UNL     1     -13.580  -3.058  -4.063  1.00  0.00    -0.200 F 
ENDBRANCH  46  70
BRANCH  58  81
ATOM     81  C   UNL     1     -17.495 -10.950   1.183  1.00  0.00     0.064 A 
ATOM     82  C   UNL     1     -17.496 -11.731   0.019  1.00  0.00     0.173 A 
ATOM     83  C   UNL     1     -18.715 -10.757   1.849  1.00  0.00     0.173 A 
ATOM     84  F   UNL     1     -16.357 -11.931  -0.661  1.00  0.00    -0.203 F 
ATOM     85  C   UNL     1     -18.677 -12.281  -0.471  1.00  0.00     0.198 A 
ATOM     86  C   UNL     1     -19.889 -11.332   1.372  1.00  0.00     0.198 A 
ATOM     87  F   UNL     1     -18.765 -10.023   2.971  1.00  0.00    -0.203 F 
ATOM     88  F   UNL     1     -18.663 -12.990  -1.608  1.00  0.00    -0.200 F 
ATOM     89  C   UNL     1     -19.871 -12.088   0.210  1.00  0.00     0.200 A 
ATOM     90  F   UNL     1     -21.039 -11.155   2.038  1.00  0.00    -0.200 F 
ATOM     91  F   UNL     1     -21.005 -12.627  -0.258  1.00  0.00    -0.200 F 
ENDBRANCH  58  81
ENDBRANCH  32  33
ENDBRANCH  24  27
ENDBRANCH  22  23
ENDBRANCH   1  22
TORSDOF 12
