REMARK SMILES O=C(NCCCNC(=O)[C@H]1CCCCN1C(=O)c1cn2ccccc2n1)c1ccc(-c2c3nc(c(-c4c(F)c(F)c(F)c(F)c4F)c4ccc([nH]4)c(-c4c(F)c(F)c(F)c(F)c4F)c4nc(c(-c5c(F)c(F)c(F)c(F)c5F)c5ccc2[nH]5)C=C4)C=C3)cc1
REMARK SMILES IDX 5 1 4 2 3 3 1 4 2 5 27 7 28 8 89 9 29 10 88 11 30 12 31 13
REMARK SMILES IDX 32 14 82 15 33 16 87 17 81 18 83 19 34 20 86 21 80 22 79 23
REMARK SMILES IDX 35 25 67 26 47 27 66 28 48 29 51 30 65 31 84 32 49 33 50 34
REMARK SMILES IDX 64 36 85 37 52 38 36 39 37 40 45 41 38 42 39 43 43 44 46 45
REMARK SMILES IDX 40 46 41 47 44 48 42 49 68 50 69 51 77 52 70 53 71 54 75 55
REMARK SMILES IDX 78 56 72 57 73 58 76 59 74 60 53 61 54 62 62 63 55 64 56 65
REMARK SMILES IDX 60 66 63 67 57 68 58 69 61 70 59 71 6 72 7 73 8 74 9 76
REMARK SMILES IDX 10 77 11 78 15 79 12 80 14 81 13 82 16 83 17 84 18 85 19 86
REMARK SMILES IDX 26 87 20 88 25 89 21 90 24 91 22 92 23 93
REMARK H PARENT 3 6 83 24 51 35 7 75
REMARK Flexibility Score: inf
ROOT
ATOM      1  C   UNL     1       6.667  -3.919   1.138  1.00  0.00     0.042 C 
ENDROOT
BRANCH   1   2
ATOM      2  C   UNL     1       7.675  -4.365   2.193  1.00  0.00     0.118 C 
BRANCH   2   3
ATOM      3  N   UNL     1       8.371  -3.255   2.819  1.00  0.00    -0.352 N 
ATOM      4  O   UNL     1       9.071  -1.910   4.480  1.00  0.00    -0.269 OA
ATOM      5  C   UNL     1       8.567  -2.981   4.151  1.00  0.00     0.251 C 
ATOM      6  H   UNL     1       8.762  -2.601   2.195  1.00  0.00     0.163 HD
BRANCH   5   7
ATOM      7  C   UNL     1       8.156  -3.943   5.204  1.00  0.00     0.039 A 
ATOM      8  C   UNL     1       8.417  -5.313   5.099  1.00  0.00     0.014 A 
ATOM      9  C   UNL     1       7.550  -3.441   6.363  1.00  0.00     0.014 A 
ATOM     10  C   UNL     1       7.993  -6.184   6.106  1.00  0.00     0.010 A 
ATOM     11  C   UNL     1       7.165  -4.309   7.391  1.00  0.00     0.010 A 
ATOM     12  C   UNL     1       7.362  -5.690   7.259  1.00  0.00    -0.014 A 
BRANCH  12  13
ATOM     13  C   UNL     1       6.955  -6.630   8.333  1.00  0.00     0.031 A 
ATOM     14  C   UNL     1       5.511  -6.981   8.549  1.00  0.00     0.074 A 
ATOM     15  C   UNL     1       7.900  -7.191   9.110  1.00  0.00     0.049 A 
ATOM     16  N   UNL     1       4.990  -7.859   9.370  1.00  0.00    -0.248 NA
ATOM     17  C   UNL     1       4.522  -6.248   7.745  1.00  0.00     0.031 C 
ATOM     18  C   UNL     1       9.333  -6.905   9.036  1.00  0.00     0.029 A 
ATOM     19  N   UNL     1       7.797  -8.135  10.101  1.00  0.00    -0.354 N 
ATOM     20  C   UNL     1       3.616  -7.771   9.198  1.00  0.00     0.074 A 
ATOM     21  C   UNL     1       3.380  -6.750   8.198  1.00  0.00     0.031 C 
ATOM     22  C   UNL     1       9.981  -7.690   9.912  1.00  0.00     0.029 A 
ATOM     23  C   UNL     1       9.009  -8.526  10.611  1.00  0.00     0.049 A 
ATOM     24  H   UNL     1       6.936  -8.495  10.416  1.00  0.00     0.167 HD
ATOM     25  C   UNL     1       2.641  -8.479   9.815  1.00  0.00     0.037 A 
ATOM     26  C   UNL     1       9.306  -9.469  11.522  1.00  0.00     0.037 A 
ATOM     27  C   UNL     1       2.861  -9.515  10.788  1.00  0.00     0.049 A 
ATOM     28  C   UNL     1       8.212 -10.282  12.147  1.00  0.00     0.074 A 
ATOM     29  C   UNL     1       1.929 -10.322  11.420  1.00  0.00     0.029 A 
ATOM     30  N   UNL     1       4.105  -9.887  11.272  1.00  0.00    -0.354 N 
ATOM     31  N   UNL     1       6.922 -10.229  11.932  1.00  0.00    -0.248 NA
ATOM     32  C   UNL     1       8.619 -11.288  13.139  1.00  0.00     0.031 C 
ATOM     33  C   UNL     1       2.611 -11.178  12.295  1.00  0.00     0.029 A 
ATOM     34  C   UNL     1       3.965 -10.908  12.199  1.00  0.00     0.049 A 
ATOM     35  H   UNL     1       4.961  -9.486  10.998  1.00  0.00     0.167 HD
ATOM     36  C   UNL     1       6.362 -11.196  12.753  1.00  0.00     0.074 A 
ATOM     37  C   UNL     1       7.452 -11.826  13.469  1.00  0.00     0.031 C 
ATOM     38  C   UNL     1       5.057 -11.528  12.899  1.00  0.00     0.037 A 
BRANCH  25  39
ATOM     39  C   UNL     1       1.227  -8.154   9.451  1.00  0.00     0.064 A 
ATOM     40  C   UNL     1       0.626  -8.707   8.313  1.00  0.00     0.173 A 
ATOM     41  C   UNL     1       0.459  -7.311  10.266  1.00  0.00     0.173 A 
ATOM     42  F   UNL     1       1.332  -9.505   7.497  1.00  0.00    -0.203 F 
ATOM     43  C   UNL     1      -0.698  -8.420   7.997  1.00  0.00     0.198 A 
ATOM     44  C   UNL     1      -0.869  -7.033   9.952  1.00  0.00     0.198 A 
ATOM     45  F   UNL     1       0.998  -6.753  11.360  1.00  0.00    -0.203 F 
ATOM     46  F   UNL     1      -1.248  -8.936   6.889  1.00  0.00    -0.200 F 
ATOM     47  C   UNL     1      -1.445  -7.587   8.818  1.00  0.00     0.200 A 
ATOM     48  F   UNL     1      -1.588  -6.222  10.740  1.00  0.00    -0.200 F 
ATOM     49  F   UNL     1      -2.719  -7.308   8.508  1.00  0.00    -0.200 F 
ENDBRANCH  25  39
BRANCH  26  50
ATOM     50  C   UNL     1      10.724  -9.730  11.857  1.00  0.00     0.064 A 
ATOM     51  C   UNL     1      11.430 -10.751  11.207  1.00  0.00     0.173 A 
ATOM     52  C   UNL     1      11.400  -8.954  12.805  1.00  0.00     0.173 A 
ATOM     53  F   UNL     1      10.810 -11.524  10.303  1.00  0.00    -0.203 F 
ATOM     54  C   UNL     1      12.771 -10.987  11.497  1.00  0.00     0.198 A 
ATOM     55  C   UNL     1      12.743  -9.187  13.089  1.00  0.00     0.198 A 
ATOM     56  F   UNL     1      10.755  -7.972  13.451  1.00  0.00    -0.203 F 
ATOM     57  F   UNL     1      13.426 -11.974  10.871  1.00  0.00    -0.200 F 
ATOM     58  C   UNL     1      13.427 -10.203  12.435  1.00  0.00     0.200 A 
ATOM     59  F   UNL     1      13.375  -8.431  13.997  1.00  0.00    -0.200 F 
ATOM     60  F   UNL     1      14.718 -10.429  12.712  1.00  0.00    -0.200 F 
ENDBRANCH  26  50
BRANCH  38  61
ATOM     61  C   UNL     1       4.740 -12.626  13.862  1.00  0.00     0.064 A 
ATOM     62  C   UNL     1       4.573 -12.360  15.228  1.00  0.00     0.173 A 
ATOM     63  C   UNL     1       4.577 -13.944  13.415  1.00  0.00     0.173 A 
ATOM     64  F   UNL     1       4.734 -11.114  15.698  1.00  0.00    -0.203 F 
ATOM     65  C   UNL     1       4.258 -13.383  16.118  1.00  0.00     0.198 A 
ATOM     66  C   UNL     1       4.256 -14.963  14.307  1.00  0.00     0.198 A 
ATOM     67  F   UNL     1       4.735 -14.241  12.117  1.00  0.00    -0.203 F 
ATOM     68  F   UNL     1       4.118 -13.114  17.424  1.00  0.00    -0.200 F 
ATOM     69  C   UNL     1       4.097 -14.682  15.657  1.00  0.00     0.200 A 
ATOM     70  F   UNL     1       4.106 -16.218  13.863  1.00  0.00    -0.200 F 
ATOM     71  F   UNL     1       3.797 -15.666  16.516  1.00  0.00    -0.200 F 
ENDBRANCH  38  61
ENDBRANCH  12  13
ENDBRANCH   5   7
ENDBRANCH   2   3
ENDBRANCH   1   2
BRANCH   1  72
ATOM     72  C   UNL     1       7.267  -3.495  -0.199  1.00  0.00     0.117 C 
BRANCH  72  73
ATOM     73  N   UNL     1       8.011  -4.566  -0.835  1.00  0.00    -0.354 N 
ATOM     74  C   UNL     1       7.604  -5.503  -1.742  1.00  0.00     0.242 C 
ATOM     75  H   UNL     1       8.958  -4.628  -0.572  1.00  0.00     0.163 HD
ATOM     76  O   UNL     1       8.460  -6.299  -2.136  1.00  0.00    -0.273 OA
BRANCH  74  77
ATOM     77  C   UNL     1       6.140  -5.528  -2.257  1.00  0.00     0.174 C 
ATOM     78  C   UNL     1       5.969  -6.482  -3.456  1.00  0.00     0.035 C 
ATOM     79  N   UNL     1       5.158  -5.893  -1.216  1.00  0.00    -0.325 N 
ATOM     80  C   UNL     1       5.982  -7.962  -3.051  1.00  0.00     0.004 C 
ATOM     81  C   UNL     1       5.244  -7.275  -0.741  1.00  0.00     0.121 C 
ATOM     82  C   UNL     1       5.019  -8.242  -1.899  1.00  0.00     0.022 C 
BRANCH  79  83
ATOM     83  C   UNL     1       4.074  -5.031  -0.993  1.00  0.00     0.274 C 
ATOM     84  O   UNL     1       3.972  -3.965  -1.599  1.00  0.00    -0.267 OA
BRANCH  83  85
ATOM     85  C   UNL     1       3.073  -5.400   0.016  1.00  0.00     0.147 A 
ATOM     86  C   UNL     1       3.286  -5.659   1.361  1.00  0.00     0.127 A 
ATOM     87  N   UNL     1       1.714  -5.431  -0.257  1.00  0.00    -0.223 NA
ATOM     88  N   UNL     1       2.045  -5.843   1.913  1.00  0.00    -0.306 N 
ATOM     89  C   UNL     1       1.121  -5.699   0.886  1.00  0.00     0.137 A 
ATOM     90  C   UNL     1       1.697  -6.112   3.235  1.00  0.00     0.093 A 
ATOM     91  C   UNL     1      -0.253  -5.842   1.229  1.00  0.00     0.048 A 
ATOM     92  C   UNL     1       0.398  -6.245   3.555  1.00  0.00     0.018 A 
ATOM     93  C   UNL     1      -0.601  -6.102   2.505  1.00  0.00     0.005 A 
ENDBRANCH  83  85
ENDBRANCH  79  83
ENDBRANCH  74  77
ENDBRANCH  72  73
ENDBRANCH   1  72
TORSDOF 12
