REMARK SMILES Cc1cc(O[C@@H](C)C(=O)NCCC(=O)NCCCNC(=O)c2ccc(-c3c4nc(c(-c5c(F)c(F)c(F)c(F)c5F)c5ccc([nH]5)c(-c5c(F)c(F)c(F)c(F)c5F)c5nc(c(-c6c(F)c(F)c(F)c(F)c6F)c6ccc3[nH]6)C=C5)C=C4)cc2)c2c3c(c(=O)oc2c1)CCCC3
REMARK SMILES IDX 13 1 14 2 15 3 12 5 11 6 10 7 8 8 9 9 6 11 7 12 5 13 4 14
REMARK SMILES IDX 1 15 2 16 3 17 92 18 91 19 85 20 90 21 86 22 88 23 87 24
REMARK SMILES IDX 96 25 89 26 93 27 95 28 94 29 16 30 17 31 18 32 19 33 20 34
REMARK SMILES IDX 21 36 22 37 23 38 84 39 24 40 83 41 25 42 26 43 27 44 77 45
REMARK SMILES IDX 28 46 82 47 76 48 78 49 29 50 81 51 75 52 74 53 30 55 62 56
REMARK SMILES IDX 42 57 61 58 43 59 46 60 60 61 79 62 44 63 45 64 59 66 80 67
REMARK SMILES IDX 47 68 31 69 32 70 40 71 33 72 34 73 38 74 41 75 35 76 36 77
REMARK SMILES IDX 39 78 37 79 63 80 64 81 72 82 65 83 66 84 70 85 73 86 67 87
REMARK SMILES IDX 68 88 71 89 69 90 48 91 49 92 57 93 50 94 51 95 55 96 58 97
REMARK SMILES IDX 52 98 53 99 56 100 54 101
REMARK H PARENT 15 4 10 10 19 35 78 54 46 65
REMARK Flexibility Score: inf
ROOT
ATOM      1  C   UNL     1       3.469   0.283  -1.643  1.00  0.00     0.221 C 
ATOM      2  O   UNL     1       3.160  -0.907  -1.623  1.00  0.00    -0.275 OA
ATOM      3  N   UNL     1       4.726   0.633  -2.024  1.00  0.00    -0.356 N 
ATOM      4  H   UNL     1       5.258  -0.069  -2.464  1.00  0.00     0.163 HD
ENDROOT
BRANCH   1   5
ATOM      5  C   UNL     1       2.486   1.360  -1.256  1.00  0.00     0.121 C 
BRANCH   5   6
ATOM      6  C   UNL     1       2.528   1.706   0.230  1.00  0.00     0.126 C 
BRANCH   6   7
ATOM      7  N   UNL     1       3.064   3.034   0.475  1.00  0.00    -0.352 N 
ATOM      8  C   UNL     1       2.589   4.288   0.309  1.00  0.00     0.260 C 
ATOM      9  O   UNL     1       3.467   5.164   0.274  1.00  0.00    -0.271 OA
ATOM     10  H   UNL     1       3.977   3.017   0.844  1.00  0.00     0.163 HD
BRANCH   8  11
ATOM     11  C   UNL     1       1.091   4.698   0.342  1.00  0.00     0.258 C 
ATOM     12  C   UNL     1       0.567   4.631   1.775  1.00  0.00     0.064 C 
BRANCH  11  13
ATOM     13  O   UNL     1       0.100   4.504  -0.646  1.00  0.00    -0.480 OA
BRANCH  13  14
ATOM     14  C   UNL     1      -0.363   3.313  -1.098  1.00  0.00     0.132 A 
ATOM     15  C   UNL     1      -0.800  -0.242   0.170  1.00  0.00     0.044 C 
ATOM     16  C   UNL     1      -0.916   0.963  -0.720  1.00  0.00    -0.044 A 
ATOM     17  C   UNL     1      -0.593   2.237  -0.233  1.00  0.00     0.050 A 
ATOM     18  C   UNL     1      -1.155   0.815  -2.080  1.00  0.00     0.051 A 
ATOM     19  C   UNL     1      -1.083   1.932  -2.916  1.00  0.00     0.142 A 
ATOM     20  C   UNL     1      -0.689   3.200  -2.471  1.00  0.00     0.063 A 
ATOM     21  O   UNL     1      -1.428   1.680  -4.254  1.00  0.00    -0.422 OA
ATOM     22  C   UNL     1      -0.674   4.297  -3.479  1.00  0.00    -0.023 A 
ATOM     23  C   UNL     1      -1.559   2.704  -5.168  1.00  0.00     0.339 A 
ATOM     24  C   UNL     1      -1.118   4.050  -4.730  1.00  0.00     0.042 A 
ATOM     25  C   UNL     1      -0.218   5.691  -3.094  1.00  0.00     0.037 C 
ATOM     26  O   UNL     1      -1.996   2.497  -6.295  1.00  0.00    -0.246 OA
ATOM     27  C   UNL     1      -1.216   5.103  -5.807  1.00  0.00     0.043 C 
ATOM     28  C   UNL     1      -0.616   6.799  -4.072  1.00  0.00     0.005 C 
ATOM     29  C   UNL     1      -0.421   6.369  -5.513  1.00  0.00     0.005 C 
ENDBRANCH  13  14
ENDBRANCH  11  13
ENDBRANCH   8  11
ENDBRANCH   6   7
ENDBRANCH   5   6
ENDBRANCH   1   5
BRANCH   3  30
ATOM     30  C   UNL     1       5.375   1.918  -1.859  1.00  0.00     0.117 C 
BRANCH  30  31
ATOM     31  C   UNL     1       6.022   1.998  -0.485  1.00  0.00     0.042 C 
BRANCH  31  32
ATOM     32  C   UNL     1       7.178   1.035  -0.314  1.00  0.00     0.118 C 
BRANCH  32  33
ATOM     33  N   UNL     1       8.330   1.420  -1.109  1.00  0.00    -0.352 N 
ATOM     34  C   UNL     1       9.464   2.106  -0.745  1.00  0.00     0.251 C 
ATOM     35  H   UNL     1       8.293   1.147  -2.054  1.00  0.00     0.163 HD
ATOM     36  O   UNL     1      10.196   2.574  -1.607  1.00  0.00    -0.269 OA
BRANCH  34  37
ATOM     37  C   UNL     1       9.781   2.300   0.687  1.00  0.00     0.039 A 
ATOM     38  C   UNL     1       9.529   1.289   1.611  1.00  0.00     0.014 A 
ATOM     39  C   UNL     1      10.336   3.508   1.116  1.00  0.00     0.014 A 
ATOM     40  C   UNL     1       9.605   1.560   2.967  1.00  0.00     0.010 A 
ATOM     41  C   UNL     1      10.566   3.720   2.479  1.00  0.00     0.010 A 
ATOM     42  C   UNL     1      10.154   2.767   3.423  1.00  0.00    -0.014 A 
BRANCH  42  43
ATOM     43  C   UNL     1      10.309   2.981   4.886  1.00  0.00     0.031 A 
ATOM     44  C   UNL     1       9.650   4.145   5.574  1.00  0.00     0.074 A 
ATOM     45  C   UNL     1      11.006   2.077   5.606  1.00  0.00     0.049 A 
ATOM     46  N   UNL     1       9.688   4.483   6.839  1.00  0.00    -0.248 NA
ATOM     47  C   UNL     1       8.851   5.056   4.739  1.00  0.00     0.031 C 
ATOM     48  C   UNL     1      11.681   0.900   5.051  1.00  0.00     0.029 A 
ATOM     49  N   UNL     1      11.236   1.979   6.955  1.00  0.00    -0.354 N 
ATOM     50  C   UNL     1       8.946   5.652   6.944  1.00  0.00     0.074 A 
ATOM     51  C   UNL     1       8.495   5.989   5.612  1.00  0.00     0.031 C 
ATOM     52  C   UNL     1      12.176   0.160   6.051  1.00  0.00     0.029 A 
ATOM     53  C   UNL     1      11.946   0.857   7.310  1.00  0.00     0.049 A 
ATOM     54  H   UNL     1      10.922   2.648   7.605  1.00  0.00     0.167 HD
ATOM     55  C   UNL     1       8.655   6.367   8.057  1.00  0.00     0.037 A 
ATOM     56  C   UNL     1      12.389   0.444   8.512  1.00  0.00     0.037 A 
ATOM     57  C   UNL     1       9.082   6.006   9.384  1.00  0.00     0.049 A 
ATOM     58  C   UNL     1      12.100   1.288   9.718  1.00  0.00     0.074 A 
ATOM     59  C   UNL     1       8.819   6.654  10.578  1.00  0.00     0.029 A 
ATOM     60  N   UNL     1       9.857   4.897   9.692  1.00  0.00    -0.354 N 
ATOM     61  N   UNL     1      11.392   2.388   9.803  1.00  0.00    -0.248 NA
ATOM     62  C   UNL     1      12.682   0.846  10.991  1.00  0.00     0.031 C 
ATOM     63  C   UNL     1       9.479   5.969  11.601  1.00  0.00     0.029 A 
ATOM     64  C   UNL     1      10.105   4.859  11.055  1.00  0.00     0.049 A 
ATOM     65  H   UNL     1      10.182   4.235   9.040  1.00  0.00     0.167 HD
ATOM     66  C   UNL     1      11.433   2.764  11.137  1.00  0.00     0.074 A 
ATOM     67  C   UNL     1      12.214   1.760  11.830  1.00  0.00     0.031 C 
ATOM     68  C   UNL     1      10.880   3.849  11.731  1.00  0.00     0.037 A 
BRANCH  55  69
ATOM     69  C   UNL     1       7.839   7.619   7.899  1.00  0.00     0.064 A 
ATOM     70  C   UNL     1       6.474   7.574   7.580  1.00  0.00     0.173 A 
ATOM     71  C   UNL     1       8.412   8.877   8.147  1.00  0.00     0.173 A 
ATOM     72  F   UNL     1       5.878   6.399   7.325  1.00  0.00    -0.203 F 
ATOM     73  C   UNL     1       5.716   8.740   7.501  1.00  0.00     0.198 A 
ATOM     74  C   UNL     1       7.645  10.038   8.098  1.00  0.00     0.198 A 
ATOM     75  F   UNL     1       9.711   8.978   8.464  1.00  0.00    -0.203 F 
ATOM     76  F   UNL     1       4.421   8.674   7.162  1.00  0.00    -0.200 F 
ATOM     77  C   UNL     1       6.299   9.970   7.771  1.00  0.00     0.200 A 
ATOM     78  F   UNL     1       8.206  11.223   8.376  1.00  0.00    -0.200 F 
ATOM     79  F   UNL     1       5.564  11.088   7.715  1.00  0.00    -0.200 F 
ENDBRANCH  55  69
BRANCH  56  80
ATOM     80  C   UNL     1      13.156  -0.826   8.616  1.00  0.00     0.064 A 
ATOM     81  C   UNL     1      12.621  -1.936   9.282  1.00  0.00     0.173 A 
ATOM     82  C   UNL     1      14.419  -0.969   8.021  1.00  0.00     0.173 A 
ATOM     83  F   UNL     1      11.425  -1.846   9.881  1.00  0.00    -0.203 F 
ATOM     84  C   UNL     1      13.322  -3.139   9.352  1.00  0.00     0.198 A 
ATOM     85  C   UNL     1      15.103  -2.181   8.062  1.00  0.00     0.198 A 
ATOM     86  F   UNL     1      14.975   0.062   7.367  1.00  0.00    -0.203 F 
ATOM     87  F   UNL     1      12.801  -4.176  10.022  1.00  0.00    -0.200 F 
ATOM     88  C   UNL     1      14.556  -3.264   8.733  1.00  0.00     0.200 A 
ATOM     89  F   UNL     1      16.285  -2.302   7.442  1.00  0.00    -0.200 F 
ATOM     90  F   UNL     1      15.220  -4.427   8.784  1.00  0.00    -0.200 F 
ENDBRANCH  56  80
BRANCH  68  91
ATOM     91  C   UNL     1      11.081   4.009  13.209  1.00  0.00     0.064 A 
ATOM     92  C   UNL     1      12.324   4.381  13.740  1.00  0.00     0.173 A 
ATOM     93  C   UNL     1      10.000   3.875  14.092  1.00  0.00     0.173 A 
ATOM     94  F   UNL     1      13.392   4.506  12.937  1.00  0.00    -0.203 F 
ATOM     95  C   UNL     1      12.479   4.605  15.105  1.00  0.00     0.198 A 
ATOM     96  C   UNL     1      10.151   4.131  15.452  1.00  0.00     0.198 A 
ATOM     97  F   UNL     1       8.789   3.527  13.632  1.00  0.00    -0.203 F 
ATOM     98  F   UNL     1      13.683   4.929  15.596  1.00  0.00    -0.200 F 
ATOM     99  C   UNL     1      11.390   4.493  15.957  1.00  0.00     0.200 A 
ATOM    100  F   UNL     1       9.094   4.040  16.270  1.00  0.00    -0.200 F 
ATOM    101  F   UNL     1      11.536   4.733  17.267  1.00  0.00    -0.200 F 
ENDBRANCH  68  91
ENDBRANCH  42  43
ENDBRANCH  34  37
ENDBRANCH  32  33
ENDBRANCH  31  32
ENDBRANCH  30  31
ENDBRANCH   3  30
TORSDOF 15
