REMARK SMILES O=C(CC[N@H+]1CCC[C@@H](C(=O)NCCCNC(=O)c2ccc(-c3c4nc(c(-c5c(F)c(F)c(F)c(F)c5F)c5ccc([nH]5)c(-c5c(F)c(F)c(F)c(F)c5F)c5nc(c(-c6c(F)c(F)c(F)c(F)c6F)c6ccc3[nH]6)C=C5)C=C4)cc2)C1)Nc1cccc(F)c1
REMARK SMILES IDX 13 1 12 2 10 3 11 4 9 6 5 7 6 8 82 9 7 11 8 12 4 13 3 14
REMARK SMILES IDX 2 15 1 16 83 17 84 19 85 20 90 21 86 22 88 23 87 24 89 25
REMARK SMILES IDX 14 26 15 27 16 28 17 29 18 31 19 32 20 33 81 34 21 35 80 36
REMARK SMILES IDX 22 37 23 38 24 39 74 40 25 41 79 42 73 43 75 44 26 45 78 46
REMARK SMILES IDX 72 47 71 48 27 50 59 51 39 52 58 53 40 54 43 55 57 56 76 57
REMARK SMILES IDX 41 58 42 59 56 61 77 62 44 63 28 64 29 65 37 66 30 67 31 68
REMARK SMILES IDX 35 69 38 70 32 71 33 72 36 73 34 74 60 75 61 76 69 77 62 78
REMARK SMILES IDX 63 79 67 80 70 81 64 82 65 83 68 84 66 85 45 86 46 87 54 88
REMARK SMILES IDX 47 89 48 90 52 91 55 92 49 93 50 94 53 95 51 96
REMARK H PARENT 12 5 5 10 83 18 16 30 75 49 43 60
REMARK Flexibility Score: inf
ROOT
ATOM      1  C   UNL     1       5.868   4.197   0.302  1.00  0.00     0.117 C 
ENDROOT
BRANCH   1   2
ATOM      2  N   UNL     1       4.943   3.849  -0.761  1.00  0.00    -0.356 N 
ATOM      3  C   UNL     1       5.196   3.063  -1.849  1.00  0.00     0.228 C 
ATOM      4  O   UNL     1       4.701   3.401  -2.925  1.00  0.00    -0.275 OA
ATOM      5  H   UNL     1       4.034   4.221  -0.691  1.00  0.00     0.163 HD
BRANCH   3   6
ATOM      6  C   UNL     1       5.907   1.727  -1.649  1.00  0.00     0.133 C 
ATOM      7  N   UNL     1       5.157  -0.632  -0.974  1.00  0.00    -0.334 N 
ATOM      8  C   UNL     1       5.654  -1.129  -2.276  1.00  0.00     0.262 C 
ATOM      9  C   UNL     1       4.834   0.798  -1.061  1.00  0.00     0.275 C 
ATOM     10  H   UNL     1       5.873  -0.721  -0.254  1.00  0.00     0.348 HD
ATOM     11  C   UNL     1       6.813  -0.297  -2.823  1.00  0.00     0.062 C 
ATOM     12  C   UNL     1       6.413   1.166  -2.977  1.00  0.00     0.025 C 
BRANCH   7  13
ATOM     13  C   UNL     1       3.975  -1.462  -0.585  1.00  0.00     0.272 C 
BRANCH  13  14
ATOM     14  C   UNL     1       2.966  -0.868   0.419  1.00  0.00     0.161 C 
BRANCH  14  15
ATOM     15  C   UNL     1       1.948  -0.019  -0.328  1.00  0.00     0.230 C 
ATOM     16  O   UNL     1       1.331  -0.456  -1.296  1.00  0.00    -0.275 OA
ATOM     17  N   UNL     1       1.811   1.264   0.165  1.00  0.00    -0.326 N 
ATOM     18  H   UNL     1       2.063   1.427   1.102  1.00  0.00     0.169 HD
BRANCH  17  19
ATOM     19  C   UNL     1       1.332   2.357  -0.589  1.00  0.00     0.044 A 
ATOM     20  C   UNL     1       1.577   2.481  -1.963  1.00  0.00     0.026 A 
ATOM     21  C   UNL     1       0.678   3.388   0.081  1.00  0.00     0.065 A 
ATOM     22  C   UNL     1       1.224   3.648  -2.648  1.00  0.00     0.005 A 
ATOM     23  C   UNL     1       0.262   4.512  -0.629  1.00  0.00     0.125 A 
ATOM     24  C   UNL     1       0.551   4.664  -1.980  1.00  0.00     0.039 A 
ATOM     25  F   UNL     1      -0.422   5.471   0.009  1.00  0.00    -0.207 F 
ENDBRANCH  17  19
ENDBRANCH  14  15
ENDBRANCH  13  14
ENDBRANCH   7  13
ENDBRANCH   3   6
ENDBRANCH   1   2
BRANCH   1  26
ATOM     26  C   UNL     1       6.576   5.513  -0.031  1.00  0.00     0.042 C 
BRANCH  26  27
ATOM     27  C   UNL     1       5.646   6.726  -0.110  1.00  0.00     0.118 C 
BRANCH  27  28
ATOM     28  N   UNL     1       5.128   7.127   1.189  1.00  0.00    -0.352 N 
ATOM     29  C   UNL     1       5.246   8.318   1.864  1.00  0.00     0.251 C 
ATOM     30  H   UNL     1       4.612   6.433   1.660  1.00  0.00     0.163 HD
ATOM     31  O   UNL     1       4.876   8.386   3.032  1.00  0.00    -0.269 OA
BRANCH  29  32
ATOM     32  C   UNL     1       5.835   9.513   1.215  1.00  0.00     0.039 A 
ATOM     33  C   UNL     1       6.708  10.313   1.961  1.00  0.00     0.014 A 
ATOM     34  C   UNL     1       5.509   9.880  -0.093  1.00  0.00     0.014 A 
ATOM     35  C   UNL     1       7.303  11.434   1.376  1.00  0.00     0.010 A 
ATOM     36  C   UNL     1       6.155  10.960  -0.698  1.00  0.00     0.010 A 
ATOM     37  C   UNL     1       7.063  11.746   0.028  1.00  0.00    -0.014 A 
BRANCH  37  38
ATOM     38  C   UNL     1       7.772  12.873  -0.638  1.00  0.00     0.031 A 
ATOM     39  C   UNL     1       7.011  14.060  -1.159  1.00  0.00     0.074 A 
ATOM     40  C   UNL     1       9.104  12.799  -0.830  1.00  0.00     0.049 A 
ATOM     41  N   UNL     1       7.451  15.101  -1.824  1.00  0.00    -0.248 NA
ATOM     42  C   UNL     1       5.560  14.071  -0.922  1.00  0.00     0.031 C 
ATOM     43  C   UNL     1       9.956  11.686  -0.409  1.00  0.00     0.029 A 
ATOM     44  N   UNL     1       9.973  13.670  -1.440  1.00  0.00    -0.354 N 
ATOM     45  C   UNL     1       6.333  15.879  -2.095  1.00  0.00     0.074 A 
ATOM     46  C   UNL     1       5.188  15.169  -1.565  1.00  0.00     0.031 C 
ATOM     47  C   UNL     1      11.225  11.947  -0.757  1.00  0.00     0.029 A 
ATOM     48  C   UNL     1      11.273  13.225  -1.462  1.00  0.00     0.049 A 
ATOM     49  H   UNL     1       9.692  14.531  -1.824  1.00  0.00     0.167 HD
ATOM     50  C   UNL     1       6.269  17.084  -2.712  1.00  0.00     0.037 A 
ATOM     51  C   UNL     1      12.378  13.775  -2.002  1.00  0.00     0.037 A 
ATOM     52  C   UNL     1       7.410  17.799  -3.225  1.00  0.00     0.049 A 
ATOM     53  C   UNL     1      12.277  15.104  -2.699  1.00  0.00     0.074 A 
ATOM     54  C   UNL     1       7.452  19.052  -3.812  1.00  0.00     0.029 A 
ATOM     55  N   UNL     1       8.712  17.318  -3.222  1.00  0.00    -0.354 N 
ATOM     56  N   UNL     1      11.225  15.863  -2.887  1.00  0.00    -0.248 NA
ATOM     57  C   UNL     1      13.521  15.656  -3.255  1.00  0.00     0.031 C 
ATOM     58  C   UNL     1       8.767  19.307  -4.213  1.00  0.00     0.029 A 
ATOM     59  C   UNL     1       9.558  18.239  -3.823  1.00  0.00     0.049 A 
ATOM     60  H   UNL     1       8.993  16.452  -2.849  1.00  0.00     0.167 HD
ATOM     61  C   UNL     1      11.682  16.991  -3.555  1.00  0.00     0.074 A 
ATOM     62  C   UNL     1      13.110  16.825  -3.727  1.00  0.00     0.031 C 
ATOM     63  C   UNL     1      10.980  18.067  -3.986  1.00  0.00     0.037 A 
BRANCH  50  64
ATOM     64  C   UNL     1       4.912  17.711  -2.875  1.00  0.00     0.064 A 
ATOM     65  C   UNL     1       4.189  18.200  -1.776  1.00  0.00     0.173 A 
ATOM     66  C   UNL     1       4.346  17.861  -4.150  1.00  0.00     0.173 A 
ATOM     67  F   UNL     1       4.681  18.076  -0.534  1.00  0.00    -0.203 F 
ATOM     68  C   UNL     1       2.936  18.783  -1.944  1.00  0.00     0.198 A 
ATOM     69  C   UNL     1       3.107  18.474  -4.318  1.00  0.00     0.198 A 
ATOM     70  F   UNL     1       4.998  17.421  -5.237  1.00  0.00    -0.203 F 
ATOM     71  F   UNL     1       2.241  19.195  -0.874  1.00  0.00    -0.200 F 
ATOM     72  C   UNL     1       2.399  18.927  -3.215  1.00  0.00     0.200 A 
ATOM     73  F   UNL     1       2.597  18.627  -5.548  1.00  0.00    -0.200 F 
ATOM     74  F   UNL     1       1.196  19.495  -3.376  1.00  0.00    -0.200 F 
ENDBRANCH  50  64
BRANCH  51  75
ATOM     75  C   UNL     1      13.683  13.073  -1.889  1.00  0.00     0.064 A 
ATOM     76  C   UNL     1      14.709  13.584  -1.081  1.00  0.00     0.173 A 
ATOM     77  C   UNL     1      13.933  11.879  -2.582  1.00  0.00     0.173 A 
ATOM     78  F   UNL     1      14.525  14.734  -0.415  1.00  0.00    -0.203 F 
ATOM     79  C   UNL     1      15.940  12.939  -0.985  1.00  0.00     0.198 A 
ATOM     80  C   UNL     1      15.154  11.219  -2.461  1.00  0.00     0.198 A 
ATOM     81  F   UNL     1      12.984  11.345  -3.365  1.00  0.00    -0.203 F 
ATOM     82  F   UNL     1      16.917  13.473  -0.241  1.00  0.00    -0.200 F 
ATOM     83  C   UNL     1      16.159  11.753  -1.669  1.00  0.00     0.200 A 
ATOM     84  F   UNL     1      15.356  10.065  -3.112  1.00  0.00    -0.200 F 
ATOM     85  F   UNL     1      17.340  11.129  -1.571  1.00  0.00    -0.200 F 
ENDBRANCH  51  75
BRANCH  63  86
ATOM     86  C   UNL     1      11.749  19.172  -4.655  1.00  0.00     0.064 A 
ATOM     87  C   UNL     1      12.301  19.018  -5.935  1.00  0.00     0.173 A 
ATOM     88  C   UNL     1      11.904  20.414  -4.019  1.00  0.00     0.173 A 
ATOM     89  F   UNL     1      12.195  17.846  -6.580  1.00  0.00    -0.203 F 
ATOM     90  C   UNL     1      13.001  20.057  -6.543  1.00  0.00     0.198 A 
ATOM     91  C   UNL     1      12.576  21.461  -4.643  1.00  0.00     0.198 A 
ATOM     92  F   UNL     1      11.391  20.616  -2.796  1.00  0.00    -0.203 F 
ATOM     93  F   UNL     1      13.562  19.871  -7.746  1.00  0.00    -0.200 F 
ATOM     94  C   UNL     1      13.131  21.279  -5.901  1.00  0.00     0.200 A 
ATOM     95  F   UNL     1      12.688  22.645  -4.027  1.00  0.00    -0.200 F 
ATOM     96  F   UNL     1      13.798  22.281  -6.491  1.00  0.00    -0.200 F 
ENDBRANCH  63  86
ENDBRANCH  37  38
ENDBRANCH  29  32
ENDBRANCH  27  28
ENDBRANCH  26  27
ENDBRANCH   1  26
TORSDOF 14
