REMARK SMILES COC(=O)[C@@H]([NH2+]CC(C)(C)C(=O)NCCCNC(=O)c1ccc(-c2c3nc(c(-c4c(F)c(F)c(F)c(F)c4F)c4ccc([nH]4)c(-c4c(F)c(F)c(F)c(F)c4F)c4nc(c(-c5c(F)c(F)c(F)c(F)c5F)c5ccc2[nH]5)C=C4)C=C3)cc1)c1ccccc1
REMARK SMILES IDX 11 1 12 2 13 3 8 5 9 6 10 7 7 8 6 9 5 12 3 13 4 14 2 15 1 16
REMARK SMILES IDX 83 17 84 18 88 19 85 20 87 21 86 22 14 23 15 24 16 25 17 26
REMARK SMILES IDX 18 27 19 29 20 30 21 31 82 32 22 33 81 34 23 35 24 36 25 37
REMARK SMILES IDX 75 38 26 39 80 40 74 41 76 42 27 43 79 44 73 45 72 46 28 48
REMARK SMILES IDX 60 49 40 50 59 51 41 52 44 53 58 54 77 55 42 56 43 57 57 59
REMARK SMILES IDX 78 60 45 61 29 62 30 63 38 64 31 65 32 66 36 67 39 68 33 69
REMARK SMILES IDX 34 70 37 71 35 72 61 73 62 74 70 75 63 76 64 77 68 78 71 79
REMARK SMILES IDX 65 80 66 81 69 82 67 83 46 84 47 85 55 86 48 87 49 88 53 89
REMARK SMILES IDX 56 90 50 91 51 92 54 93 52 94
REMARK H PARENT 13 4 6 10 6 11 17 28 76 47 44 58
REMARK Flexibility Score: inf
ROOT
ATOM      1  C   UNL     1       0.519   5.162   4.238  1.00  0.00     0.231 C 
ATOM      2  O   UNL     1      -0.658   4.798   4.234  1.00  0.00    -0.274 OA
ATOM      3  N   UNL     1       1.214   4.909   5.380  1.00  0.00    -0.355 N 
ATOM      4  H   UNL     1       1.184   3.983   5.713  1.00  0.00     0.163 HD
ENDROOT
BRANCH   1   5
ATOM      5  C   UNL     1       1.155   5.893   3.049  1.00  0.00     0.092 C 
ATOM      6  C   UNL     1       2.664   5.653   2.908  1.00  0.00     0.027 C 
ATOM      7  C   UNL     1       0.858   7.396   3.240  1.00  0.00     0.027 C 
BRANCH   5   8
ATOM      8  C   UNL     1       0.459   5.466   1.711  1.00  0.00     0.277 C 
BRANCH   8   9
ATOM      9  N   UNL     1       0.562   4.108   1.153  1.00  0.00    -0.330 N 
ATOM     10  H   UNL     1       0.113   4.130   0.237  1.00  0.00     0.347 HD
ATOM     11  H   UNL     1       1.563   3.916   1.173  1.00  0.00     0.347 HD
BRANCH   9  12
ATOM     12  C   UNL     1      -0.031   2.958   1.900  1.00  0.00     0.324 C 
BRANCH  12  13
ATOM     13  C   UNL     1       0.724   1.685   1.410  1.00  0.00     0.369 C 
ATOM     14  O   UNL     1       1.635   1.157   2.045  1.00  0.00    -0.245 OA
BRANCH  13  15
ATOM     15  O   UNL     1       0.304   1.264   0.182  1.00  0.00    -0.464 OA
ATOM     16  C   UNL     1       0.931   0.063  -0.270  1.00  0.00     0.282 C 
ENDBRANCH  13  15
ENDBRANCH  12  13
BRANCH  12  17
ATOM     17  C   UNL     1      -1.562   2.767   1.886  1.00  0.00     0.021 A 
ATOM     18  C   UNL     1      -2.474   3.833   1.851  1.00  0.00     0.010 A 
ATOM     19  C   UNL     1      -2.120   1.485   2.084  1.00  0.00     0.010 A 
ATOM     20  C   UNL     1      -3.854   3.646   2.002  1.00  0.00     0.001 A 
ATOM     21  C   UNL     1      -3.502   1.288   2.209  1.00  0.00     0.001 A 
ATOM     22  C   UNL     1      -4.370   2.372   2.177  1.00  0.00     0.000 A 
ENDBRANCH  12  17
ENDBRANCH   9  12
ENDBRANCH   8   9
ENDBRANCH   5   8
ENDBRANCH   1   5
BRANCH   3  23
ATOM     23  C   UNL     1       1.994   5.850   6.162  1.00  0.00     0.117 C 
BRANCH  23  24
ATOM     24  C   UNL     1       1.117   6.556   7.196  1.00  0.00     0.042 C 
BRANCH  24  25
ATOM     25  C   UNL     1       0.460   5.617   8.206  1.00  0.00     0.118 C 
BRANCH  25  26
ATOM     26  N   UNL     1       1.433   4.854   8.972  1.00  0.00    -0.352 N 
ATOM     27  C   UNL     1       1.763   4.903  10.303  1.00  0.00     0.251 C 
ATOM     28  H   UNL     1       1.940   4.191   8.448  1.00  0.00     0.163 HD
ATOM     29  O   UNL     1       2.772   4.327  10.696  1.00  0.00    -0.269 OA
BRANCH  27  30
ATOM     30  C   UNL     1       0.927   5.653  11.266  1.00  0.00     0.039 A 
ATOM     31  C   UNL     1       1.564   6.375  12.280  1.00  0.00     0.014 A 
ATOM     32  C   UNL     1      -0.468   5.610  11.214  1.00  0.00     0.014 A 
ATOM     33  C   UNL     1       0.805   7.098  13.202  1.00  0.00     0.010 A 
ATOM     34  C   UNL     1      -1.223   6.395  12.084  1.00  0.00     0.010 A 
ATOM     35  C   UNL     1      -0.595   7.140  13.091  1.00  0.00    -0.014 A 
BRANCH  35  36
ATOM     36  C   UNL     1      -1.403   7.971  14.019  1.00  0.00     0.031 A 
ATOM     37  C   UNL     1      -2.382   7.335  14.966  1.00  0.00     0.074 A 
ATOM     38  C   UNL     1      -1.294   9.312  13.966  1.00  0.00     0.049 A 
ATOM     39  N   UNL     1      -3.176   7.903  15.839  1.00  0.00    -0.248 NA
ATOM     40  C   UNL     1      -2.511   5.872  14.902  1.00  0.00     0.031 C 
ATOM     41  C   UNL     1      -0.440  10.053  13.035  1.00  0.00     0.029 A 
ATOM     42  N   UNL     1      -1.909  10.292  14.704  1.00  0.00    -0.354 N 
ATOM     43  C   UNL     1      -3.909   6.872  16.412  1.00  0.00     0.074 A 
ATOM     44  C   UNL     1      -3.502   5.649  15.753  1.00  0.00     0.031 C 
ATOM     45  C   UNL     1      -0.569  11.367  13.271  1.00  0.00     0.029 A 
ATOM     46  C   UNL     1      -1.530  11.564  14.353  1.00  0.00     0.049 A 
ATOM     47  H   UNL     1      -2.560  10.101  15.417  1.00  0.00     0.167 HD
ATOM     48  C   UNL     1      -4.821   6.936  17.412  1.00  0.00     0.037 A 
ATOM     49  C   UNL     1      -1.911  12.755  14.849  1.00  0.00     0.037 A 
ATOM     50  C   UNL     1      -5.199   8.150  18.087  1.00  0.00     0.049 A 
ATOM     51  C   UNL     1      -2.881  12.797  15.996  1.00  0.00     0.074 A 
ATOM     52  C   UNL     1      -6.042   8.308  19.174  1.00  0.00     0.029 A 
ATOM     53  N   UNL     1      -4.761   9.418  17.735  1.00  0.00    -0.354 N 
ATOM     54  N   UNL     1      -3.492  11.806  16.598  1.00  0.00    -0.248 NA
ATOM     55  C   UNL     1      -3.200  14.122  16.543  1.00  0.00     0.031 C 
ATOM     56  C   UNL     1      -6.148   9.677  19.451  1.00  0.00     0.029 A 
ATOM     57  C   UNL     1      -5.334  10.367  18.567  1.00  0.00     0.049 A 
ATOM     58  H   UNL     1      -4.134   9.615  17.002  1.00  0.00     0.167 HD
ATOM     59  C   UNL     1      -4.258  12.383  17.601  1.00  0.00     0.074 A 
ATOM     60  C   UNL     1      -4.012  13.809  17.544  1.00  0.00     0.031 C 
ATOM     61  C   UNL     1      -5.092  11.785  18.487  1.00  0.00     0.037 A 
BRANCH  48  62
ATOM     62  C   UNL     1      -5.474   5.652  17.836  1.00  0.00     0.064 A 
ATOM     63  C   UNL     1      -4.761   4.650  18.514  1.00  0.00     0.173 A 
ATOM     64  C   UNL     1      -6.836   5.428  17.583  1.00  0.00     0.173 A 
ATOM     65  F   UNL     1      -3.454   4.809  18.772  1.00  0.00    -0.203 F 
ATOM     66  C   UNL     1      -5.378   3.460  18.890  1.00  0.00     0.198 A 
ATOM     67  C   UNL     1      -7.457   4.249  17.988  1.00  0.00     0.198 A 
ATOM     68  F   UNL     1      -7.566   6.355  16.945  1.00  0.00    -0.203 F 
ATOM     69  F   UNL     1      -4.663   2.496  19.488  1.00  0.00    -0.200 F 
ATOM     70  C   UNL     1      -6.726   3.263  18.632  1.00  0.00     0.200 A 
ATOM     71  F   UNL     1      -8.763   4.065  17.748  1.00  0.00    -0.200 F 
ATOM     72  F   UNL     1      -7.319   2.118  18.997  1.00  0.00    -0.200 F 
ENDBRANCH  48  62
BRANCH  49  73
ATOM     73  C   UNL     1      -1.338  14.002  14.282  1.00  0.00     0.064 A 
ATOM     74  C   UNL     1      -0.403  14.758  15.002  1.00  0.00     0.173 A 
ATOM     75  C   UNL     1      -1.695  14.449  13.002  1.00  0.00     0.173 A 
ATOM     76  F   UNL     1      -0.045  14.379  16.237  1.00  0.00    -0.203 F 
ATOM     77  C   UNL     1       0.143  15.923  14.468  1.00  0.00     0.198 A 
ATOM     78  C   UNL     1      -1.129  15.600  12.459  1.00  0.00     0.198 A 
ATOM     79  F   UNL     1      -2.579  13.755  12.270  1.00  0.00    -0.203 F 
ATOM     80  F   UNL     1       1.008  16.647  15.191  1.00  0.00    -0.200 F 
ATOM     81  C   UNL     1      -0.215  16.340  13.194  1.00  0.00     0.200 A 
ATOM     82  F   UNL     1      -1.464  15.990  11.221  1.00  0.00    -0.200 F 
ATOM     83  F   UNL     1       0.319  17.454  12.677  1.00  0.00    -0.200 F 
ENDBRANCH  49  73
BRANCH  61  84
ATOM     84  C   UNL     1      -5.794  12.679  19.468  1.00  0.00     0.064 A 
ATOM     85  C   UNL     1      -6.825  13.542  19.065  1.00  0.00     0.173 A 
ATOM     86  C   UNL     1      -5.441  12.665  20.825  1.00  0.00     0.173 A 
ATOM     87  F   UNL     1      -7.188  13.603  17.775  1.00  0.00    -0.203 F 
ATOM     88  C   UNL     1      -7.453  14.382  19.980  1.00  0.00     0.198 A 
ATOM     89  C   UNL     1      -6.091  13.486  21.742  1.00  0.00     0.198 A 
ATOM     90  F   UNL     1      -4.466  11.854  21.263  1.00  0.00    -0.203 F 
ATOM     91  F   UNL     1      -8.395  15.239  19.563  1.00  0.00    -0.200 F 
ATOM     92  C   UNL     1      -7.089  14.350  21.318  1.00  0.00     0.200 A 
ATOM     93  F   UNL     1      -5.747  13.446  23.037  1.00  0.00    -0.200 F 
ATOM     94  F   UNL     1      -7.693  15.162  22.197  1.00  0.00    -0.200 F 
ENDBRANCH  61  84
ENDBRANCH  35  36
ENDBRANCH  27  30
ENDBRANCH  25  26
ENDBRANCH  24  25
ENDBRANCH  23  24
ENDBRANCH   3  23
TORSDOF 16
