REMARK SMILES CC(C)[C@H]([NH2+][C@@H](C)C[C@@H]1CCCC[NH2+]1)C(=O)NCCCNC(=O)c1ccc(-c2c3nc(c(-c4c(F)c(F)c(F)c(F)c4F)c4ccc([nH]4)c(-c4c(F)c(F)c(F)c(F)c4F)c4nc(c(-c5c(F)c(F)c(F)c(F)c5F)c5ccc2[nH]5)C=C4)C=C3)cc1
REMARK SMILES IDX 18 1 17 2 15 3 16 4 4 6 2 7 1 8 3 9 5 10 6 13 7 14 8 15 9 16
REMARK SMILES IDX 10 17 14 18 11 19 13 20 12 23 19 24 20 25 21 26 22 27 23 29
REMARK SMILES IDX 24 30 25 31 86 32 26 33 85 34 27 35 28 36 29 37 79 38 30 39
REMARK SMILES IDX 84 40 78 41 80 42 31 43 83 44 77 45 76 46 32 48 64 49 44 50
REMARK SMILES IDX 63 51 45 52 48 53 62 54 81 55 46 56 47 57 61 59 82 60 49 61
REMARK SMILES IDX 33 62 34 63 42 64 35 65 36 66 40 67 43 68 37 69 38 70 41 71
REMARK SMILES IDX 39 72 65 73 66 74 74 75 67 76 68 77 72 78 75 79 69 80 70 81
REMARK SMILES IDX 73 82 71 83 50 84 51 85 59 86 52 87 53 88 57 89 60 90 54 91
REMARK SMILES IDX 55 92 58 93 56 94
REMARK H PARENT 17 5 5 11 5 12 14 21 14 22 21 28 80 47 48 58
REMARK Flexibility Score: inf
ROOT
ATOM      1  C   UNL     1      -0.876   3.113   2.788  1.00  0.00     0.118 C 
ENDROOT
BRANCH   1   2
ATOM      2  N   UNL     1      -1.221   3.686   1.499  1.00  0.00    -0.351 N 
ATOM      3  C   UNL     1      -1.257   3.087   0.265  1.00  0.00     0.278 C 
ATOM      4  O   UNL     1      -1.642   3.771  -0.688  1.00  0.00    -0.268 OA
ATOM      5  H   UNL     1      -1.463   4.640   1.513  1.00  0.00     0.163 HD
BRANCH   3   6
ATOM      6  C   UNL     1      -0.887   1.579   0.074  1.00  0.00     0.275 C 
BRANCH   6   7
ATOM      7  C   UNL     1      -2.130   0.651   0.205  1.00  0.00     0.051 C 
ATOM      8  C   UNL     1      -3.373   1.273   0.856  1.00  0.00     0.014 C 
ATOM      9  C   UNL     1      -2.524  -0.041  -1.104  1.00  0.00     0.014 C 
ENDBRANCH   6   7
BRANCH   6  10
ATOM     10  N   UNL     1       0.311   1.300   0.915  1.00  0.00    -0.333 N 
ATOM     11  H   UNL     1       0.151   1.772   1.805  1.00  0.00     0.347 HD
ATOM     12  H   UNL     1       1.072   1.618   0.315  1.00  0.00     0.347 HD
BRANCH  10  13
ATOM     13  C   UNL     1       0.731  -0.067   1.245  1.00  0.00     0.185 C 
ATOM     14  C   UNL     1       2.258  -0.114   1.040  1.00  0.00     0.075 C 
BRANCH  13  15
ATOM     15  C   UNL     1       0.456  -0.429   2.746  1.00  0.00     0.129 C 
BRANCH  15  16
ATOM     16  C   UNL     1      -1.015  -0.685   3.121  1.00  0.00     0.188 C 
ATOM     17  C   UNL     1      -1.329  -0.576   4.616  1.00  0.00     0.065 C 
ATOM     18  N   UNL     1      -1.475  -1.999   2.647  1.00  0.00    -0.344 N 
ATOM     19  C   UNL     1      -2.854  -0.595   4.789  1.00  0.00     0.012 C 
ATOM     20  C   UNL     1      -2.934  -2.108   2.732  1.00  0.00     0.260 C 
ATOM     21  H   UNL     1      -1.052  -2.728   3.221  1.00  0.00     0.346 HD
ATOM     22  H   UNL     1      -1.199  -2.106   1.671  1.00  0.00     0.346 HD
ATOM     23  C   UNL     1      -3.475  -1.829   4.134  1.00  0.00     0.062 C 
ENDBRANCH  15  16
ENDBRANCH  13  15
ENDBRANCH  10  13
ENDBRANCH   6  10
ENDBRANCH   3   6
ENDBRANCH   1   2
BRANCH   1  24
ATOM     24  C   UNL     1       0.525   3.502   3.247  1.00  0.00     0.042 C 
BRANCH  24  25
ATOM     25  C   UNL     1       0.530   4.838   3.967  1.00  0.00     0.118 C 
BRANCH  25  26
ATOM     26  N   UNL     1      -0.160   4.769   5.252  1.00  0.00    -0.352 N 
ATOM     27  C   UNL     1       0.243   5.205   6.487  1.00  0.00     0.251 C 
ATOM     28  H   UNL     1      -1.048   4.344   5.228  1.00  0.00     0.163 HD
ATOM     29  O   UNL     1      -0.401   4.901   7.489  1.00  0.00    -0.269 OA
BRANCH  27  30
ATOM     30  C   UNL     1       1.469   6.015   6.611  1.00  0.00     0.039 A 
ATOM     31  C   UNL     1       2.351   5.750   7.661  1.00  0.00     0.014 A 
ATOM     32  C   UNL     1       1.757   7.017   5.682  1.00  0.00     0.014 A 
ATOM     33  C   UNL     1       3.556   6.446   7.737  1.00  0.00     0.010 A 
ATOM     34  C   UNL     1       3.000   7.634   5.699  1.00  0.00     0.010 A 
ATOM     35  C   UNL     1       3.908   7.363   6.733  1.00  0.00    -0.014 A 
BRANCH  35  36
ATOM     36  C   UNL     1       5.216   8.061   6.748  1.00  0.00     0.031 A 
ATOM     37  C   UNL     1       5.264   9.560   6.839  1.00  0.00     0.074 A 
ATOM     38  C   UNL     1       6.351   7.349   6.611  1.00  0.00     0.049 A 
ATOM     39  N   UNL     1       6.299  10.360   6.790  1.00  0.00    -0.248 NA
ATOM     40  C   UNL     1       3.974  10.258   6.965  1.00  0.00     0.031 C 
ATOM     41  C   UNL     1       6.426   5.895   6.459  1.00  0.00     0.029 A 
ATOM     42  N   UNL     1       7.661   7.754   6.567  1.00  0.00    -0.354 N 
ATOM     43  C   UNL     1       5.783  11.647   6.864  1.00  0.00     0.074 A 
ATOM     44  C   UNL     1       4.343  11.527   6.892  1.00  0.00     0.031 C 
ATOM     45  C   UNL     1       7.714   5.527   6.369  1.00  0.00     0.029 A 
ATOM     46  C   UNL     1       8.552   6.721   6.410  1.00  0.00     0.049 A 
ATOM     47  H   UNL     1       7.936   8.697   6.640  1.00  0.00     0.167 HD
ATOM     48  C   UNL     1       6.453  12.822   6.931  1.00  0.00     0.037 A 
ATOM     49  C   UNL     1       9.894   6.738   6.303  1.00  0.00     0.037 A 
ATOM     50  C   UNL     1       7.887  12.930   6.929  1.00  0.00     0.049 A 
ATOM     51  C   UNL     1      10.614   8.058   6.373  1.00  0.00     0.074 A 
ATOM     52  C   UNL     1       8.667  14.065   7.056  1.00  0.00     0.029 A 
ATOM     53  N   UNL     1       8.758  11.859   6.786  1.00  0.00    -0.354 N 
ATOM     54  N   UNL     1      10.120   9.264   6.520  1.00  0.00    -0.248 NA
ATOM     55  C   UNL     1      12.078   8.018   6.269  1.00  0.00     0.031 C 
ATOM     56  C   UNL     1      10.008  13.689   6.934  1.00  0.00     0.029 A 
ATOM     57  C   UNL     1      10.068  12.311   6.795  1.00  0.00     0.049 A 
ATOM     58  H   UNL     1       8.486  10.917   6.693  1.00  0.00     0.167 HD
ATOM     59  C   UNL     1      11.211  10.121   6.557  1.00  0.00     0.074 A 
ATOM     60  C   UNL     1      12.394   9.295   6.434  1.00  0.00     0.031 C 
ATOM     61  C   UNL     1      11.233  11.472   6.680  1.00  0.00     0.037 A 
BRANCH  48  62
ATOM     62  C   UNL     1       5.640  14.082   7.017  1.00  0.00     0.064 A 
ATOM     63  C   UNL     1       4.874  14.392   8.152  1.00  0.00     0.173 A 
ATOM     64  C   UNL     1       5.650  15.008   5.963  1.00  0.00     0.173 A 
ATOM     65  F   UNL     1       4.818  13.535   9.184  1.00  0.00    -0.203 F 
ATOM     66  C   UNL     1       4.125  15.564   8.215  1.00  0.00     0.198 A 
ATOM     67  C   UNL     1       4.928  16.196   6.044  1.00  0.00     0.198 A 
ATOM     68  F   UNL     1       6.367  14.766   4.856  1.00  0.00    -0.203 F 
ATOM     69  F   UNL     1       3.357  15.809   9.286  1.00  0.00    -0.200 F 
ATOM     70  C   UNL     1       4.159  16.468   7.165  1.00  0.00     0.200 A 
ATOM     71  F   UNL     1       4.974  17.076   5.035  1.00  0.00    -0.200 F 
ATOM     72  F   UNL     1       3.444  17.600   7.231  1.00  0.00    -0.200 F 
ENDBRANCH  48  62
BRANCH  49  73
ATOM     73  C   UNL     1      10.645   5.464   6.142  1.00  0.00     0.064 A 
ATOM     74  C   UNL     1      11.484   4.989   7.160  1.00  0.00     0.173 A 
ATOM     75  C   UNL     1      10.547   4.701   4.970  1.00  0.00     0.173 A 
ATOM     76  F   UNL     1      11.626   5.691   8.293  1.00  0.00    -0.203 F 
ATOM     77  C   UNL     1      12.216   3.814   7.000  1.00  0.00     0.198 A 
ATOM     78  C   UNL     1      11.254   3.510   4.824  1.00  0.00     0.198 A 
ATOM     79  F   UNL     1       9.752   5.107   3.968  1.00  0.00    -0.203 F 
ATOM     80  F   UNL     1      13.051   3.411   7.968  1.00  0.00    -0.200 F 
ATOM     81  C   UNL     1      12.096   3.072   5.835  1.00  0.00     0.200 A 
ATOM     82  F   UNL     1      11.121   2.787   3.703  1.00  0.00    -0.200 F 
ATOM     83  F   UNL     1      12.798   1.941   5.683  1.00  0.00    -0.200 F 
ENDBRANCH  49  73
BRANCH  61  84
ATOM     84  C   UNL     1      12.579  12.137   6.729  1.00  0.00     0.064 A 
ATOM     85  C   UNL     1      13.407  12.215   5.600  1.00  0.00     0.173 A 
ATOM     86  C   UNL     1      13.026  12.742   7.914  1.00  0.00     0.173 A 
ATOM     87  F   UNL     1      13.032  11.641   4.447  1.00  0.00    -0.203 F 
ATOM     88  C   UNL     1      14.645  12.848   5.663  1.00  0.00     0.198 A 
ATOM     89  C   UNL     1      14.248  13.405   7.964  1.00  0.00     0.198 A 
ATOM     90  F   UNL     1      12.269  12.704   9.021  1.00  0.00    -0.203 F 
ATOM     91  F   UNL     1      15.443  12.863   4.587  1.00  0.00    -0.200 F 
ATOM     92  C   UNL     1      15.061  13.449   6.842  1.00  0.00     0.200 A 
ATOM     93  F   UNL     1      14.640  14.001   9.099  1.00  0.00    -0.200 F 
ATOM     94  F   UNL     1      16.249  14.067   6.898  1.00  0.00    -0.200 F 
ENDBRANCH  61  84
ENDBRANCH  35  36
ENDBRANCH  27  30
ENDBRANCH  25  26
ENDBRANCH  24  25
ENDBRANCH   1  24
TORSDOF 15
