REMARK SMILES Cc1c(C(=O)NCCCNC(=O)c2ccc(-c3c4nc(c(-c5c(F)c(F)c(F)c(F)c5F)c5ccc([nH]5)c(-c5c(F)c(F)c(F)c(F)c5F)c5nc(c(-c6c(F)c(F)c(F)c(F)c6F)c6ccc3[nH]6)C=C5)C=C4)cc2)nnn1-c1ccc(Cl)cc1[N+](=O)[O-]
REMARK SMILES IDX 8 1 7 2 6 3 4 4 5 5 3 7 1 8 2 9 78 10 76 11 77 12 79 13
REMARK SMILES IDX 80 14 85 15 81 16 84 17 82 18 83 19 86 20 87 21 88 22 9 23
REMARK SMILES IDX 10 24 11 25 12 27 13 28 14 29 75 30 15 31 74 32 16 33 17 34
REMARK SMILES IDX 18 35 68 36 19 37 73 38 67 39 69 40 20 41 72 42 66 43 65 44
REMARK SMILES IDX 21 46 53 47 33 48 52 49 34 50 37 51 51 52 70 53 35 54 36 55
REMARK SMILES IDX 50 57 71 58 38 59 22 60 23 61 31 62 24 63 25 64 29 65 32 66
REMARK SMILES IDX 26 67 27 68 30 69 28 70 54 71 55 72 63 73 56 74 57 75 61 76
REMARK SMILES IDX 64 77 58 78 59 79 62 80 60 81 39 82 40 83 48 84 41 85 42 86
REMARK SMILES IDX 46 87 49 88 43 89 44 90 47 91 45 92
REMARK H PARENT 6 6 10 26 69 45 37 56
REMARK Flexibility Score: inf
ROOT
ATOM      1  C   UNL     1       0.672  -2.551   0.802  1.00  0.00     0.042 C 
ENDROOT
BRANCH   1   2
ATOM      2  C   UNL     1      -0.645  -1.795   1.019  1.00  0.00     0.118 C 
BRANCH   2   3
ATOM      3  N   UNL     1      -0.748  -1.313   2.379  1.00  0.00    -0.351 N 
ATOM      4  C   UNL     1      -0.443  -0.111   2.968  1.00  0.00     0.273 C 
ATOM      5  O   UNL     1      -0.677  -0.057   4.179  1.00  0.00    -0.267 OA
ATOM      6  H   UNL     1      -1.107  -1.980   3.008  1.00  0.00     0.163 HD
BRANCH   4   7
ATOM      7  C   UNL     1       0.061   1.061   2.243  1.00  0.00     0.173 A 
ATOM      8  C   UNL     1       1.477   0.484   0.044  1.00  0.00     0.069 C 
ATOM      9  C   UNL     1       0.742   1.282   1.048  1.00  0.00     0.075 A 
ATOM     10  N   UNL     1       0.724   2.662   0.923  1.00  0.00    -0.210 N 
ATOM     11  N   UNL     1      -0.041   2.292   2.881  1.00  0.00    -0.124 NA
ATOM     12  N   UNL     1       0.476   3.232   2.107  1.00  0.00    -0.061 NA
BRANCH  10  13
ATOM     13  C   UNL     1       1.200   3.396  -0.179  1.00  0.00     0.144 A 
ATOM     14  C   UNL     1       2.420   4.069  -0.024  1.00  0.00     0.037 A 
ATOM     15  C   UNL     1       0.605   3.288  -1.449  1.00  0.00     0.296 A 
ATOM     16  C   UNL     1       3.063   4.586  -1.150  1.00  0.00     0.023 A 
ATOM     17  C   UNL     1       1.246   3.831  -2.571  1.00  0.00     0.108 A 
ATOM     18  C   UNL     1       2.479   4.461  -2.412  1.00  0.00     0.048 A 
ATOM     19  Cl  UNL     1       3.299   5.074  -3.793  1.00  0.00    -0.084 Cl
BRANCH  15  20
ATOM     20  N   UNL     1      -0.694   2.635  -1.655  1.00  0.00     0.065 N 
ATOM     21  O   UNL     1      -0.910   2.145  -2.772  1.00  0.00    -0.258 OA
ATOM     22  O   UNL     1      -1.484   2.595  -0.706  1.00  0.00    -0.258 OA
ENDBRANCH  15  20
ENDBRANCH  10  13
ENDBRANCH   4   7
ENDBRANCH   2   3
ENDBRANCH   1   2
BRANCH   1  23
ATOM     23  C   UNL     1       0.588  -4.011   1.154  1.00  0.00     0.118 C 
BRANCH  23  24
ATOM     24  N   UNL     1      -0.157  -4.777   0.156  1.00  0.00    -0.352 N 
ATOM     25  C   UNL     1      -0.352  -6.148   0.113  1.00  0.00     0.251 C 
ATOM     26  H   UNL     1      -0.568  -4.257  -0.571  1.00  0.00     0.163 HD
ATOM     27  O   UNL     1      -0.664  -6.711  -0.917  1.00  0.00    -0.269 OA
BRANCH  25  28
ATOM     28  C   UNL     1      -0.154  -6.902   1.364  1.00  0.00     0.039 A 
ATOM     29  C   UNL     1       0.467  -8.150   1.387  1.00  0.00     0.014 A 
ATOM     30  C   UNL     1      -0.531  -6.270   2.542  1.00  0.00     0.014 A 
ATOM     31  C   UNL     1       0.767  -8.710   2.624  1.00  0.00     0.010 A 
ATOM     32  C   UNL     1       0.012  -6.680   3.721  1.00  0.00     0.010 A 
ATOM     33  C   UNL     1       0.557  -7.948   3.788  1.00  0.00    -0.014 A 
BRANCH  33  34
ATOM     34  C   UNL     1       0.994  -8.405   5.097  1.00  0.00     0.031 A 
ATOM     35  C   UNL     1       2.428  -8.765   5.127  1.00  0.00     0.074 A 
ATOM     36  C   UNL     1       0.223  -8.302   6.204  1.00  0.00     0.049 A 
ATOM     37  N   UNL     1       2.926  -9.954   5.143  1.00  0.00    -0.248 NA
ATOM     38  C   UNL     1       3.430  -7.707   4.911  1.00  0.00     0.031 C 
ATOM     39  C   UNL     1      -1.084  -7.638   6.334  1.00  0.00     0.029 A 
ATOM     40  N   UNL     1       0.484  -8.685   7.487  1.00  0.00    -0.354 N 
ATOM     41  C   UNL     1       4.303  -9.777   5.233  1.00  0.00     0.074 A 
ATOM     42  C   UNL     1       4.557  -8.421   4.834  1.00  0.00     0.031 C 
ATOM     43  C   UNL     1      -1.380  -7.451   7.637  1.00  0.00     0.029 A 
ATOM     44  C   UNL     1      -0.395  -8.156   8.431  1.00  0.00     0.049 A 
ATOM     45  H   UNL     1       1.229  -9.282   7.726  1.00  0.00     0.167 HD
ATOM     46  C   UNL     1       5.039 -10.650   5.976  1.00  0.00     0.037 A 
ATOM     47  C   UNL     1      -0.327  -8.300   9.776  1.00  0.00     0.037 A 
ATOM     48  C   UNL     1       4.241 -11.805   6.311  1.00  0.00     0.049 A 
ATOM     49  C   UNL     1       0.496  -9.499  10.046  1.00  0.00     0.074 A 
ATOM     50  C   UNL     1       3.780 -12.930   5.665  1.00  0.00     0.029 A 
ATOM     51  N   UNL     1       3.449 -11.613   7.413  1.00  0.00    -0.354 N 
ATOM     52  N   UNL     1       0.118 -10.707   9.730  1.00  0.00    -0.248 NA
ATOM     53  C   UNL     1       1.920  -9.338  10.316  1.00  0.00     0.031 C 
ATOM     54  C   UNL     1       2.597 -13.333   6.356  1.00  0.00     0.029 A 
ATOM     55  C   UNL     1       2.394 -12.482   7.440  1.00  0.00     0.049 A 
ATOM     56  H   UNL     1       3.619 -10.930   8.102  1.00  0.00     0.167 HD
ATOM     57  C   UNL     1       1.284 -11.333   9.337  1.00  0.00     0.074 A 
ATOM     58  C   UNL     1       2.364 -10.521   9.883  1.00  0.00     0.031 C 
ATOM     59  C   UNL     1       1.273 -12.243   8.320  1.00  0.00     0.037 A 
BRANCH  46  60
ATOM     60  C   UNL     1       6.227 -10.279   6.843  1.00  0.00     0.064 A 
ATOM     61  C   UNL     1       6.916 -11.312   7.516  1.00  0.00     0.173 A 
ATOM     62  C   UNL     1       6.512  -8.973   7.298  1.00  0.00     0.173 A 
ATOM     63  F   UNL     1       6.718 -12.596   7.179  1.00  0.00    -0.203 F 
ATOM     64  C   UNL     1       7.753 -11.060   8.606  1.00  0.00     0.198 A 
ATOM     65  C   UNL     1       7.386  -8.722   8.355  1.00  0.00     0.198 A 
ATOM     66  F   UNL     1       5.882  -7.894   6.825  1.00  0.00    -0.203 F 
ATOM     67  F   UNL     1       8.287 -12.083   9.288  1.00  0.00    -0.200 F 
ATOM     68  C   UNL     1       7.981  -9.765   9.030  1.00  0.00     0.200 A 
ATOM     69  F   UNL     1       7.575  -7.459   8.765  1.00  0.00    -0.200 F 
ATOM     70  F   UNL     1       8.734  -9.521  10.111  1.00  0.00    -0.200 F 
ENDBRANCH  46  60
BRANCH  47  71
ATOM     71  C   UNL     1      -0.731  -7.355  10.840  1.00  0.00     0.064 A 
ATOM     72  C   UNL     1      -0.987  -7.788  12.150  1.00  0.00     0.173 A 
ATOM     73  C   UNL     1      -0.584  -5.967  10.653  1.00  0.00     0.173 A 
ATOM     74  F   UNL     1      -1.099  -9.097  12.417  1.00  0.00    -0.203 F 
ATOM     75  C   UNL     1      -1.058  -6.887  13.219  1.00  0.00     0.198 A 
ATOM     76  C   UNL     1      -0.654  -5.069  11.720  1.00  0.00     0.198 A 
ATOM     77  F   UNL     1      -0.269  -5.471   9.447  1.00  0.00    -0.203 F 
ATOM     78  F   UNL     1      -1.240  -7.342  14.467  1.00  0.00    -0.200 F 
ATOM     79  C   UNL     1      -0.877  -5.530  13.005  1.00  0.00     0.200 A 
ATOM     80  F   UNL     1      -0.434  -3.764  11.506  1.00  0.00    -0.200 F 
ATOM     81  F   UNL     1      -0.873  -4.676  14.037  1.00  0.00    -0.200 F 
ENDBRANCH  47  71
BRANCH  59  82
ATOM     82  C   UNL     1      -0.024 -12.927   8.021  1.00  0.00     0.064 A 
ATOM     83  C   UNL     1      -1.162 -12.297   7.493  1.00  0.00     0.173 A 
ATOM     84  C   UNL     1      -0.084 -14.312   8.220  1.00  0.00     0.173 A 
ATOM     85  F   UNL     1      -1.156 -10.988   7.209  1.00  0.00    -0.203 F 
ATOM     86  C   UNL     1      -2.319 -13.022   7.212  1.00  0.00     0.198 A 
ATOM     87  C   UNL     1      -1.225 -15.039   7.905  1.00  0.00     0.198 A 
ATOM     88  F   UNL     1       0.990 -14.970   8.688  1.00  0.00    -0.203 F 
ATOM     89  F   UNL     1      -3.402 -12.399   6.725  1.00  0.00    -0.200 F 
ATOM     90  C   UNL     1      -2.347 -14.393   7.413  1.00  0.00     0.200 A 
ATOM     91  F   UNL     1      -1.230 -16.370   8.063  1.00  0.00    -0.200 F 
ATOM     92  F   UNL     1      -3.448 -15.097   7.113  1.00  0.00    -0.200 F 
ENDBRANCH  59  82
ENDBRANCH  33  34
ENDBRANCH  25  28
ENDBRANCH  23  24
ENDBRANCH   1  23
TORSDOF 12
