REMARK SMILES Cc1cccc(NC(=O)COc2ccc(N3C[C@@H](C(=O)NCCCNC(=O)c4ccc(-c5c6nc(c(-c7c(F)c(F)c(F)c(F)c7F)c7ccc([nH]7)c(-c7c(F)c(F)c(F)c(F)c7F)c7nc(c(-c8c(F)c(F)c(F)c(F)c8F)c8ccc5[nH]8)C=C7)C=C6)cc4)CC3=O)cc2)c1
REMARK SMILES IDX 19 1 20 2 21 3 18 5 16 6 17 7 92 8 91 9 93 10 15 11 12 12
REMARK SMILES IDX 13 13 95 14 14 15 94 16 11 17 10 18 8 19 7 20 9 22 6 23 1 24
REMARK SMILES IDX 2 25 3 26 96 27 4 28 5 29 22 30 23 31 24 32 25 33 26 34
REMARK SMILES IDX 27 36 28 37 29 38 90 39 30 40 89 41 31 42 32 43 33 44 83 45
REMARK SMILES IDX 34 46 88 47 82 48 84 49 35 50 87 51 81 52 80 53 36 55 68 56
REMARK SMILES IDX 48 57 67 58 49 59 52 60 66 61 85 62 50 63 51 64 65 66 86 67
REMARK SMILES IDX 53 68 37 69 38 70 46 71 39 72 40 73 44 74 47 75 41 76 42 77
REMARK SMILES IDX 45 78 43 79 69 80 70 81 78 82 71 83 72 84 76 85 79 86 73 87
REMARK SMILES IDX 74 88 77 89 75 90 54 91 55 92 63 93 56 94 57 95 61 96 64 97
REMARK SMILES IDX 58 98 59 99 62 100 60 101
REMARK H PARENT 21 4 7 21 25 35 84 54 52 65
REMARK Flexibility Score: inf
ROOT
ATOM      1  C   UNL     1      -7.050   3.314  -8.892  1.00  0.00     0.225 C 
ATOM      2  O   UNL     1      -7.721   3.058  -9.898  1.00  0.00    -0.275 OA
ATOM      3  N   UNL     1      -7.456   4.378  -8.156  1.00  0.00    -0.356 N 
ATOM      4  H   UNL     1      -8.223   4.854  -8.549  1.00  0.00     0.163 HD
ENDROOT
BRANCH   1   5
ATOM      5  C   UNL     1      -5.841   2.449  -8.577  1.00  0.00     0.107 C 
ATOM      6  N   UNL     1      -4.825   2.261  -6.455  1.00  0.00    -0.312 N 
ATOM      7  C   UNL     1      -5.892   1.708  -7.258  1.00  0.00     0.139 C 
ATOM      8  C   UNL     1      -4.041   3.167  -7.173  1.00  0.00     0.227 C 
ATOM      9  C   UNL     1      -4.517   3.182  -8.601  1.00  0.00     0.116 C 
ATOM     10  O   UNL     1      -3.085   3.826  -6.795  1.00  0.00    -0.274 OA
BRANCH   6  11
ATOM     11  C   UNL     1      -4.636   1.890  -5.097  1.00  0.00     0.044 A 
ATOM     12  C   UNL     1      -4.261   1.128  -2.401  1.00  0.00     0.120 A 
ATOM     13  C   UNL     1      -4.959   0.301  -3.278  1.00  0.00     0.048 A 
ATOM     14  C   UNL     1      -3.735   2.325  -2.870  1.00  0.00     0.048 A 
ATOM     15  C   UNL     1      -5.168   0.690  -4.605  1.00  0.00     0.030 A 
ATOM     16  C   UNL     1      -3.912   2.695  -4.211  1.00  0.00     0.030 A 
BRANCH  12  17
ATOM     17  O   UNL     1      -4.071   0.631  -1.146  1.00  0.00    -0.484 OA
BRANCH  17  18
ATOM     18  C   UNL     1      -4.240   1.539  -0.072  1.00  0.00     0.329 C 
BRANCH  18  19
ATOM     19  C   UNL     1      -3.123   2.520   0.282  1.00  0.00     0.262 C 
ATOM     20  N   UNL     1      -1.809   2.175   0.359  1.00  0.00    -0.323 N 
ATOM     21  H   UNL     1      -1.222   2.951   0.511  1.00  0.00     0.170 HD
ATOM     22  O   UNL     1      -3.402   3.707   0.501  1.00  0.00    -0.271 OA
BRANCH  20  23
ATOM     23  C   UNL     1      -1.097   0.968   0.270  1.00  0.00     0.041 A 
ATOM     24  C   UNL     1       2.610   0.096  -0.084  1.00  0.00     0.044 C 
ATOM     25  C   UNL     1       1.123  -0.044   0.047  1.00  0.00    -0.049 A 
ATOM     26  C   UNL     1       0.539  -1.311   0.069  1.00  0.00     0.003 A 
ATOM     27  C   UNL     1       0.298   1.085   0.152  1.00  0.00     0.029 A 
ATOM     28  C   UNL     1      -0.841  -1.441   0.211  1.00  0.00     0.002 A 
ATOM     29  C   UNL     1      -1.653  -0.307   0.323  1.00  0.00     0.026 A 
ENDBRANCH  20  23
ENDBRANCH  18  19
ENDBRANCH  17  18
ENDBRANCH  12  17
ENDBRANCH   6  11
ENDBRANCH   1   5
BRANCH   3  30
ATOM     30  C   UNL     1      -6.992   4.964  -6.906  1.00  0.00     0.117 C 
BRANCH  30  31
ATOM     31  C   UNL     1      -6.052   6.147  -7.111  1.00  0.00     0.042 C 
BRANCH  31  32
ATOM     32  C   UNL     1      -6.748   7.419  -7.592  1.00  0.00     0.118 C 
BRANCH  32  33
ATOM     33  N   UNL     1      -7.001   8.396  -6.545  1.00  0.00    -0.352 N 
ATOM     34  C   UNL     1      -7.608   9.652  -6.622  1.00  0.00     0.251 C 
ATOM     35  H   UNL     1      -6.698   8.133  -5.646  1.00  0.00     0.163 HD
ATOM     36  O   UNL     1      -7.722  10.338  -5.633  1.00  0.00    -0.269 OA
BRANCH  34  37
ATOM     37  C   UNL     1      -8.232  10.070  -7.902  1.00  0.00     0.039 A 
ATOM     38  C   UNL     1      -9.544  10.560  -7.859  1.00  0.00     0.014 A 
ATOM     39  C   UNL     1      -7.629   9.803  -9.125  1.00  0.00     0.014 A 
ATOM     40  C   UNL     1     -10.329  10.513  -9.010  1.00  0.00     0.010 A 
ATOM     41  C   UNL     1      -8.426   9.660 -10.245  1.00  0.00     0.010 A 
ATOM     42  C   UNL     1      -9.794   9.934 -10.162  1.00  0.00    -0.014 A 
BRANCH  42  43
ATOM     43  C   UNL     1     -10.624   9.397 -11.236  1.00  0.00     0.031 A 
ATOM     44  C   UNL     1     -10.678  10.018 -12.571  1.00  0.00     0.074 A 
ATOM     45  C   UNL     1     -11.266   8.223 -11.032  1.00  0.00     0.049 A 
ATOM     46  N   UNL     1     -11.659   9.851 -13.396  1.00  0.00    -0.248 NA
ATOM     47  C   UNL     1      -9.631  10.892 -13.084  1.00  0.00     0.031 C 
ATOM     48  C   UNL     1     -11.898   7.365 -12.032  1.00  0.00     0.029 A 
ATOM     49  N   UNL     1     -11.652   7.663  -9.803  1.00  0.00    -0.354 N 
ATOM     50  C   UNL     1     -11.261  10.342 -14.613  1.00  0.00     0.074 A 
ATOM     51  C   UNL     1     -10.017  11.035 -14.356  1.00  0.00     0.031 C 
ATOM     52  C   UNL     1     -12.822   6.607 -11.424  1.00  0.00     0.029 A 
ATOM     53  C   UNL     1     -12.911   7.063 -10.049  1.00  0.00     0.049 A 
ATOM     54  H   UNL     1     -11.155   7.683  -8.954  1.00  0.00     0.167 HD
ATOM     55  C   UNL     1     -11.951  10.008 -15.740  1.00  0.00     0.037 A 
ATOM     56  C   UNL     1     -14.039   7.531  -9.440  1.00  0.00     0.037 A 
ATOM     57  C   UNL     1     -13.106   9.161 -15.464  1.00  0.00     0.049 A 
ATOM     58  C   UNL     1     -15.122   8.011 -10.385  1.00  0.00     0.074 A 
ATOM     59  C   UNL     1     -13.366   7.804 -15.571  1.00  0.00     0.029 A 
ATOM     60  N   UNL     1     -14.142   9.681 -14.709  1.00  0.00    -0.354 N 
ATOM     61  N   UNL     1     -14.994   8.096 -11.679  1.00  0.00    -0.248 NA
ATOM     62  C   UNL     1     -16.398   8.555  -9.916  1.00  0.00     0.031 C 
ATOM     63  C   UNL     1     -14.582   7.523 -14.886  1.00  0.00     0.029 A 
ATOM     64  C   UNL     1     -15.057   8.708 -14.359  1.00  0.00     0.049 A 
ATOM     65  H   UNL     1     -14.217  10.629 -14.452  1.00  0.00     0.167 HD
ATOM     66  C   UNL     1     -16.081   8.749 -12.199  1.00  0.00     0.074 A 
ATOM     67  C   UNL     1     -16.932   9.018 -11.057  1.00  0.00     0.031 C 
ATOM     68  C   UNL     1     -16.183   9.072 -13.520  1.00  0.00     0.037 A 
BRANCH  55  69
ATOM     69  C   UNL     1     -11.402  10.277 -17.115  1.00  0.00     0.064 A 
ATOM     70  C   UNL     1     -11.521   9.330 -18.151  1.00  0.00     0.173 A 
ATOM     71  C   UNL     1     -10.698  11.450 -17.446  1.00  0.00     0.173 A 
ATOM     72  F   UNL     1     -12.235   8.209 -17.997  1.00  0.00    -0.203 F 
ATOM     73  C   UNL     1     -10.884   9.493 -19.383  1.00  0.00     0.198 A 
ATOM     74  C   UNL     1     -10.013  11.587 -18.656  1.00  0.00     0.198 A 
ATOM     75  F   UNL     1     -10.668  12.494 -16.605  1.00  0.00    -0.203 F 
ATOM     76  F   UNL     1     -11.019   8.554 -20.329  1.00  0.00    -0.200 F 
ATOM     77  C   UNL     1     -10.096  10.601 -19.620  1.00  0.00     0.200 A 
ATOM     78  F   UNL     1      -9.259  12.674 -18.875  1.00  0.00    -0.200 F 
ATOM     79  F   UNL     1      -9.432  10.725 -20.777  1.00  0.00    -0.200 F 
ENDBRANCH  55  69
BRANCH  56  80
ATOM     80  C   UNL     1     -13.777   8.120  -8.098  1.00  0.00     0.064 A 
ATOM     81  C   UNL     1     -13.182   7.317  -7.104  1.00  0.00     0.173 A 
ATOM     82  C   UNL     1     -13.789   9.504  -7.887  1.00  0.00     0.173 A 
ATOM     83  F   UNL     1     -13.132   5.984  -7.257  1.00  0.00    -0.203 F 
ATOM     84  C   UNL     1     -12.533   7.882  -6.009  1.00  0.00     0.198 A 
ATOM     85  C   UNL     1     -13.161  10.064  -6.775  1.00  0.00     0.198 A 
ATOM     86  F   UNL     1     -14.311  10.329  -8.806  1.00  0.00    -0.203 F 
ATOM     87  F   UNL     1     -11.873   7.097  -5.145  1.00  0.00    -0.200 F 
ATOM     88  C   UNL     1     -12.507   9.257  -5.856  1.00  0.00     0.200 A 
ATOM     89  F   UNL     1     -13.108  11.397  -6.646  1.00  0.00    -0.200 F 
ATOM     90  F   UNL     1     -11.814   9.810  -4.851  1.00  0.00    -0.200 F 
ENDBRANCH  56  80
BRANCH  68  91
ATOM     91  C   UNL     1     -17.364   9.783 -14.118  1.00  0.00     0.064 A 
ATOM     92  C   UNL     1     -18.689   9.446 -13.799  1.00  0.00     0.173 A 
ATOM     93  C   UNL     1     -17.199  10.762 -15.121  1.00  0.00     0.173 A 
ATOM     94  F   UNL     1     -18.956   8.472 -12.916  1.00  0.00    -0.203 F 
ATOM     95  C   UNL     1     -19.774  10.090 -14.397  1.00  0.00     0.198 A 
ATOM     96  C   UNL     1     -18.284  11.364 -15.756  1.00  0.00     0.198 A 
ATOM     97  F   UNL     1     -15.983  11.181 -15.499  1.00  0.00    -0.203 F 
ATOM     98  F   UNL     1     -21.022   9.780 -14.019  1.00  0.00    -0.200 F 
ATOM     99  C   UNL     1     -19.572  11.041 -15.382  1.00  0.00     0.200 A 
ATOM    100  F   UNL     1     -18.070  12.264 -16.727  1.00  0.00    -0.200 F 
ATOM    101  F   UNL     1     -20.614  11.644 -15.968  1.00  0.00    -0.200 F 
ENDBRANCH  68  91
ENDBRANCH  42  43
ENDBRANCH  34  37
ENDBRANCH  32  33
ENDBRANCH  31  32
ENDBRANCH  30  31
ENDBRANCH   3  30
TORSDOF 15
