REMARK SMILES O=C(Cc1ccccc1)Nc1cccc(C(=O)Nc2ccccc2C(=O)NCCCNC(=O)c2ccc(-c3c4nc(c(-c5c(F)c(F)c(F)c(F)c5F)c5ccc([nH]5)c(-c5c(F)c(F)c(F)c(F)c5F)c5nc(c(-c6c(F)c(F)c(F)c(F)c6F)c6ccc3[nH]6)C=C5)C=C4)cc2)c1
REMARK SMILES IDX 25 1 26 2 27 3 24 5 19 6 20 7 21 8 23 9 22 10 18 11 16 12
REMARK SMILES IDX 17 13 15 15 11 16 12 17 97 18 13 19 14 20 10 21 1 22 2 23
REMARK SMILES IDX 3 25 4 26 5 27 9 28 6 29 8 30 7 31 28 32 29 33 30 34 31 35
REMARK SMILES IDX 32 36 33 38 34 39 35 40 96 41 36 42 95 43 37 44 38 45 39 46
REMARK SMILES IDX 89 47 40 48 94 49 88 50 90 51 41 52 93 53 87 54 86 55 42 57
REMARK SMILES IDX 74 58 54 59 73 60 55 61 58 62 72 63 91 64 56 65 57 66 71 68
REMARK SMILES IDX 92 69 59 70 43 71 44 72 52 73 45 74 46 75 50 76 53 77 47 78
REMARK SMILES IDX 48 79 51 80 49 81 75 82 76 83 84 84 77 85 78 86 82 87 85 88
REMARK SMILES IDX 79 89 80 90 83 91 81 92 60 93 61 94 69 95 62 96 63 97 67 98
REMARK SMILES IDX 70 99 64 100 65 101 68 102 66 103
REMARK H PARENT 27 4 18 14 10 24 31 37 90 56 58 67
REMARK Flexibility Score: inf
ROOT
ATOM      1  C   UNL     1       1.623   1.144  -3.914  1.00  0.00     0.253 C 
ATOM      2  O   UNL     1       2.805   0.818  -3.786  1.00  0.00    -0.269 OA
ATOM      3  N   UNL     1       1.059   0.993  -5.149  1.00  0.00    -0.352 N 
ATOM      4  H   UNL     1       1.650   0.586  -5.823  1.00  0.00     0.163 HD
ENDROOT
BRANCH   1   5
ATOM      5  C   UNL     1       0.909   1.779  -2.778  1.00  0.00     0.063 A 
ATOM      6  C   UNL     1      -0.430   1.591  -2.376  1.00  0.00     0.054 A 
ATOM      7  C   UNL     1      -0.940   2.438  -1.373  1.00  0.00     0.027 A 
ATOM      8  C   UNL     1      -0.124   3.351  -0.697  1.00  0.00     0.002 A 
ATOM      9  C   UNL     1       1.724   2.695  -2.072  1.00  0.00     0.016 A 
ATOM     10  C   UNL     1       1.217   3.462  -1.029  1.00  0.00     0.001 A 
BRANCH   6  11
ATOM     11  N   UNL     1      -1.354   0.603  -2.811  1.00  0.00    -0.321 N 
ATOM     12  C   UNL     1      -1.193  -0.710  -3.223  1.00  0.00     0.255 C 
ATOM     13  O   UNL     1      -2.124  -1.299  -3.768  1.00  0.00    -0.269 OA
ATOM     14  H   UNL     1      -2.289   0.911  -2.822  1.00  0.00     0.170 HD
BRANCH  12  15
ATOM     15  C   UNL     1       0.069  -1.430  -2.974  1.00  0.00     0.042 A 
ATOM     16  C   UNL     1       2.068  -1.573  -1.647  1.00  0.00     0.041 A 
ATOM     17  C   UNL     1       2.651  -2.367  -2.642  1.00  0.00     0.026 A 
ATOM     18  C   UNL     1       0.740  -1.201  -1.777  1.00  0.00     0.040 A 
ATOM     19  C   UNL     1       1.914  -2.745  -3.772  1.00  0.00     0.003 A 
ATOM     20  C   UNL     1       0.619  -2.262  -3.950  1.00  0.00     0.014 A 
BRANCH  16  21
ATOM     21  N   UNL     1       2.878  -1.074  -0.612  1.00  0.00    -0.326 N 
ATOM     22  O   UNL     1       1.324   0.068   0.721  1.00  0.00    -0.274 OA
ATOM     23  C   UNL     1       2.474  -0.264   0.444  1.00  0.00     0.228 C 
ATOM     24  H   UNL     1       3.830  -1.324  -0.636  1.00  0.00     0.169 HD
BRANCH  23  25
ATOM     25  C   UNL     1       3.628   0.220   1.292  1.00  0.00     0.135 C 
BRANCH  25  26
ATOM     26  C   UNL     1       4.322  -0.844   2.110  1.00  0.00    -0.039 A 
ATOM     27  C   UNL     1       3.925  -2.190   2.125  1.00  0.00     0.004 A 
ATOM     28  C   UNL     1       5.422  -0.461   2.891  1.00  0.00     0.004 A 
ATOM     29  C   UNL     1       4.638  -3.135   2.861  1.00  0.00     0.000 A 
ATOM     30  C   UNL     1       6.122  -1.404   3.642  1.00  0.00     0.000 A 
ATOM     31  C   UNL     1       5.737  -2.742   3.617  1.00  0.00     0.000 A 
ENDBRANCH  25  26
ENDBRANCH  23  25
ENDBRANCH  16  21
ENDBRANCH  12  15
ENDBRANCH   6  11
ENDBRANCH   1   5
BRANCH   3  32
ATOM     32  C   UNL     1      -0.264   1.332  -5.632  1.00  0.00     0.118 C 
BRANCH  32  33
ATOM     33  C   UNL     1      -0.321   1.504  -7.141  1.00  0.00     0.042 C 
BRANCH  33  34
ATOM     34  C   UNL     1       0.169   0.287  -7.921  1.00  0.00     0.118 C 
BRANCH  34  35
ATOM     35  N   UNL     1      -0.621  -0.925  -7.726  1.00  0.00    -0.352 N 
ATOM     36  C   UNL     1      -1.598  -1.519  -8.490  1.00  0.00     0.251 C 
ATOM     37  H   UNL     1      -0.416  -1.407  -6.892  1.00  0.00     0.163 HD
ATOM     38  O   UNL     1      -2.147  -2.546  -8.100  1.00  0.00    -0.269 OA
BRANCH  36  39
ATOM     39  C   UNL     1      -2.049  -0.888  -9.745  1.00  0.00     0.039 A 
ATOM     40  C   UNL     1      -3.421  -0.749  -9.973  1.00  0.00     0.014 A 
ATOM     41  C   UNL     1      -1.136  -0.378 -10.662  1.00  0.00     0.014 A 
ATOM     42  C   UNL     1      -3.868   0.037 -11.037  1.00  0.00     0.010 A 
ATOM     43  C   UNL     1      -1.574   0.506 -11.639  1.00  0.00     0.010 A 
ATOM     44  C   UNL     1      -2.944   0.748 -11.819  1.00  0.00    -0.014 A 
BRANCH  44  45
ATOM     45  C   UNL     1      -3.363   1.787 -12.796  1.00  0.00     0.031 A 
ATOM     46  C   UNL     1      -2.911   1.696 -14.226  1.00  0.00     0.074 A 
ATOM     47  C   UNL     1      -4.032   2.878 -12.366  1.00  0.00     0.049 A 
ATOM     48  N   UNL     1      -2.957   2.602 -15.170  1.00  0.00    -0.248 NA
ATOM     49  C   UNL     1      -2.279   0.432 -14.638  1.00  0.00     0.031 C 
ATOM     50  C   UNL     1      -4.486   3.115 -10.994  1.00  0.00     0.029 A 
ATOM     51  N   UNL     1      -4.425   4.009 -13.040  1.00  0.00    -0.354 N 
ATOM     52  C   UNL     1      -2.327   2.032 -16.268  1.00  0.00     0.074 A 
ATOM     53  C   UNL     1      -1.866   0.722 -15.863  1.00  0.00     0.031 C 
ATOM     54  C   UNL     1      -5.117   4.298 -10.933  1.00  0.00     0.029 A 
ATOM     55  C   UNL     1      -5.060   4.932 -12.244  1.00  0.00     0.049 A 
ATOM     56  H   UNL     1      -4.268   4.145 -14.002  1.00  0.00     0.167 HD
ATOM     57  C   UNL     1      -2.169   2.547 -17.510  1.00  0.00     0.037 A 
ATOM     58  C   UNL     1      -5.521   6.164 -12.532  1.00  0.00     0.037 A 
ATOM     59  C   UNL     1      -2.680   3.825 -17.927  1.00  0.00     0.049 A 
ATOM     60  C   UNL     1      -5.339   6.706 -13.923  1.00  0.00     0.074 A 
ATOM     61  C   UNL     1      -2.633   4.405 -19.182  1.00  0.00     0.029 A 
ATOM     62  N   UNL     1      -3.349   4.713 -17.098  1.00  0.00    -0.354 N 
ATOM     63  N   UNL     1      -4.770   6.145 -14.961  1.00  0.00    -0.248 NA
ATOM     64  C   UNL     1      -5.853   8.059 -14.178  1.00  0.00     0.031 C 
ATOM     65  C   UNL     1      -3.253   5.657 -19.108  1.00  0.00     0.029 A 
ATOM     66  C   UNL     1      -3.712   5.842 -17.814  1.00  0.00     0.049 A 
ATOM     67  H   UNL     1      -3.538   4.563 -16.144  1.00  0.00     0.167 HD
ATOM     68  C   UNL     1      -4.874   7.064 -15.995  1.00  0.00     0.074 A 
ATOM     69  C   UNL     1      -5.576   8.214 -15.465  1.00  0.00     0.031 C 
ATOM     70  C   UNL     1      -4.421   6.968 -17.268  1.00  0.00     0.037 A 
BRANCH  57  71
ATOM     71  C   UNL     1      -1.432   1.716 -18.517  1.00  0.00     0.064 A 
ATOM     72  C   UNL     1      -2.006   0.561 -19.072  1.00  0.00     0.173 A 
ATOM     73  C   UNL     1      -0.159   2.098 -18.966  1.00  0.00     0.173 A 
ATOM     74  F   UNL     1      -3.215   0.148 -18.665  1.00  0.00    -0.203 F 
ATOM     75  C   UNL     1      -1.321  -0.193 -20.020  1.00  0.00     0.198 A 
ATOM     76  C   UNL     1       0.511   1.356 -19.935  1.00  0.00     0.198 A 
ATOM     77  F   UNL     1       0.431   3.196 -18.471  1.00  0.00    -0.203 F 
ATOM     78  F   UNL     1      -1.871  -1.316 -20.503  1.00  0.00    -0.200 F 
ATOM     79  C   UNL     1      -0.068   0.208 -20.456  1.00  0.00     0.200 A 
ATOM     80  F   UNL     1       1.718   1.750 -20.364  1.00  0.00    -0.200 F 
ATOM     81  F   UNL     1       0.586  -0.515 -21.376  1.00  0.00    -0.200 F 
ENDBRANCH  57  71
BRANCH  58  82
ATOM     82  C   UNL     1      -6.203   6.974 -11.489  1.00  0.00     0.064 A 
ATOM     83  C   UNL     1      -7.580   7.229 -11.571  1.00  0.00     0.173 A 
ATOM     84  C   UNL     1      -5.500   7.527 -10.410  1.00  0.00     0.173 A 
ATOM     85  F   UNL     1      -8.290   6.739 -12.598  1.00  0.00    -0.203 F 
ATOM     86  C   UNL     1      -8.222   8.027 -10.627  1.00  0.00     0.198 A 
ATOM     87  C   UNL     1      -6.148   8.304  -9.452  1.00  0.00     0.198 A 
ATOM     88  F   UNL     1      -4.182   7.311 -10.284  1.00  0.00    -0.203 F 
ATOM     89  F   UNL     1      -9.528   8.297 -10.758  1.00  0.00    -0.200 F 
ATOM     90  C   UNL     1      -7.506   8.561  -9.566  1.00  0.00     0.200 A 
ATOM     91  F   UNL     1      -5.456   8.809  -8.422  1.00  0.00    -0.200 F 
ATOM     92  F   UNL     1      -8.123   9.333  -8.661  1.00  0.00    -0.200 F 
ENDBRANCH  58  82
BRANCH  70  93
ATOM     93  C   UNL     1      -4.694   8.125 -18.179  1.00  0.00     0.064 A 
ATOM     94  C   UNL     1      -3.966   9.319 -18.079  1.00  0.00     0.173 A 
ATOM     95  C   UNL     1      -5.657   8.020 -19.193  1.00  0.00     0.173 A 
ATOM     96  F   UNL     1      -3.048   9.471 -17.113  1.00  0.00    -0.203 F 
ATOM     97  C   UNL     1      -4.204  10.374 -18.955  1.00  0.00     0.198 A 
ATOM     98  C   UNL     1      -5.875   9.068 -20.082  1.00  0.00     0.198 A 
ATOM     99  F   UNL     1      -6.375   6.895 -19.329  1.00  0.00    -0.203 F 
ATOM    100  F   UNL     1      -3.522  11.520 -18.821  1.00  0.00    -0.200 F 
ATOM    101  C   UNL     1      -5.152  10.245 -19.960  1.00  0.00     0.200 A 
ATOM    102  F   UNL     1      -6.784   8.939 -21.058  1.00  0.00    -0.200 F 
ATOM    103  F   UNL     1      -5.372  11.258 -20.808  1.00  0.00    -0.200 F 
ENDBRANCH  70  93
ENDBRANCH  44  45
ENDBRANCH  36  39
ENDBRANCH  34  35
ENDBRANCH  33  34
ENDBRANCH  32  33
ENDBRANCH   3  32
TORSDOF 15
