REMARK SMILES NS(=O)(=O)c1ccc(N2N=C(C(=O)NCCCNC(=O)c3ccc(-c4c5nc(c(-c6c(F)c(F)c(F)c(F)c6F)c6ccc([nH]6)c(-c6c(F)c(F)c(F)c(F)c6F)c6nc(c(-c7c(F)c(F)c(F)c(F)c7F)c7ccc4[nH]7)C=C6)C=C5)cc3)C[C@H]2c2cccs2)cc1
REMARK SMILES IDX 15 1 14 2 12 3 13 4 11 6 9 7 10 8 85 9 84 10 8 11 5 12 6 13
REMARK SMILES IDX 92 14 7 15 91 16 2 17 3 18 4 19 1 20 86 23 87 24 90 25 88 26
REMARK SMILES IDX 89 27 16 28 17 29 18 30 19 31 20 33 21 34 22 35 83 36 23 37
REMARK SMILES IDX 82 38 24 39 25 40 26 41 76 42 27 43 81 44 75 45 77 46 28 47
REMARK SMILES IDX 80 48 74 49 73 50 29 52 61 53 41 54 60 55 42 56 45 57 59 58
REMARK SMILES IDX 78 59 43 60 44 61 58 63 79 64 46 65 30 66 31 67 39 68 32 69
REMARK SMILES IDX 33 70 37 71 40 72 34 73 35 74 38 75 36 76 62 77 63 78 71 79
REMARK SMILES IDX 64 80 65 81 69 82 72 83 66 84 67 85 70 86 68 87 47 88 48 89
REMARK SMILES IDX 56 90 49 91 50 92 54 93 57 94 51 95 52 96 55 97 53 98
REMARK H PARENT 14 5 1 21 1 22 18 32 77 51 45 62
REMARK Flexibility Score: inf
ROOT
ATOM      1  C   UNL     1       2.477   7.714   8.561  1.00  0.00     0.118 C 
ENDROOT
BRANCH   1   2
ATOM      2  N   UNL     1       3.397   6.666   8.172  1.00  0.00    -0.351 N 
ATOM      3  C   UNL     1       3.420   5.723   7.179  1.00  0.00     0.267 C 
ATOM      4  O   UNL     1       4.318   4.885   7.231  1.00  0.00    -0.268 OA
ATOM      5  H   UNL     1       4.188   6.620   8.756  1.00  0.00     0.163 HD
BRANCH   3   6
ATOM      6  C   UNL     1       2.451   5.670   6.008  1.00  0.00     0.128 C 
ATOM      7  N   UNL     1       1.762   5.184   4.046  1.00  0.00    -0.256 N 
ATOM      8  N   UNL     1       2.762   4.990   4.944  1.00  0.00    -0.171 NA
ATOM      9  C   UNL     1       0.686   6.041   4.539  1.00  0.00     0.154 C 
ATOM     10  C   UNL     1       1.070   6.247   6.011  1.00  0.00     0.097 C 
BRANCH   7  11
ATOM     11  C   UNL     1       1.531   4.282   3.012  1.00  0.00     0.060 A 
ATOM     12  C   UNL     1       0.892   2.501   0.937  1.00  0.00     0.082 A 
ATOM     13  C   UNL     1       1.203   2.004   2.204  1.00  0.00     0.024 A 
ATOM     14  C   UNL     1       0.938   3.871   0.683  1.00  0.00     0.024 A 
ATOM     15  C   UNL     1       1.535   2.897   3.231  1.00  0.00     0.029 A 
ATOM     16  C   UNL     1       1.251   4.749   1.720  1.00  0.00     0.029 A 
BRANCH  12  17
ATOM     17  S   UNL     1       0.458   1.418  -0.388  1.00  0.00     0.238 S 
ATOM     18  O   UNL     1       1.062   1.912  -1.608  1.00  0.00    -0.207 OA
ATOM     19  O   UNL     1      -0.945   1.113  -0.283  1.00  0.00    -0.207 OA
BRANCH  17  20
ATOM     20  N   UNL     1       1.277  -0.008  -0.046  1.00  0.00    -0.225 NA
ATOM     21  H   UNL     1       1.078  -0.697  -0.772  1.00  0.00     0.137 HD
ATOM     22  H   UNL     1       0.970  -0.368   0.858  1.00  0.00     0.137 HD
ENDBRANCH  17  20
ENDBRANCH  12  17
ENDBRANCH   7  11
BRANCH   9  23
ATOM     23  C   UNL     1       0.484   7.336   3.770  1.00  0.00     0.030 A 
ATOM     24  C   UNL     1      -0.503   7.602   2.836  1.00  0.00     0.017 A 
ATOM     25  S   UNL     1       1.561   8.668   3.915  1.00  0.00    -0.147 S 
ATOM     26  C   UNL     1      -0.388   8.902   2.267  1.00  0.00     0.012 A 
ATOM     27  C   UNL     1       0.673   9.601   2.793  1.00  0.00     0.065 A 
ENDBRANCH   9  23
ENDBRANCH   3   6
ENDBRANCH   1   2
BRANCH   1  28
ATOM     28  C   UNL     1       1.642   7.288   9.764  1.00  0.00     0.042 C 
BRANCH  28  29
ATOM     29  C   UNL     1       2.434   7.315  11.069  1.00  0.00     0.118 C 
BRANCH  29  30
ATOM     30  N   UNL     1       2.833   8.669  11.433  1.00  0.00    -0.352 N 
ATOM     31  C   UNL     1       2.497   9.438  12.516  1.00  0.00     0.251 C 
ATOM     32  H   UNL     1       3.444   9.103  10.795  1.00  0.00     0.163 HD
ATOM     33  O   UNL     1       2.739  10.641  12.497  1.00  0.00    -0.269 OA
BRANCH  31  34
ATOM     34  C   UNL     1       1.856   8.838  13.705  1.00  0.00     0.039 A 
ATOM     35  C   UNL     1       0.917   9.593  14.415  1.00  0.00     0.014 A 
ATOM     36  C   UNL     1       2.225   7.573  14.168  1.00  0.00     0.014 A 
ATOM     37  C   UNL     1       0.330   9.068  15.567  1.00  0.00     0.010 A 
ATOM     38  C   UNL     1       1.573   7.013  15.262  1.00  0.00     0.010 A 
ATOM     39  C   UNL     1       0.642   7.766  15.990  1.00  0.00    -0.014 A 
BRANCH  39  40
ATOM     40  C   UNL     1       0.046   7.197  17.224  1.00  0.00     0.031 A 
ATOM     41  C   UNL     1       0.929   6.848  18.391  1.00  0.00     0.074 A 
ATOM     42  C   UNL     1      -1.277   6.952  17.275  1.00  0.00     0.049 A 
ATOM     43  N   UNL     1       0.612   6.298  19.536  1.00  0.00    -0.248 NA
ATOM     44  C   UNL     1       2.367   7.122  18.239  1.00  0.00     0.031 C 
ATOM     45  C   UNL     1      -2.225   7.196  16.188  1.00  0.00     0.029 A 
ATOM     46  N   UNL     1      -2.051   6.439  18.284  1.00  0.00    -0.354 N 
ATOM     47  C   UNL     1       1.808   6.140  20.224  1.00  0.00     0.074 A 
ATOM     48  C   UNL     1       2.865   6.596  19.348  1.00  0.00     0.031 C 
ATOM     49  C   UNL     1      -3.459   6.860  16.597  1.00  0.00     0.029 A 
ATOM     50  C   UNL     1      -3.384   6.351  17.963  1.00  0.00     0.049 A 
ATOM     51  H   UNL     1      -1.687   6.159  19.155  1.00  0.00     0.167 HD
ATOM     52  C   UNL     1       2.007   5.685  21.484  1.00  0.00     0.037 A 
ATOM     53  C   UNL     1      -4.425   5.913  18.695  1.00  0.00     0.037 A 
ATOM     54  C   UNL     1       0.948   5.273  22.367  1.00  0.00     0.049 A 
ATOM     55  C   UNL     1      -4.183   5.448  20.105  1.00  0.00     0.074 A 
ATOM     56  C   UNL     1       1.033   4.851  23.681  1.00  0.00     0.029 A 
ATOM     57  N   UNL     1      -0.395   5.239  22.021  1.00  0.00    -0.354 N 
ATOM     58  N   UNL     1      -3.056   5.366  20.768  1.00  0.00    -0.248 NA
ATOM     59  C   UNL     1      -5.364   5.029  20.873  1.00  0.00     0.031 C 
ATOM     60  C   UNL     1      -0.256   4.529  24.121  1.00  0.00     0.029 A 
ATOM     61  C   UNL     1      -1.149   4.795  23.095  1.00  0.00     0.049 A 
ATOM     62  H   UNL     1      -0.759   5.494  21.142  1.00  0.00     0.167 HD
ATOM     63  C   UNL     1      -3.392   4.918  22.038  1.00  0.00     0.074 A 
ATOM     64  C   UNL     1      -4.832   4.761  22.057  1.00  0.00     0.031 C 
ATOM     65  C   UNL     1      -2.583   4.660  23.095  1.00  0.00     0.037 A 
BRANCH  52  66
ATOM     66  C   UNL     1       3.422   5.622  21.983  1.00  0.00     0.064 A 
ATOM     67  C   UNL     1       4.162   6.785  22.248  1.00  0.00     0.173 A 
ATOM     68  C   UNL     1       4.040   4.385  22.221  1.00  0.00     0.173 A 
ATOM     69  F   UNL     1       3.624   7.993  22.024  1.00  0.00    -0.203 F 
ATOM     70  C   UNL     1       5.478   6.712  22.698  1.00  0.00     0.198 A 
ATOM     71  C   UNL     1       5.345   4.316  22.702  1.00  0.00     0.198 A 
ATOM     72  F   UNL     1       3.377   3.241  21.989  1.00  0.00    -0.203 F 
ATOM     73  F   UNL     1       6.182   7.836  22.889  1.00  0.00    -0.200 F 
ATOM     74  C   UNL     1       6.066   5.478  22.931  1.00  0.00     0.200 A 
ATOM     75  F   UNL     1       5.908   3.123  22.939  1.00  0.00    -0.200 F 
ATOM     76  F   UNL     1       7.331   5.409  23.369  1.00  0.00    -0.200 F 
ENDBRANCH  52  66
BRANCH  53  77
ATOM     77  C   UNL     1      -5.797   5.941  18.124  1.00  0.00     0.064 A 
ATOM     78  C   UNL     1      -6.752   6.851  18.598  1.00  0.00     0.173 A 
ATOM     79  C   UNL     1      -6.181   5.066  17.099  1.00  0.00     0.173 A 
ATOM     80  F   UNL     1      -6.436   7.698  19.589  1.00  0.00    -0.203 F 
ATOM     81  C   UNL     1      -8.047   6.868  18.085  1.00  0.00     0.198 A 
ATOM     82  C   UNL     1      -7.468   5.103  16.567  1.00  0.00     0.198 A 
ATOM     83  F   UNL     1      -5.301   4.183  16.604  1.00  0.00    -0.203 F 
ATOM     84  F   UNL     1      -8.953   7.718  18.588  1.00  0.00    -0.200 F 
ATOM     85  C   UNL     1      -8.403   5.997  17.067  1.00  0.00     0.200 A 
ATOM     86  F   UNL     1      -7.804   4.271  15.572  1.00  0.00    -0.200 F 
ATOM     87  F   UNL     1      -9.648   6.016  16.571  1.00  0.00    -0.200 F 
ENDBRANCH  53  77
BRANCH  65  88
ATOM     88  C   UNL     1      -3.242   4.224  24.371  1.00  0.00     0.064 A 
ATOM     89  C   UNL     1      -3.817   2.952  24.507  1.00  0.00     0.173 A 
ATOM     90  C   UNL     1      -3.275   5.084  25.479  1.00  0.00     0.173 A 
ATOM     91  F   UNL     1      -3.824   2.100  23.470  1.00  0.00    -0.203 F 
ATOM     92  C   UNL     1      -4.431   2.569  25.696  1.00  0.00     0.198 A 
ATOM     93  C   UNL     1      -3.861   4.686  26.677  1.00  0.00     0.198 A 
ATOM     94  F   UNL     1      -2.731   6.308  25.402  1.00  0.00    -0.203 F 
ATOM     95  F   UNL     1      -5.022   1.370  25.786  1.00  0.00    -0.200 F 
ATOM     96  C   UNL     1      -4.447   3.433  26.781  1.00  0.00     0.200 A 
ATOM     97  F   UNL     1      -3.865   5.517  27.728  1.00  0.00    -0.200 F 
ATOM     98  F   UNL     1      -5.036   3.062  27.926  1.00  0.00    -0.200 F 
ENDBRANCH  65  88
ENDBRANCH  39  40
ENDBRANCH  31  34
ENDBRANCH  29  30
ENDBRANCH  28  29
ENDBRANCH   1  28
TORSDOF 14
