REMARK SMILES C/C(=C/c1cccc(OCC(=O)NCCCNC(=O)c2ccc(-c3c4nc(c(-c5c(F)c(F)c(F)c(F)c5F)c5ccc([nH]5)c(-c5c(F)c(F)c(F)c(F)c5F)c5nc(c(-c6c(F)c(F)c(F)c(F)c6F)c6ccc3[nH]6)C=C5)C=C4)cc2)c1)c1nc2sccc2c(=O)[nH]1
REMARK SMILES IDX 14 1 13 2 11 3 12 4 10 6 9 7 8 8 4 9 5 10 83 11 6 12 7 13
REMARK SMILES IDX 3 14 1 15 2 16 84 17 85 18 93 19 86 20 91 21 87 23 90 24
REMARK SMILES IDX 92 25 88 26 89 27 15 28 16 29 17 30 18 31 19 33 20 34 21 35
REMARK SMILES IDX 82 36 22 37 81 38 23 39 24 40 25 41 75 42 26 43 80 44 74 45
REMARK SMILES IDX 76 46 27 47 79 48 73 49 72 50 28 52 60 53 40 54 59 55 41 56
REMARK SMILES IDX 44 57 58 58 77 59 42 60 43 61 57 63 78 64 45 65 29 66 30 67
REMARK SMILES IDX 38 68 31 69 32 70 36 71 39 72 33 73 34 74 37 75 35 76 61 77
REMARK SMILES IDX 62 78 70 79 63 80 64 81 68 82 71 83 65 84 66 85 69 86 67 87
REMARK SMILES IDX 46 88 47 89 55 90 48 91 49 92 53 93 56 94 50 95 51 96 54 97
REMARK SMILES IDX 52 98
REMARK H PARENT 13 5 93 22 17 32 76 51 44 62
REMARK Flexibility Score: inf
ROOT
ATOM      1  C   UNL     1       0.524   6.639   5.229  1.00  0.00     0.117 C 
ENDROOT
BRANCH   1   2
ATOM      2  N   UNL     1       1.352   5.573   4.701  1.00  0.00    -0.353 N 
ATOM      3  C   UNL     1       1.962   5.516   3.478  1.00  0.00     0.257 C 
ATOM      4  O   UNL     1       2.859   4.693   3.296  1.00  0.00    -0.271 OA
ATOM      5  H   UNL     1       1.492   4.798   5.293  1.00  0.00     0.163 HD
BRANCH   3   6
ATOM      6  C   UNL     1       1.567   6.496   2.373  1.00  0.00     0.329 C 
BRANCH   6   7
ATOM      7  O   UNL     1       0.178   6.647   2.138  1.00  0.00    -0.484 OA
BRANCH   7   8
ATOM      8  C   UNL     1      -0.488   5.646   1.487  1.00  0.00     0.120 A 
ATOM      9  C   UNL     1      -0.790   3.470   0.445  1.00  0.00    -0.022 A 
ATOM     10  C   UNL     1      -2.128   3.785   0.185  1.00  0.00     0.008 A 
ATOM     11  C   UNL     1       0.032   4.412   1.088  1.00  0.00     0.054 A 
ATOM     12  C   UNL     1      -2.649   5.015   0.581  1.00  0.00     0.004 A 
ATOM     13  C   UNL     1      -1.831   5.936   1.230  1.00  0.00     0.046 A 
BRANCH   9  14
ATOM     14  C   UNL     1      -0.268   2.173  -0.009  1.00  0.00     0.015 C 
ATOM     15  C   UNL     1       0.912  -0.025   0.172  1.00  0.00     0.048 C 
ATOM     16  C   UNL     1       0.332   1.232   0.745  1.00  0.00    -0.008 C 
BRANCH  16  17
ATOM     17  C   UNL     1       0.506   1.397   2.214  1.00  0.00     0.137 A 
ATOM     18  N   UNL     1       1.679   1.415   2.766  1.00  0.00    -0.219 NA
ATOM     19  N   UNL     1      -0.680   1.504   2.910  1.00  0.00    -0.306 N 
ATOM     20  C   UNL     1       1.668   1.634   4.108  1.00  0.00     0.131 A 
ATOM     21  C   UNL     1      -0.745   1.704   4.271  1.00  0.00     0.259 A 
ATOM     22  H   UNL     1      -1.524   1.434   2.408  1.00  0.00     0.171 HD
ATOM     23  S   UNL     1       3.107   1.780   5.016  1.00  0.00    -0.124 S 
ATOM     24  C   UNL     1       0.553   1.792   4.903  1.00  0.00     0.077 A 
ATOM     25  O   UNL     1      -1.804   1.819   4.872  1.00  0.00    -0.269 OA
ATOM     26  C   UNL     1       2.242   2.105   6.459  1.00  0.00     0.068 A 
ATOM     27  C   UNL     1       0.879   2.049   6.267  1.00  0.00     0.028 A 
ENDBRANCH  16  17
ENDBRANCH   9  14
ENDBRANCH   7   8
ENDBRANCH   6   7
ENDBRANCH   3   6
ENDBRANCH   1   2
BRANCH   1  28
ATOM     28  C   UNL     1      -0.963   6.309   5.315  1.00  0.00     0.042 C 
BRANCH  28  29
ATOM     29  C   UNL     1      -1.356   5.197   6.283  1.00  0.00     0.118 C 
BRANCH  29  30
ATOM     30  N   UNL     1      -0.878   5.390   7.644  1.00  0.00    -0.352 N 
ATOM     31  C   UNL     1      -1.542   5.363   8.846  1.00  0.00     0.251 C 
ATOM     32  H   UNL     1       0.087   5.572   7.716  1.00  0.00     0.163 HD
ATOM     33  O   UNL     1      -0.927   5.633   9.875  1.00  0.00    -0.269 OA
BRANCH  31  34
ATOM     34  C   UNL     1      -2.988   5.054   8.928  1.00  0.00     0.039 A 
ATOM     35  C   UNL     1      -3.782   5.829   9.783  1.00  0.00     0.014 A 
ATOM     36  C   UNL     1      -3.566   4.001   8.215  1.00  0.00     0.014 A 
ATOM     37  C   UNL     1      -5.159   5.604   9.860  1.00  0.00     0.010 A 
ATOM     38  C   UNL     1      -4.950   3.812   8.250  1.00  0.00     0.010 A 
ATOM     39  C   UNL     1      -5.762   4.621   9.061  1.00  0.00    -0.014 A 
BRANCH  39  40
ATOM     40  C   UNL     1      -7.240   4.463   9.028  1.00  0.00     0.031 A 
ATOM     41  C   UNL     1      -7.896   3.216   9.550  1.00  0.00     0.074 A 
ATOM     42  C   UNL     1      -7.994   5.426   8.461  1.00  0.00     0.049 A 
ATOM     43  N   UNL     1      -9.164   2.885   9.552  1.00  0.00    -0.248 NA
ATOM     44  C   UNL     1      -7.008   2.198  10.131  1.00  0.00     0.031 C 
ATOM     45  C   UNL     1      -7.480   6.670   7.886  1.00  0.00     0.029 A 
ATOM     46  N   UNL     1      -9.351   5.506   8.266  1.00  0.00    -0.354 N 
ATOM     47  C   UNL     1      -9.225   1.619  10.117  1.00  0.00     0.074 A 
ATOM     48  C   UNL     1      -7.863   1.225  10.413  1.00  0.00     0.031 C 
ATOM     49  C   UNL     1      -8.508   7.397   7.422  1.00  0.00     0.029 A 
ATOM     50  C   UNL     1      -9.749   6.657   7.631  1.00  0.00     0.049 A 
ATOM     51  H   UNL     1      -9.979   4.805   8.555  1.00  0.00     0.167 HD
ATOM     52  C   UNL     1     -10.318   0.860  10.376  1.00  0.00     0.037 A 
ATOM     53  C   UNL     1     -10.974   7.068   7.251  1.00  0.00     0.037 A 
ATOM     54  C   UNL     1     -11.674   1.261  10.100  1.00  0.00     0.049 A 
ATOM     55  C   UNL     1     -12.166   6.194   7.530  1.00  0.00     0.074 A 
ATOM     56  C   UNL     1     -12.849   0.592  10.399  1.00  0.00     0.029 A 
ATOM     57  N   UNL     1     -12.037   2.432   9.451  1.00  0.00    -0.354 N 
ATOM     58  N   UNL     1     -12.220   5.034   8.135  1.00  0.00    -0.248 NA
ATOM     59  C   UNL     1     -13.472   6.693   7.073  1.00  0.00     0.031 C 
ATOM     60  C   UNL     1     -13.919   1.332   9.884  1.00  0.00     0.029 A 
ATOM     61  C   UNL     1     -13.415   2.488   9.311  1.00  0.00     0.049 A 
ATOM     62  H   UNL     1     -11.409   3.121   9.136  1.00  0.00     0.167 HD
ATOM     63  C   UNL     1     -13.561   4.678   8.162  1.00  0.00     0.074 A 
ATOM     64  C   UNL     1     -14.291   5.751   7.519  1.00  0.00     0.031 C 
ATOM     65  C   UNL     1     -14.135   3.563   8.676  1.00  0.00     0.037 A 
BRANCH  52  66
ATOM     66  C   UNL     1     -10.094  -0.495  10.983  1.00  0.00     0.064 A 
ATOM     67  C   UNL     1      -9.664  -0.648  12.310  1.00  0.00     0.173 A 
ATOM     68  C   UNL     1     -10.354  -1.657  10.241  1.00  0.00     0.173 A 
ATOM     69  F   UNL     1      -9.395   0.431  13.061  1.00  0.00    -0.203 F 
ATOM     70  C   UNL     1      -9.472  -1.913  12.860  1.00  0.00     0.198 A 
ATOM     71  C   UNL     1     -10.190  -2.920  10.804  1.00  0.00     0.198 A 
ATOM     72  F   UNL     1     -10.778  -1.569   8.971  1.00  0.00    -0.203 F 
ATOM     73  F   UNL     1      -9.015  -2.034  14.114  1.00  0.00    -0.200 F 
ATOM     74  C   UNL     1      -9.741  -3.047  12.110  1.00  0.00     0.200 A 
ATOM     75  F   UNL     1     -10.465  -4.015  10.082  1.00  0.00    -0.200 F 
ATOM     76  F   UNL     1      -9.562  -4.264  12.643  1.00  0.00    -0.200 F 
ENDBRANCH  52  66
BRANCH  53  77
ATOM     77  C   UNL     1     -11.141   8.387   6.588  1.00  0.00     0.064 A 
ATOM     78  C   UNL     1     -11.776   9.445   7.252  1.00  0.00     0.173 A 
ATOM     79  C   UNL     1     -10.681   8.616   5.283  1.00  0.00     0.173 A 
ATOM     80  F   UNL     1     -12.254   9.266   8.492  1.00  0.00    -0.203 F 
ATOM     81  C   UNL     1     -11.959  10.678   6.631  1.00  0.00     0.198 A 
ATOM     82  C   UNL     1     -10.840   9.858   4.673  1.00  0.00     0.198 A 
ATOM     83  F   UNL     1     -10.066   7.636   4.605  1.00  0.00    -0.203 F 
ATOM     84  F   UNL     1     -12.607  11.659   7.273  1.00  0.00    -0.200 F 
ATOM     85  C   UNL     1     -11.485  10.886   5.345  1.00  0.00     0.200 A 
ATOM     86  F   UNL     1     -10.371  10.059   3.434  1.00  0.00    -0.200 F 
ATOM     87  F   UNL     1     -11.658  12.073   4.748  1.00  0.00    -0.200 F 
ENDBRANCH  53  77
BRANCH  65  88
ATOM     88  C   UNL     1     -15.631   3.461   8.601  1.00  0.00     0.064 A 
ATOM     89  C   UNL     1     -16.295   3.227   7.388  1.00  0.00     0.173 A 
ATOM     90  C   UNL     1     -16.409   3.566   9.765  1.00  0.00     0.173 A 
ATOM     91  F   UNL     1     -15.599   3.136   6.244  1.00  0.00    -0.203 F 
ATOM     92  C   UNL     1     -17.683   3.126   7.339  1.00  0.00     0.198 A 
ATOM     93  C   UNL     1     -17.794   3.435   9.717  1.00  0.00     0.198 A 
ATOM     94  F   UNL     1     -15.823   3.786  10.952  1.00  0.00    -0.203 F 
ATOM     95  F   UNL     1     -18.299   2.949   6.162  1.00  0.00    -0.200 F 
ATOM     96  C   UNL     1     -18.430   3.222   8.504  1.00  0.00     0.200 A 
ATOM     97  F   UNL     1     -18.513   3.516  10.845  1.00  0.00    -0.200 F 
ATOM     98  F   UNL     1     -19.765   3.118   8.456  1.00  0.00    -0.200 F 
ENDBRANCH  65  88
ENDBRANCH  39  40
ENDBRANCH  31  34
ENDBRANCH  29  30
ENDBRANCH  28  29
ENDBRANCH   1  28
TORSDOF 14
