REMARK SMILES CC[C@@H]1CCc2c(sc(NC(=O)COCC(=O)NCCCNC(=O)c3ccc(-c4c5nc(c(-c6c(F)c(F)c(F)c(F)c6F)c6ccc([nH]6)c(-c6c(F)c(F)c(F)c(F)c6F)c6nc(c(-c7c(F)c(F)c(F)c(F)c7F)c7ccc4[nH]7)C=C6)C=C5)cc3)c2C(N)=O)C1
REMARK SMILES IDX 16 1 17 2 18 3 15 5 14 6 13 7 11 8 10 9 12 11 9 12 3 13 4 14
REMARK SMILES IDX 92 15 5 16 7 17 6 18 8 19 88 20 2 21 1 22 89 23 90 24 91 25
REMARK SMILES IDX 19 28 20 29 21 30 22 31 23 32 24 34 25 35 26 36 87 37 27 38
REMARK SMILES IDX 86 39 28 40 29 41 30 42 80 43 31 44 85 45 79 46 81 47 32 48
REMARK SMILES IDX 84 49 78 50 77 51 33 53 65 54 45 55 64 56 46 57 49 58 63 59
REMARK SMILES IDX 82 60 47 61 48 62 62 64 83 65 50 66 34 67 35 68 43 69 36 70
REMARK SMILES IDX 37 71 41 72 44 73 38 74 39 75 42 76 40 77 66 78 67 79 75 80
REMARK SMILES IDX 68 81 69 82 73 83 76 84 70 85 71 86 74 87 72 88 51 89 52 90
REMARK SMILES IDX 60 91 53 92 54 93 58 94 61 95 55 96 56 97 59 98 57 99
REMARK H PARENT 18 4 10 10 90 26 90 27 22 33 81 52 49 63
REMARK Flexibility Score: inf
ROOT
ATOM      1  C   UNL     1       4.480   7.856   3.993  1.00  0.00     0.246 C 
ATOM      2  O   UNL     1       4.679   9.029   4.314  1.00  0.00    -0.272 OA
ATOM      3  N   UNL     1       5.311   6.891   4.487  1.00  0.00    -0.354 N 
ATOM      4  H   UNL     1       6.018   7.205   5.096  1.00  0.00     0.163 HD
ENDROOT
BRANCH   1   5
ATOM      5  C   UNL     1       3.331   7.463   3.057  1.00  0.00     0.260 C 
BRANCH   5   6
ATOM      6  O   UNL     1       3.773   6.983   1.794  1.00  0.00    -0.362 OA
BRANCH   6   7
ATOM      7  C   UNL     1       4.164   8.027   0.920  1.00  0.00     0.261 C 
BRANCH   7   8
ATOM      8  C   UNL     1       3.104   8.457  -0.086  1.00  0.00     0.251 C 
ATOM      9  N   UNL     1       2.361   7.594  -0.826  1.00  0.00    -0.315 N 
ATOM     10  H   UNL     1       1.665   8.047  -1.355  1.00  0.00     0.170 HD
ATOM     11  O   UNL     1       2.877   9.664  -0.248  1.00  0.00    -0.272 OA
BRANCH   9  12
ATOM     12  C   UNL     1       2.362   6.229  -1.004  1.00  0.00     0.108 A 
ATOM     13  C   UNL     1       0.758   1.667  -1.792  1.00  0.00    -0.006 C 
ATOM     14  C   UNL     1       2.291   1.520  -1.927  1.00  0.00     0.009 C 
ATOM     15  C   UNL     1       0.321   3.089  -2.227  1.00  0.00     0.050 C 
ATOM     16  C   UNL     1       3.066   2.516  -1.052  1.00  0.00     0.038 C 
ATOM     17  C   UNL     1       1.248   4.137  -1.683  1.00  0.00     0.011 A 
ATOM     18  C   UNL     1       2.506   3.908  -1.163  1.00  0.00    -0.019 A 
ATOM     19  S   UNL     1       0.870   5.783  -1.734  1.00  0.00    -0.122 S 
ATOM     20  C   UNL     1       3.189   5.142  -0.810  1.00  0.00     0.077 A 
BRANCH  13  21
ATOM     21  C   UNL     1       0.221   1.343  -0.381  1.00  0.00     0.000 C 
ATOM     22  C   UNL     1       0.579  -0.056   0.101  1.00  0.00     0.004 C 
ENDBRANCH  13  21
BRANCH  20  23
ATOM     23  C   UNL     1       4.585   5.119  -0.386  1.00  0.00     0.251 C 
ATOM     24  N   UNL     1       5.415   5.902  -1.172  1.00  0.00    -0.365 N 
ATOM     25  O   UNL     1       5.034   4.392   0.457  1.00  0.00    -0.269 OA
ATOM     26  H   UNL     1       5.029   6.493  -1.858  1.00  0.00     0.159 HD
ATOM     27  H   UNL     1       6.391   5.868  -1.044  1.00  0.00     0.159 HD
ENDBRANCH  20  23
ENDBRANCH   9  12
ENDBRANCH   7   8
ENDBRANCH   6   7
ENDBRANCH   5   6
ENDBRANCH   1   5
BRANCH   3  28
ATOM     28  C   UNL     1       5.290   5.462   4.230  1.00  0.00     0.117 C 
BRANCH  28  29
ATOM     29  C   UNL     1       6.413   5.013   3.301  1.00  0.00     0.042 C 
BRANCH  29  30
ATOM     30  C   UNL     1       7.833   5.271   3.799  1.00  0.00     0.118 C 
BRANCH  30  31
ATOM     31  N   UNL     1       8.137   4.644   5.075  1.00  0.00    -0.352 N 
ATOM     32  C   UNL     1       9.196   3.864   5.469  1.00  0.00     0.251 C 
ATOM     33  H   UNL     1       7.467   4.807   5.779  1.00  0.00     0.163 HD
ATOM     34  O   UNL     1       9.188   3.377   6.598  1.00  0.00    -0.269 OA
BRANCH  32  35
ATOM     35  C   UNL     1      10.332   3.568   4.564  1.00  0.00     0.039 A 
ATOM     36  C   UNL     1      10.879   2.279   4.596  1.00  0.00     0.014 A 
ATOM     37  C   UNL     1      10.903   4.536   3.733  1.00  0.00     0.014 A 
ATOM     38  C   UNL     1      11.942   1.941   3.753  1.00  0.00     0.010 A 
ATOM     39  C   UNL     1      11.929   4.185   2.852  1.00  0.00     0.010 A 
ATOM     40  C   UNL     1      12.454   2.884   2.850  1.00  0.00    -0.014 A 
BRANCH  40  41
ATOM     41  C   UNL     1      13.524   2.519   1.887  1.00  0.00     0.031 A 
ATOM     42  C   UNL     1      14.895   3.120   2.003  1.00  0.00     0.074 A 
ATOM     43  C   UNL     1      13.239   1.697   0.859  1.00  0.00     0.049 A 
ATOM     44  N   UNL     1      15.923   2.997   1.200  1.00  0.00    -0.248 NA
ATOM     45  C   UNL     1      15.137   3.994   3.160  1.00  0.00     0.031 C 
ATOM     46  C   UNL     1      11.936   1.083   0.604  1.00  0.00     0.029 A 
ATOM     47  N   UNL     1      14.025   1.254  -0.176  1.00  0.00    -0.354 N 
ATOM     48  C   UNL     1      16.918   3.802   1.735  1.00  0.00     0.074 A 
ATOM     49  C   UNL     1      16.369   4.421   2.923  1.00  0.00     0.031 C 
ATOM     50  C   UNL     1      12.012   0.338  -0.511  1.00  0.00     0.029 A 
ATOM     51  C   UNL     1      13.360   0.445  -1.063  1.00  0.00     0.049 A 
ATOM     52  H   UNL     1      14.975   1.494  -0.273  1.00  0.00     0.167 HD
ATOM     53  C   UNL     1      18.178   4.001   1.280  1.00  0.00     0.037 A 
ATOM     54  C   UNL     1      13.784  -0.139  -2.199  1.00  0.00     0.037 A 
ATOM     55  C   UNL     1      18.748   3.347   0.132  1.00  0.00     0.049 A 
ATOM     56  C   UNL     1      15.202   0.056  -2.653  1.00  0.00     0.074 A 
ATOM     57  C   UNL     1      20.047   3.415  -0.345  1.00  0.00     0.029 A 
ATOM     58  N   UNL     1      18.055   2.499  -0.717  1.00  0.00    -0.354 N 
ATOM     59  N   UNL     1      16.149   0.778  -2.109  1.00  0.00    -0.248 NA
ATOM     60  C   UNL     1      15.608  -0.645  -3.880  1.00  0.00     0.031 C 
ATOM     61  C   UNL     1      20.133   2.625  -1.498  1.00  0.00     0.029 A 
ATOM     62  C   UNL     1      18.893   2.050  -1.724  1.00  0.00     0.049 A 
ATOM     63  H   UNL     1      17.106   2.254  -0.620  1.00  0.00     0.167 HD
ATOM     64  C   UNL     1      17.265   0.611  -2.916  1.00  0.00     0.074 A 
ATOM     65  C   UNL     1      16.882  -0.289  -3.984  1.00  0.00     0.031 C 
ATOM     66  C   UNL     1      18.497   1.158  -2.782  1.00  0.00     0.037 A 
BRANCH  53  67
ATOM     67  C   UNL     1      19.035   4.973   2.030  1.00  0.00     0.064 A 
ATOM     68  C   UNL     1      19.628   4.634   3.254  1.00  0.00     0.173 A 
ATOM     69  C   UNL     1      19.292   6.246   1.498  1.00  0.00     0.173 A 
ATOM     70  F   UNL     1      19.399   3.433   3.806  1.00  0.00    -0.203 F 
ATOM     71  C   UNL     1      20.435   5.544   3.931  1.00  0.00     0.198 A 
ATOM     72  C   UNL     1      20.114   7.147   2.168  1.00  0.00     0.198 A 
ATOM     73  F   UNL     1      18.748   6.613   0.327  1.00  0.00    -0.203 F 
ATOM     74  F   UNL     1      20.967   5.213   5.117  1.00  0.00    -0.200 F 
ATOM     75  C   UNL     1      20.681   6.797   3.386  1.00  0.00     0.200 A 
ATOM     76  F   UNL     1      20.355   8.354   1.639  1.00  0.00    -0.200 F 
ATOM     77  F   UNL     1      21.460   7.671   4.038  1.00  0.00    -0.200 F 
ENDBRANCH  53  67
BRANCH  54  78
ATOM     78  C   UNL     1      12.847  -0.980  -2.980  1.00  0.00     0.064 A 
ATOM     79  C   UNL     1      12.927  -2.378  -2.929  1.00  0.00     0.173 A 
ATOM     80  C   UNL     1      11.844  -0.405  -3.772  1.00  0.00     0.173 A 
ATOM     81  F   UNL     1      13.886  -2.967  -2.200  1.00  0.00    -0.203 F 
ATOM     82  C   UNL     1      12.039  -3.173  -3.649  1.00  0.00     0.198 A 
ATOM     83  C   UNL     1      10.946  -1.200  -4.479  1.00  0.00     0.198 A 
ATOM     84  F   UNL     1      11.730   0.930  -3.849  1.00  0.00    -0.203 F 
ATOM     85  F   UNL     1      12.149  -4.508  -3.604  1.00  0.00    -0.200 F 
ATOM     86  C   UNL     1      11.046  -2.583  -4.419  1.00  0.00     0.200 A 
ATOM     87  F   UNL     1       9.984  -0.629  -5.217  1.00  0.00    -0.200 F 
ATOM     88  F   UNL     1      10.188  -3.349  -5.108  1.00  0.00    -0.200 F 
ENDBRANCH  54  78
BRANCH  66  89
ATOM     89  C   UNL     1      19.522   0.792  -3.809  1.00  0.00     0.064 A 
ATOM     90  C   UNL     1      19.527   1.394  -5.075  1.00  0.00     0.173 A 
ATOM     91  C   UNL     1      20.528  -0.139  -3.513  1.00  0.00     0.173 A 
ATOM     92  F   UNL     1      18.573   2.278  -5.407  1.00  0.00    -0.203 F 
ATOM     93  C   UNL     1      20.500   1.068  -6.015  1.00  0.00     0.198 A 
ATOM     94  C   UNL     1      21.508  -0.452  -4.450  1.00  0.00     0.198 A 
ATOM     95  F   UNL     1      20.561  -0.740  -2.314  1.00  0.00    -0.203 F 
ATOM     96  F   UNL     1      20.473   1.635  -7.230  1.00  0.00    -0.200 F 
ATOM     97  C   UNL     1      21.492   0.150  -5.700  1.00  0.00     0.200 A 
ATOM     98  F   UNL     1      22.468  -1.337  -4.145  1.00  0.00    -0.200 F 
ATOM     99  F   UNL     1      22.430  -0.161  -6.606  1.00  0.00    -0.200 F 
ENDBRANCH  66  89
ENDBRANCH  40  41
ENDBRANCH  32  35
ENDBRANCH  30  31
ENDBRANCH  29  30
ENDBRANCH  28  29
ENDBRANCH   3  28
TORSDOF 16
