REMARK SMILES COc1cccc(-c2nn(-c3cc4c(cc3C(N)=O)OCO4)cc2C(=O)NCCCNC(=O)c2ccc(-c3c4nc(c(-c5c(F)c(F)c(F)c(F)c5F)c5ccc([nH]5)c(-c5c(F)c(F)c(F)c(F)c5F)c5nc(c(-c6c(F)c(F)c(F)c(F)c6F)c6ccc3[nH]6)C=C5)C=C4)cc2)c1
REMARK SMILES IDX 29 1 28 2 27 3 25 4 26 5 24 7 8 8 9 9 10 10 23 11 7 12 3 13
REMARK SMILES IDX 4 14 97 15 5 16 6 17 2 18 1 19 11 20 12 21 16 22 13 23 15 24
REMARK SMILES IDX 14 25 22 26 20 27 21 28 17 29 18 30 19 31 30 34 31 35 32 36
REMARK SMILES IDX 33 38 34 39 35 40 96 41 36 42 95 43 37 44 38 45 39 46 89 47
REMARK SMILES IDX 40 48 94 49 88 50 90 51 41 52 93 53 87 54 86 55 42 57 74 58
REMARK SMILES IDX 54 59 73 60 55 61 58 62 72 63 91 64 56 65 57 66 71 68 92 69
REMARK SMILES IDX 59 70 43 71 44 72 52 73 45 74 46 75 50 76 53 77 47 78 48 79
REMARK SMILES IDX 51 80 49 81 75 82 76 83 84 84 77 85 78 86 82 87 85 88 79 89
REMARK SMILES IDX 80 90 83 91 81 92 60 93 61 94 69 95 62 96 63 97 67 98 70 99
REMARK SMILES IDX 64 100 65 101 68 102 66 103
REMARK H PARENT 27 6 18 32 18 33 31 37 90 56 58 67
REMARK Flexibility Score: inf
ROOT
ATOM      1  C   UNL     1       6.626   5.520   6.062  1.00  0.00     0.042 C 
ENDROOT
BRANCH   1   2
ATOM      2  C   UNL     1       5.911   4.180   5.861  1.00  0.00     0.118 C 
BRANCH   2   3
ATOM      3  N   UNL     1       4.521   4.350   5.475  1.00  0.00    -0.352 N 
ATOM      4  C   UNL     1       3.892   4.373   4.251  1.00  0.00     0.255 C 
ATOM      5  O   UNL     1       2.666   4.462   4.287  1.00  0.00    -0.269 OA
ATOM      6  H   UNL     1       3.910   4.472   6.237  1.00  0.00     0.163 HD
BRANCH   4   7
ATOM      7  C   UNL     1       4.634   4.271   3.001  1.00  0.00     0.086 A 
ATOM      8  C   UNL     1       4.140   3.972   1.680  1.00  0.00     0.106 A 
ATOM      9  N   UNL     1       5.150   3.857   0.789  1.00  0.00    -0.167 NA
ATOM     10  N   UNL     1       6.257   3.900   1.558  1.00  0.00    -0.239 N 
ATOM     11  C   UNL     1       5.982   4.450   2.784  1.00  0.00     0.129 A 
BRANCH   8  12
ATOM     12  C   UNL     1       2.745   3.801   1.264  1.00  0.00     0.007 A 
ATOM     13  C   UNL     1       0.967   2.432   0.333  1.00  0.00     0.119 A 
ATOM     14  C   UNL     1       0.059   3.469   0.560  1.00  0.00     0.046 A 
ATOM     15  C   UNL     1       2.313   2.601   0.676  1.00  0.00     0.056 A 
ATOM     16  C   UNL     1       0.480   4.667   1.133  1.00  0.00     0.005 A 
ATOM     17  C   UNL     1       1.821   4.835   1.474  1.00  0.00     0.011 A 
BRANCH  13  18
ATOM     18  O   UNL     1       0.426   1.328  -0.270  1.00  0.00    -0.497 OA
ATOM     19  C   UNL     1       1.075   0.089  -0.013  1.00  0.00     0.278 C 
ENDBRANCH  13  18
ENDBRANCH   8  12
BRANCH  10  20
ATOM     20  C   UNL     1       7.558   3.591   1.091  1.00  0.00     0.081 A 
ATOM     21  C   UNL     1       7.959   4.119  -0.148  1.00  0.00     0.079 A 
ATOM     22  C   UNL     1       8.473   2.858   1.908  1.00  0.00     0.069 A 
ATOM     23  C   UNL     1       9.288   3.978  -0.493  1.00  0.00     0.167 A 
ATOM     24  C   UNL     1       9.831   2.832   1.557  1.00  0.00     0.066 A 
ATOM     25  C   UNL     1      10.197   3.382   0.351  1.00  0.00     0.166 A 
ATOM     26  O   UNL     1       9.874   4.397  -1.647  1.00  0.00    -0.454 OA
ATOM     27  O   UNL     1      11.455   3.355  -0.165  1.00  0.00    -0.454 OA
ATOM     28  C   UNL     1      11.193   3.826  -1.503  1.00  0.00     0.468 C 
BRANCH  22  29
ATOM     29  C   UNL     1       8.003   1.944   3.006  1.00  0.00     0.251 C 
ATOM     30  N   UNL     1       8.866   1.001   3.490  1.00  0.00    -0.366 N 
ATOM     31  O   UNL     1       6.858   1.938   3.442  1.00  0.00    -0.269 OA
ATOM     32  H   UNL     1       9.795   0.972   3.165  1.00  0.00     0.159 HD
ATOM     33  H   UNL     1       8.559   0.351   4.163  1.00  0.00     0.159 HD
ENDBRANCH  22  29
ENDBRANCH  10  20
ENDBRANCH   4   7
ENDBRANCH   2   3
ENDBRANCH   1   2
BRANCH   1  34
ATOM     34  C   UNL     1       6.275   6.152   7.401  1.00  0.00     0.118 C 
BRANCH  34  35
ATOM     35  N   UNL     1       6.822   5.391   8.524  1.00  0.00    -0.352 N 
ATOM     36  C   UNL     1       6.636   5.573   9.879  1.00  0.00     0.251 C 
ATOM     37  H   UNL     1       7.409   4.640   8.277  1.00  0.00     0.163 HD
ATOM     38  O   UNL     1       7.414   5.082  10.681  1.00  0.00    -0.269 OA
BRANCH  36  39
ATOM     39  C   UNL     1       5.495   6.378  10.349  1.00  0.00     0.039 A 
ATOM     40  C   UNL     1       5.639   7.233  11.445  1.00  0.00     0.014 A 
ATOM     41  C   UNL     1       4.276   6.280   9.682  1.00  0.00     0.014 A 
ATOM     42  C   UNL     1       4.573   8.052  11.805  1.00  0.00     0.010 A 
ATOM     43  C   UNL     1       3.276   7.184   9.944  1.00  0.00     0.010 A 
ATOM     44  C   UNL     1       3.402   8.043  11.030  1.00  0.00    -0.014 A 
BRANCH  44  45
ATOM     45  C   UNL     1       2.360   9.040  11.259  1.00  0.00     0.031 A 
ATOM     46  C   UNL     1       2.848  10.444  11.185  1.00  0.00     0.074 A 
ATOM     47  C   UNL     1       1.044   8.743  11.314  1.00  0.00     0.049 A 
ATOM     48  N   UNL     1       2.920  11.301  12.147  1.00  0.00    -0.248 NA
ATOM     49  C   UNL     1       3.468  10.906   9.932  1.00  0.00     0.031 C 
ATOM     50  C   UNL     1       0.404   7.446  11.073  1.00  0.00     0.029 A 
ATOM     51  N   UNL     1      -0.023   9.573  11.491  1.00  0.00    -0.354 N 
ATOM     52  C   UNL     1       3.405  12.478  11.581  1.00  0.00     0.074 A 
ATOM     53  C   UNL     1       3.901  12.120  10.279  1.00  0.00     0.031 C 
ATOM     54  C   UNL     1      -0.923   7.621  10.887  1.00  0.00     0.029 A 
ATOM     55  C   UNL     1      -1.251   9.008  11.159  1.00  0.00     0.049 A 
ATOM     56  H   UNL     1       0.067  10.494  11.826  1.00  0.00     0.167 HD
ATOM     57  C   UNL     1       3.107  13.685  12.138  1.00  0.00     0.037 A 
ATOM     58  C   UNL     1      -2.448   9.642  11.088  1.00  0.00     0.037 A 
ATOM     59  C   UNL     1       2.595  13.507  13.476  1.00  0.00     0.049 A 
ATOM     60  C   UNL     1      -2.322  10.900  11.859  1.00  0.00     0.074 A 
ATOM     61  C   UNL     1       3.087  13.001  14.662  1.00  0.00     0.029 A 
ATOM     62  N   UNL     1       1.231  13.544  13.611  1.00  0.00    -0.354 N 
ATOM     63  N   UNL     1      -2.203  10.953  13.155  1.00  0.00    -0.248 NA
ATOM     64  C   UNL     1      -1.925  12.104  11.147  1.00  0.00     0.031 C 
ATOM     65  C   UNL     1       1.972  12.371  15.293  1.00  0.00     0.029 A 
ATOM     66  C   UNL     1       0.843  12.579  14.499  1.00  0.00     0.049 A 
ATOM     67  H   UNL     1       0.628  14.166  13.144  1.00  0.00     0.167 HD
ATOM     68  C   UNL     1      -1.300  11.979  13.376  1.00  0.00     0.074 A 
ATOM     69  C   UNL     1      -1.283  12.739  12.130  1.00  0.00     0.031 C 
ATOM     70  C   UNL     1      -0.443  11.923  14.438  1.00  0.00     0.037 A 
BRANCH  57  71
ATOM     71  C   UNL     1       2.838  14.963  11.363  1.00  0.00     0.064 A 
ATOM     72  C   UNL     1       2.534  16.137  12.088  1.00  0.00     0.173 A 
ATOM     73  C   UNL     1       2.542  15.017   9.985  1.00  0.00     0.173 A 
ATOM     74  F   UNL     1       2.771  16.209  13.406  1.00  0.00    -0.203 F 
ATOM     75  C   UNL     1       1.879  17.224  11.502  1.00  0.00     0.198 A 
ATOM     76  C   UNL     1       1.935  16.125   9.393  1.00  0.00     0.198 A 
ATOM     77  F   UNL     1       2.717  13.973   9.169  1.00  0.00    -0.203 F 
ATOM     78  F   UNL     1       1.478  18.250  12.265  1.00  0.00    -0.200 F 
ATOM     79  C   UNL     1       1.569  17.212  10.156  1.00  0.00     0.200 A 
ATOM     80  F   UNL     1       1.631  16.088   8.087  1.00  0.00    -0.200 F 
ATOM     81  F   UNL     1       0.878  18.218   9.605  1.00  0.00    -0.200 F 
ENDBRANCH  57  71
BRANCH  58  82
ATOM     82  C   UNL     1      -3.623   9.374  10.225  1.00  0.00     0.064 A 
ATOM     83  C   UNL     1      -4.872   9.957  10.508  1.00  0.00     0.173 A 
ATOM     84  C   UNL     1      -3.479   8.795   8.951  1.00  0.00     0.173 A 
ATOM     85  F   UNL     1      -5.085  10.562  11.686  1.00  0.00    -0.203 F 
ATOM     86  C   UNL     1      -5.896   9.999   9.556  1.00  0.00     0.198 A 
ATOM     87  C   UNL     1      -4.505   8.831   8.005  1.00  0.00     0.198 A 
ATOM     88  F   UNL     1      -2.307   8.273   8.563  1.00  0.00    -0.203 F 
ATOM     89  F   UNL     1      -7.043  10.633   9.837  1.00  0.00    -0.200 F 
ATOM     90  C   UNL     1      -5.706   9.450   8.300  1.00  0.00     0.200 A 
ATOM     91  F   UNL     1      -4.298   8.327   6.780  1.00  0.00    -0.200 F 
ATOM     92  F   UNL     1      -6.659   9.555   7.364  1.00  0.00    -0.200 F 
ENDBRANCH  58  82
BRANCH  70  93
ATOM     93  C   UNL     1      -0.771  10.956  15.542  1.00  0.00     0.064 A 
ATOM     94  C   UNL     1      -0.856   9.560  15.391  1.00  0.00     0.173 A 
ATOM     95  C   UNL     1      -0.911  11.472  16.838  1.00  0.00     0.173 A 
ATOM     96  F   UNL     1      -0.635   8.976  14.207  1.00  0.00    -0.203 F 
ATOM     97  C   UNL     1      -1.127   8.732  16.480  1.00  0.00     0.198 A 
ATOM     98  C   UNL     1      -1.136  10.640  17.929  1.00  0.00     0.198 A 
ATOM     99  F   UNL     1      -0.791  12.792  17.052  1.00  0.00    -0.203 F 
ATOM    100  F   UNL     1      -1.233   7.406  16.306  1.00  0.00    -0.200 F 
ATOM    101  C   UNL     1      -1.260   9.272  17.748  1.00  0.00     0.200 A 
ATOM    102  F   UNL     1      -1.214  11.164  19.160  1.00  0.00    -0.200 F 
ATOM    103  F   UNL     1      -1.485   8.473  18.800  1.00  0.00    -0.200 F 
ENDBRANCH  70  93
ENDBRANCH  44  45
ENDBRANCH  36  39
ENDBRANCH  34  35
ENDBRANCH   1  34
TORSDOF 14
