REMARK SMILES CS(=O)(=O)c1ccc(C2=NN(c3ccc(C(=O)NCCCNC(=O)c4ccc(-c5c6nc(c(-c7c(F)c(F)c(F)c(F)c7F)c7ccc([nH]7)c(-c7c(F)c(F)c(F)c(F)c7F)c7nc(c(-c8c(F)c(F)c(F)c(F)c8F)c8ccc5[nH]8)C=C7)C=C6)cc4)cc3)[C@H](c3cccs3)C2)cc1
REMARK SMILES IDX 19 1 18 2 16 3 17 4 15 6 12 7 13 8 89 9 14 10 88 11 11 12
REMARK SMILES IDX 9 13 10 14 96 15 90 16 8 17 5 18 6 19 98 20 7 21 97 22 2 23
REMARK SMILES IDX 1 24 3 25 4 26 91 27 92 28 95 29 93 30 94 31 20 32 21 33
REMARK SMILES IDX 22 34 23 35 24 37 25 38 26 39 87 40 27 41 86 42 28 43 29 44
REMARK SMILES IDX 30 45 80 46 31 47 85 48 79 49 81 50 32 51 84 52 78 53 77 54
REMARK SMILES IDX 33 56 65 57 45 58 64 59 46 60 49 61 63 62 82 63 47 64 48 65
REMARK SMILES IDX 62 67 83 68 50 69 34 70 35 71 43 72 36 73 37 74 41 75 44 76
REMARK SMILES IDX 38 77 39 78 42 79 40 80 66 81 67 82 75 83 68 84 69 85 73 86
REMARK SMILES IDX 76 87 70 88 71 89 74 90 72 91 51 92 52 93 60 94 53 95 54 96
REMARK SMILES IDX 58 97 61 98 55 99 56 100 59 101 57 102
REMARK H PARENT 18 5 22 36 81 55 49 66
REMARK Flexibility Score: inf
ROOT
ATOM      1  C   UNL     1       6.949  -0.439  12.986  1.00  0.00     0.118 C 
ENDROOT
BRANCH   1   2
ATOM      2  N   UNL     1       8.043  -0.054  12.112  1.00  0.00    -0.352 N 
ATOM      3  C   UNL     1       8.056   0.489  10.852  1.00  0.00     0.251 C 
ATOM      4  O   UNL     1       9.145   0.789  10.364  1.00  0.00    -0.269 OA
ATOM      5  H   UNL     1       8.937  -0.212  12.492  1.00  0.00     0.163 HD
BRANCH   3   6
ATOM      6  C   UNL     1       6.810   0.779  10.095  1.00  0.00     0.039 A 
ATOM      7  C   UNL     1       4.477   1.508   8.687  1.00  0.00     0.060 A 
ATOM      8  C   UNL     1       5.657   2.240   8.533  1.00  0.00     0.029 A 
ATOM      9  C   UNL     1       4.502   0.368   9.491  1.00  0.00     0.029 A 
ATOM     10  C   UNL     1       6.814   1.885   9.235  1.00  0.00     0.016 A 
ATOM     11  C   UNL     1       5.661  -0.008  10.169  1.00  0.00     0.016 A 
BRANCH   7  12
ATOM     12  N   UNL     1       3.316   1.861   8.031  1.00  0.00    -0.257 N 
ATOM     13  C   UNL     1       2.121   2.210   6.325  1.00  0.00     0.071 C 
ATOM     14  N   UNL     1       3.197   1.605   6.713  1.00  0.00    -0.176 NA
ATOM     15  C   UNL     1       1.413   3.035   7.365  1.00  0.00     0.091 C 
ATOM     16  C   UNL     1       2.228   2.654   8.614  1.00  0.00     0.154 C 
BRANCH  13  17
ATOM     17  C   UNL     1       1.623   2.084   4.952  1.00  0.00    -0.002 A 
ATOM     18  C   UNL     1       0.784   1.752   2.327  1.00  0.00     0.067 A 
ATOM     19  C   UNL     1       1.121   0.628   3.085  1.00  0.00     0.021 A 
ATOM     20  C   UNL     1       0.870   3.040   2.876  1.00  0.00     0.021 A 
ATOM     21  C   UNL     1       1.555   0.800   4.398  1.00  0.00     0.011 A 
ATOM     22  C   UNL     1       1.280   3.208   4.201  1.00  0.00     0.011 A 
BRANCH  18  23
ATOM     23  S   UNL     1       0.258   1.596   0.636  1.00  0.00     0.175 S 
ATOM     24  C   UNL     1       0.978   0.104   0.008  1.00  0.00     0.163 C 
ATOM     25  O   UNL     1       0.862   2.697  -0.090  1.00  0.00    -0.224 OA
ATOM     26  O   UNL     1      -1.182   1.422   0.675  1.00  0.00    -0.224 OA
ENDBRANCH  18  23
ENDBRANCH  13  17
BRANCH  16  27
ATOM     27  C   UNL     1       1.470   1.978   9.749  1.00  0.00     0.030 A 
ATOM     28  C   UNL     1       1.905   1.861  11.063  1.00  0.00     0.017 A 
ATOM     29  S   UNL     1      -0.046   1.200   9.553  1.00  0.00    -0.147 S 
ATOM     30  C   UNL     1       0.999   1.138  11.891  1.00  0.00     0.012 A 
ATOM     31  C   UNL     1      -0.123   0.749  11.198  1.00  0.00     0.065 A 
ENDBRANCH  16  27
ENDBRANCH   7  12
ENDBRANCH   3   6
ENDBRANCH   1   2
BRANCH   1  32
ATOM     32  C   UNL     1       6.750  -1.954  12.984  1.00  0.00     0.042 C 
BRANCH  32  33
ATOM     33  C   UNL     1       7.835  -2.703  13.750  1.00  0.00     0.118 C 
BRANCH  33  34
ATOM     34  N   UNL     1       7.770  -2.440  15.180  1.00  0.00    -0.352 N 
ATOM     35  C   UNL     1       7.569  -3.299  16.229  1.00  0.00     0.251 C 
ATOM     36  H   UNL     1       7.889  -1.496  15.434  1.00  0.00     0.163 HD
ATOM     37  O   UNL     1       7.302  -2.848  17.339  1.00  0.00    -0.269 OA
BRANCH  35  38
ATOM     38  C   UNL     1       7.660  -4.762  16.034  1.00  0.00     0.039 A 
ATOM     39  C   UNL     1       6.755  -5.587  16.708  1.00  0.00     0.014 A 
ATOM     40  C   UNL     1       8.655  -5.326  15.232  1.00  0.00     0.014 A 
ATOM     41  C   UNL     1       6.812  -6.971  16.533  1.00  0.00     0.010 A 
ATOM     42  C   UNL     1       8.663  -6.699  14.996  1.00  0.00     0.010 A 
ATOM     43  C   UNL     1       7.744  -7.535  15.646  1.00  0.00    -0.014 A 
BRANCH  43  44
ATOM     44  C   UNL     1       7.762  -8.995  15.378  1.00  0.00     0.031 A 
ATOM     45  C   UNL     1       8.964  -9.820  15.744  1.00  0.00     0.074 A 
ATOM     46  C   UNL     1       6.719  -9.563  14.743  1.00  0.00     0.049 A 
ATOM     47  N   UNL     1       9.197 -11.089  15.520  1.00  0.00    -0.248 NA
ATOM     48  C   UNL     1      10.062  -9.121  16.430  1.00  0.00     0.031 C 
ATOM     49  C   UNL     1       5.514  -8.858  14.303  1.00  0.00     0.029 A 
ATOM     50  N   UNL     1       6.508 -10.860  14.346  1.00  0.00    -0.354 N 
ATOM     51  C   UNL     1      10.466 -11.336  16.026  1.00  0.00     0.074 A 
ATOM     52  C   UNL     1      10.976 -10.076  16.520  1.00  0.00     0.031 C 
ATOM     53  C   UNL     1       4.683  -9.732  13.715  1.00  0.00     0.029 A 
ATOM     54  C   UNL     1       5.314 -11.048  13.694  1.00  0.00     0.049 A 
ATOM     55  H   UNL     1       7.152 -11.586  14.512  1.00  0.00     0.167 HD
ATOM     56  C   UNL     1      11.135 -12.513  16.092  1.00  0.00     0.037 A 
ATOM     57  C   UNL     1       4.794 -12.153  13.129  1.00  0.00     0.037 A 
ATOM     58  C   UNL     1      10.615 -13.766  15.608  1.00  0.00     0.049 A 
ATOM     59  C   UNL     1       5.571 -13.440  13.189  1.00  0.00     0.074 A 
ATOM     60  C   UNL     1      11.190 -15.023  15.676  1.00  0.00     0.029 A 
ATOM     61  N   UNL     1       9.399 -13.918  14.956  1.00  0.00    -0.354 N 
ATOM     62  N   UNL     1       6.740 -13.677  13.732  1.00  0.00    -0.248 NA
ATOM     63  C   UNL     1       4.953 -14.615  12.560  1.00  0.00     0.031 C 
ATOM     64  C   UNL     1      10.352 -15.924  15.013  1.00  0.00     0.029 A 
ATOM     65  C   UNL     1       9.222 -15.243  14.589  1.00  0.00     0.049 A 
ATOM     66  H   UNL     1       8.757 -13.193  14.781  1.00  0.00     0.167 HD
ATOM     67  C   UNL     1       6.985 -15.030  13.537  1.00  0.00     0.074 A 
ATOM     68  C   UNL     1       5.833 -15.565  12.842  1.00  0.00     0.031 C 
ATOM     69  C   UNL     1       8.067 -15.763  13.900  1.00  0.00     0.037 A 
BRANCH  56  70
ATOM     70  C   UNL     1      12.508 -12.501  16.703  1.00  0.00     0.064 A 
ATOM     71  C   UNL     1      12.705 -12.263  18.072  1.00  0.00     0.173 A 
ATOM     72  C   UNL     1      13.639 -12.772  15.918  1.00  0.00     0.173 A 
ATOM     73  F   UNL     1      11.660 -11.989  18.868  1.00  0.00    -0.203 F 
ATOM     74  C   UNL     1      13.984 -12.264  18.625  1.00  0.00     0.198 A 
ATOM     75  C   UNL     1      14.913 -12.807  16.480  1.00  0.00     0.198 A 
ATOM     76  F   UNL     1      13.510 -13.015  14.605  1.00  0.00    -0.203 F 
ATOM     77  F   UNL     1      14.150 -11.982  19.924  1.00  0.00    -0.200 F 
ATOM     78  C   UNL     1      15.085 -12.545  17.831  1.00  0.00     0.200 A 
ATOM     79  F   UNL     1      15.975 -13.095  15.714  1.00  0.00    -0.200 F 
ATOM     80  F   UNL     1      16.314 -12.555  18.366  1.00  0.00    -0.200 F 
ENDBRANCH  56  70
BRANCH  57  81
ATOM     81  C   UNL     1       3.464 -12.094  12.466  1.00  0.00     0.064 A 
ATOM     82  C   UNL     1       2.360 -12.772  13.003  1.00  0.00     0.173 A 
ATOM     83  C   UNL     1       3.269 -11.368  11.281  1.00  0.00     0.173 A 
ATOM     84  F   UNL     1       2.500 -13.496  14.123  1.00  0.00    -0.203 F 
ATOM     85  C   UNL     1       1.120 -12.746  12.368  1.00  0.00     0.198 A 
ATOM     86  C   UNL     1       2.020 -11.316  10.666  1.00  0.00     0.198 A 
ATOM     87  F   UNL     1       4.289 -10.697  10.729  1.00  0.00    -0.203 F 
ATOM     88  F   UNL     1       0.096 -13.446  12.876  1.00  0.00    -0.200 F 
ATOM     89  C   UNL     1       0.949 -12.013  11.204  1.00  0.00     0.200 A 
ATOM     90  F   UNL     1       1.855 -10.591   9.550  1.00  0.00    -0.200 F 
ATOM     91  F   UNL     1      -0.244 -11.985  10.596  1.00  0.00    -0.200 F 
ENDBRANCH  57  81
BRANCH  69  92
ATOM     92  C   UNL     1       8.041 -17.231  13.583  1.00  0.00     0.064 A 
ATOM     93  C   UNL     1       8.136 -17.706  12.266  1.00  0.00     0.173 A 
ATOM     94  C   UNL     1       7.955 -18.178  14.616  1.00  0.00     0.173 A 
ATOM     95  F   UNL     1       8.205 -16.843  11.241  1.00  0.00    -0.203 F 
ATOM     96  C   UNL     1       8.113 -19.071  11.993  1.00  0.00     0.198 A 
ATOM     97  C   UNL     1       7.969 -19.543  14.342  1.00  0.00     0.198 A 
ATOM     98  F   UNL     1       7.869 -17.779  15.894  1.00  0.00    -0.203 F 
ATOM     99  F   UNL     1       8.148 -19.499  10.724  1.00  0.00    -0.200 F 
ATOM    100  C   UNL     1       8.039 -19.988  13.031  1.00  0.00     0.200 A 
ATOM    101  F   UNL     1       7.914 -20.427  15.348  1.00  0.00    -0.200 F 
ATOM    102  F   UNL     1       8.025 -21.302  12.767  1.00  0.00    -0.200 F 
ENDBRANCH  69  92
ENDBRANCH  43  44
ENDBRANCH  35  38
ENDBRANCH  33  34
ENDBRANCH  32  33
ENDBRANCH   1  32
TORSDOF 14
