REMARK SMILES O=C(CCN1C(=O)[C@@H]2[C@@H](C1=O)[C@H]1c3ccccc3[C@]2(Br)c2ccccc21)NCCCNC(=O)c1ccc(-c2c3nc(c(-c4c(F)c(F)c(F)c(F)c4F)c4ccc([nH]4)c(-c4c(F)c(F)c(F)c(F)c4F)c4nc(c(-c5c(F)c(F)c(F)c(F)c5F)c5ccc2[nH]5)C=C4)C=C3)cc1
REMARK SMILES IDX 29 1 28 2 27 3 1 4 2 5 3 7 4 8 5 9 6 10 10 11 7 12 8 13 9 14
REMARK SMILES IDX 11 15 19 16 12 17 21 18 20 19 18 20 26 21 13 22 22 23 17 24
REMARK SMILES IDX 25 25 14 26 23 27 16 28 24 29 15 30 30 31 31 32 32 33 33 35
REMARK SMILES IDX 34 36 35 37 96 38 36 39 95 40 37 41 38 42 39 43 89 44 40 45
REMARK SMILES IDX 94 46 88 47 90 48 41 49 93 50 87 51 86 52 42 54 74 55 54 56
REMARK SMILES IDX 73 57 55 58 58 59 72 60 91 61 56 62 57 63 71 65 92 66 59 67
REMARK SMILES IDX 43 68 44 69 52 70 45 71 46 72 50 73 53 74 47 75 48 76 51 77
REMARK SMILES IDX 49 78 75 79 76 80 84 81 77 82 78 83 82 84 85 85 79 86 80 87
REMARK SMILES IDX 83 88 81 89 60 90 61 91 69 92 62 93 63 94 67 95 70 96 64 97
REMARK SMILES IDX 65 98 68 99 66 100
REMARK H PARENT 27 6 31 34 90 53 58 64
REMARK Flexibility Score: inf
ROOT
ATOM      1  C   UNL     1       1.790  -2.053  -2.978  1.00  0.00     0.042 C 
ENDROOT
BRANCH   1   2
ATOM      2  C   UNL     1       1.585  -1.897  -1.477  1.00  0.00     0.117 C 
BRANCH   2   3
ATOM      3  N   UNL     1       2.241  -0.720  -0.949  1.00  0.00    -0.356 N 
ATOM      4  O   UNL     1       0.940  -0.540   0.931  1.00  0.00    -0.275 OA
ATOM      5  C   UNL     1       1.897  -0.168   0.263  1.00  0.00     0.221 C 
ATOM      6  H   UNL     1       2.958  -0.300  -1.475  1.00  0.00     0.163 HD
BRANCH   5   7
ATOM      7  C   UNL     1       2.848   0.906   0.746  1.00  0.00     0.122 C 
BRANCH   7   8
ATOM      8  C   UNL     1       3.915   0.316   1.667  1.00  0.00     0.138 C 
BRANCH   8   9
ATOM      9  N   UNL     1       4.942  -0.534   1.065  1.00  0.00    -0.281 N 
ATOM     10  C   UNL     1       5.856  -1.263   1.845  1.00  0.00     0.235 C 
ATOM     11  C   UNL     1       5.215  -0.702  -0.285  1.00  0.00     0.234 C 
ATOM     12  O   UNL     1       5.847  -1.427   3.048  1.00  0.00    -0.274 OA
ATOM     13  C   UNL     1       6.934  -1.645   0.868  1.00  0.00     0.118 C 
ATOM     14  C   UNL     1       6.003  -1.962  -0.313  1.00  0.00     0.105 C 
ATOM     15  O   UNL     1       4.835  -0.065  -1.251  1.00  0.00    -0.274 OA
ATOM     16  C   UNL     1       8.084  -2.664   0.859  1.00  0.00     0.088 C 
ATOM     17  C   UNL     1       6.788  -2.574  -1.467  1.00  0.00     0.063 C 
ATOM     18  C   UNL     1       8.935  -2.083  -0.343  1.00  0.00    -0.022 A 
ATOM     19  Br  UNL     1       9.040  -2.659   2.526  1.00  0.00    -0.074 Br
ATOM     20  C   UNL     1       7.603  -4.046   0.380  1.00  0.00    -0.022 A 
ATOM     21  C   UNL     1       8.164  -1.949  -1.547  1.00  0.00    -0.035 A 
ATOM     22  C   UNL     1       7.028  -4.002  -0.932  1.00  0.00    -0.035 A 
ATOM     23  C   UNL     1      10.262  -1.675  -0.359  1.00  0.00     0.006 A 
ATOM     24  C   UNL     1       7.733  -5.278   1.014  1.00  0.00     0.006 A 
ATOM     25  C   UNL     1       8.678  -1.359  -2.695  1.00  0.00     0.005 A 
ATOM     26  C   UNL     1       6.740  -5.166  -1.624  1.00  0.00     0.005 A 
ATOM     27  C   UNL     1      10.785  -1.101  -1.527  1.00  0.00     0.000 A 
ATOM     28  C   UNL     1       7.352  -6.444   0.337  1.00  0.00     0.000 A 
ATOM     29  C   UNL     1       9.997  -0.926  -2.675  1.00  0.00     0.000 A 
ATOM     30  C   UNL     1       6.885  -6.390  -0.980  1.00  0.00     0.000 A 
ENDBRANCH   8   9
ENDBRANCH   7   8
ENDBRANCH   5   7
ENDBRANCH   2   3
ENDBRANCH   1   2
BRANCH   1  31
ATOM     31  C   UNL     1       3.214  -2.408  -3.393  1.00  0.00     0.118 C 
BRANCH  31  32
ATOM     32  N   UNL     1       3.590  -3.771  -3.046  1.00  0.00    -0.352 N 
ATOM     33  C   UNL     1       4.183  -4.738  -3.823  1.00  0.00     0.251 C 
ATOM     34  H   UNL     1       3.391  -4.040  -2.120  1.00  0.00     0.163 HD
ATOM     35  O   UNL     1       4.188  -5.903  -3.435  1.00  0.00    -0.269 OA
BRANCH  33  36
ATOM     36  C   UNL     1       4.797  -4.403  -5.131  1.00  0.00     0.039 A 
ATOM     37  C   UNL     1       5.399  -3.167  -5.384  1.00  0.00     0.014 A 
ATOM     38  C   UNL     1       4.714  -5.355  -6.152  1.00  0.00     0.014 A 
ATOM     39  C   UNL     1       5.664  -2.785  -6.694  1.00  0.00     0.010 A 
ATOM     40  C   UNL     1       5.057  -5.002  -7.456  1.00  0.00     0.010 A 
ATOM     41  C   UNL     1       5.428  -3.681  -7.744  1.00  0.00    -0.014 A 
BRANCH  41  42
ATOM     42  C   UNL     1       5.387  -3.192  -9.142  1.00  0.00     0.031 A 
ATOM     43  C   UNL     1       4.062  -3.163  -9.862  1.00  0.00     0.074 A 
ATOM     44  C   UNL     1       6.497  -2.729  -9.739  1.00  0.00     0.049 A 
ATOM     45  N   UNL     1       3.799  -2.869 -11.110  1.00  0.00    -0.248 NA
ATOM     46  C   UNL     1       2.871  -3.521  -9.071  1.00  0.00     0.031 C 
ATOM     47  C   UNL     1       7.817  -2.643  -9.116  1.00  0.00     0.029 A 
ATOM     48  N   UNL     1       6.689  -2.239 -11.005  1.00  0.00    -0.354 N 
ATOM     49  C   UNL     1       2.426  -3.033 -11.256  1.00  0.00     0.074 A 
ATOM     50  C   UNL     1       1.912  -3.484  -9.984  1.00  0.00     0.031 C 
ATOM     51  C   UNL     1       8.681  -2.117  -9.998  1.00  0.00     0.029 A 
ATOM     52  C   UNL     1       7.990  -1.890 -11.264  1.00  0.00     0.049 A 
ATOM     53  H   UNL     1       5.963  -2.147 -11.664  1.00  0.00     0.167 HD
ATOM     54  C   UNL     1       1.664  -2.811 -12.352  1.00  0.00     0.037 A 
ATOM     55  C   UNL     1       8.562  -1.464 -12.406  1.00  0.00     0.037 A 
ATOM     56  C   UNL     1       2.184  -2.333 -13.605  1.00  0.00     0.049 A 
ATOM     57  C   UNL     1       7.707  -1.302 -13.633  1.00  0.00     0.074 A 
ATOM     58  C   UNL     1       1.501  -2.071 -14.779  1.00  0.00     0.029 A 
ATOM     59  N   UNL     1       3.519  -2.041 -13.844  1.00  0.00    -0.354 N 
ATOM     60  N   UNL     1       6.415  -1.483 -13.773  1.00  0.00    -0.248 NA
ATOM     61  C   UNL     1       8.390  -0.881 -14.863  1.00  0.00     0.031 C 
ATOM     62  C   UNL     1       2.429  -1.669 -15.742  1.00  0.00     0.029 A 
ATOM     63  C   UNL     1       3.683  -1.621 -15.153  1.00  0.00     0.049 A 
ATOM     64  H   UNL     1       4.243  -2.120 -13.181  1.00  0.00     0.167 HD
ATOM     65  C   UNL     1       6.127  -1.178 -15.096  1.00  0.00     0.074 A 
ATOM     66  C   UNL     1       7.377  -0.781 -15.712  1.00  0.00     0.031 C 
ATOM     67  C   UNL     1       4.937  -1.226 -15.745  1.00  0.00     0.037 A 
BRANCH  54  68
ATOM     68  C   UNL     1       0.191  -3.090 -12.256  1.00  0.00     0.064 A 
ATOM     69  C   UNL     1      -0.668  -2.279 -11.499  1.00  0.00     0.173 A 
ATOM     70  C   UNL     1      -0.380  -4.147 -12.983  1.00  0.00     0.173 A 
ATOM     71  F   UNL     1      -0.174  -1.267 -10.770  1.00  0.00    -0.203 F 
ATOM     72  C   UNL     1      -2.039  -2.523 -11.463  1.00  0.00     0.198 A 
ATOM     73  C   UNL     1      -1.754  -4.369 -12.970  1.00  0.00     0.198 A 
ATOM     74  F   UNL     1       0.395  -4.953 -13.724  1.00  0.00    -0.203 F 
ATOM     75  F   UNL     1      -2.835  -1.758 -10.703  1.00  0.00    -0.200 F 
ATOM     76  C   UNL     1      -2.583  -3.559 -12.208  1.00  0.00     0.200 A 
ATOM     77  F   UNL     1      -2.278  -5.362 -13.702  1.00  0.00    -0.200 F 
ATOM     78  F   UNL     1      -3.904  -3.780 -12.188  1.00  0.00    -0.200 F 
ENDBRANCH  54  68
BRANCH  55  79
ATOM     79  C   UNL     1      10.017  -1.169 -12.431  1.00  0.00     0.064 A 
ATOM     80  C   UNL     1      10.482   0.144 -12.587  1.00  0.00     0.173 A 
ATOM     81  C   UNL     1      10.973  -2.184 -12.269  1.00  0.00     0.173 A 
ATOM     82  F   UNL     1       9.608   1.146 -12.766  1.00  0.00    -0.203 F 
ATOM     83  C   UNL     1      11.845   0.430 -12.584  1.00  0.00     0.198 A 
ATOM     84  C   UNL     1      12.334  -1.893 -12.235  1.00  0.00     0.198 A 
ATOM     85  F   UNL     1      10.581  -3.457 -12.114  1.00  0.00    -0.203 F 
ATOM     86  F   UNL     1      12.263   1.690 -12.766  1.00  0.00    -0.200 F 
ATOM     87  C   UNL     1      12.770  -0.587 -12.397  1.00  0.00     0.200 A 
ATOM     88  F   UNL     1      13.223  -2.876 -12.034  1.00  0.00    -0.200 F 
ATOM     89  F   UNL     1      14.080  -0.308 -12.374  1.00  0.00    -0.200 F 
ENDBRANCH  55  79
BRANCH  67  90
ATOM     90  C   UNL     1       4.919  -0.815 -17.189  1.00  0.00     0.064 A 
ATOM     91  C   UNL     1       5.494  -1.614 -18.187  1.00  0.00     0.173 A 
ATOM     92  C   UNL     1       4.263   0.362 -17.584  1.00  0.00     0.173 A 
ATOM     93  F   UNL     1       6.141  -2.742 -17.860  1.00  0.00    -0.203 F 
ATOM     94  C   UNL     1       5.434  -1.238 -19.526  1.00  0.00     0.198 A 
ATOM     95  C   UNL     1       4.176   0.716 -18.927  1.00  0.00     0.198 A 
ATOM     96  F   UNL     1       3.687   1.156 -16.669  1.00  0.00    -0.203 F 
ATOM     97  F   UNL     1       6.031  -1.993 -20.459  1.00  0.00    -0.200 F 
ATOM     98  C   UNL     1       4.767  -0.080 -19.896  1.00  0.00     0.200 A 
ATOM     99  F   UNL     1       3.514   1.826 -19.283  1.00  0.00    -0.200 F 
ATOM    100  F   UNL     1       4.699   0.273 -21.187  1.00  0.00    -0.200 F 
ENDBRANCH  67  90
ENDBRANCH  41  42
ENDBRANCH  33  36
ENDBRANCH  31  32
ENDBRANCH   1  31
TORSDOF 12
