REMARK SMILES O=C(NCCCNC(=O)[C@@H]1CCCN(C(=O)CCCc2ccc(Br)s2)C1)c1ccc(-c2c3nc(c(-c4c(F)c(F)c(F)c(F)c4F)c4ccc([nH]4)c(-c4c(F)c(F)c(F)c(F)c4F)c4nc(c(-c5c(F)c(F)c(F)c(F)c5F)c5ccc2[nH]5)C=C4)C=C3)cc1
REMARK SMILES IDX 7 1 8 2 9 3 6 5 5 6 4 7 3 8 1 9 2 10 27 12 28 13 89 14 29 15
REMARK SMILES IDX 88 16 30 17 31 18 32 19 82 20 33 21 87 22 81 23 83 24 34 25
REMARK SMILES IDX 86 26 80 27 79 28 35 30 67 31 47 32 66 33 48 34 51 35 65 36
REMARK SMILES IDX 84 37 49 38 50 39 64 41 85 42 52 43 36 44 37 45 45 46 38 47
REMARK SMILES IDX 39 48 43 49 46 50 40 51 41 52 44 53 42 54 68 55 69 56 77 57
REMARK SMILES IDX 70 58 71 59 75 60 78 61 72 62 73 63 76 64 74 65 53 66 54 67
REMARK SMILES IDX 62 68 55 69 56 70 60 71 63 72 57 73 58 74 61 75 59 76 10 77
REMARK SMILES IDX 11 78 26 79 12 80 14 81 13 82 15 83 16 84 17 85 18 86 19 87
REMARK SMILES IDX 20 88 21 89 25 90 22 91 23 92 24 93
REMARK H PARENT 7 4 3 11 83 29 51 40
REMARK Flexibility Score: inf
ROOT
ATOM      1  N   UNL     1       4.971  -3.446  -2.333  1.00  0.00    -0.356 N 
ATOM      2  C   UNL     1       5.683  -4.429  -2.939  1.00  0.00     0.224 C 
ATOM      3  O   UNL     1       5.878  -4.303  -4.151  1.00  0.00    -0.275 OA
ATOM      4  H   UNL     1       4.674  -2.727  -2.936  1.00  0.00     0.163 HD
ENDROOT
BRANCH   1   5
ATOM      5  C   UNL     1       4.571  -3.271  -0.949  1.00  0.00     0.117 C 
BRANCH   5   6
ATOM      6  C   UNL     1       5.006  -1.930  -0.390  1.00  0.00     0.042 C 
BRANCH   6   7
ATOM      7  C   UNL     1       4.510  -0.748  -1.204  1.00  0.00     0.118 C 
BRANCH   7   8
ATOM      8  N   UNL     1       3.073  -0.530  -1.088  1.00  0.00    -0.352 N 
ATOM      9  O   UNL     1       1.119   0.180  -0.219  1.00  0.00    -0.269 OA
ATOM     10  C   UNL     1       2.339   0.271  -0.242  1.00  0.00     0.251 C 
ATOM     11  H   UNL     1       2.532  -1.047  -1.728  1.00  0.00     0.163 HD
BRANCH  10  12
ATOM     12  C   UNL     1       3.020   1.207   0.681  1.00  0.00     0.039 A 
ATOM     13  C   UNL     1       4.137   1.928   0.274  1.00  0.00     0.014 A 
ATOM     14  C   UNL     1       2.530   1.371   1.981  1.00  0.00     0.014 A 
ATOM     15  C   UNL     1       4.904   2.600   1.213  1.00  0.00     0.010 A 
ATOM     16  C   UNL     1       3.221   2.180   2.890  1.00  0.00     0.010 A 
ATOM     17  C   UNL     1       4.449   2.754   2.531  1.00  0.00    -0.014 A 
BRANCH  17  18
ATOM     18  C   UNL     1       5.271   3.552   3.481  1.00  0.00     0.031 A 
ATOM     19  C   UNL     1       5.812   2.944   4.747  1.00  0.00     0.074 A 
ATOM     20  C   UNL     1       5.584   4.822   3.155  1.00  0.00     0.049 A 
ATOM     21  N   UNL     1       6.585   3.486   5.656  1.00  0.00    -0.248 NA
ATOM     22  C   UNL     1       5.431   1.555   5.043  1.00  0.00     0.031 C 
ATOM     23  C   UNL     1       5.109   5.526   1.960  1.00  0.00     0.029 A 
ATOM     24  N   UNL     1       6.405   5.734   3.768  1.00  0.00    -0.354 N 
ATOM     25  C   UNL     1       6.749   2.523   6.644  1.00  0.00     0.074 A 
ATOM     26  C   UNL     1       5.980   1.367   6.235  1.00  0.00     0.031 C 
ATOM     27  C   UNL     1       5.709   6.721   1.883  1.00  0.00     0.029 A 
ATOM     28  C   UNL     1       6.545   6.905   3.062  1.00  0.00     0.049 A 
ATOM     29  H   UNL     1       6.850   5.566   4.630  1.00  0.00     0.167 HD
ATOM     30  C   UNL     1       7.479   2.596   7.783  1.00  0.00     0.037 A 
ATOM     31  C   UNL     1       7.257   8.012   3.337  1.00  0.00     0.037 A 
ATOM     32  C   UNL     1       8.274   3.736   8.165  1.00  0.00     0.049 A 
ATOM     33  C   UNL     1       8.062   8.060   4.603  1.00  0.00     0.074 A 
ATOM     34  C   UNL     1       9.079   3.893   9.280  1.00  0.00     0.029 A 
ATOM     35  N   UNL     1       8.365   4.915   7.439  1.00  0.00    -0.354 N 
ATOM     36  N   UNL     1       8.223   7.133   5.515  1.00  0.00    -0.248 NA
ATOM     37  C   UNL     1       8.778   9.311   4.879  1.00  0.00     0.031 C 
ATOM     38  C   UNL     1       9.623   5.182   9.252  1.00  0.00     0.029 A 
ATOM     39  C   UNL     1       9.200   5.810   8.092  1.00  0.00     0.049 A 
ATOM     40  H   UNL     1       7.906   5.090   6.586  1.00  0.00     0.167 HD
ATOM     41  C   UNL     1       9.075   7.679   6.463  1.00  0.00     0.074 A 
ATOM     42  C   UNL     1       9.413   9.011   6.003  1.00  0.00     0.031 C 
ATOM     43  C   UNL     1       9.533   7.128   7.614  1.00  0.00     0.037 A 
BRANCH  30  44
ATOM     44  C   UNL     1       7.436   1.420   8.718  1.00  0.00     0.064 A 
ATOM     45  C   UNL     1       8.062   0.203   8.411  1.00  0.00     0.173 A 
ATOM     46  C   UNL     1       6.793   1.530   9.961  1.00  0.00     0.173 A 
ATOM     47  F   UNL     1       8.680   0.040   7.232  1.00  0.00    -0.203 F 
ATOM     48  C   UNL     1       8.023  -0.868   9.302  1.00  0.00     0.198 A 
ATOM     49  C   UNL     1       6.781   0.467  10.861  1.00  0.00     0.198 A 
ATOM     50  F   UNL     1       6.184   2.673  10.310  1.00  0.00    -0.203 F 
ATOM     51  F   UNL     1       8.589  -2.036   8.967  1.00  0.00    -0.200 F 
ATOM     52  C   UNL     1       7.389  -0.733  10.528  1.00  0.00     0.200 A 
ATOM     53  F   UNL     1       6.180   0.604  12.051  1.00  0.00    -0.200 F 
ATOM     54  F   UNL     1       7.360  -1.762  11.386  1.00  0.00    -0.200 F 
ENDBRANCH  30  44
BRANCH  31  55
ATOM     55  C   UNL     1       7.239   9.157   2.391  1.00  0.00     0.064 A 
ATOM     56  C   UNL     1       8.385   9.512   1.667  1.00  0.00     0.173 A 
ATOM     57  C   UNL     1       6.074   9.910   2.180  1.00  0.00     0.173 A 
ATOM     58  F   UNL     1       9.528   8.834   1.847  1.00  0.00    -0.203 F 
ATOM     59  C   UNL     1       8.370  10.586   0.779  1.00  0.00     0.198 A 
ATOM     60  C   UNL     1       6.051  10.962   1.269  1.00  0.00     0.198 A 
ATOM     61  F   UNL     1       4.948   9.606   2.843  1.00  0.00    -0.203 F 
ATOM     62  F   UNL     1       9.490  10.931   0.131  1.00  0.00    -0.200 F 
ATOM     63  C   UNL     1       7.201  11.305   0.575  1.00  0.00     0.200 A 
ATOM     64  F   UNL     1       4.915  11.640   1.060  1.00  0.00    -0.200 F 
ATOM     65  F   UNL     1       7.185  12.331  -0.286  1.00  0.00    -0.200 F 
ENDBRANCH  31  55
BRANCH  43  66
ATOM     66  C   UNL     1      10.486   7.952   8.428  1.00  0.00     0.064 A 
ATOM     67  C   UNL     1      10.061   9.084   9.139  1.00  0.00     0.173 A 
ATOM     68  C   UNL     1      11.840   7.596   8.506  1.00  0.00     0.173 A 
ATOM     69  F   UNL     1       8.779   9.475   9.082  1.00  0.00    -0.203 F 
ATOM     70  C   UNL     1      10.965   9.849   9.871  1.00  0.00     0.198 A 
ATOM     71  C   UNL     1      12.735   8.345   9.263  1.00  0.00     0.198 A 
ATOM     72  F   UNL     1      12.295   6.518   7.848  1.00  0.00    -0.203 F 
ATOM     73  F   UNL     1      10.549  10.959  10.495  1.00  0.00    -0.200 F 
ATOM     74  C   UNL     1      12.299   9.476   9.937  1.00  0.00     0.200 A 
ATOM     75  F   UNL     1      14.022   7.976   9.335  1.00  0.00    -0.200 F 
ATOM     76  F   UNL     1      13.168  10.214  10.641  1.00  0.00    -0.200 F 
ENDBRANCH  43  66
ENDBRANCH  17  18
ENDBRANCH  10  12
ENDBRANCH   7   8
ENDBRANCH   6   7
ENDBRANCH   5   6
ENDBRANCH   1   5
BRANCH   2  77
ATOM     77  C   UNL     1       6.264  -5.586  -2.131  1.00  0.00     0.098 C 
ATOM     78  C   UNL     1       7.093  -6.526  -3.042  1.00  0.00     0.017 C 
ATOM     79  C   UNL     1       5.198  -6.419  -1.414  1.00  0.00     0.132 C 
ATOM     80  C   UNL     1       6.212  -7.411  -3.941  1.00  0.00     0.022 C 
ATOM     81  N   UNL     1       4.371  -7.136  -2.367  1.00  0.00    -0.342 N 
ATOM     82  C   UNL     1       5.113  -8.113  -3.143  1.00  0.00     0.119 C 
BRANCH  81  83
ATOM     83  C   UNL     1       3.082  -6.690  -2.611  1.00  0.00     0.222 C 
ATOM     84  O   UNL     1       2.641  -5.661  -2.091  1.00  0.00    -0.275 OA
BRANCH  83  85
ATOM     85  C   UNL     1       2.161  -7.522  -3.482  1.00  0.00     0.100 C 
BRANCH  85  86
ATOM     86  C   UNL     1       2.038  -7.044  -4.934  1.00  0.00     0.015 C 
BRANCH  86  87
ATOM     87  C   UNL     1       2.895  -7.776  -5.982  1.00  0.00     0.047 C 
BRANCH  87  88
ATOM     88  C   UNL     1       2.823  -9.277  -5.889  1.00  0.00     0.006 A 
ATOM     89  C   UNL     1       1.729 -10.088  -5.644  1.00  0.00     0.016 A 
ATOM     90  S   UNL     1       4.254 -10.220  -6.058  1.00  0.00    -0.133 S 
ATOM     91  C   UNL     1       2.111 -11.434  -5.356  1.00  0.00     0.028 A 
ATOM     92  C   UNL     1       3.466 -11.602  -5.483  1.00  0.00     0.070 A 
ATOM     93  Br  UNL     1       4.362 -13.190  -5.059  1.00  0.00    -0.039 Br
ENDBRANCH  87  88
ENDBRANCH  86  87
ENDBRANCH  85  86
ENDBRANCH  83  85
ENDBRANCH  81  83
ENDBRANCH   2  77
TORSDOF 15
