REMARK SMILES O=C(NCCCNC(=O)[C@H](c1ccccc1)C(c1ccccc1)c1ccccc1)c1ccc(-c2c3nc(c(-c4c(F)c(F)c(F)c(F)c4F)c4ccc([nH]4)c(-c4c(F)c(F)c(F)c(F)c4F)c4nc(c(-c5c(F)c(F)c(F)c(F)c5F)c5ccc2[nH]5)C=C4)C=C3)cc1
REMARK SMILES IDX 5 1 4 2 3 3 1 4 2 5 30 7 31 8 92 9 32 10 91 11 33 12 34 13
REMARK SMILES IDX 35 14 85 15 36 16 90 17 84 18 86 19 37 20 89 21 83 22 82 23
REMARK SMILES IDX 38 25 70 26 50 27 69 28 51 29 54 30 68 31 87 32 52 33 53 34
REMARK SMILES IDX 67 36 88 37 55 38 39 39 40 40 48 41 41 42 42 43 46 44 49 45
REMARK SMILES IDX 43 46 44 47 47 48 45 49 71 50 72 51 80 52 73 53 74 54 78 55
REMARK SMILES IDX 81 56 75 57 76 58 79 59 77 60 56 61 57 62 65 63 58 64 59 65
REMARK SMILES IDX 63 66 66 67 60 68 61 69 64 70 62 71 6 72 7 73 8 74 9 76
REMARK SMILES IDX 10 77 17 78 18 79 19 80 23 81 20 82 22 83 21 84 24 85 25 86
REMARK SMILES IDX 29 87 26 88 28 89 27 90 11 91 12 92 16 93 13 94 15 95 14 96
REMARK H PARENT 3 6 86 24 54 35 7 75
REMARK Flexibility Score: inf
ROOT
ATOM      1  C   UNL     1       4.264  -4.215  -0.322  1.00  0.00     0.042 C 
ENDROOT
BRANCH   1   2
ATOM      2  C   UNL     1       5.116  -4.133   0.935  1.00  0.00     0.118 C 
BRANCH   2   3
ATOM      3  N   UNL     1       5.154  -2.787   1.499  1.00  0.00    -0.352 N 
ATOM      4  O   UNL     1       4.401  -0.936   2.534  1.00  0.00    -0.269 OA
ATOM      5  C   UNL     1       4.313  -2.145   2.383  1.00  0.00     0.251 C 
ATOM      6  H   UNL     1       5.914  -2.241   1.194  1.00  0.00     0.163 HD
BRANCH   5   7
ATOM      7  C   UNL     1       3.280  -2.908   3.119  1.00  0.00     0.039 A 
ATOM      8  C   UNL     1       3.540  -4.197   3.565  1.00  0.00     0.014 A 
ATOM      9  C   UNL     1       2.036  -2.326   3.384  1.00  0.00     0.014 A 
ATOM     10  C   UNL     1       2.505  -4.989   4.030  1.00  0.00     0.010 A 
ATOM     11  C   UNL     1       1.036  -3.076   4.015  1.00  0.00     0.010 A 
ATOM     12  C   UNL     1       1.244  -4.434   4.293  1.00  0.00    -0.014 A 
BRANCH  12  13
ATOM     13  C   UNL     1       0.205  -5.310   4.899  1.00  0.00     0.031 A 
ATOM     14  C   UNL     1      -1.105  -5.566   4.207  1.00  0.00     0.074 A 
ATOM     15  C   UNL     1       0.498  -5.950   6.050  1.00  0.00     0.049 A 
ATOM     16  N   UNL     1      -2.083  -6.362   4.564  1.00  0.00    -0.248 NA
ATOM     17  C   UNL     1      -1.364  -4.828   2.961  1.00  0.00     0.031 C 
ATOM     18  C   UNL     1       1.734  -5.773   6.819  1.00  0.00     0.029 A 
ATOM     19  N   UNL     1      -0.183  -6.915   6.746  1.00  0.00    -0.354 N 
ATOM     20  C   UNL     1      -3.083  -6.188   3.617  1.00  0.00     0.074 A 
ATOM     21  C   UNL     1      -2.603  -5.202   2.674  1.00  0.00     0.031 C 
ATOM     22  C   UNL     1       1.770  -6.670   7.812  1.00  0.00     0.029 A 
ATOM     23  C   UNL     1       0.522  -7.419   7.813  1.00  0.00     0.049 A 
ATOM     24  H   UNL     1      -1.089  -7.217   6.505  1.00  0.00     0.167 HD
ATOM     25  C   UNL     1      -4.289  -6.801   3.542  1.00  0.00     0.037 A 
ATOM     26  C   UNL     1       0.197  -8.373   8.704  1.00  0.00     0.037 A 
ATOM     27  C   UNL     1      -4.741  -7.815   4.461  1.00  0.00     0.049 A 
ATOM     28  C   UNL     1      -1.142  -9.040   8.589  1.00  0.00     0.074 A 
ATOM     29  C   UNL     1      -5.927  -8.528   4.446  1.00  0.00     0.029 A 
ATOM     30  N   UNL     1      -4.021  -8.264   5.559  1.00  0.00    -0.354 N 
ATOM     31  N   UNL     1      -2.070  -8.876   7.679  1.00  0.00    -0.248 NA
ATOM     32  C   UNL     1      -1.484 -10.012   9.634  1.00  0.00     0.031 C 
ATOM     33  C   UNL     1      -5.945  -9.374   5.561  1.00  0.00     0.029 A 
ATOM     34  C   UNL     1      -4.748  -9.227   6.242  1.00  0.00     0.049 A 
ATOM     35  H   UNL     1      -3.126  -7.944   5.816  1.00  0.00     0.167 HD
ATOM     36  C   UNL     1      -3.102  -9.731   8.032  1.00  0.00     0.074 A 
ATOM     37  C   UNL     1      -2.673 -10.432   9.226  1.00  0.00     0.031 C 
ATOM     38  C   UNL     1      -4.301  -9.914   7.427  1.00  0.00     0.037 A 
BRANCH  25  39
ATOM     39  C   UNL     1      -5.224  -6.372   2.446  1.00  0.00     0.064 A 
ATOM     40  C   UNL     1      -4.995  -6.697   1.101  1.00  0.00     0.173 A 
ATOM     41  C   UNL     1      -6.391  -5.655   2.757  1.00  0.00     0.173 A 
ATOM     42  F   UNL     1      -3.890  -7.369   0.747  1.00  0.00    -0.203 F 
ATOM     43  C   UNL     1      -5.885  -6.297   0.106  1.00  0.00     0.198 A 
ATOM     44  C   UNL     1      -7.292  -5.282   1.763  1.00  0.00     0.198 A 
ATOM     45  F   UNL     1      -6.662  -5.324   4.028  1.00  0.00    -0.203 F 
ATOM     46  F   UNL     1      -5.622  -6.578  -1.178  1.00  0.00    -0.200 F 
ATOM     47  C   UNL     1      -7.035  -5.597   0.438  1.00  0.00     0.200 A 
ATOM     48  F   UNL     1      -8.409  -4.617   2.089  1.00  0.00    -0.200 F 
ATOM     49  F   UNL     1      -7.893  -5.219  -0.520  1.00  0.00    -0.200 F 
ENDBRANCH  25  39
BRANCH  26  50
ATOM     50  C   UNL     1       1.157  -8.744   9.776  1.00  0.00     0.064 A 
ATOM     51  C   UNL     1       1.765 -10.006   9.794  1.00  0.00     0.173 A 
ATOM     52  C   UNL     1       1.501  -7.839  10.791  1.00  0.00     0.173 A 
ATOM     53  F   UNL     1       1.456 -10.914   8.856  1.00  0.00    -0.203 F 
ATOM     54  C   UNL     1       2.673 -10.352  10.793  1.00  0.00     0.198 A 
ATOM     55  C   UNL     1       2.434  -8.173  11.769  1.00  0.00     0.198 A 
ATOM     56  F   UNL     1       0.951  -6.616  10.815  1.00  0.00    -0.203 F 
ATOM     57  F   UNL     1       3.212 -11.579  10.810  1.00  0.00    -0.200 F 
ATOM     58  C   UNL     1       3.014  -9.432  11.774  1.00  0.00     0.200 A 
ATOM     59  F   UNL     1       2.774  -7.274  12.702  1.00  0.00    -0.200 F 
ATOM     60  F   UNL     1       3.897  -9.761  12.727  1.00  0.00    -0.200 F 
ENDBRANCH  26  50
BRANCH  38  61
ATOM     61  C   UNL     1      -5.215 -10.936   8.035  1.00  0.00     0.064 A 
ATOM     62  C   UNL     1      -5.867 -10.707   9.255  1.00  0.00     0.173 A 
ATOM     63  C   UNL     1      -5.446 -12.156   7.383  1.00  0.00     0.173 A 
ATOM     64  F   UNL     1      -5.662  -9.562   9.925  1.00  0.00    -0.203 F 
ATOM     65  C   UNL     1      -6.693 -11.676   9.816  1.00  0.00     0.198 A 
ATOM     66  C   UNL     1      -6.296 -13.111   7.932  1.00  0.00     0.198 A 
ATOM     67  F   UNL     1      -4.848 -12.421   6.211  1.00  0.00    -0.203 F 
ATOM     68  F   UNL     1      -7.261 -11.460  11.011  1.00  0.00    -0.200 F 
ATOM     69  C   UNL     1      -6.911 -12.874   9.153  1.00  0.00     0.200 A 
ATOM     70  F   UNL     1      -6.514 -14.264   7.285  1.00  0.00    -0.200 F 
ATOM     71  F   UNL     1      -7.705 -13.807   9.695  1.00  0.00    -0.200 F 
ENDBRANCH  38  61
ENDBRANCH  12  13
ENDBRANCH   5   7
ENDBRANCH   2   3
ENDBRANCH   1   2
BRANCH   1  72
ATOM     72  C   UNL     1       4.882  -3.451  -1.478  1.00  0.00     0.117 C 
BRANCH  72  73
ATOM     73  N   UNL     1       6.210  -3.925  -1.858  1.00  0.00    -0.355 N 
ATOM     74  C   UNL     1       6.795  -4.169  -3.068  1.00  0.00     0.228 C 
ATOM     75  H   UNL     1       6.800  -4.105  -1.090  1.00  0.00     0.163 HD
ATOM     76  O   UNL     1       8.016  -4.364  -3.042  1.00  0.00    -0.274 OA
BRANCH  74  77
ATOM     77  C   UNL     1       6.024  -4.190  -4.404  1.00  0.00     0.120 C 
BRANCH  77  78
ATOM     78  C   UNL     1       4.839  -5.272  -4.373  1.00  0.00     0.066 C 
BRANCH  78  79
ATOM     79  C   UNL     1       3.813  -5.298  -5.547  1.00  0.00    -0.039 A 
ATOM     80  C   UNL     1       3.269  -4.120  -6.076  1.00  0.00     0.004 A 
ATOM     81  C   UNL     1       3.267  -6.488  -6.068  1.00  0.00     0.004 A 
ATOM     82  C   UNL     1       2.461  -4.111  -7.219  1.00  0.00     0.000 A 
ATOM     83  C   UNL     1       2.433  -6.497  -7.194  1.00  0.00     0.000 A 
ATOM     84  C   UNL     1       2.068  -5.304  -7.801  1.00  0.00     0.000 A 
ENDBRANCH  78  79
BRANCH  78  85
ATOM     85  C   UNL     1       5.430  -6.677  -4.026  1.00  0.00    -0.039 A 
ATOM     86  C   UNL     1       5.893  -7.579  -5.000  1.00  0.00     0.004 A 
ATOM     87  C   UNL     1       5.483  -7.104  -2.688  1.00  0.00     0.004 A 
ATOM     88  C   UNL     1       6.233  -8.896  -4.659  1.00  0.00     0.000 A 
ATOM     89  C   UNL     1       5.885  -8.396  -2.338  1.00  0.00     0.000 A 
ATOM     90  C   UNL     1       6.221  -9.307  -3.329  1.00  0.00     0.000 A 
ENDBRANCH  78  85
ENDBRANCH  77  78
BRANCH  77  91
ATOM     91  C   UNL     1       5.777  -2.755  -4.921  1.00  0.00    -0.035 A 
ATOM     92  C   UNL     1       5.393  -1.679  -4.104  1.00  0.00     0.004 A 
ATOM     93  C   UNL     1       5.869  -2.485  -6.299  1.00  0.00     0.004 A 
ATOM     94  C   UNL     1       4.928  -0.469  -4.625  1.00  0.00     0.000 A 
ATOM     95  C   UNL     1       5.426  -1.264  -6.829  1.00  0.00     0.000 A 
ATOM     96  C   UNL     1       4.913  -0.273  -5.995  1.00  0.00     0.000 A 
ENDBRANCH  77  91
ENDBRANCH  74  77
ENDBRANCH  72  73
ENDBRANCH   1  72
TORSDOF 14
