REMARK SMILES O=C(NCCCNC(=O)c1cccc(F)c1N1CCN2C(=O)NC[C@@H]2C1)c1ccc(-c2c3nc(c(-c4c(F)c(F)c(F)c(F)c4F)c4ccc([nH]4)c(-c4c(F)c(F)c(F)c(F)c4F)c4nc(c(-c5c(F)c(F)c(F)c(F)c5F)c5ccc2[nH]5)C=C4)C=C3)cc1
REMARK SMILES IDX 4 1 3 2 1 3 2 4 27 6 28 7 89 8 29 9 88 10 30 11 31 12 32 13
REMARK SMILES IDX 82 14 33 15 87 16 81 17 83 18 34 19 86 20 80 21 79 22 35 24
REMARK SMILES IDX 67 25 47 26 66 27 48 28 51 29 65 30 84 31 49 32 50 33 64 35
REMARK SMILES IDX 85 36 52 37 36 38 37 39 45 40 38 41 39 42 43 43 46 44 40 45
REMARK SMILES IDX 41 46 44 47 42 48 68 49 69 50 77 51 70 52 71 53 75 54 78 55
REMARK SMILES IDX 72 56 73 57 76 58 74 59 53 60 54 61 62 62 55 63 56 64 60 65
REMARK SMILES IDX 63 66 57 67 58 68 61 69 59 70 5 71 6 72 7 73 8 74 9 76 10 77
REMARK SMILES IDX 11 78 16 79 12 80 14 81 13 82 15 83 17 84 18 85 26 86 19 87
REMARK SMILES IDX 25 88 20 89 24 90 21 91 23 92 22 93
REMARK H PARENT 3 5 83 23 51 34 7 75 23 94
REMARK Flexibility Score: inf
ROOT
ATOM      1  C   UNL     1       4.618  -0.579  -1.319  1.00  0.00     0.118 C 
ENDROOT
BRANCH   1   2
ATOM      2  N   UNL     1       3.183  -0.374  -1.151  1.00  0.00    -0.352 N 
ATOM      3  O   UNL     1       1.233   0.036  -0.100  1.00  0.00    -0.269 OA
ATOM      4  C   UNL     1       2.459   0.084  -0.075  1.00  0.00     0.251 C 
ATOM      5  H   UNL     1       2.642  -0.603  -1.940  1.00  0.00     0.163 HD
BRANCH   4   6
ATOM      6  C   UNL     1       3.148   0.601   1.127  1.00  0.00     0.039 A 
ATOM      7  C   UNL     1       4.282   1.401   1.008  1.00  0.00     0.014 A 
ATOM      8  C   UNL     1       2.654   0.281   2.395  1.00  0.00     0.014 A 
ATOM      9  C   UNL     1       5.042   1.691   2.132  1.00  0.00     0.010 A 
ATOM     10  C   UNL     1       3.349   0.692   3.538  1.00  0.00     0.010 A 
ATOM     11  C   UNL     1       4.576   1.359   3.415  1.00  0.00    -0.014 A 
BRANCH  11  12
ATOM     12  C   UNL     1       5.372   1.777   4.598  1.00  0.00     0.031 A 
ATOM     13  C   UNL     1       5.945   0.769   5.554  1.00  0.00     0.074 A 
ATOM     14  C   UNL     1       5.625   3.089   4.770  1.00  0.00     0.049 A 
ATOM     15  N   UNL     1       6.701   0.970   6.606  1.00  0.00    -0.248 NA
ATOM     16  C   UNL     1       5.627  -0.645   5.310  1.00  0.00     0.031 C 
ATOM     17  C   UNL     1       5.118   4.159   3.907  1.00  0.00     0.029 A 
ATOM     18  N   UNL     1       6.391   3.747   5.697  1.00  0.00    -0.354 N 
ATOM     19  C   UNL     1       6.939  -0.284   7.151  1.00  0.00     0.074 A 
ATOM     20  C   UNL     1       6.214  -1.239   6.340  1.00  0.00     0.031 C 
ATOM     21  C   UNL     1       5.642   5.327   4.301  1.00  0.00     0.029 A 
ATOM     22  C   UNL     1       6.452   5.103   5.492  1.00  0.00     0.049 A 
ATOM     23  H   UNL     1       6.851   3.292   6.439  1.00  0.00     0.167 HD
ATOM     24  C   UNL     1       7.705  -0.607   8.221  1.00  0.00     0.037 A 
ATOM     25  C   UNL     1       7.077   6.069   6.190  1.00  0.00     0.037 A 
ATOM     26  C   UNL     1       8.426   0.352   9.021  1.00  0.00     0.049 A 
ATOM     27  C   UNL     1       7.879   5.690   7.400  1.00  0.00     0.074 A 
ATOM     28  C   UNL     1       9.240   0.121  10.116  1.00  0.00     0.029 A 
ATOM     29  N   UNL     1       8.415   1.725   8.816  1.00  0.00    -0.354 N 
ATOM     30  N   UNL     1       8.108   4.499   7.895  1.00  0.00    -0.248 NA
ATOM     31  C   UNL     1       8.504   6.786   8.149  1.00  0.00     0.031 C 
ATOM     32  C   UNL     1       9.672   1.356  10.610  1.00  0.00     0.029 A 
ATOM     33  C   UNL     1       9.188   2.355   9.781  1.00  0.00     0.049 A 
ATOM     34  H   UNL     1       7.930   2.184   8.092  1.00  0.00     0.167 HD
ATOM     35  C   UNL     1       8.917   4.697   9.004  1.00  0.00     0.074 A 
ATOM     36  C   UNL     1       9.154   6.124   9.097  1.00  0.00     0.031 C 
ATOM     37  C   UNL     1       9.416   3.777   9.866  1.00  0.00     0.037 A 
BRANCH  24  38
ATOM     38  C   UNL     1       7.800  -2.059   8.605  1.00  0.00     0.064 A 
ATOM     39  C   UNL     1       7.259  -2.513   9.818  1.00  0.00     0.173 A 
ATOM     40  C   UNL     1       8.481  -2.990   7.806  1.00  0.00     0.173 A 
ATOM     41  F   UNL     1       6.605  -1.666  10.627  1.00  0.00    -0.203 F 
ATOM     42  C   UNL     1       7.405  -3.839  10.220  1.00  0.00     0.198 A 
ATOM     43  C   UNL     1       8.595  -4.323   8.194  1.00  0.00     0.198 A 
ATOM     44  F   UNL     1       9.009  -2.614   6.631  1.00  0.00    -0.203 F 
ATOM     45  F   UNL     1       6.908  -4.239  11.399  1.00  0.00    -0.200 F 
ATOM     46  C   UNL     1       8.067  -4.744   9.405  1.00  0.00     0.200 A 
ATOM     47  F   UNL     1       9.211  -5.202   7.392  1.00  0.00    -0.200 F 
ATOM     48  F   UNL     1       8.191  -6.024   9.784  1.00  0.00    -0.200 F 
ENDBRANCH  24  38
BRANCH  25  49
ATOM     49  C   UNL     1       6.968   7.478   5.732  1.00  0.00     0.064 A 
ATOM     50  C   UNL     1       5.742   8.160   5.767  1.00  0.00     0.173 A 
ATOM     51  C   UNL     1       8.069   8.143   5.180  1.00  0.00     0.173 A 
ATOM     52  F   UNL     1       4.654   7.562   6.276  1.00  0.00    -0.203 F 
ATOM     53  C   UNL     1       5.614   9.440   5.234  1.00  0.00     0.198 A 
ATOM     54  C   UNL     1       7.949   9.436   4.676  1.00  0.00     0.198 A 
ATOM     55  F   UNL     1       9.265   7.537   5.138  1.00  0.00    -0.203 F 
ATOM     56  F   UNL     1       4.419  10.045   5.227  1.00  0.00    -0.200 F 
ATOM     57  C   UNL     1       6.719  10.078   4.691  1.00  0.00     0.200 A 
ATOM     58  F   UNL     1       9.022  10.058   4.170  1.00  0.00    -0.200 F 
ATOM     59  F   UNL     1       6.598  11.310   4.178  1.00  0.00    -0.200 F 
ENDBRANCH  25  49
BRANCH  37  60
ATOM     60  C   UNL     1      10.294   4.274  10.979  1.00  0.00     0.064 A 
ATOM     61  C   UNL     1      11.661   3.956  10.998  1.00  0.00     0.173 A 
ATOM     62  C   UNL     1       9.775   5.004  12.057  1.00  0.00     0.173 A 
ATOM     63  F   UNL     1      12.207   3.253   9.994  1.00  0.00    -0.203 F 
ATOM     64  C   UNL     1      12.471   4.336  12.064  1.00  0.00     0.198 A 
ATOM     65  C   UNL     1      10.596   5.413  13.106  1.00  0.00     0.198 A 
ATOM     66  F   UNL     1       8.478   5.347  12.080  1.00  0.00    -0.203 F 
ATOM     67  F   UNL     1      13.765   3.986  12.079  1.00  0.00    -0.200 F 
ATOM     68  C   UNL     1      11.940   5.069  13.114  1.00  0.00     0.200 A 
ATOM     69  F   UNL     1      10.087   6.146  14.105  1.00  0.00    -0.200 F 
ATOM     70  F   UNL     1      12.723   5.447  14.133  1.00  0.00    -0.200 F 
ENDBRANCH  37  60
ENDBRANCH  11  12
ENDBRANCH   4   6
ENDBRANCH   1   2
BRANCH   1  71
ATOM     71  C   UNL     1       5.014  -2.044  -1.395  1.00  0.00     0.042 C 
BRANCH  71  72
ATOM     72  C   UNL     1       4.454  -2.774  -2.602  1.00  0.00     0.118 C 
BRANCH  72  73
ATOM     73  N   UNL     1       4.870  -2.180  -3.864  1.00  0.00    -0.352 N 
ATOM     74  C   UNL     1       5.688  -2.663  -4.860  1.00  0.00     0.253 C 
ATOM     75  H   UNL     1       4.505  -1.282  -4.034  1.00  0.00     0.163 HD
ATOM     76  O   UNL     1       5.906  -1.948  -5.833  1.00  0.00    -0.269 OA
BRANCH  74  77
ATOM     77  C   UNL     1       6.262  -4.027  -4.753  1.00  0.00     0.066 A 
ATOM     78  C   UNL     1       5.349  -5.084  -4.560  1.00  0.00     0.016 A 
ATOM     79  C   UNL     1       7.640  -4.279  -4.939  1.00  0.00     0.086 A 
ATOM     80  C   UNL     1       5.792  -6.393  -4.415  1.00  0.00     0.004 A 
ATOM     81  C   UNL     1       8.044  -5.623  -4.795  1.00  0.00     0.147 A 
ATOM     82  C   UNL     1       7.150  -6.659  -4.515  1.00  0.00     0.041 A 
ATOM     83  F   UNL     1       9.344  -5.945  -4.907  1.00  0.00    -0.205 F 
BRANCH  79  84
ATOM     84  N   UNL     1       8.553  -3.295  -5.289  1.00  0.00    -0.365 N 
ATOM     85  C   UNL     1       9.505  -3.532  -6.397  1.00  0.00     0.138 C 
ATOM     86  C   UNL     1       8.878  -2.183  -4.381  1.00  0.00     0.143 C 
ATOM     87  C   UNL     1       9.811  -2.233  -7.183  1.00  0.00     0.143 C 
ATOM     88  C   UNL     1       9.022  -0.903  -5.207  1.00  0.00     0.125 C 
ATOM     89  N   UNL     1       9.943  -1.075  -6.318  1.00  0.00    -0.317 N 
ATOM     90  C   UNL     1       9.601   0.312  -4.495  1.00  0.00     0.144 C 
ATOM     91  C   UNL     1      10.572   0.120  -6.613  1.00  0.00     0.317 C 
ATOM     92  N   UNL     1      10.320   0.984  -5.552  1.00  0.00    -0.336 N 
ATOM     93  O   UNL     1      11.225   0.396  -7.604  1.00  0.00    -0.249 OA
ATOM     94  H   UNL     1      10.595   1.929  -5.525  1.00  0.00     0.165 HD
ENDBRANCH  79  84
ENDBRANCH  74  77
ENDBRANCH  72  73
ENDBRANCH  71  72
ENDBRANCH   1  71
TORSDOF 11
