REMARK SMILES CC(C)(C)OC(=O)N1CCC[C@H]1C(=O)N[C@@H](Cc1ccccc1)C(=O)NCCCNC(=O)c1ccc(-c2c3nc(c(-c4c(F)c(F)c(F)c(F)c4F)c4ccc([nH]4)c(-c4c(F)c(F)c(F)c(F)c4F)c4nc(c(-c5c(F)c(F)c(F)c(F)c5F)c5ccc2[nH]5)C=C4)C=C3)cc1
REMARK SMILES IDX 24 1 25 2 26 3 16 5 15 6 13 7 14 8 12 10 8 11 9 12 10 13
REMARK SMILES IDX 11 14 6 15 7 16 5 17 2 18 1 19 3 20 4 21 17 22 18 23 19 24
REMARK SMILES IDX 23 25 20 26 22 27 21 28 27 29 28 30 29 31 30 32 31 33 32 35
REMARK SMILES IDX 33 36 34 37 95 38 35 39 94 40 36 41 37 42 38 43 88 44 39 45
REMARK SMILES IDX 93 46 87 47 89 48 40 49 92 50 86 51 85 52 41 54 73 55 53 56
REMARK SMILES IDX 72 57 54 58 57 59 71 60 90 61 55 62 56 63 70 65 91 66 58 67
REMARK SMILES IDX 42 68 43 69 51 70 44 71 45 72 49 73 52 74 46 75 47 76 50 77
REMARK SMILES IDX 48 78 74 79 75 80 83 81 76 82 77 83 81 84 84 85 78 86 79 87
REMARK SMILES IDX 82 88 80 89 59 90 60 91 68 92 61 93 62 94 66 95 69 96 63 97
REMARK SMILES IDX 64 98 67 99 65 100
REMARK H PARENT 26 4 15 9 30 34 89 53 57 64
REMARK Flexibility Score: inf
ROOT
ATOM      1  C   UNL     1       0.086   5.819  -0.023  1.00  0.00     0.242 C 
ATOM      2  O   UNL     1       0.859   4.912  -0.345  1.00  0.00    -0.273 OA
ATOM      3  N   UNL     1       0.322   7.018  -0.610  1.00  0.00    -0.354 N 
ATOM      4  H   UNL     1       1.108   7.042  -1.202  1.00  0.00     0.163 HD
ENDROOT
BRANCH   1   5
ATOM      5  C   UNL     1      -1.022   5.584   1.022  1.00  0.00     0.175 C 
BRANCH   5   6
ATOM      6  N   UNL     1      -0.766   6.365   2.225  1.00  0.00    -0.342 N 
ATOM      7  C   UNL     1      -0.092   6.038   3.363  1.00  0.00     0.243 C 
ATOM      8  O   UNL     1       0.046   6.980   4.156  1.00  0.00    -0.273 OA
ATOM      9  H   UNL     1      -1.140   7.276   2.213  1.00  0.00     0.164 HD
BRANCH   7  10
ATOM     10  C   UNL     1       0.278   4.573   3.785  1.00  0.00     0.178 C 
ATOM     11  N   UNL     1       0.946   3.706   2.808  1.00  0.00    -0.296 N 
ATOM     12  C   UNL     1       2.370   3.666   3.054  1.00  0.00     0.124 C 
ATOM     13  C   UNL     1       2.416   3.663   4.572  1.00  0.00     0.024 C 
ATOM     14  C   UNL     1       1.278   4.606   4.967  1.00  0.00     0.037 C 
BRANCH  11  15
ATOM     15  C   UNL     1       0.283   2.728   2.093  1.00  0.00     0.410 C 
ATOM     16  O   UNL     1      -0.900   2.473   2.273  1.00  0.00    -0.224 OA
BRANCH  15  17
ATOM     17  O   UNL     1       1.072   2.174   1.141  1.00  0.00    -0.444 OA
BRANCH  17  18
ATOM     18  C   UNL     1       0.598   1.317   0.060  1.00  0.00     0.106 C 
ATOM     19  C   UNL     1       1.272  -0.044   0.253  1.00  0.00     0.056 C 
ATOM     20  C   UNL     1       1.111   1.940  -1.246  1.00  0.00     0.056 C 
ATOM     21  C   UNL     1      -0.920   1.134  -0.062  1.00  0.00     0.056 C 
ENDBRANCH  17  18
ENDBRANCH  15  17
ENDBRANCH  11  15
ENDBRANCH   7  10
ENDBRANCH   5   6
BRANCH   5  22
ATOM     22  C   UNL     1      -2.489   5.536   0.546  1.00  0.00     0.070 C 
BRANCH  22  23
ATOM     23  C   UNL     1      -3.095   6.731  -0.142  1.00  0.00    -0.045 A 
ATOM     24  C   UNL     1      -3.526   7.848   0.589  1.00  0.00     0.004 A 
ATOM     25  C   UNL     1      -3.220   6.747  -1.541  1.00  0.00     0.004 A 
ATOM     26  C   UNL     1      -3.993   8.986  -0.073  1.00  0.00     0.000 A 
ATOM     27  C   UNL     1      -3.699   7.881  -2.199  1.00  0.00     0.000 A 
ATOM     28  C   UNL     1      -4.067   9.007  -1.466  1.00  0.00     0.000 A 
ENDBRANCH  22  23
ENDBRANCH   5  22
ENDBRANCH   1   5
BRANCH   3  29
ATOM     29  C   UNL     1      -0.396   8.264  -0.506  1.00  0.00     0.117 C 
BRANCH  29  30
ATOM     30  C   UNL     1       0.504   9.479  -0.504  1.00  0.00     0.042 C 
BRANCH  30  31
ATOM     31  C   UNL     1       1.233   9.671  -1.823  1.00  0.00     0.118 C 
BRANCH  31  32
ATOM     32  N   UNL     1       0.334   9.942  -2.944  1.00  0.00    -0.352 N 
ATOM     33  C   UNL     1       0.063  11.111  -3.614  1.00  0.00     0.251 C 
ATOM     34  H   UNL     1      -0.158   9.156  -3.275  1.00  0.00     0.163 HD
ATOM     35  O   UNL     1      -0.865  11.166  -4.414  1.00  0.00    -0.269 OA
BRANCH  33  36
ATOM     36  C   UNL     1       0.870  12.316  -3.336  1.00  0.00     0.039 A 
ATOM     37  C   UNL     1       0.237  13.553  -3.198  1.00  0.00     0.014 A 
ATOM     38  C   UNL     1       2.250  12.216  -3.171  1.00  0.00     0.014 A 
ATOM     39  C   UNL     1       0.978  14.663  -2.786  1.00  0.00     0.010 A 
ATOM     40  C   UNL     1       2.955  13.279  -2.630  1.00  0.00     0.010 A 
ATOM     41  C   UNL     1       2.331  14.519  -2.439  1.00  0.00    -0.014 A 
BRANCH  41  42
ATOM     42  C   UNL     1       3.134  15.645  -1.898  1.00  0.00     0.031 A 
ATOM     43  C   UNL     1       4.389  16.070  -2.615  1.00  0.00     0.074 A 
ATOM     44  C   UNL     1       2.794  16.214  -0.725  1.00  0.00     0.049 A 
ATOM     45  N   UNL     1       5.316  16.912  -2.236  1.00  0.00    -0.248 NA
ATOM     46  C   UNL     1       4.661  15.427  -3.912  1.00  0.00     0.031 C 
ATOM     47  C   UNL     1       1.637  15.847   0.096  1.00  0.00     0.029 A 
ATOM     48  N   UNL     1       3.401  17.215  -0.008  1.00  0.00    -0.354 N 
ATOM     49  C   UNL     1       6.283  16.878  -3.232  1.00  0.00     0.074 A 
ATOM     50  C   UNL     1       5.871  15.881  -4.194  1.00  0.00     0.031 C 
ATOM     51  C   UNL     1       1.605  16.629   1.188  1.00  0.00     0.029 A 
ATOM     52  C   UNL     1       2.760  17.519   1.169  1.00  0.00     0.049 A 
ATOM     53  H   UNL     1       4.219  17.672  -0.309  1.00  0.00     0.167 HD
ATOM     54  C   UNL     1       7.395  17.639  -3.357  1.00  0.00     0.037 A 
ATOM     55  C   UNL     1       3.078  18.410   2.128  1.00  0.00     0.037 A 
ATOM     56  C   UNL     1       7.777  18.663  -2.423  1.00  0.00     0.049 A 
ATOM     57  C   UNL     1       4.314  19.253   1.956  1.00  0.00     0.074 A 
ATOM     58  C   UNL     1       8.862  19.518  -2.474  1.00  0.00     0.029 A 
ATOM     59  N   UNL     1       7.069  18.978  -1.273  1.00  0.00    -0.354 N 
ATOM     60  N   UNL     1       5.192  19.246   0.983  1.00  0.00    -0.248 NA
ATOM     61  C   UNL     1       4.599  20.233   3.013  1.00  0.00     0.031 C 
ATOM     62  C   UNL     1       8.826  20.336  -1.341  1.00  0.00     0.029 A 
ATOM     63  C   UNL     1       7.696  20.017  -0.606  1.00  0.00     0.049 A 
ATOM     64  H   UNL     1       6.244  18.531  -0.975  1.00  0.00     0.167 HD
ATOM     65  C   UNL     1       6.113  20.238   1.293  1.00  0.00     0.074 A 
ATOM     66  C   UNL     1       5.676  20.839   2.535  1.00  0.00     0.031 C 
ATOM     67  C   UNL     1       7.224  20.615   0.615  1.00  0.00     0.037 A 
BRANCH  54  68
ATOM     68  C   UNL     1       8.256  17.419  -4.566  1.00  0.00     0.064 A 
ATOM     69  C   UNL     1       7.819  17.790  -5.848  1.00  0.00     0.173 A 
ATOM     70  C   UNL     1       9.541  16.872  -4.444  1.00  0.00     0.173 A 
ATOM     71  F   UNL     1       6.591  18.302  -6.021  1.00  0.00    -0.203 F 
ATOM     72  C   UNL     1       8.629  17.599  -6.964  1.00  0.00     0.198 A 
ATOM     73  C   UNL     1      10.360  16.711  -5.559  1.00  0.00     0.198 A 
ATOM     74  F   UNL     1      10.008  16.502  -3.241  1.00  0.00    -0.203 F 
ATOM     75  F   UNL     1       8.171  17.918  -8.183  1.00  0.00    -0.200 F 
ATOM     76  C   UNL     1       9.901  17.069  -6.818  1.00  0.00     0.200 A 
ATOM     77  F   UNL     1      11.594  16.209  -5.415  1.00  0.00    -0.200 F 
ATOM     78  F   UNL     1      10.684  16.897  -7.892  1.00  0.00    -0.200 F 
ENDBRANCH  54  68
BRANCH  55  79
ATOM     79  C   UNL     1       2.212  18.570   3.326  1.00  0.00     0.064 A 
ATOM     80  C   UNL     1       1.484  19.751   3.534  1.00  0.00     0.173 A 
ATOM     81  C   UNL     1       2.122  17.570   4.305  1.00  0.00     0.173 A 
ATOM     82  F   UNL     1       1.552  20.745   2.636  1.00  0.00    -0.203 F 
ATOM     83  C   UNL     1       0.731  19.940   4.691  1.00  0.00     0.198 A 
ATOM     84  C   UNL     1       1.343  17.748   5.447  1.00  0.00     0.198 A 
ATOM     85  F   UNL     1       2.792  16.418   4.153  1.00  0.00    -0.203 F 
ATOM     86  F   UNL     1       0.097  21.104   4.892  1.00  0.00    -0.200 F 
ATOM     87  C   UNL     1       0.658  18.937   5.645  1.00  0.00     0.200 A 
ATOM     88  F   UNL     1       1.264  16.770   6.360  1.00  0.00    -0.200 F 
ATOM     89  F   UNL     1      -0.060  19.122   6.761  1.00  0.00    -0.200 F 
ENDBRANCH  55  79
BRANCH  67  90
ATOM     90  C   UNL     1       8.014  21.760   1.175  1.00  0.00     0.064 A 
ATOM     91  C   UNL     1       8.798  21.617   2.328  1.00  0.00     0.173 A 
ATOM     92  C   UNL     1       8.020  23.001   0.521  1.00  0.00     0.173 A 
ATOM     93  F   UNL     1       8.812  20.453   2.996  1.00  0.00    -0.203 F 
ATOM     94  C   UNL     1       9.542  22.685   2.821  1.00  0.00     0.198 A 
ATOM     95  C   UNL     1       8.789  24.057   1.000  1.00  0.00     0.198 A 
ATOM     96  F   UNL     1       7.292  23.184  -0.591  1.00  0.00    -0.203 F 
ATOM     97  F   UNL     1      10.249  22.541   3.951  1.00  0.00    -0.200 F 
ATOM     98  C   UNL     1       9.543  23.900   2.153  1.00  0.00     0.200 A 
ATOM     99  F   UNL     1       8.800  25.226   0.346  1.00  0.00    -0.200 F 
ATOM    100  F   UNL     1      10.268  24.924   2.625  1.00  0.00    -0.200 F 
ENDBRANCH  67  90
ENDBRANCH  41  42
ENDBRANCH  33  36
ENDBRANCH  31  32
ENDBRANCH  30  31
ENDBRANCH  29  30
ENDBRANCH   3  29
TORSDOF 17
