REMARK SMILES Cc1nc(SCc2cccc(Cl)c2)[nH]c(=O)c1CC(=O)NCCCNC(=O)c1ccc(-c2c3nc(c(-c4c(F)c(F)c(F)c(F)c4F)c4ccc([nH]4)c(-c4c(F)c(F)c(F)c(F)c4F)c4nc(c(-c5c(F)c(F)c(F)c(F)c5F)c5ccc2[nH]5)C=C4)C=C3)cc1
REMARK SMILES IDX 22 1 21 2 19 3 20 4 18 6 17 7 1 8 2 9 3 10 4 11 15 12 14 13
REMARK SMILES IDX 16 14 5 16 6 17 7 18 8 19 13 20 9 21 11 22 10 23 12 24 23 25
REMARK SMILES IDX 24 26 25 27 26 28 27 30 28 31 29 32 90 33 30 34 89 35 31 36
REMARK SMILES IDX 32 37 33 38 83 39 34 40 88 41 82 42 84 43 35 44 87 45 81 46
REMARK SMILES IDX 80 47 36 49 68 50 48 51 67 52 49 53 52 54 66 55 85 56 50 57
REMARK SMILES IDX 51 58 65 60 86 61 53 62 37 63 38 64 46 65 39 66 40 67 44 68
REMARK SMILES IDX 47 69 41 70 42 71 45 72 43 73 69 74 70 75 78 76 71 77 72 78
REMARK SMILES IDX 76 79 79 80 73 81 74 82 77 83 75 84 54 85 55 86 63 87 56 88
REMARK SMILES IDX 57 89 61 90 64 91 58 92 59 93 62 94 60 95
REMARK H PARENT 21 5 14 15 25 29 84 48 52 59
REMARK Flexibility Score: inf
ROOT
ATOM      1  C   UNL     1      -0.953  -2.134  -2.708  1.00  0.00     0.117 C 
ENDROOT
BRANCH   1   2
ATOM      2  N   UNL     1       0.245  -2.870  -2.357  1.00  0.00    -0.356 N 
ATOM      3  C   UNL     1       0.816  -3.102  -1.141  1.00  0.00     0.224 C 
ATOM      4  O   UNL     1       1.828  -3.805  -1.114  1.00  0.00    -0.275 OA
ATOM      5  H   UNL     1       0.723  -3.267  -3.120  1.00  0.00     0.163 HD
BRANCH   3   6
ATOM      6  C   UNL     1       0.160  -2.609   0.147  1.00  0.00     0.143 C 
BRANCH   6   7
ATOM      7  C   UNL     1       0.003  -1.119   0.259  1.00  0.00     0.048 A 
ATOM      8  C   UNL     1      -2.438  -1.173   0.855  1.00  0.00     0.067 C 
ATOM      9  C   UNL     1      -1.137  -0.465   0.562  1.00  0.00     0.049 A 
ATOM     10  N   UNL     1      -1.258   0.904   0.545  1.00  0.00    -0.229 NA
ATOM     11  C   UNL     1      -0.242   1.592   0.156  1.00  0.00     0.168 A 
ATOM     12  C   UNL     1       1.204  -0.281  -0.002  1.00  0.00     0.255 A 
ATOM     13  N   UNL     1       0.972   1.057  -0.107  1.00  0.00    -0.301 N 
ATOM     14  O   UNL     1       2.320  -0.752  -0.138  1.00  0.00    -0.269 OA
ATOM     15  H   UNL     1       1.708   1.651  -0.382  1.00  0.00     0.172 HD
BRANCH  11  16
ATOM     16  S   UNL     1      -0.303   3.304  -0.108  1.00  0.00    -0.083 SA
BRANCH  16  17
ATOM     17  C   UNL     1      -2.091   3.623  -0.052  1.00  0.00     0.113 C 
BRANCH  17  18
ATOM     18  C   UNL     1      -2.829   3.328  -1.342  1.00  0.00    -0.036 A 
ATOM     19  C   UNL     1      -3.182   4.363  -2.221  1.00  0.00     0.005 A 
ATOM     20  C   UNL     1      -3.230   2.023  -1.667  1.00  0.00     0.025 A 
ATOM     21  C   UNL     1      -3.912   4.096  -3.385  1.00  0.00     0.002 A 
ATOM     22  C   UNL     1      -3.943   1.756  -2.835  1.00  0.00     0.041 A 
ATOM     23  C   UNL     1      -4.287   2.789  -3.697  1.00  0.00     0.020 A 
ATOM     24  Cl  UNL     1      -4.419   0.140  -3.192  1.00  0.00    -0.084 Cl
ENDBRANCH  17  18
ENDBRANCH  16  17
ENDBRANCH  11  16
ENDBRANCH   6   7
ENDBRANCH   3   6
ENDBRANCH   1   2
BRANCH   1  25
ATOM     25  C   UNL     1      -0.619  -0.820  -3.402  1.00  0.00     0.042 C 
BRANCH  25  26
ATOM     26  C   UNL     1      -0.088  -0.999  -4.820  1.00  0.00     0.118 C 
BRANCH  26  27
ATOM     27  N   UNL     1      -1.077  -1.566  -5.731  1.00  0.00    -0.352 N 
ATOM     28  C   UNL     1      -1.611  -1.060  -6.891  1.00  0.00     0.251 C 
ATOM     29  H   UNL     1      -1.415  -2.454  -5.474  1.00  0.00     0.163 HD
ATOM     30  O   UNL     1      -2.554  -1.631  -7.431  1.00  0.00    -0.269 OA
BRANCH  28  31
ATOM     31  C   UNL     1      -1.070   0.181  -7.484  1.00  0.00     0.039 A 
ATOM     32  C   UNL     1      -1.956   1.130  -8.004  1.00  0.00     0.014 A 
ATOM     33  C   UNL     1       0.306   0.407  -7.540  1.00  0.00     0.014 A 
ATOM     34  C   UNL     1      -1.464   2.338  -8.506  1.00  0.00     0.010 A 
ATOM     35  C   UNL     1       0.787   1.645  -7.949  1.00  0.00     0.010 A 
ATOM     36  C   UNL     1      -0.091   2.623  -8.441  1.00  0.00    -0.014 A 
BRANCH  36  37
ATOM     37  C   UNL     1       0.469   3.918  -8.904  1.00  0.00     0.031 A 
ATOM     38  C   UNL     1       1.475   3.934 -10.024  1.00  0.00     0.074 A 
ATOM     39  C   UNL     1       0.145   5.061  -8.267  1.00  0.00     0.049 A 
ATOM     40  N   UNL     1       2.208   4.923 -10.468  1.00  0.00    -0.248 NA
ATOM     41  C   UNL     1       1.713   2.655 -10.713  1.00  0.00     0.031 C 
ATOM     42  C   UNL     1      -0.795   5.175  -7.151  1.00  0.00     0.029 A 
ATOM     43  N   UNL     1       0.590   6.346  -8.457  1.00  0.00    -0.354 N 
ATOM     44  C   UNL     1       3.003   4.381 -11.471  1.00  0.00     0.074 A 
ATOM     45  C   UNL     1       2.708   2.967 -11.529  1.00  0.00     0.031 C 
ATOM     46  C   UNL     1      -0.870   6.460  -6.767  1.00  0.00     0.029 A 
ATOM     47  C   UNL     1       0.054   7.252  -7.572  1.00  0.00     0.049 A 
ATOM     48  H   UNL     1       1.232   6.596  -9.160  1.00  0.00     0.167 HD
ATOM     49  C   UNL     1       3.879   5.012 -12.288  1.00  0.00     0.037 A 
ATOM     50  C   UNL     1       0.300   8.568  -7.418  1.00  0.00     0.037 A 
ATOM     51  C   UNL     1       4.148   6.424 -12.246  1.00  0.00     0.049 A 
ATOM     52  C   UNL     1       1.306   9.236  -8.321  1.00  0.00     0.074 A 
ATOM     53  C   UNL     1       4.999   7.165 -13.047  1.00  0.00     0.029 A 
ATOM     54  N   UNL     1       3.563   7.311 -11.355  1.00  0.00    -0.354 N 
ATOM     55  N   UNL     1       2.020   8.722  -9.292  1.00  0.00    -0.248 NA
ATOM     56  C   UNL     1       1.535  10.673  -8.107  1.00  0.00     0.031 C 
ATOM     57  C   UNL     1       4.958   8.494 -12.616  1.00  0.00     0.029 A 
ATOM     58  C   UNL     1       4.039   8.591 -11.584  1.00  0.00     0.049 A 
ATOM     59  H   UNL     1       2.906   7.067 -10.663  1.00  0.00     0.167 HD
ATOM     60  C   UNL     1       2.743   9.776  -9.834  1.00  0.00     0.074 A 
ATOM     61  C   UNL     1       2.378  10.961  -9.088  1.00  0.00     0.031 C 
ATOM     62  C   UNL     1       3.630   9.765 -10.859  1.00  0.00     0.037 A 
BRANCH  49  63
ATOM     63  C   UNL     1       4.598   4.183 -13.313  1.00  0.00     0.064 A 
ATOM     64  C   UNL     1       3.923   3.632 -14.413  1.00  0.00     0.173 A 
ATOM     65  C   UNL     1       5.984   3.982 -13.226  1.00  0.00     0.173 A 
ATOM     66  F   UNL     1       2.596   3.784 -14.536  1.00  0.00    -0.203 F 
ATOM     67  C   UNL     1       4.605   2.892 -15.375  1.00  0.00     0.198 A 
ATOM     68  C   UNL     1       6.668   3.269 -14.208  1.00  0.00     0.198 A 
ATOM     69  F   UNL     1       6.679   4.492 -12.199  1.00  0.00    -0.203 F 
ATOM     70  F   UNL     1       3.931   2.337 -16.392  1.00  0.00    -0.200 F 
ATOM     71  C   UNL     1       5.977   2.719 -15.277  1.00  0.00     0.200 A 
ATOM     72  F   UNL     1       7.996   3.117 -14.121  1.00  0.00    -0.200 F 
ATOM     73  F   UNL     1       6.634   2.019 -16.212  1.00  0.00    -0.200 F 
ENDBRANCH  49  63
BRANCH  50  74
ATOM     74  C   UNL     1      -0.419   9.355  -6.379  1.00  0.00     0.064 A 
ATOM     75  C   UNL     1      -1.316  10.371  -6.742  1.00  0.00     0.173 A 
ATOM     76  C   UNL     1      -0.194   9.145  -5.011  1.00  0.00     0.173 A 
ATOM     77  F   UNL     1      -1.552  10.623  -8.038  1.00  0.00    -0.203 F 
ATOM     78  C   UNL     1      -1.927  11.172  -5.780  1.00  0.00     0.198 A 
ATOM     79  C   UNL     1      -0.834   9.924  -4.048  1.00  0.00     0.198 A 
ATOM     80  F   UNL     1       0.647   8.182  -4.607  1.00  0.00    -0.203 F 
ATOM     81  F   UNL     1      -2.726  12.178  -6.159  1.00  0.00    -0.200 F 
ATOM     82  C   UNL     1      -1.688  10.946  -4.433  1.00  0.00     0.200 A 
ATOM     83  F   UNL     1      -0.615   9.689  -2.747  1.00  0.00    -0.200 F 
ATOM     84  F   UNL     1      -2.271  11.720  -3.508  1.00  0.00    -0.200 F 
ENDBRANCH  50  74
BRANCH  62  85
ATOM     85  C   UNL     1       4.207  11.081 -11.294  1.00  0.00     0.064 A 
ATOM     86  C   UNL     1       5.147  11.774 -10.518  1.00  0.00     0.173 A 
ATOM     87  C   UNL     1       3.853  11.625 -12.539  1.00  0.00     0.173 A 
ATOM     88  F   UNL     1       5.508  11.303  -9.315  1.00  0.00    -0.203 F 
ATOM     89  C   UNL     1       5.694  12.975 -10.963  1.00  0.00     0.198 A 
ATOM     90  C   UNL     1       4.426  12.808 -12.995  1.00  0.00     0.198 A 
ATOM     91  F   UNL     1       2.963  10.997 -13.323  1.00  0.00    -0.203 F 
ATOM     92  F   UNL     1       6.557  13.643 -10.185  1.00  0.00    -0.200 F 
ATOM     93  C   UNL     1       5.341  13.485 -12.204  1.00  0.00     0.200 A 
ATOM     94  F   UNL     1       4.096  13.290 -14.201  1.00  0.00    -0.200 F 
ATOM     95  F   UNL     1       5.880  14.633 -12.635  1.00  0.00    -0.200 F 
ENDBRANCH  62  85
ENDBRANCH  36  37
ENDBRANCH  28  31
ENDBRANCH  26  27
ENDBRANCH  25  26
ENDBRANCH   1  25
TORSDOF 14
