REMARK SMILES C[C@@H](C(=O)NCCCNC(=O)c1ccc(-c2c3nc(c(-c4c(F)c(F)c(F)c(F)c4F)c4ccc([nH]4)c(-c4c(F)c(F)c(F)c(F)c4F)c4nc(c(-c5c(F)c(F)c(F)c(F)c5F)c5ccc2[nH]5)C=C4)C=C3)cc1)N1CC[C@@]2(CCC1=O)Nc1ccccc1S(=O)(=O)N2
REMARK SMILES IDX 6 1 5 2 3 3 4 4 2 6 1 7 75 8 76 9 77 10 78 11 83 12 93 13
REMARK SMILES IDX 84 15 90 17 85 19 89 20 91 21 92 22 86 23 88 24 87 25 81 26
REMARK SMILES IDX 82 27 80 28 79 29 7 31 8 32 9 33 10 34 11 36 12 37 13 38
REMARK SMILES IDX 74 39 14 40 73 41 15 42 16 43 17 44 67 45 18 46 72 47 66 48
REMARK SMILES IDX 68 49 19 50 71 51 65 52 64 53 20 55 52 56 32 57 51 58 33 59
REMARK SMILES IDX 36 60 50 61 69 62 34 63 35 64 49 66 70 67 37 68 21 69 22 70
REMARK SMILES IDX 30 71 23 72 24 73 28 74 31 75 25 76 26 77 29 78 27 79 53 80
REMARK SMILES IDX 54 81 62 82 55 83 56 84 60 85 63 86 57 87 58 88 61 89 59 90
REMARK SMILES IDX 38 91 39 92 47 93 40 94 41 95 45 96 48 97 42 98 43 99 46 100
REMARK SMILES IDX 44 101
REMARK H PARENT 5 5 83 16 93 18 9 35 68 54 36 65
REMARK Flexibility Score: 90.00
ROOT
ATOM      1  C   UNL     1       3.556   0.502  -1.924  1.00  0.00     0.117 C 
ENDROOT
BRANCH   1   2
ATOM      2  N   UNL     1       2.519  -0.246  -2.609  1.00  0.00    -0.354 N 
ATOM      3  C   UNL     1       1.233  -0.516  -2.237  1.00  0.00     0.242 C 
ATOM      4  O   UNL     1       0.645  -1.399  -2.862  1.00  0.00    -0.273 OA
ATOM      5  H   UNL     1       2.785  -0.619  -3.480  1.00  0.00     0.163 HD
BRANCH   3   6
ATOM      6  C   UNL     1       0.611   0.216  -1.026  1.00  0.00     0.171 C 
ATOM      7  C   UNL     1       0.918  -0.504   0.278  1.00  0.00     0.042 C 
BRANCH   6   8
ATOM      8  N   UNL     1      -0.826   0.494  -1.194  1.00  0.00    -0.331 N 
BRANCH   8   9
ATOM      9  C   UNL     1      -1.347   1.795  -0.839  1.00  0.00     0.124 C 
BRANCH   9  10
ATOM     10  C   UNL     1      -2.306   1.755   0.357  1.00  0.00     0.067 C 
BRANCH  10  11
ATOM     11  C   UNL     1      -3.728   1.183   0.083  1.00  0.00     0.104 CG0
ATOM     12  N   UNL     1      -4.588   1.494   1.220  1.00  0.00    -0.365 N 
ATOM     13  N   UNL     1      -4.374   1.768  -1.091  1.00  0.00    -0.187 NA
ATOM     14  G   UNL     1      -3.758  -0.381  -0.070  1.00  0.00     0.000 G0
ATOM     15  C   UNL     1      -4.951   2.791   1.535  1.00  0.00     0.056 A 
ATOM     16  H   UNL     1      -4.920   0.757   1.781  1.00  0.00     0.162 HD
ATOM     17  S   UNL     1      -4.602   3.438  -1.071  1.00  0.00     0.244 S 
ATOM     18  H   UNL     1      -5.291   1.332  -1.190  1.00  0.00     0.143 HD
ATOM     19  C   UNL     1      -5.269   3.113   2.858  1.00  0.00     0.027 A 
ATOM     20  C   UNL     1      -4.901   3.830   0.612  1.00  0.00     0.105 A 
ATOM     21  O   UNL     1      -3.338   4.045  -1.428  1.00  0.00    -0.207 OA
ATOM     22  O   UNL     1      -5.801   3.720  -1.831  1.00  0.00    -0.207 OA
ATOM     23  C   UNL     1      -5.463   4.443   3.246  1.00  0.00     0.002 A 
ATOM     24  C   UNL     1      -5.080   5.167   0.981  1.00  0.00     0.024 A 
ATOM     25  C   UNL     1      -5.349   5.471   2.312  1.00  0.00     0.002 A 
ENDBRANCH  10  11
ENDBRANCH   9  10
ENDBRANCH   8   9
BRANCH   8  26
ATOM     26  C   UNL     1      -1.761  -0.463  -1.531  1.00  0.00     0.223 C 
ATOM     27  O   UNL     1      -2.279  -0.515  -2.644  1.00  0.00    -0.275 OA
BRANCH  26  28
ATOM     28  C   UNL     1      -2.426  -1.088  -0.335  1.00  0.00     0.104 C 
BRANCH  28  29
ATOM     29  C   UNL     1      -3.758  -0.381  -0.070  1.00  0.00     0.055 CG0
ATOM     30  G   UNL     1      -3.728   1.183   0.083  1.00  0.00     0.000 G0
ENDBRANCH  28  29
ENDBRANCH  26  28
ENDBRANCH   8  26
ENDBRANCH   6   8
ENDBRANCH   3   6
ENDBRANCH   1   2
BRANCH   1  31
ATOM     31  C   UNL     1       4.490  -0.420  -1.144  1.00  0.00     0.042 C 
BRANCH  31  32
ATOM     32  C   UNL     1       5.211  -1.458  -1.999  1.00  0.00     0.118 C 
BRANCH  32  33
ATOM     33  N   UNL     1       6.111  -0.857  -2.968  1.00  0.00    -0.352 N 
ATOM     34  C   UNL     1       7.452  -1.054  -3.175  1.00  0.00     0.251 C 
ATOM     35  H   UNL     1       5.691  -0.204  -3.573  1.00  0.00     0.163 HD
ATOM     36  O   UNL     1       8.057  -0.305  -3.937  1.00  0.00    -0.269 OA
BRANCH  34  37
ATOM     37  C   UNL     1       8.185  -2.137  -2.479  1.00  0.00     0.039 A 
ATOM     38  C   UNL     1       9.484  -1.873  -2.034  1.00  0.00     0.014 A 
ATOM     39  C   UNL     1       7.636  -3.411  -2.305  1.00  0.00     0.014 A 
ATOM     40  C   UNL     1      10.209  -2.866  -1.372  1.00  0.00     0.010 A 
ATOM     41  C   UNL     1       8.332  -4.379  -1.579  1.00  0.00     0.010 A 
ATOM     42  C   UNL     1       9.628  -4.118  -1.111  1.00  0.00    -0.014 A 
BRANCH  42  43
ATOM     43  C   UNL     1      10.374  -5.146  -0.342  1.00  0.00     0.031 A 
ATOM     44  C   UNL     1      10.804  -6.431  -0.992  1.00  0.00     0.074 A 
ATOM     45  C   UNL     1      10.643  -4.926   0.959  1.00  0.00     0.049 A 
ATOM     46  N   UNL     1      11.479  -7.431  -0.480  1.00  0.00    -0.248 NA
ATOM     47  C   UNL     1      10.407  -6.633  -2.393  1.00  0.00     0.031 C 
ATOM     48  C   UNL     1      10.226  -3.747   1.719  1.00  0.00     0.029 A 
ATOM     49  N   UNL     1      11.332  -5.684   1.873  1.00  0.00    -0.354 N 
ATOM     50  C   UNL     1      11.584  -8.375  -1.492  1.00  0.00     0.074 A 
ATOM     51  C   UNL     1      10.856  -7.857  -2.630  1.00  0.00     0.031 C 
ATOM     52  C   UNL     1      10.692  -3.845   2.974  1.00  0.00     0.029 A 
ATOM     53  C   UNL     1      11.418  -5.104   3.114  1.00  0.00     0.049 A 
ATOM     54  H   UNL     1      11.727  -6.560   1.658  1.00  0.00     0.167 HD
ATOM     55  C   UNL     1      12.249  -9.556  -1.482  1.00  0.00     0.037 A 
ATOM     56  C   UNL     1      12.020  -5.535   4.239  1.00  0.00     0.037 A 
ATOM     57  C   UNL     1      12.987 -10.064  -0.354  1.00  0.00     0.049 A 
ATOM     58  C   UNL     1      12.767  -6.840   4.217  1.00  0.00     0.074 A 
ATOM     59  C   UNL     1      13.736 -11.224  -0.262  1.00  0.00     0.029 A 
ATOM     60  N   UNL     1      13.066  -9.440   0.882  1.00  0.00    -0.354 N 
ATOM     61  N   UNL     1      12.920  -7.689   3.231  1.00  0.00    -0.248 NA
ATOM     62  C   UNL     1      13.436  -7.238   5.463  1.00  0.00     0.031 C 
ATOM     63  C   UNL     1      14.236 -11.322   1.041  1.00  0.00     0.029 A 
ATOM     64  C   UNL     1      13.836 -10.200   1.749  1.00  0.00     0.049 A 
ATOM     65  H   UNL     1      12.637  -8.583   1.111  1.00  0.00     0.167 HD
ATOM     66  C   UNL     1      13.713  -8.713   3.730  1.00  0.00     0.074 A 
ATOM     67  C   UNL     1      14.032  -8.364   5.099  1.00  0.00     0.031 C 
ATOM     68  C   UNL     1      14.135  -9.843   3.112  1.00  0.00     0.037 A 
BRANCH  55  69
ATOM     69  C   UNL     1      12.220 -10.377  -2.739  1.00  0.00     0.064 A 
ATOM     70  C   UNL     1      12.917  -9.979  -3.890  1.00  0.00     0.173 A 
ATOM     71  C   UNL     1      11.524 -11.595  -2.782  1.00  0.00     0.173 A 
ATOM     72  F   UNL     1      13.589  -8.818  -3.905  1.00  0.00    -0.203 F 
ATOM     73  C   UNL     1      12.895 -10.755  -5.046  1.00  0.00     0.198 A 
ATOM     74  C   UNL     1      11.528 -12.382  -3.931  1.00  0.00     0.198 A 
ATOM     75  F   UNL     1      10.847 -12.025  -1.707  1.00  0.00    -0.203 F 
ATOM     76  F   UNL     1      13.531 -10.332  -6.147  1.00  0.00    -0.200 F 
ATOM     77  C   UNL     1      12.207 -11.959  -5.063  1.00  0.00     0.200 A 
ATOM     78  F   UNL     1      10.873 -13.551  -3.942  1.00  0.00    -0.200 F 
ATOM     79  F   UNL     1      12.194 -12.709  -6.174  1.00  0.00    -0.200 F 
ENDBRANCH  55  69
BRANCH  56  80
ATOM     80  C   UNL     1      11.967  -4.705   5.469  1.00  0.00     0.064 A 
ATOM     81  C   UNL     1      13.111  -4.053   5.948  1.00  0.00     0.173 A 
ATOM     82  C   UNL     1      10.774  -4.545   6.188  1.00  0.00     0.173 A 
ATOM     83  F   UNL     1      14.280  -4.192   5.304  1.00  0.00    -0.203 F 
ATOM     84  C   UNL     1      13.069  -3.286   7.111  1.00  0.00     0.198 A 
ATOM     85  C   UNL     1      10.726  -3.756   7.335  1.00  0.00     0.198 A 
ATOM     86  F   UNL     1       9.650  -5.143   5.766  1.00  0.00    -0.203 F 
ATOM     87  F   UNL     1      14.186  -2.708   7.570  1.00  0.00    -0.200 F 
ATOM     88  C   UNL     1      11.875  -3.134   7.800  1.00  0.00     0.200 A 
ATOM     89  F   UNL     1       9.567  -3.598   7.989  1.00  0.00    -0.200 F 
ATOM     90  F   UNL     1      11.833  -2.392   8.915  1.00  0.00    -0.200 F 
ENDBRANCH  56  80
BRANCH  68  91
ATOM     91  C   UNL     1      14.995 -10.776   3.914  1.00  0.00     0.064 A 
ATOM     92  C   UNL     1      14.464 -11.541   4.963  1.00  0.00     0.173 A 
ATOM     93  C   UNL     1      16.360 -10.915   3.624  1.00  0.00     0.173 A 
ATOM     94  F   UNL     1      13.167 -11.431   5.290  1.00  0.00    -0.203 F 
ATOM     95  C   UNL     1      15.276 -12.386   5.715  1.00  0.00     0.198 A 
ATOM     96  C   UNL     1      17.163 -11.783   4.358  1.00  0.00     0.198 A 
ATOM     97  F   UNL     1      16.915 -10.210   2.627  1.00  0.00    -0.203 F 
ATOM     98  F   UNL     1      14.759 -13.064   6.748  1.00  0.00    -0.200 F 
ATOM     99  C   UNL     1      16.623 -12.510   5.409  1.00  0.00     0.200 A 
ATOM    100  F   UNL     1      18.462 -11.910   4.055  1.00  0.00    -0.200 F 
ATOM    101  F   UNL     1      17.404 -13.322   6.134  1.00  0.00    -0.200 F 
ENDBRANCH  68  91
ENDBRANCH  42  43
ENDBRANCH  34  37
ENDBRANCH  32  33
ENDBRANCH  31  32
ENDBRANCH   1  31
TORSDOF 11
