REMARK SMILES CCN1C[C@@H](C(=O)NCCCNC(=O)c2ccc(-c3c4nc(c(-c5c(F)c(F)c(F)c(F)c5F)c5ccc([nH]5)c(-c5c(F)c(F)c(F)c(F)c5F)c5nc(c(-c6c(F)c(F)c(F)c(F)c6F)c6ccc3[nH]6)C=C5)C=C4)cc2)CC1=O
REMARK SMILES IDX 10 1 9 2 8 3 6 4 7 5 5 7 3 8 4 9 79 10 78 11 80 12 2 13 1 14
REMARK SMILES IDX 11 15 12 16 13 17 14 19 15 20 16 21 77 22 17 23 76 24 18 25
REMARK SMILES IDX 19 26 20 27 70 28 21 29 75 30 69 31 71 32 22 33 74 34 68 35
REMARK SMILES IDX 67 36 23 38 55 39 35 40 54 41 36 42 39 43 53 44 72 45 37 46
REMARK SMILES IDX 38 47 52 49 73 50 40 51 24 52 25 53 33 54 26 55 27 56 31 57
REMARK SMILES IDX 34 58 28 59 29 60 32 61 30 62 56 63 57 64 65 65 58 66 59 67
REMARK SMILES IDX 63 68 66 69 60 70 61 71 64 72 62 73 41 74 42 75 50 76 43 77
REMARK SMILES IDX 44 78 48 79 51 80 45 81 46 82 49 83 47 84
REMARK H PARENT 8 6 12 18 71 37 39 48
REMARK Flexibility Score: inf
ROOT
ATOM      1  C   UNL     1      -1.551  -0.366   6.213  1.00  0.00     0.042 C 
ENDROOT
BRANCH   1   2
ATOM      2  C   UNL     1      -1.067   0.506   5.063  1.00  0.00     0.117 C 
BRANCH   2   3
ATOM      3  N   UNL     1       0.033   1.371   5.457  1.00  0.00    -0.356 N 
ATOM      4  C   UNL     1       1.334   1.410   5.074  1.00  0.00     0.225 C 
ATOM      5  O   UNL     1       2.052   2.261   5.606  1.00  0.00    -0.275 OA
ATOM      6  H   UNL     1      -0.211   2.054   6.124  1.00  0.00     0.163 HD
BRANCH   4   7
ATOM      7  C   UNL     1       1.911   0.479   4.032  1.00  0.00     0.107 C 
ATOM      8  N   UNL     1       1.118  -0.712   2.172  1.00  0.00    -0.342 N 
ATOM      9  C   UNL     1       1.240   0.632   2.679  1.00  0.00     0.133 C 
ATOM     10  C   UNL     1       1.396  -1.676   3.124  1.00  0.00     0.223 C 
ATOM     11  C   UNL     1       1.845  -1.000   4.390  1.00  0.00     0.115 C 
ATOM     12  O   UNL     1       1.266  -2.885   2.995  1.00  0.00    -0.275 OA
BRANCH   8  13
ATOM     13  C   UNL     1       0.511  -1.024   0.887  1.00  0.00     0.116 C 
ATOM     14  C   UNL     1       0.946  -0.099  -0.236  1.00  0.00     0.027 C 
ENDBRANCH   8  13
ENDBRANCH   4   7
ENDBRANCH   2   3
ENDBRANCH   1   2
BRANCH   1  15
ATOM     15  C   UNL     1      -2.102   0.413   7.399  1.00  0.00     0.118 C 
BRANCH  15  16
ATOM     16  N   UNL     1      -3.276   1.202   7.059  1.00  0.00    -0.352 N 
ATOM     17  C   UNL     1      -4.562   1.136   7.532  1.00  0.00     0.251 C 
ATOM     18  H   UNL     1      -3.123   1.896   6.379  1.00  0.00     0.163 HD
ATOM     19  O   UNL     1      -5.444   1.772   6.961  1.00  0.00    -0.269 OA
BRANCH  17  20
ATOM     20  C   UNL     1      -4.904   0.303   8.707  1.00  0.00     0.039 A 
ATOM     21  C   UNL     1      -6.138  -0.352   8.725  1.00  0.00     0.014 A 
ATOM     22  C   UNL     1      -4.051   0.202   9.809  1.00  0.00     0.014 A 
ATOM     23  C   UNL     1      -6.495  -1.134   9.825  1.00  0.00     0.010 A 
ATOM     24  C   UNL     1      -4.361  -0.660  10.857  1.00  0.00     0.010 A 
ATOM     25  C   UNL     1      -5.598  -1.317  10.891  1.00  0.00    -0.014 A 
BRANCH  25  26
ATOM     26  C   UNL     1      -5.967  -2.161  12.057  1.00  0.00     0.031 A 
ATOM     27  C   UNL     1      -6.074  -1.558  13.431  1.00  0.00     0.074 A 
ATOM     28  C   UNL     1      -6.184  -3.479  11.882  1.00  0.00     0.049 A 
ATOM     29  N   UNL     1      -6.397  -2.129  14.565  1.00  0.00    -0.248 NA
ATOM     30  C   UNL     1      -5.749  -0.128  13.556  1.00  0.00     0.031 C 
ATOM     31  C   UNL     1      -6.048  -4.196  10.613  1.00  0.00     0.029 A 
ATOM     32  N   UNL     1      -6.567  -4.449  12.773  1.00  0.00    -0.354 N 
ATOM     33  C   UNL     1      -6.312  -1.133  15.529  1.00  0.00     0.074 A 
ATOM     34  C   UNL     1      -5.830   0.057  14.864  1.00  0.00     0.031 C 
ATOM     35  C   UNL     1      -6.375  -5.484  10.800  1.00  0.00     0.029 A 
ATOM     36  C   UNL     1      -6.710  -5.691  12.205  1.00  0.00     0.049 A 
ATOM     37  H   UNL     1      -6.723  -4.272  13.729  1.00  0.00     0.167 HD
ATOM     38  C   UNL     1      -6.640  -1.191  16.843  1.00  0.00     0.037 A 
ATOM     39  C   UNL     1      -7.074  -6.865  12.756  1.00  0.00     0.037 A 
ATOM     40  C   UNL     1      -7.123  -2.377  17.502  1.00  0.00     0.049 A 
ATOM     41  C   UNL     1      -7.436  -6.907  14.216  1.00  0.00     0.074 A 
ATOM     42  C   UNL     1      -7.513  -2.538  18.820  1.00  0.00     0.029 A 
ATOM     43  N   UNL     1      -7.277  -3.613  16.888  1.00  0.00    -0.354 N 
ATOM     44  N   UNL     1      -7.420  -5.941  15.103  1.00  0.00    -0.248 NA
ATOM     45  C   UNL     1      -7.889  -8.200  14.745  1.00  0.00     0.031 C 
ATOM     46  C   UNL     1      -7.853  -3.881  19.016  1.00  0.00     0.029 A 
ATOM     47  C   UNL     1      -7.742  -4.544  17.804  1.00  0.00     0.049 A 
ATOM     48  H   UNL     1      -7.085  -3.801  15.941  1.00  0.00     0.167 HD
ATOM     49  C   UNL     1      -7.888  -6.500  16.285  1.00  0.00     0.074 A 
ATOM     50  C   UNL     1      -8.199  -7.885  15.993  1.00  0.00     0.031 C 
ATOM     51  C   UNL     1      -8.047  -5.920  17.501  1.00  0.00     0.037 A 
BRANCH  38  52
ATOM     52  C   UNL     1      -6.487   0.070  17.648  1.00  0.00     0.064 A 
ATOM     53  C   UNL     1      -7.293   1.197  17.413  1.00  0.00     0.173 A 
ATOM     54  C   UNL     1      -5.533   0.155  18.673  1.00  0.00     0.173 A 
ATOM     55  F   UNL     1      -8.214   1.177  16.438  1.00  0.00    -0.203 F 
ATOM     56  C   UNL     1      -7.119   2.371  18.142  1.00  0.00     0.198 A 
ATOM     57  C   UNL     1      -5.388   1.318  19.426  1.00  0.00     0.198 A 
ATOM     58  F   UNL     1      -4.739  -0.891  18.947  1.00  0.00    -0.203 F 
ATOM     59  F   UNL     1      -7.854   3.453  17.851  1.00  0.00    -0.200 F 
ATOM     60  C   UNL     1      -6.171   2.428  19.152  1.00  0.00     0.200 A 
ATOM     61  F   UNL     1      -4.481   1.367  20.412  1.00  0.00    -0.200 F 
ATOM     62  F   UNL     1      -6.006   3.558  19.854  1.00  0.00    -0.200 F 
ENDBRANCH  38  52
BRANCH  39  63
ATOM     63  C   UNL     1      -7.145  -8.086  11.911  1.00  0.00     0.064 A 
ATOM     64  C   UNL     1      -8.373  -8.688  11.605  1.00  0.00     0.173 A 
ATOM     65  C   UNL     1      -5.984  -8.672  11.385  1.00  0.00     0.173 A 
ATOM     66  F   UNL     1      -9.511  -8.175  12.097  1.00  0.00    -0.203 F 
ATOM     67  C   UNL     1      -8.437  -9.842  10.828  1.00  0.00     0.198 A 
ATOM     68  C   UNL     1      -6.051  -9.807  10.581  1.00  0.00     0.198 A 
ATOM     69  F   UNL     1      -4.784  -8.130  11.640  1.00  0.00    -0.203 F 
ATOM     70  F   UNL     1      -9.620 -10.425  10.592  1.00  0.00    -0.200 F 
ATOM     71  C   UNL     1      -7.276 -10.397  10.310  1.00  0.00     0.200 A 
ATOM     72  F   UNL     1      -4.928 -10.329  10.068  1.00  0.00    -0.200 F 
ATOM     73  F   UNL     1      -7.338 -11.503   9.556  1.00  0.00    -0.200 F 
ENDBRANCH  39  63
BRANCH  51  74
ATOM     74  C   UNL     1      -8.627  -6.773  18.596  1.00  0.00     0.064 A 
ATOM     75  C   UNL     1      -7.924  -7.854  19.148  1.00  0.00     0.173 A 
ATOM     76  C   UNL     1      -9.906  -6.497  19.103  1.00  0.00     0.173 A 
ATOM     77  F   UNL     1      -6.701  -8.169  18.693  1.00  0.00    -0.203 F 
ATOM     78  C   UNL     1      -8.499  -8.656  20.131  1.00  0.00     0.198 A 
ATOM     79  C   UNL     1     -10.463  -7.277  20.113  1.00  0.00     0.198 A 
ATOM     80  F   UNL     1     -10.619  -5.468  18.620  1.00  0.00    -0.203 F 
ATOM     81  F   UNL     1      -7.838  -9.727  20.590  1.00  0.00    -0.200 F 
ATOM     82  C   UNL     1      -9.765  -8.364  20.615  1.00  0.00     0.200 A 
ATOM     83  F   UNL     1     -11.679  -6.982  20.592  1.00  0.00    -0.200 F 
ATOM     84  F   UNL     1     -10.318  -9.139  21.559  1.00  0.00    -0.200 F 
ENDBRANCH  51  74
ENDBRANCH  25  26
ENDBRANCH  17  20
ENDBRANCH  15  16
ENDBRANCH   1  15
TORSDOF 11
