REMARK SMILES CC(C)(C)OC(=O)N1CCN(C(=O)c2ccc3c(c2)OCO3)[C@H](C(=O)NCCCNC(=O)c2ccc(-c3c4nc(c(-c5c(F)c(F)c(F)c(F)c5F)c5ccc([nH]5)c(-c5c(F)c(F)c(F)c(F)c5F)c5nc(c(-c6c(F)c(F)c(F)c(F)c6F)c6ccc3[nH]6)C=C5)C=C4)cc2)C1
REMARK SMILES IDX 27 1 26 2 24 3 25 4 23 6 8 7 9 8 96 9 10 10 11 11 6 12 7 13
REMARK SMILES IDX 5 14 2 15 1 16 3 17 4 18 12 19 13 20 14 21 15 22 19 23 16 24
REMARK SMILES IDX 18 25 17 26 20 27 22 28 21 29 28 30 29 31 30 32 31 33 32 35
REMARK SMILES IDX 33 36 34 37 95 38 35 39 94 40 36 41 37 42 38 43 88 44 39 45
REMARK SMILES IDX 93 46 87 47 89 48 40 49 92 50 86 51 85 52 41 54 73 55 53 56
REMARK SMILES IDX 72 57 54 58 57 59 71 60 90 61 55 62 56 63 70 65 91 66 58 67
REMARK SMILES IDX 42 68 43 69 51 70 44 71 45 72 49 73 52 74 46 75 47 76 50 77
REMARK SMILES IDX 48 78 74 79 75 80 83 81 76 82 77 83 81 84 84 85 78 86 79 87
REMARK SMILES IDX 82 88 80 89 59 90 60 91 68 92 61 93 62 94 66 95 69 96 63 97
REMARK SMILES IDX 64 98 67 99 65 100
REMARK H PARENT 26 5 30 34 89 53 57 64
REMARK Flexibility Score: inf
ROOT
ATOM      1  C   UNL     1       4.456   3.995  -4.699  1.00  0.00     0.117 C 
ENDROOT
BRANCH   1   2
ATOM      2  N   UNL     1       5.076   4.394  -3.448  1.00  0.00    -0.354 N 
ATOM      3  C   UNL     1       4.547   4.845  -2.275  1.00  0.00     0.244 C 
ATOM      4  O   UNL     1       5.312   4.893  -1.306  1.00  0.00    -0.273 OA
ATOM      5  H   UNL     1       6.059   4.327  -3.447  1.00  0.00     0.163 HD
BRANCH   3   6
ATOM      6  C   UNL     1       3.051   5.173  -2.095  1.00  0.00     0.194 C 
ATOM      7  N   UNL     1       1.033   3.675  -2.729  1.00  0.00    -0.304 N 
ATOM      8  C   UNL     1       0.675   4.651  -3.744  1.00  0.00     0.144 C 
ATOM      9  C   UNL     1       2.336   3.795  -2.082  1.00  0.00     0.158 C 
ATOM     10  C   UNL     1       1.054   6.063  -3.326  1.00  0.00     0.142 C 
ATOM     11  N   UNL     1       2.465   6.231  -2.960  1.00  0.00    -0.323 N 
BRANCH   7  12
ATOM     12  C   UNL     1       0.316   2.490  -2.642  1.00  0.00     0.410 C 
ATOM     13  O   UNL     1      -0.623   2.204  -3.369  1.00  0.00    -0.224 OA
BRANCH  12  14
ATOM     14  O   UNL     1       0.811   1.697  -1.661  1.00  0.00    -0.444 OA
BRANCH  14  15
ATOM     15  C   UNL     1       0.322   0.359  -1.397  1.00  0.00     0.106 C 
ATOM     16  C   UNL     1       0.956  -0.003  -0.045  1.00  0.00     0.056 C 
ATOM     17  C   UNL     1       0.841  -0.599  -2.471  1.00  0.00     0.056 C 
ATOM     18  C   UNL     1      -1.201   0.287  -1.258  1.00  0.00     0.056 C 
ENDBRANCH  14  15
ENDBRANCH  12  14
ENDBRANCH   7  12
BRANCH  11  19
ATOM     19  C   UNL     1       2.842   7.590  -2.820  1.00  0.00     0.254 C 
ATOM     20  O   UNL     1       2.070   8.523  -3.028  1.00  0.00    -0.269 OA
BRANCH  19  21
ATOM     21  C   UNL     1       4.229   7.953  -2.455  1.00  0.00     0.044 A 
ATOM     22  C   UNL     1       5.271   7.593  -3.325  1.00  0.00     0.018 A 
ATOM     23  C   UNL     1       4.489   8.755  -1.338  1.00  0.00     0.064 A 
ATOM     24  C   UNL     1       6.599   7.902  -3.030  1.00  0.00     0.051 A 
ATOM     25  C   UNL     1       5.809   9.080  -1.088  1.00  0.00     0.166 A 
ATOM     26  C   UNL     1       6.834   8.645  -1.898  1.00  0.00     0.165 A 
ATOM     27  O   UNL     1       6.264   9.848  -0.061  1.00  0.00    -0.454 OA
ATOM     28  O   UNL     1       8.056   9.057  -1.471  1.00  0.00    -0.454 OA
ATOM     29  C   UNL     1       7.687   9.828  -0.310  1.00  0.00     0.468 C 
ENDBRANCH  19  21
ENDBRANCH  11  19
ENDBRANCH   3   6
ENDBRANCH   1   2
BRANCH   1  30
ATOM     30  C   UNL     1       4.811   4.877  -5.890  1.00  0.00     0.042 C 
BRANCH  30  31
ATOM     31  C   UNL     1       6.281   5.257  -6.021  1.00  0.00     0.118 C 
BRANCH  31  32
ATOM     32  N   UNL     1       7.162   4.146  -6.322  1.00  0.00    -0.352 N 
ATOM     33  C   UNL     1       8.189   4.095  -7.236  1.00  0.00     0.251 C 
ATOM     34  H   UNL     1       7.005   3.322  -5.807  1.00  0.00     0.163 HD
ATOM     35  O   UNL     1       8.820   3.057  -7.399  1.00  0.00    -0.269 OA
BRANCH  33  36
ATOM     36  C   UNL     1       8.497   5.283  -8.063  1.00  0.00     0.039 A 
ATOM     37  C   UNL     1       8.556   5.124  -9.449  1.00  0.00     0.014 A 
ATOM     38  C   UNL     1       8.704   6.541  -7.489  1.00  0.00     0.014 A 
ATOM     39  C   UNL     1       8.765   6.237 -10.266  1.00  0.00     0.010 A 
ATOM     40  C   UNL     1       8.849   7.661  -8.309  1.00  0.00     0.010 A 
ATOM     41  C   UNL     1       8.885   7.519  -9.706  1.00  0.00    -0.014 A 
BRANCH  41  42
ATOM     42  C   UNL     1       9.061   8.711 -10.576  1.00  0.00     0.031 A 
ATOM     43  C   UNL     1      10.350   9.485 -10.546  1.00  0.00     0.074 A 
ATOM     44  C   UNL     1       8.053   9.114 -11.374  1.00  0.00     0.049 A 
ATOM     45  N   UNL     1      10.688  10.557 -11.218  1.00  0.00    -0.248 NA
ATOM     46  C   UNL     1      11.388   9.003  -9.623  1.00  0.00     0.031 C 
ATOM     47  C   UNL     1       6.740   8.475 -11.465  1.00  0.00     0.029 A 
ATOM     48  N   UNL     1       7.975  10.162 -12.258  1.00  0.00    -0.354 N 
ATOM     49  C   UNL     1      11.970  10.880 -10.794  1.00  0.00     0.074 A 
ATOM     50  C   UNL     1      12.329   9.924  -9.768  1.00  0.00     0.031 C 
ATOM     51  C   UNL     1       5.995   9.129 -12.371  1.00  0.00     0.029 A 
ATOM     52  C   UNL     1       6.764  10.251 -12.902  1.00  0.00     0.049 A 
ATOM     53  H   UNL     1       8.716  10.790 -12.416  1.00  0.00     0.167 HD
ATOM     54  C   UNL     1      12.784  11.868 -11.236  1.00  0.00     0.037 A 
ATOM     55  C   UNL     1       6.325  11.138 -13.815  1.00  0.00     0.037 A 
ATOM     56  C   UNL     1      12.436  12.805 -12.271  1.00  0.00     0.049 A 
ATOM     57  C   UNL     1       7.246  12.233 -14.283  1.00  0.00     0.074 A 
ATOM     58  C   UNL     1      13.214  13.805 -12.828  1.00  0.00     0.029 A 
ATOM     59  N   UNL     1      11.203  12.859 -12.904  1.00  0.00    -0.354 N 
ATOM     60  N   UNL     1       8.482  12.483 -13.927  1.00  0.00    -0.248 NA
ATOM     61  C   UNL     1       6.712  13.165 -15.286  1.00  0.00     0.031 C 
ATOM     62  C   UNL     1      12.437  14.494 -13.766  1.00  0.00     0.029 A 
ATOM     63  C   UNL     1      11.191  13.891 -13.829  1.00  0.00     0.049 A 
ATOM     64  H   UNL     1      10.447  12.254 -12.723  1.00  0.00     0.167 HD
ATOM     65  C   UNL     1       8.883  13.579 -14.679  1.00  0.00     0.074 A 
ATOM     66  C   UNL     1       7.763  13.938 -15.523  1.00  0.00     0.031 C 
ATOM     67  C   UNL     1      10.071  14.231 -14.669  1.00  0.00     0.037 A 
BRANCH  54  68
ATOM     68  C   UNL     1      14.139  11.985 -10.599  1.00  0.00     0.064 A 
ATOM     69  C   UNL     1      15.142  11.031 -10.826  1.00  0.00     0.173 A 
ATOM     70  C   UNL     1      14.449  13.081  -9.780  1.00  0.00     0.173 A 
ATOM     71  F   UNL     1      14.893   9.958 -11.593  1.00  0.00    -0.203 F 
ATOM     72  C   UNL     1      16.395  11.153 -10.232  1.00  0.00     0.198 A 
ATOM     73  C   UNL     1      15.713  13.216  -9.212  1.00  0.00     0.198 A 
ATOM     74  F   UNL     1      13.529  14.026  -9.536  1.00  0.00    -0.203 F 
ATOM     75  F   UNL     1      17.321  10.203 -10.423  1.00  0.00    -0.200 F 
ATOM     76  C   UNL     1      16.682  12.248  -9.431  1.00  0.00     0.200 A 
ATOM     77  F   UNL     1      15.993  14.281  -8.448  1.00  0.00    -0.200 F 
ATOM     78  F   UNL     1      17.891  12.367  -8.865  1.00  0.00    -0.200 F 
ENDBRANCH  54  68
BRANCH  55  79
ATOM     79  C   UNL     1       4.950  11.016 -14.369  1.00  0.00     0.064 A 
ATOM     80  C   UNL     1       4.742  10.641 -15.704  1.00  0.00     0.173 A 
ATOM     81  C   UNL     1       3.820  11.281 -13.583  1.00  0.00     0.173 A 
ATOM     82  F   UNL     1       5.793  10.398 -16.502  1.00  0.00    -0.203 F 
ATOM     83  C   UNL     1       3.458  10.556 -16.236  1.00  0.00     0.198 A 
ATOM     84  C   UNL     1       2.535  11.169 -14.108  1.00  0.00     0.198 A 
ATOM     85  F   UNL     1       3.965  11.641 -12.299  1.00  0.00    -0.203 F 
ATOM     86  F   UNL     1       3.289  10.240 -17.528  1.00  0.00    -0.200 F 
ATOM     87  C   UNL     1       2.355  10.814 -15.437  1.00  0.00     0.200 A 
ATOM     88  F   UNL     1       1.471  11.407 -13.329  1.00  0.00    -0.200 F 
ATOM     89  F   UNL     1       1.119  10.730 -15.948  1.00  0.00    -0.200 F 
ENDBRANCH  55  79
BRANCH  67  90
ATOM     90  C   UNL     1      10.236  15.379 -15.623  1.00  0.00     0.064 A 
ATOM     91  C   UNL     1       9.581  16.603 -15.422  1.00  0.00     0.173 A 
ATOM     92  C   UNL     1      11.092  15.266 -16.729  1.00  0.00     0.173 A 
ATOM     93  F   UNL     1       8.739  16.756 -14.388  1.00  0.00    -0.203 F 
ATOM     94  C   UNL     1       9.759  17.663 -16.306  1.00  0.00     0.198 A 
ATOM     95  C   UNL     1      11.291  16.338 -17.594  1.00  0.00     0.198 A 
ATOM     96  F   UNL     1      11.748  14.119 -16.962  1.00  0.00    -0.203 F 
ATOM     97  F   UNL     1       9.087  18.808 -16.120  1.00  0.00    -0.200 F 
ATOM     98  C   UNL     1      10.619  17.533 -17.386  1.00  0.00     0.200 A 
ATOM     99  F   UNL     1      12.133  16.215 -18.629  1.00  0.00    -0.200 F 
ATOM    100  F   UNL     1      10.795  18.558 -18.232  1.00  0.00    -0.200 F 
ENDBRANCH  67  90
ENDBRANCH  41  42
ENDBRANCH  33  36
ENDBRANCH  31  32
ENDBRANCH  30  31
ENDBRANCH   1  30
TORSDOF 15
