REMARK SMILES CN(C)c1cccc(C(C)(C)C(=O)NCCCNC(=O)c2ccc(-c3c4nc(c(-c5c(F)c(F)c(F)c(F)c5F)c5ccc([nH]5)c(-c5c(F)c(F)c(F)c(F)c5F)c5nc(c(-c6c(F)c(F)c(F)c(F)c6F)c6ccc3[nH]6)C=C5)C=C4)cc2)c1
REMARK SMILES IDX 16 1 15 2 14 3 12 4 13 5 9 7 10 8 11 9 8 10 4 11 5 12 84 13
REMARK SMILES IDX 6 14 7 15 2 16 1 17 3 18 17 19 18 20 19 21 20 23 21 24 22 25
REMARK SMILES IDX 83 26 23 27 82 28 24 29 25 30 26 31 76 32 27 33 81 34 75 35
REMARK SMILES IDX 77 36 28 37 80 38 74 39 73 40 29 42 61 43 41 44 60 45 42 46
REMARK SMILES IDX 45 47 59 48 78 49 43 50 44 51 58 53 79 54 46 55 30 56 31 57
REMARK SMILES IDX 39 58 32 59 33 60 37 61 40 62 34 63 35 64 38 65 36 66 62 67
REMARK SMILES IDX 63 68 71 69 64 70 65 71 69 72 72 73 66 74 67 75 70 76 68 77
REMARK SMILES IDX 47 78 48 79 56 80 49 81 50 82 54 83 57 84 51 85 52 86 55 87
REMARK SMILES IDX 53 88
REMARK H PARENT 14 6 18 22 77 41 45 52
REMARK Flexibility Score: inf
ROOT
ATOM      1  C   UNL     1       7.715   3.284   3.690  1.00  0.00     0.042 C 
ENDROOT
BRANCH   1   2
ATOM      2  C   UNL     1       7.119   3.797   2.383  1.00  0.00     0.117 C 
BRANCH   2   3
ATOM      3  N   UNL     1       6.258   2.807   1.760  1.00  0.00    -0.355 N 
ATOM      4  C   UNL     1       4.908   2.685   1.597  1.00  0.00     0.230 C 
ATOM      5  O   UNL     1       4.580   1.556   1.222  1.00  0.00    -0.274 OA
ATOM      6  H   UNL     1       6.760   2.056   1.367  1.00  0.00     0.163 HD
BRANCH   4   7
ATOM      7  C   UNL     1       3.910   3.851   1.887  1.00  0.00     0.068 C 
ATOM      8  C   UNL     1       4.358   5.088   1.067  1.00  0.00     0.026 C 
ATOM      9  C   UNL     1       3.941   4.107   3.411  1.00  0.00     0.026 C 
BRANCH   7  10
ATOM     10  C   UNL     1       2.412   3.633   1.493  1.00  0.00    -0.031 A 
ATOM     11  C   UNL     1       0.577   2.366   0.400  1.00  0.00     0.036 A 
ATOM     12  C   UNL     1      -0.295   3.420   0.692  1.00  0.00     0.026 A 
ATOM     13  C   UNL     1       1.918   2.501   0.816  1.00  0.00     0.030 A 
ATOM     14  C   UNL     1       0.144   4.552   1.370  1.00  0.00     0.002 A 
ATOM     15  C   UNL     1       1.477   4.655   1.764  1.00  0.00     0.005 A 
BRANCH  11  16
ATOM     16  N   UNL     1       0.123   1.240  -0.288  1.00  0.00    -0.378 N 
ATOM     17  C   UNL     1       0.815  -0.033  -0.137  1.00  0.00     0.143 C 
ATOM     18  C   UNL     1      -0.592   1.474  -1.536  1.00  0.00     0.143 C 
ENDBRANCH  11  16
ENDBRANCH   7  10
ENDBRANCH   4   7
ENDBRANCH   2   3
ENDBRANCH   1   2
BRANCH   1  19
ATOM     19  C   UNL     1       8.541   2.010   3.552  1.00  0.00     0.118 C 
BRANCH  19  20
ATOM     20  N   UNL     1       9.689   2.173   2.673  1.00  0.00    -0.352 N 
ATOM     21  C   UNL     1      11.029   2.036   2.926  1.00  0.00     0.251 C 
ATOM     22  H   UNL     1       9.467   2.421   1.747  1.00  0.00     0.163 HD
ATOM     23  O   UNL     1      11.843   2.398   2.077  1.00  0.00    -0.269 OA
BRANCH  21  24
ATOM     24  C   UNL     1      11.511   1.482   4.210  1.00  0.00     0.039 A 
ATOM     25  C   UNL     1      12.645   2.050   4.798  1.00  0.00     0.014 A 
ATOM     26  C   UNL     1      10.889   0.387   4.816  1.00  0.00     0.014 A 
ATOM     27  C   UNL     1      13.120   1.557   6.014  1.00  0.00     0.010 A 
ATOM     28  C   UNL     1      11.311  -0.049   6.071  1.00  0.00     0.010 A 
ATOM     29  C   UNL     1      12.438   0.522   6.677  1.00  0.00    -0.014 A 
BRANCH  29  30
ATOM     30  C   UNL     1      12.912   0.025   7.994  1.00  0.00     0.031 A 
ATOM     31  C   UNL     1      13.410  -1.387   8.140  1.00  0.00     0.074 A 
ATOM     32  C   UNL     1      12.866   0.839   9.067  1.00  0.00     0.049 A 
ATOM     33  N   UNL     1      13.855  -2.002   9.208  1.00  0.00    -0.248 NA
ATOM     34  C   UNL     1      13.383  -2.229   6.934  1.00  0.00     0.031 C 
ATOM     35  C   UNL     1      12.348   2.208   9.068  1.00  0.00     0.029 A 
ATOM     36  N   UNL     1      13.260   0.632  10.365  1.00  0.00    -0.354 N 
ATOM     37  C   UNL     1      14.157  -3.295   8.802  1.00  0.00     0.074 A 
ATOM     38  C   UNL     1      13.784  -3.399   7.408  1.00  0.00     0.031 C 
ATOM     39  C   UNL     1      12.482   2.728  10.298  1.00  0.00     0.029 A 
ATOM     40  C   UNL     1      13.070   1.723  11.178  1.00  0.00     0.049 A 
ATOM     41  H   UNL     1      13.642  -0.217  10.684  1.00  0.00     0.167 HD
ATOM     42  C   UNL     1      14.725  -4.297   9.517  1.00  0.00     0.037 A 
ATOM     43  C   UNL     1      13.344   1.893  12.485  1.00  0.00     0.037 A 
ATOM     44  C   UNL     1      15.111  -4.189  10.899  1.00  0.00     0.049 A 
ATOM     45  C   UNL     1      13.989   0.770  13.250  1.00  0.00     0.074 A 
ATOM     46  C   UNL     1      15.714  -5.138  11.706  1.00  0.00     0.029 A 
ATOM     47  N   UNL     1      14.935  -3.055  11.678  1.00  0.00    -0.354 N 
ATOM     48  N   UNL     1      14.326  -0.428  12.837  1.00  0.00    -0.248 NA
ATOM     49  C   UNL     1      14.309   1.029  14.661  1.00  0.00     0.031 C 
ATOM     50  C   UNL     1      15.879  -4.588  12.982  1.00  0.00     0.029 A 
ATOM     51  C   UNL     1      15.416  -3.282  12.958  1.00  0.00     0.049 A 
ATOM     52  H   UNL     1      14.529  -2.213  11.368  1.00  0.00     0.167 HD
ATOM     53  C   UNL     1      14.918  -1.054  13.925  1.00  0.00     0.074 A 
ATOM     54  C   UNL     1      14.917  -0.095  15.010  1.00  0.00     0.031 C 
ATOM     55  C   UNL     1      15.415  -2.312  14.021  1.00  0.00     0.037 A 
BRANCH  42  56
ATOM     56  C   UNL     1      14.984  -5.593   8.805  1.00  0.00     0.064 A 
ATOM     57  C   UNL     1      15.983  -5.698   7.824  1.00  0.00     0.173 A 
ATOM     58  C   UNL     1      14.259  -6.749   9.128  1.00  0.00     0.173 A 
ATOM     59  F   UNL     1      16.696  -4.618   7.469  1.00  0.00    -0.203 F 
ATOM     60  C   UNL     1      16.230  -6.906   7.177  1.00  0.00     0.198 A 
ATOM     61  C   UNL     1      14.528  -7.962   8.499  1.00  0.00     0.198 A 
ATOM     62  F   UNL     1      13.296  -6.705  10.061  1.00  0.00    -0.203 F 
ATOM     63  F   UNL     1      17.158  -6.970   6.213  1.00  0.00    -0.200 F 
ATOM     64  C   UNL     1      15.507  -8.038   7.521  1.00  0.00     0.200 A 
ATOM     65  F   UNL     1      13.837  -9.059   8.840  1.00  0.00    -0.200 F 
ATOM     66  F   UNL     1      15.752  -9.202   6.903  1.00  0.00    -0.200 F 
ENDBRANCH  42  56
BRANCH  43  67
ATOM     67  C   UNL     1      13.043   3.188  13.149  1.00  0.00     0.064 A 
ATOM     68  C   UNL     1      14.074   4.038  13.573  1.00  0.00     0.173 A 
ATOM     69  C   UNL     1      11.723   3.592  13.392  1.00  0.00     0.173 A 
ATOM     70  F   UNL     1      15.354   3.686  13.380  1.00  0.00    -0.203 F 
ATOM     71  C   UNL     1      13.797   5.228  14.243  1.00  0.00     0.198 A 
ATOM     72  C   UNL     1      11.446   4.797  14.036  1.00  0.00     0.198 A 
ATOM     73  F   UNL     1      10.700   2.819  12.999  1.00  0.00    -0.203 F 
ATOM     74  F   UNL     1      14.803   5.994  14.687  1.00  0.00    -0.200 F 
ATOM     75  C   UNL     1      12.483   5.608  14.471  1.00  0.00     0.200 A 
ATOM     76  F   UNL     1      10.175   5.168  14.242  1.00  0.00    -0.200 F 
ATOM     77  F   UNL     1      12.217   6.751  15.118  1.00  0.00    -0.200 F 
ENDBRANCH  43  67
BRANCH  55  78
ATOM     78  C   UNL     1      16.027  -2.705  15.334  1.00  0.00     0.064 A 
ATOM     79  C   UNL     1      15.241  -2.928  16.474  1.00  0.00     0.173 A 
ATOM     80  C   UNL     1      17.415  -2.874  15.447  1.00  0.00     0.173 A 
ATOM     81  F   UNL     1      13.911  -2.763  16.420  1.00  0.00    -0.203 F 
ATOM     82  C   UNL     1      15.827  -3.272  17.689  1.00  0.00     0.198 A 
ATOM     83  C   UNL     1      17.994  -3.248  16.656  1.00  0.00     0.198 A 
ATOM     84  F   UNL     1      18.209  -2.680  14.383  1.00  0.00    -0.203 F 
ATOM     85  F   UNL     1      15.062  -3.425  18.779  1.00  0.00    -0.200 F 
ATOM     86  C   UNL     1      17.201  -3.437  17.778  1.00  0.00     0.200 A 
ATOM     87  F   UNL     1      19.321  -3.418  16.738  1.00  0.00    -0.200 F 
ATOM     88  F   UNL     1      17.763  -3.767  18.949  1.00  0.00    -0.200 F 
ENDBRANCH  55  78
ENDBRANCH  29  30
ENDBRANCH  21  24
ENDBRANCH  19  20
ENDBRANCH   1  19
TORSDOF 12
