REMARK SMILES CCOCCC[N@@H+]1[C@@H](C(=O)NCCCNC(=O)c2ccc(-c3c4nc(c(-c5c(F)c(F)c(F)c(F)c5F)c5ccc([nH]5)c(-c5c(F)c(F)c(F)c(F)c5F)c5nc(c(-c6c(F)c(F)c(F)c(F)c6F)c6ccc3[nH]6)C=C5)C=C4)cc2)CC[C@H]2CCCC[C@H]21
REMARK SMILES IDX 9 1 10 2 11 3 8 5 7 6 88 7 81 9 83 10 87 11 82 12 84 13
REMARK SMILES IDX 86 14 85 15 6 16 5 17 4 18 3 19 2 20 1 21 12 22 13 23 14 24
REMARK SMILES IDX 15 25 16 26 17 28 18 29 19 30 80 31 20 32 79 33 21 34 22 35
REMARK SMILES IDX 23 36 73 37 24 38 78 39 72 40 74 41 25 42 77 43 71 44 70 45
REMARK SMILES IDX 26 47 58 48 38 49 57 50 39 51 42 52 56 53 75 54 40 55 41 56
REMARK SMILES IDX 55 58 76 59 43 60 27 61 28 62 36 63 29 64 30 65 34 66 37 67
REMARK SMILES IDX 31 68 32 69 35 70 33 71 59 72 60 73 68 74 61 75 62 76 66 77
REMARK SMILES IDX 69 78 63 79 64 80 67 81 65 82 44 83 45 84 53 85 46 86 47 87
REMARK SMILES IDX 51 88 54 89 48 90 49 91 52 92 50 93
REMARK H PARENT 11 4 7 8 15 27 74 46 42 57
REMARK Flexibility Score: inf
ROOT
ATOM      1  C   UNL     1       4.905  -0.751  -0.565  1.00  0.00     0.278 C 
ATOM      2  O   UNL     1       5.241  -1.847  -0.102  1.00  0.00    -0.268 OA
ATOM      3  N   UNL     1       5.774  -0.139  -1.419  1.00  0.00    -0.351 N 
ATOM      4  H   UNL     1       6.550  -0.681  -1.691  1.00  0.00     0.163 HD
ENDROOT
BRANCH   1   5
ATOM      5  C   UNL     1       3.557  -0.106  -0.169  1.00  0.00     0.274 C 
ATOM      6  N   UNL     1       2.779   0.298  -1.360  1.00  0.00    -0.322 N 
ATOM      7  C   UNL     1       1.682   1.264  -1.127  1.00  0.00     0.187 C 
ATOM      8  H   UNL     1       3.481   0.844  -1.859  1.00  0.00     0.349 HD
ATOM      9  C   UNL     1       3.820   0.977   0.884  1.00  0.00     0.076 C 
ATOM     10  C   UNL     1       2.011   2.397  -0.122  1.00  0.00     0.048 C 
ATOM     11  C   UNL     1       1.165   1.940  -2.420  1.00  0.00     0.065 C 
ATOM     12  C   UNL     1       2.579   1.808   1.170  1.00  0.00     0.016 C 
ATOM     13  C   UNL     1       2.921   3.512  -0.679  1.00  0.00     0.010 C 
ATOM     14  C   UNL     1       2.210   2.852  -3.047  1.00  0.00     0.006 C 
ATOM     15  C   UNL     1       2.595   3.976  -2.096  1.00  0.00     0.001 C 
BRANCH   6  16
ATOM     16  C   UNL     1       2.429  -0.785  -2.312  1.00  0.00     0.265 C 
BRANCH  16  17
ATOM     17  C   UNL     1       2.579  -2.297  -2.037  1.00  0.00     0.090 C 
BRANCH  17  18
ATOM     18  C   UNL     1       1.820  -2.958  -0.884  1.00  0.00     0.166 C 
BRANCH  18  19
ATOM     19  O   UNL     1       0.409  -3.042  -1.049  1.00  0.00    -0.382 OA
BRANCH  19  20
ATOM     20  C   UNL     1      -0.365  -1.898  -0.714  1.00  0.00     0.156 C 
ATOM     21  C   UNL     1      -0.217  -1.421   0.722  1.00  0.00     0.035 C 
ENDBRANCH  19  20
ENDBRANCH  18  19
ENDBRANCH  17  18
ENDBRANCH  16  17
ENDBRANCH   6  16
ENDBRANCH   1   5
BRANCH   3  22
ATOM     22  C   UNL     1       5.723   1.194  -1.984  1.00  0.00     0.118 C 
BRANCH  22  23
ATOM     23  C   UNL     1       6.718   2.126  -1.305  1.00  0.00     0.042 C 
BRANCH  23  24
ATOM     24  C   UNL     1       8.164   1.742  -1.565  1.00  0.00     0.118 C 
BRANCH  24  25
ATOM     25  N   UNL     1       8.539   1.933  -2.958  1.00  0.00    -0.352 N 
ATOM     26  C   UNL     1       9.524   2.720  -3.489  1.00  0.00     0.251 C 
ATOM     27  H   UNL     1       8.008   1.422  -3.612  1.00  0.00     0.163 HD
ATOM     28  O   UNL     1       9.556   2.929  -4.704  1.00  0.00    -0.269 OA
BRANCH  26  29
ATOM     29  C   UNL     1      10.541   3.330  -2.611  1.00  0.00     0.039 A 
ATOM     30  C   UNL     1      10.947   4.644  -2.856  1.00  0.00     0.014 A 
ATOM     31  C   UNL     1      11.111   2.603  -1.562  1.00  0.00     0.014 A 
ATOM     32  C   UNL     1      11.896   5.240  -2.025  1.00  0.00     0.010 A 
ATOM     33  C   UNL     1      11.984   3.228  -0.679  1.00  0.00     0.010 A 
ATOM     34  C   UNL     1      12.405   4.544  -0.917  1.00  0.00    -0.014 A 
BRANCH  34  35
ATOM     35  C   UNL     1      13.418   5.156  -0.023  1.00  0.00     0.031 A 
ATOM     36  C   UNL     1      14.793   4.552   0.070  1.00  0.00     0.074 A 
ATOM     37  C   UNL     1      13.089   6.220   0.734  1.00  0.00     0.049 A 
ATOM     38  N   UNL     1      15.801   4.897   0.830  1.00  0.00    -0.248 NA
ATOM     39  C   UNL     1      15.061   3.384  -0.785  1.00  0.00     0.031 C 
ATOM     40  C   UNL     1      11.775   6.864   0.763  1.00  0.00     0.029 A 
ATOM     41  N   UNL     1      13.834   6.943   1.629  1.00  0.00    -0.354 N 
ATOM     42  C   UNL     1      16.810   3.983   0.556  1.00  0.00     0.074 A 
ATOM     43  C   UNL     1      16.274   3.030  -0.390  1.00  0.00     0.031 C 
ATOM     44  C   UNL     1      11.816   7.906   1.609  1.00  0.00     0.029 A 
ATOM     45  C   UNL     1      13.145   7.980   2.208  1.00  0.00     0.049 A 
ATOM     46  H   UNL     1      14.774   6.739   1.838  1.00  0.00     0.167 HD
ATOM     47  C   UNL     1      18.079   3.959   1.026  1.00  0.00     0.037 A 
ATOM     48  C   UNL     1      13.544   8.887   3.119  1.00  0.00     0.037 A 
ATOM     49  C   UNL     1      18.616   4.927   1.944  1.00  0.00     0.049 A 
ATOM     50  C   UNL     1      14.961   8.838   3.626  1.00  0.00     0.074 A 
ATOM     51  C   UNL     1      19.900   5.019   2.452  1.00  0.00     0.029 A 
ATOM     52  N   UNL     1      17.893   5.978   2.490  1.00  0.00    -0.354 N 
ATOM     53  N   UNL     1      15.924   8.004   3.315  1.00  0.00    -0.248 NA
ATOM     54  C   UNL     1      15.348   9.864   4.603  1.00  0.00     0.031 C 
ATOM     55  C   UNL     1      19.944   6.103   3.335  1.00  0.00     0.029 A 
ATOM     56  C   UNL     1      18.702   6.717   3.338  1.00  0.00     0.049 A 
ATOM     57  H   UNL     1      16.946   6.170   2.303  1.00  0.00     0.167 HD
ATOM     58  C   UNL     1      17.038   8.426   4.028  1.00  0.00     0.074 A 
ATOM     59  C   UNL     1      16.635   9.597   4.777  1.00  0.00     0.031 C 
ATOM     60  C   UNL     1      18.284   7.892   4.060  1.00  0.00     0.037 A 
BRANCH  47  61
ATOM     61  C   UNL     1      18.976   2.855   0.543  1.00  0.00     0.064 A 
ATOM     62  C   UNL     1      19.425   2.802  -0.786  1.00  0.00     0.173 A 
ATOM     63  C   UNL     1      19.414   1.854   1.422  1.00  0.00     0.173 A 
ATOM     64  F   UNL     1      19.024   3.727  -1.672  1.00  0.00    -0.203 F 
ATOM     65  C   UNL     1      20.251   1.771  -1.224  1.00  0.00     0.198 A 
ATOM     66  C   UNL     1      20.267   0.842   0.988  1.00  0.00     0.198 A 
ATOM     67  F   UNL     1      19.020   1.858   2.704  1.00  0.00    -0.203 F 
ATOM     68  F   UNL     1      20.622   1.712  -2.511  1.00  0.00    -0.200 F 
ATOM     69  C   UNL     1      20.678   0.796  -0.336  1.00  0.00     0.200 A 
ATOM     70  F   UNL     1      20.690  -0.092   1.851  1.00  0.00    -0.200 F 
ATOM     71  F   UNL     1      21.479  -0.192  -0.757  1.00  0.00    -0.200 F 
ENDBRANCH  47  61
BRANCH  48  72
ATOM     72  C   UNL     1      12.606   9.942   3.583  1.00  0.00     0.064 A 
ATOM     73  C   UNL     1      12.808  11.286   3.236  1.00  0.00     0.173 A 
ATOM     74  C   UNL     1      11.500   9.637   4.389  1.00  0.00     0.173 A 
ATOM     75  F   UNL     1      13.862  11.630   2.482  1.00  0.00    -0.203 F 
ATOM     76  C   UNL     1      11.957  12.286   3.700  1.00  0.00     0.198 A 
ATOM     77  C   UNL     1      10.632  10.634   4.828  1.00  0.00     0.198 A 
ATOM     78  F   UNL     1      11.257   8.367   4.744  1.00  0.00    -0.203 F 
ATOM     79  F   UNL     1      12.204  13.567   3.395  1.00  0.00    -0.200 F 
ATOM     80  C   UNL     1      10.867  11.959   4.492  1.00  0.00     0.200 A 
ATOM     81  F   UNL     1       9.571  10.313   5.581  1.00  0.00    -0.200 F 
ATOM     82  F   UNL     1      10.047  12.921   4.937  1.00  0.00    -0.200 F 
ENDBRANCH  48  72
BRANCH  60  83
ATOM     83  C   UNL     1      19.314   8.601   4.890  1.00  0.00     0.064 A 
ATOM     84  C   UNL     1      19.276   8.579   6.292  1.00  0.00     0.173 A 
ATOM     85  C   UNL     1      20.372   9.284   4.271  1.00  0.00     0.173 A 
ATOM     86  F   UNL     1      18.276   7.952   6.930  1.00  0.00    -0.203 F 
ATOM     87  C   UNL     1      20.243   9.241   7.043  1.00  0.00     0.198 A 
ATOM     88  C   UNL     1      21.355   9.917   5.026  1.00  0.00     0.198 A 
ATOM     89  F   UNL     1      20.459   9.328   2.933  1.00  0.00    -0.203 F 
ATOM     90  F   UNL     1      20.158   9.251   8.381  1.00  0.00    -0.200 F 
ATOM     91  C   UNL     1      21.285   9.902   6.410  1.00  0.00     0.200 A 
ATOM     92  F   UNL     1      22.369  10.543   4.413  1.00  0.00    -0.200 F 
ATOM     93  F   UNL     1      22.218  10.534   7.136  1.00  0.00    -0.200 F 
ENDBRANCH  60  83
ENDBRANCH  34  35
ENDBRANCH  26  29
ENDBRANCH  24  25
ENDBRANCH  23  24
ENDBRANCH  22  23
ENDBRANCH   3  22
TORSDOF 15
