REMARK SMILES Cc1nc(S[C@@H](C(=O)NCCCNC(=O)c2ccc(-c3c4nc(c(-c5c(F)c(F)c(F)c(F)c5F)c5ccc([nH]5)c(-c5c(F)c(F)c(F)c(F)c5F)c5nc(c(-c6c(F)c(F)c(F)c(F)c6F)c6ccc3[nH]6)C=C5)C=C4)cc2)c2ccccc2)nc2ccccc12
REMARK SMILES IDX 11 1 10 2 9 3 7 4 8 5 6 7 5 8 4 9 1 10 2 11 3 12 91 13 86 14
REMARK SMILES IDX 90 15 85 16 87 17 89 18 88 19 79 20 80 21 84 22 81 23 83 24
REMARK SMILES IDX 82 25 12 26 13 27 14 28 15 30 16 31 17 32 78 33 18 34 77 35
REMARK SMILES IDX 19 36 20 37 21 38 71 39 22 40 76 41 70 42 72 43 23 44 75 45
REMARK SMILES IDX 69 46 68 47 24 49 56 50 36 51 55 52 37 53 40 54 54 55 73 56
REMARK SMILES IDX 38 57 39 58 53 60 74 61 41 62 25 63 26 64 34 65 27 66 28 67
REMARK SMILES IDX 32 68 35 69 29 70 30 71 33 72 31 73 57 74 58 75 66 76 59 77
REMARK SMILES IDX 60 78 64 79 67 80 61 81 62 82 65 83 63 84 42 85 43 86 51 87
REMARK SMILES IDX 44 88 45 89 49 90 52 91 46 92 47 93 50 94 48 95
REMARK H PARENT 9 6 13 29 72 48 40 59
REMARK Flexibility Score: inf
ROOT
ATOM      1  C   UNL     1      -2.614  -3.303   4.808  1.00  0.00     0.042 C 
ENDROOT
BRANCH   1   2
ATOM      2  C   UNL     1      -3.595  -2.253   4.296  1.00  0.00     0.117 C 
BRANCH   2   3
ATOM      3  N   UNL     1      -2.925  -1.106   3.706  1.00  0.00    -0.355 N 
ATOM      4  C   UNL     1      -2.763  -0.733   2.394  1.00  0.00     0.238 C 
ATOM      5  O   UNL     1      -2.193   0.348   2.213  1.00  0.00    -0.273 OA
ATOM      6  H   UNL     1      -2.518  -0.491   4.358  1.00  0.00     0.163 HD
BRANCH   4   7
ATOM      7  C   UNL     1      -3.374  -1.573   1.258  1.00  0.00     0.174 C 
BRANCH   7   8
ATOM      8  S   UNL     1      -2.653  -3.249   1.095  1.00  0.00    -0.068 SA
BRANCH   8   9
ATOM      9  C   UNL     1      -0.913  -2.970   0.920  1.00  0.00     0.189 A 
ATOM     10  C   UNL     1       1.250  -0.075   0.550  1.00  0.00     0.067 C 
ATOM     11  C   UNL     1       0.836  -1.518   0.597  1.00  0.00     0.050 A 
ATOM     12  N   UNL     1      -0.430  -1.733   1.015  1.00  0.00    -0.227 NA
ATOM     13  C   UNL     1       1.654  -2.551   0.129  1.00  0.00     0.022 A 
ATOM     14  C   UNL     1       1.077  -3.827   0.180  1.00  0.00     0.075 A 
ATOM     15  C   UNL     1       2.964  -2.392  -0.386  1.00  0.00     0.012 A 
ATOM     16  N   UNL     1      -0.186  -4.037   0.568  1.00  0.00    -0.222 NA
ATOM     17  C   UNL     1       1.836  -4.913  -0.234  1.00  0.00     0.029 A 
ATOM     18  C   UNL     1       3.695  -3.495  -0.819  1.00  0.00     0.001 A 
ATOM     19  C   UNL     1       3.134  -4.762  -0.731  1.00  0.00     0.002 A 
ENDBRANCH   8   9
ENDBRANCH   7   8
BRANCH   7  20
ATOM     20  C   UNL     1      -3.598  -0.805  -0.048  1.00  0.00    -0.025 A 
ATOM     21  C   UNL     1      -2.592  -0.573  -0.998  1.00  0.00     0.005 A 
ATOM     22  C   UNL     1      -4.859  -0.228  -0.292  1.00  0.00     0.005 A 
ATOM     23  C   UNL     1      -2.824   0.203  -2.137  1.00  0.00     0.000 A 
ATOM     24  C   UNL     1      -5.096   0.545  -1.434  1.00  0.00     0.000 A 
ATOM     25  C   UNL     1      -4.076   0.764  -2.354  1.00  0.00     0.000 A 
ENDBRANCH   7  20
ENDBRANCH   4   7
ENDBRANCH   2   3
ENDBRANCH   1   2
BRANCH   1  26
ATOM     26  C   UNL     1      -1.687  -2.815   5.917  1.00  0.00     0.118 C 
BRANCH  26  27
ATOM     27  N   UNL     1      -2.369  -2.588   7.184  1.00  0.00    -0.352 N 
ATOM     28  C   UNL     1      -2.118  -3.110   8.432  1.00  0.00     0.251 C 
ATOM     29  H   UNL     1      -3.129  -1.964   7.141  1.00  0.00     0.163 HD
ATOM     30  O   UNL     1      -2.898  -2.885   9.354  1.00  0.00    -0.269 OA
BRANCH  28  31
ATOM     31  C   UNL     1      -0.938  -3.974   8.667  1.00  0.00     0.039 A 
ATOM     32  C   UNL     1       0.312  -3.657   8.134  1.00  0.00     0.014 A 
ATOM     33  C   UNL     1      -1.091  -5.132   9.437  1.00  0.00     0.014 A 
ATOM     34  C   UNL     1       1.353  -4.580   8.214  1.00  0.00     0.010 A 
ATOM     35  C   UNL     1      -0.020  -6.019   9.588  1.00  0.00     0.010 A 
ATOM     36  C   UNL     1       1.194  -5.779   8.928  1.00  0.00    -0.014 A 
BRANCH  36  37
ATOM     37  C   UNL     1       2.295  -6.778   8.937  1.00  0.00     0.031 A 
ATOM     38  C   UNL     1       2.122  -8.114   8.263  1.00  0.00     0.074 A 
ATOM     39  C   UNL     1       3.482  -6.457   9.486  1.00  0.00     0.049 A 
ATOM     40  N   UNL     1       2.983  -9.093   8.130  1.00  0.00    -0.248 NA
ATOM     41  C   UNL     1       0.810  -8.388   7.656  1.00  0.00     0.031 C 
ATOM     42  C   UNL     1       3.785  -5.188  10.147  1.00  0.00     0.029 A 
ATOM     43  N   UNL     1       4.663  -7.154   9.543  1.00  0.00    -0.354 N 
ATOM     44  C   UNL     1       2.318 -10.094   7.435  1.00  0.00     0.074 A 
ATOM     45  C   UNL     1       0.969  -9.625   7.208  1.00  0.00     0.031 C 
ATOM     46  C   UNL     1       5.084  -5.169  10.484  1.00  0.00     0.029 A 
ATOM     47  C   UNL     1       5.690  -6.445  10.116  1.00  0.00     0.049 A 
ATOM     48  H   UNL     1       4.764  -8.074   9.207  1.00  0.00     0.167 HD
ATOM     49  C   UNL     1       2.794 -11.288   7.006  1.00  0.00     0.037 A 
ATOM     50  C   UNL     1       6.977  -6.783  10.321  1.00  0.00     0.037 A 
ATOM     51  C   UNL     1       4.140 -11.753   7.218  1.00  0.00     0.049 A 
ATOM     52  C   UNL     1       7.461  -8.141   9.898  1.00  0.00     0.074 A 
ATOM     53  C   UNL     1       4.712 -12.950   6.821  1.00  0.00     0.029 A 
ATOM     54  N   UNL     1       5.127 -11.039   7.880  1.00  0.00    -0.354 N 
ATOM     55  N   UNL     1       6.818  -9.084   9.255  1.00  0.00    -0.248 NA
ATOM     56  C   UNL     1       8.847  -8.487  10.245  1.00  0.00     0.031 C 
ATOM     57  C   UNL     1       6.035 -12.975   7.276  1.00  0.00     0.029 A 
ATOM     58  C   UNL     1       6.299 -11.777   7.919  1.00  0.00     0.049 A 
ATOM     59  H   UNL     1       5.011 -10.140   8.266  1.00  0.00     0.167 HD
ATOM     60  C   UNL     1       7.719 -10.129   9.109  1.00  0.00     0.074 A 
ATOM     61  C   UNL     1       8.962  -9.697   9.716  1.00  0.00     0.031 C 
ATOM     62  C   UNL     1       7.529 -11.338   8.529  1.00  0.00     0.037 A 
BRANCH  49  63
ATOM     63  C   UNL     1       1.847 -12.185   6.262  1.00  0.00     0.064 A 
ATOM     64  C   UNL     1       1.449 -11.898   4.948  1.00  0.00     0.173 A 
ATOM     65  C   UNL     1       1.371 -13.367   6.849  1.00  0.00     0.173 A 
ATOM     66  F   UNL     1       1.868 -10.774   4.346  1.00  0.00    -0.203 F 
ATOM     67  C   UNL     1       0.590 -12.749   4.257  1.00  0.00     0.198 A 
ATOM     68  C   UNL     1       0.533 -14.229   6.146  1.00  0.00     0.198 A 
ATOM     69  F   UNL     1       1.728 -13.692   8.100  1.00  0.00    -0.203 F 
ATOM     70  F   UNL     1       0.192 -12.434   3.017  1.00  0.00    -0.200 F 
ATOM     71  C   UNL     1       0.139 -13.917   4.854  1.00  0.00     0.200 A 
ATOM     72  F   UNL     1       0.108 -15.364   6.719  1.00  0.00    -0.200 F 
ATOM     73  F   UNL     1      -0.680 -14.740   4.184  1.00  0.00    -0.200 F 
ENDBRANCH  49  63
BRANCH  50  74
ATOM     74  C   UNL     1       7.901  -5.799  10.940  1.00  0.00     0.064 A 
ATOM     75  C   UNL     1       8.903  -5.184  10.178  1.00  0.00     0.173 A 
ATOM     76  C   UNL     1       7.779  -5.426  12.286  1.00  0.00     0.173 A 
ATOM     77  F   UNL     1       9.071  -5.526   8.892  1.00  0.00    -0.203 F 
ATOM     78  C   UNL     1       9.747  -4.229  10.739  1.00  0.00     0.198 A 
ATOM     79  C   UNL     1       8.607  -4.453  12.839  1.00  0.00     0.198 A 
ATOM     80  F   UNL     1       6.835  -5.987  13.055  1.00  0.00    -0.203 F 
ATOM     81  F   UNL     1      10.711  -3.670   9.995  1.00  0.00    -0.200 F 
ATOM     82  C   UNL     1       9.592  -3.856  12.066  1.00  0.00     0.200 A 
ATOM     83  F   UNL     1       8.445  -4.086  14.117  1.00  0.00    -0.200 F 
ATOM     84  F   UNL     1      10.393  -2.924  12.600  1.00  0.00    -0.200 F 
ENDBRANCH  50  74
BRANCH  62  85
ATOM     85  C   UNL     1       8.690 -12.286   8.511  1.00  0.00     0.064 A 
ATOM     86  C   UNL     1       9.095 -12.965   9.669  1.00  0.00     0.173 A 
ATOM     87  C   UNL     1       9.365 -12.565   7.313  1.00  0.00     0.173 A 
ATOM     88  F   UNL     1       8.491 -12.721  10.841  1.00  0.00    -0.203 F 
ATOM     89  C   UNL     1      10.143 -13.881   9.630  1.00  0.00     0.198 A 
ATOM     90  C   UNL     1      10.395 -13.500   7.273  1.00  0.00     0.198 A 
ATOM     91  F   UNL     1       9.010 -11.945   6.177  1.00  0.00    -0.203 F 
ATOM     92  F   UNL     1      10.535 -14.496  10.755  1.00  0.00    -0.200 F 
ATOM     93  C   UNL     1      10.786 -14.154   8.432  1.00  0.00     0.200 A 
ATOM     94  F   UNL     1      11.008 -13.771   6.112  1.00  0.00    -0.200 F 
ATOM     95  F   UNL     1      11.786 -15.046   8.394  1.00  0.00    -0.200 F 
ENDBRANCH  62  85
ENDBRANCH  36  37
ENDBRANCH  28  31
ENDBRANCH  26  27
ENDBRANCH   1  26
TORSDOF 13
