REMARK SMILES CSCC[C@H](C(=O)NCCCNC(=O)c1ccc(-c2c3nc(c(-c4c(F)c(F)c(F)c(F)c4F)c4ccc([nH]4)c(-c4c(F)c(F)c(F)c(F)c4F)c4nc(c(-c5c(F)c(F)c(F)c(F)c5F)c5ccc2[nH]5)C=C4)C=C3)cc1)N1C(=O)/C(=C/c2cn(C)c3ccccc23)SC1=S
REMARK SMILES IDX 9 1 8 2 6 3 7 4 5 6 4 7 3 8 2 9 1 10 78 11 79 12 94 13 80 14
REMARK SMILES IDX 81 15 93 16 95 17 82 18 83 19 84 20 92 21 85 22 87 23 91 24
REMARK SMILES IDX 86 25 88 26 90 27 89 28 10 29 11 30 12 31 13 32 14 34 15 35
REMARK SMILES IDX 16 36 77 37 17 38 76 39 18 40 19 41 20 42 70 43 21 44 75 45
REMARK SMILES IDX 69 46 71 47 22 48 74 49 68 50 67 51 23 53 55 54 35 55 54 56
REMARK SMILES IDX 36 57 39 58 53 59 72 60 37 61 38 62 52 64 73 65 40 66 24 67
REMARK SMILES IDX 25 68 33 69 26 70 27 71 31 72 34 73 28 74 29 75 32 76 30 77
REMARK SMILES IDX 56 78 57 79 65 80 58 81 59 82 63 83 66 84 60 85 61 86 64 87
REMARK SMILES IDX 62 88 41 89 42 90 50 91 43 92 44 93 48 94 51 95 45 96 46 97
REMARK SMILES IDX 49 98 47 99
REMARK H PARENT 8 5 12 33 71 52 39 63
REMARK Flexibility Score: inf
ROOT
ATOM      1  C   UNL     1      -0.314  -3.295   4.717  1.00  0.00     0.117 C 
ENDROOT
BRANCH   1   2
ATOM      2  N   UNL     1       0.288  -2.038   4.415  1.00  0.00    -0.354 N 
ATOM      3  C   UNL     1       1.044  -1.678   3.359  1.00  0.00     0.243 C 
ATOM      4  O   UNL     1       1.669  -0.619   3.532  1.00  0.00    -0.273 OA
ATOM      5  H   UNL     1       0.127  -1.327   5.077  1.00  0.00     0.163 HD
BRANCH   3   6
ATOM      6  C   UNL     1       1.092  -2.385   1.945  1.00  0.00     0.182 C 
BRANCH   6   7
ATOM      7  C   UNL     1       2.620  -2.322   1.506  1.00  0.00     0.046 C 
BRANCH   7   8
ATOM      8  C   UNL     1       3.172  -2.970   0.226  1.00  0.00     0.072 C 
BRANCH   8   9
ATOM      9  S   UNL     1       3.319  -1.871  -1.256  1.00  0.00    -0.165 SA
ATOM     10  C   UNL     1       2.046  -2.456  -2.423  1.00  0.00     0.085 C 
ENDBRANCH   8   9
ENDBRANCH   7   8
ENDBRANCH   6   7
BRANCH   6  11
ATOM     11  N   UNL     1       0.230  -3.900   1.552  1.00  0.00    -0.280 N 
ATOM     12  C   UNL     1       0.952  -4.715   2.247  1.00  0.00     0.266 C 
ATOM     13  C   UNL     1      -1.324  -4.089   0.283  1.00  0.00     0.149 C 
ATOM     14  O   UNL     1       1.921  -4.719   2.951  1.00  0.00    -0.268 OA
ATOM     15  C   UNL     1       0.229  -5.573   1.484  1.00  0.00     0.081 C 
ATOM     16  S   UNL     1      -1.686  -5.473  -0.108  1.00  0.00    -0.054 SA
ATOM     17  S   UNL     1      -2.512  -2.928  -0.764  1.00  0.00    -0.052 S 
ATOM     18  C   UNL     1       0.953  -6.794   1.694  1.00  0.00     0.031 C 
BRANCH  18  19
ATOM     19  C   UNL     1       0.390  -7.799   0.904  1.00  0.00     0.001 A 
ATOM     20  C   UNL     1      -0.726  -8.558   1.310  1.00  0.00     0.094 A 
ATOM     21  C   UNL     1      -0.170  -6.741   0.167  1.00  0.00     0.007 A 
ATOM     22  N   UNL     1      -1.796  -7.764   1.792  1.00  0.00    -0.350 N 
ATOM     23  C   UNL     1      -1.404  -6.438   1.688  1.00  0.00     0.048 A 
ATOM     24  C   UNL     1       0.503  -4.980  -0.482  1.00  0.00     0.011 A 
ATOM     25  C   UNL     1      -3.190  -8.150   1.670  1.00  0.00     0.149 C 
ATOM     26  C   UNL     1      -1.781  -4.592   2.189  1.00  0.00     0.027 A 
ATOM     27  C   UNL     1       0.083  -3.102  -0.054  1.00  0.00     0.001 A 
ATOM     28  C   UNL     1      -1.199  -2.848   1.491  1.00  0.00     0.002 A 
ENDBRANCH  18  19
ENDBRANCH   6  11
ENDBRANCH   3   6
ENDBRANCH   1   2
BRANCH   1  29
ATOM     29  C   UNL     1       0.583  -4.172   5.553  1.00  0.00     0.042 C 
BRANCH  29  30
ATOM     30  C   UNL     1       0.312  -3.937   7.011  1.00  0.00     0.118 C 
BRANCH  30  31
ATOM     31  N   UNL     1      -1.068  -4.286   7.353  1.00  0.00    -0.352 N 
ATOM     32  C   UNL     1      -1.530  -5.266   8.188  1.00  0.00     0.251 C 
ATOM     33  H   UNL     1      -1.762  -3.738   6.920  1.00  0.00     0.163 HD
ATOM     34  O   UNL     1      -2.693  -5.642   8.128  1.00  0.00    -0.269 OA
BRANCH  32  35
ATOM     35  C   UNL     1      -0.589  -5.846   9.155  1.00  0.00     0.039 A 
ATOM     36  C   UNL     1      -0.668  -7.198   9.473  1.00  0.00     0.014 A 
ATOM     37  C   UNL     1       0.405  -5.035   9.706  1.00  0.00     0.014 A 
ATOM     38  C   UNL     1       0.286  -7.734  10.329  1.00  0.00     0.010 A 
ATOM     39  C   UNL     1       1.460  -5.610  10.374  1.00  0.00     0.010 A 
ATOM     40  C   UNL     1       1.370  -6.948  10.759  1.00  0.00    -0.014 A 
BRANCH  40  41
ATOM     41  C   UNL     1       2.380  -7.476  11.693  1.00  0.00     0.031 A 
ATOM     42  C   UNL     1       2.578  -6.802  13.023  1.00  0.00     0.074 A 
ATOM     43  C   UNL     1       3.119  -8.537  11.323  1.00  0.00     0.049 A 
ATOM     44  N   UNL     1       3.400  -7.114  13.991  1.00  0.00    -0.248 NA
ATOM     45  C   UNL     1       1.780  -5.591  13.294  1.00  0.00     0.031 C 
ATOM     46  C   UNL     1       3.048  -9.209  10.024  1.00  0.00     0.029 A 
ATOM     47  N   UNL     1       4.061  -9.245  12.015  1.00  0.00    -0.354 N 
ATOM     48  C   UNL     1       3.219  -6.139  14.963  1.00  0.00     0.074 A 
ATOM     49  C   UNL     1       2.293  -5.169  14.436  1.00  0.00     0.031 C 
ATOM     50  C   UNL     1       3.862 -10.274  10.037  1.00  0.00     0.029 A 
ATOM     51  C   UNL     1       4.548 -10.325  11.323  1.00  0.00     0.049 A 
ATOM     52  H   UNL     1       4.361  -9.004  12.921  1.00  0.00     0.167 HD
ATOM     53  C   UNL     1       3.744  -6.085  16.207  1.00  0.00     0.037 A 
ATOM     54  C   UNL     1       5.447 -11.251  11.698  1.00  0.00     0.037 A 
ATOM     55  C   UNL     1       4.650  -7.074  16.721  1.00  0.00     0.049 A 
ATOM     56  C   UNL     1       6.025 -11.161  13.084  1.00  0.00     0.074 A 
ATOM     57  C   UNL     1       5.217  -7.155  17.978  1.00  0.00     0.029 A 
ATOM     58  N   UNL     1       5.127  -8.156  15.992  1.00  0.00    -0.354 N 
ATOM     59  N   UNL     1       5.790 -10.280  14.028  1.00  0.00    -0.248 NA
ATOM     60  C   UNL     1       6.982 -12.206  13.461  1.00  0.00     0.031 C 
ATOM     61  C   UNL     1       6.095  -8.242  17.986  1.00  0.00     0.029 A 
ATOM     62  C   UNL     1       6.006  -8.894  16.765  1.00  0.00     0.049 A 
ATOM     63  H   UNL     1       4.877  -8.366  15.063  1.00  0.00     0.167 HD
ATOM     64  C   UNL     1       6.541 -10.685  15.123  1.00  0.00     0.074 A 
ATOM     65  C   UNL     1       7.218 -11.904  14.728  1.00  0.00     0.031 C 
ATOM     66  C   UNL     1       6.663 -10.106  16.345  1.00  0.00     0.037 A 
BRANCH  53  67
ATOM     67  C   UNL     1       3.353  -4.926  17.079  1.00  0.00     0.064 A 
ATOM     68  C   UNL     1       2.034  -4.745  17.531  1.00  0.00     0.173 A 
ATOM     69  C   UNL     1       4.312  -3.984  17.478  1.00  0.00     0.173 A 
ATOM     70  F   UNL     1       1.070  -5.603  17.163  1.00  0.00    -0.203 F 
ATOM     71  C   UNL     1       1.687  -3.650  18.317  1.00  0.00     0.198 A 
ATOM     72  C   UNL     1       3.970  -2.913  18.299  1.00  0.00     0.198 A 
ATOM     73  F   UNL     1       5.586  -4.102  17.072  1.00  0.00    -0.203 F 
ATOM     74  F   UNL     1       0.410  -3.464  18.678  1.00  0.00    -0.200 F 
ATOM     75  C   UNL     1       2.657  -2.741  18.709  1.00  0.00     0.200 A 
ATOM     76  F   UNL     1       4.912  -2.043  18.688  1.00  0.00    -0.200 F 
ATOM     77  F   UNL     1       2.325  -1.692  19.474  1.00  0.00    -0.200 F 
ENDBRANCH  53  67
BRANCH  54  78
ATOM     78  C   UNL     1       5.823 -12.346  10.767  1.00  0.00     0.064 A 
ATOM     79  C   UNL     1       5.504 -13.681  11.052  1.00  0.00     0.173 A 
ATOM     80  C   UNL     1       6.518 -12.082   9.578  1.00  0.00     0.173 A 
ATOM     81  F   UNL     1       4.846 -13.988  12.180  1.00  0.00    -0.203 F 
ATOM     82  C   UNL     1       5.900 -14.713  10.203  1.00  0.00     0.198 A 
ATOM     83  C   UNL     1       6.879 -13.110   8.710  1.00  0.00     0.198 A 
ATOM     84  F   UNL     1       6.833 -10.821   9.249  1.00  0.00    -0.203 F 
ATOM     85  F   UNL     1       5.638 -15.985  10.531  1.00  0.00    -0.200 F 
ATOM     86  C   UNL     1       6.583 -14.426   9.031  1.00  0.00     0.200 A 
ATOM     87  F   UNL     1       7.517 -12.825   7.567  1.00  0.00    -0.200 F 
ATOM     88  F   UNL     1       6.963 -15.418   8.214  1.00  0.00    -0.200 F 
ENDBRANCH  54  78
BRANCH  66  89
ATOM     89  C   UNL     1       7.515 -10.822  17.354  1.00  0.00     0.064 A 
ATOM     90  C   UNL     1       8.902 -10.963  17.195  1.00  0.00     0.173 A 
ATOM     91  C   UNL     1       6.928 -11.375  18.503  1.00  0.00     0.173 A 
ATOM     92  F   UNL     1       9.513 -10.459  16.112  1.00  0.00    -0.203 F 
ATOM     93  C   UNL     1       9.658 -11.683  18.115  1.00  0.00     0.198 A 
ATOM     94  C   UNL     1       7.695 -12.050  19.447  1.00  0.00     0.198 A 
ATOM     95  F   UNL     1       5.609 -11.255  18.716  1.00  0.00    -0.203 F 
ATOM     96  F   UNL     1      10.965 -11.881  17.895  1.00  0.00    -0.200 F 
ATOM     97  C   UNL     1       9.055 -12.221  19.243  1.00  0.00     0.200 A 
ATOM     98  F   UNL     1       7.114 -12.546  20.548  1.00  0.00    -0.200 F 
ATOM     99  F   UNL     1       9.784 -12.915  20.127  1.00  0.00    -0.200 F 
ENDBRANCH  66  89
ENDBRANCH  40  41
ENDBRANCH  32  35
ENDBRANCH  30  31
ENDBRANCH  29  30
ENDBRANCH   1  29
TORSDOF 15
