REMARK SMILES C[C@@H]1SC[C@H](C(=O)NCCCNC(=O)c2ccc(-c3c4nc(c(-c5c(F)c(F)c(F)c(F)c5F)c5ccc([nH]5)c(-c5c(F)c(F)c(F)c(F)c5F)c5nc(c(-c6c(F)c(F)c(F)c(F)c6F)c6ccc3[nH]6)C=C5)C=C4)cc2)N1C(=O)N(C)[C@@H](C)Cc1cccs1
REMARK SMILES IDX 6 1 7 2 8 3 5 5 1 6 2 7 3 8 78 9 4 10 79 11 80 12 81 13
REMARK SMILES IDX 82 14 83 15 84 16 85 17 86 18 87 19 90 20 88 21 89 22 9 23
REMARK SMILES IDX 10 24 11 25 12 26 13 27 14 29 15 30 16 31 77 32 17 33 76 34
REMARK SMILES IDX 18 35 19 36 20 37 70 38 21 39 75 40 69 41 71 42 22 43 74 44
REMARK SMILES IDX 68 45 67 46 23 48 55 49 35 50 54 51 36 52 39 53 53 54 72 55
REMARK SMILES IDX 37 56 38 57 52 59 73 60 40 61 24 62 25 63 33 64 26 65 27 66
REMARK SMILES IDX 31 67 34 68 28 69 29 70 32 71 30 72 56 73 57 74 65 75 58 76
REMARK SMILES IDX 59 77 63 78 66 79 60 80 61 81 64 82 62 83 41 84 42 85 50 86
REMARK SMILES IDX 43 87 44 88 48 89 51 90 45 91 46 92 49 93 47 94
REMARK H PARENT 8 4 12 28 71 47 39 58
REMARK Flexibility Score: inf
ROOT
ATOM      1  C   UNL     1       1.155  -4.865   0.792  1.00  0.00     0.243 C 
ATOM      2  O   UNL     1       0.856  -6.033   0.513  1.00  0.00    -0.273 OA
ATOM      3  N   UNL     1       1.803  -4.673   1.973  1.00  0.00    -0.354 N 
ATOM      4  H   UNL     1       2.115  -5.497   2.410  1.00  0.00     0.163 HD
ENDROOT
BRANCH   1   5
ATOM      5  C   UNL     1       0.596  -3.698  -0.051  1.00  0.00     0.187 C 
ATOM      6  C   UNL     1       0.843  -0.182   0.730  1.00  0.00     0.043 C 
ATOM      7  C   UNL     1       0.547  -1.260  -0.311  1.00  0.00     0.142 C 
ATOM      8  S   UNL     1      -1.192  -1.777  -0.137  1.00  0.00    -0.135 SA
ATOM      9  N   UNL     1       1.387  -2.451  -0.215  1.00  0.00    -0.300 N 
ATOM     10  C   UNL     1      -0.755  -3.363   0.576  1.00  0.00     0.107 C 
BRANCH   9  11
ATOM     11  C   UNL     1       2.708  -2.622  -0.590  1.00  0.00     0.321 C 
ATOM     12  O   UNL     1       3.162  -3.772  -0.621  1.00  0.00    -0.248 OA
BRANCH  11  13
ATOM     13  N   UNL     1       3.564  -1.564  -0.825  1.00  0.00    -0.325 N 
ATOM     14  C   UNL     1       3.229  -0.211  -1.251  1.00  0.00     0.149 C 
BRANCH  13  15
ATOM     15  C   UNL     1       5.035  -1.828  -0.788  1.00  0.00     0.088 C 
ATOM     16  C   UNL     1       5.502  -2.337   0.584  1.00  0.00     0.031 C 
BRANCH  15  17
ATOM     17  C   UNL     1       5.567  -2.736  -1.927  1.00  0.00     0.071 C 
BRANCH  17  18
ATOM     18  C   UNL     1       5.148  -2.277  -3.298  1.00  0.00     0.007 A 
ATOM     19  C   UNL     1       4.231  -2.871  -4.142  1.00  0.00     0.015 A 
ATOM     20  S   UNL     1       5.831  -0.872  -4.004  1.00  0.00    -0.149 S 
ATOM     21  C   UNL     1       4.014  -2.110  -5.326  1.00  0.00     0.012 A 
ATOM     22  C   UNL     1       4.789  -0.973  -5.356  1.00  0.00     0.065 A 
ENDBRANCH  17  18
ENDBRANCH  15  17
ENDBRANCH  13  15
ENDBRANCH  11  13
ENDBRANCH   9  11
ENDBRANCH   1   5
BRANCH   3  23
ATOM     23  C   UNL     1       2.108  -3.454   2.691  1.00  0.00     0.117 C 
BRANCH  23  24
ATOM     24  C   UNL     1       1.501  -3.471   4.087  1.00  0.00     0.042 C 
BRANCH  24  25
ATOM     25  C   UNL     1       2.047  -4.572   4.986  1.00  0.00     0.118 C 
BRANCH  25  26
ATOM     26  N   UNL     1       3.464  -4.406   5.277  1.00  0.00    -0.352 N 
ATOM     27  C   UNL     1       4.099  -4.210   6.479  1.00  0.00     0.251 C 
ATOM     28  H   UNL     1       4.058  -4.439   4.493  1.00  0.00     0.163 HD
ATOM     29  O   UNL     1       5.282  -3.890   6.503  1.00  0.00    -0.269 OA
BRANCH  27  30
ATOM     30  C   UNL     1       3.351  -4.360   7.747  1.00  0.00     0.039 A 
ATOM     31  C   UNL     1       3.562  -3.432   8.769  1.00  0.00     0.014 A 
ATOM     32  C   UNL     1       2.455  -5.416   7.934  1.00  0.00     0.014 A 
ATOM     33  C   UNL     1       2.824  -3.524   9.951  1.00  0.00     0.010 A 
ATOM     34  C   UNL     1       1.655  -5.452   9.071  1.00  0.00     0.010 A 
ATOM     35  C   UNL     1       1.836  -4.511  10.096  1.00  0.00    -0.014 A 
BRANCH  35  36
ATOM     36  C   UNL     1       0.988  -4.582  11.313  1.00  0.00     0.031 A 
ATOM     37  C   UNL     1       1.041  -5.794  12.201  1.00  0.00     0.074 A 
ATOM     38  C   UNL     1       0.127  -3.582  11.584  1.00  0.00     0.049 A 
ATOM     39  N   UNL     1       0.334  -6.072  13.268  1.00  0.00    -0.248 NA
ATOM     40  C   UNL     1       1.995  -6.849  11.823  1.00  0.00     0.031 C 
ATOM     41  C   UNL     1      -0.050  -2.375  10.776  1.00  0.00     0.029 A 
ATOM     42  N   UNL     1      -0.768  -3.426  12.613  1.00  0.00    -0.354 N 
ATOM     43  C   UNL     1       0.750  -7.332  13.678  1.00  0.00     0.074 A 
ATOM     44  C   UNL     1       1.722  -7.793  12.711  1.00  0.00     0.031 C 
ATOM     45  C   UNL     1      -0.971  -1.589  11.354  1.00  0.00     0.029 A 
ATOM     46  C   UNL     1      -1.482  -2.254  12.549  1.00  0.00     0.049 A 
ATOM     47  H   UNL     1      -0.887  -4.090  13.330  1.00  0.00     0.167 HD
ATOM     48  C   UNL     1       0.376  -8.030  14.777  1.00  0.00     0.037 A 
ATOM     49  C   UNL     1      -2.445  -1.775  13.359  1.00  0.00     0.037 A 
ATOM     50  C   UNL     1      -0.580  -7.560  15.746  1.00  0.00     0.049 A 
ATOM     51  C   UNL     1      -2.861  -2.582  14.560  1.00  0.00     0.074 A 
ATOM     52  C   UNL     1      -0.990  -8.168  16.919  1.00  0.00     0.029 A 
ATOM     53  N   UNL     1      -1.279  -6.365  15.649  1.00  0.00    -0.354 N 
ATOM     54  N   UNL     1      -2.411  -3.740  14.976  1.00  0.00    -0.248 NA
ATOM     55  C   UNL     1      -3.916  -2.009  15.407  1.00  0.00     0.031 C 
ATOM     56  C   UNL     1      -1.975  -7.366  17.506  1.00  0.00     0.029 A 
ATOM     57  C   UNL     1      -2.136  -6.230  16.729  1.00  0.00     0.049 A 
ATOM     58  H   UNL     1      -1.180  -5.710  14.920  1.00  0.00     0.167 HD
ATOM     59  C   UNL     1      -3.102  -4.020  16.148  1.00  0.00     0.074 A 
ATOM     60  C   UNL     1      -3.990  -2.901  16.384  1.00  0.00     0.031 C 
ATOM     61  C   UNL     1      -3.008  -5.104  16.956  1.00  0.00     0.037 A 
BRANCH  48  62
ATOM     62  C   UNL     1       1.005  -9.379  14.989  1.00  0.00     0.064 A 
ATOM     63  C   UNL     1       2.367  -9.515  15.300  1.00  0.00     0.173 A 
ATOM     64  C   UNL     1       0.233 -10.547  14.905  1.00  0.00     0.173 A 
ATOM     65  F   UNL     1       3.153  -8.431  15.382  1.00  0.00    -0.203 F 
ATOM     66  C   UNL     1       2.939 -10.771  15.483  1.00  0.00     0.198 A 
ATOM     67  C   UNL     1       0.801 -11.800  15.123  1.00  0.00     0.198 A 
ATOM     68  F   UNL     1      -1.075 -10.476  14.617  1.00  0.00    -0.203 F 
ATOM     69  F   UNL     1       4.254 -10.878  15.721  1.00  0.00    -0.200 F 
ATOM     70  C   UNL     1       2.155 -11.912  15.401  1.00  0.00     0.200 A 
ATOM     71  F   UNL     1       0.039 -12.900  15.058  1.00  0.00    -0.200 F 
ATOM     72  F   UNL     1       2.706 -13.120  15.583  1.00  0.00    -0.200 F 
ENDBRANCH  48  62
BRANCH  49  73
ATOM     73  C   UNL     1      -3.063  -0.452  13.080  1.00  0.00     0.064 A 
ATOM     74  C   UNL     1      -2.840   0.639  13.932  1.00  0.00     0.173 A 
ATOM     75  C   UNL     1      -3.893  -0.250  11.967  1.00  0.00     0.173 A 
ATOM     76  F   UNL     1      -2.069   0.492  15.020  1.00  0.00    -0.203 F 
ATOM     77  C   UNL     1      -3.441   1.874  13.695  1.00  0.00     0.198 A 
ATOM     78  C   UNL     1      -4.469   0.993  11.715  1.00  0.00     0.198 A 
ATOM     79  F   UNL     1      -4.135  -1.259  11.117  1.00  0.00    -0.203 F 
ATOM     80  F   UNL     1      -3.250   2.885  14.554  1.00  0.00    -0.200 F 
ATOM     81  C   UNL     1      -4.251   2.051  12.584  1.00  0.00     0.200 A 
ATOM     82  F   UNL     1      -5.238   1.165  10.631  1.00  0.00    -0.200 F 
ATOM     83  F   UNL     1      -4.827   3.239  12.355  1.00  0.00    -0.200 F 
ENDBRANCH  49  73
BRANCH  61  84
ATOM     84  C   UNL     1      -3.857  -5.116  18.195  1.00  0.00     0.064 A 
ATOM     85  C   UNL     1      -5.249  -5.271  18.136  1.00  0.00     0.173 A 
ATOM     86  C   UNL     1      -3.262  -5.005  19.461  1.00  0.00     0.173 A 
ATOM     87  F   UNL     1      -5.869  -5.365  16.949  1.00  0.00    -0.203 F 
ATOM     88  C   UNL     1      -6.018  -5.287  19.297  1.00  0.00     0.198 A 
ATOM     89  C   UNL     1      -4.029  -5.055  20.621  1.00  0.00     0.198 A 
ATOM     90  F   UNL     1      -1.933  -4.862  19.574  1.00  0.00    -0.203 F 
ATOM     91  F   UNL     1      -7.352  -5.383  19.214  1.00  0.00    -0.200 F 
ATOM     92  C   UNL     1      -5.407  -5.187  20.538  1.00  0.00     0.200 A 
ATOM     93  F   UNL     1      -3.435  -4.975  21.820  1.00  0.00    -0.200 F 
ATOM     94  F   UNL     1      -6.147  -5.210  21.655  1.00  0.00    -0.200 F 
ENDBRANCH  61  84
ENDBRANCH  35  36
ENDBRANCH  27  30
ENDBRANCH  25  26
ENDBRANCH  24  25
ENDBRANCH  23  24
ENDBRANCH   3  23
TORSDOF 15
