REMARK SMILES C=C1C(=O)O[C@H]2[C@@H]1[C@H](OC(=O)[C@]1(C)O[C@@H]1C)[C@@H](OC(C)=O)/C(C(=O)NCCCNC(=O)c1ccc(-c3c4nc(c(-c5c(F)c(F)c(F)c(F)c5F)c5ccc([nH]5)c(-c5c(F)c(F)c(F)c(F)c5F)c5nc(c(-c6c(F)c(F)c(F)c(F)c6F)c6ccc3[nH]6)C=C5)C=C4)cc1)=C/[C@@H]1O[C@@H]1[C@]1(C)O[C@H]21
REMARK SMILES IDX 23 1 24 2 25 3 22 5 95 6 17 7 8 8 7 9 1 10 2 11 3 12 5 13
REMARK SMILES IDX 4 14 6 15 9 17 10 18 11 19 12 20 14 21 15 22 13 23 16 24
REMARK SMILES IDX 18 25 19 26 20 27 21 28 96 29 97 30 98 31 99 32 101 33
REMARK SMILES IDX 102 34 100 35 26 37 27 38 28 39 29 40 30 41 31 43 32 44
REMARK SMILES IDX 33 45 94 46 34 47 93 48 35 49 36 50 37 51 87 52 38 53 92 54
REMARK SMILES IDX 86 55 88 56 39 57 91 58 85 59 84 60 40 62 72 63 52 64 71 65
REMARK SMILES IDX 53 66 56 67 70 68 89 69 54 70 55 71 69 73 90 74 57 75 41 76
REMARK SMILES IDX 42 77 50 78 43 79 44 80 48 81 51 82 45 83 46 84 49 85 47 86
REMARK SMILES IDX 73 87 74 88 82 89 75 90 76 91 80 92 83 93 77 94 78 95 81 96
REMARK SMILES IDX 79 97 58 98 59 99 67 100 60 101 61 102 65 103 68 104 62 105
REMARK SMILES IDX 63 106 66 107 64 108
REMARK H PARENT 25 4 29 42 88 61 56 72
REMARK Flexibility Score: 90.00
ROOT
ATOM      1  C   UNL     1      -0.899  -6.668  -1.430  1.00  0.00     0.250 C 
ATOM      2  O   UNL     1      -0.717  -5.507  -1.784  1.00  0.00    -0.270 OA
ATOM      3  N   UNL     1      -1.019  -7.578  -2.420  1.00  0.00    -0.352 N 
ATOM      4  H   UNL     1      -0.323  -7.549  -3.115  1.00  0.00     0.163 HD
ENDROOT
BRANCH   1   5
ATOM      5  C   UNL     1      -0.972  -7.021   0.018  1.00  0.00     0.060 C 
ATOM      6  C   UNL     1      -0.693  -8.220   0.563  1.00  0.00     0.020 C 
BRANCH   5   7
ATOM      7  C   UNL     1      -1.140  -5.830   0.957  1.00  0.00     0.253 C 
BRANCH   7   8
ATOM      8  C   UNL     1       0.157  -4.912   0.918  1.00  0.00     0.233 C 
BRANCH   8   9
ATOM      9  C   UNL     1       1.275  -5.345   1.917  1.00  0.00     0.115 C 
ATOM     10  C   UNL     1       2.985  -3.396   1.482  1.00  0.00     0.021 C 
ATOM     11  C   UNL     1       2.551  -4.544   2.015  1.00  0.00     0.041 C 
ATOM     12  C   UNL     1       3.520  -5.401   2.750  1.00  0.00     0.334 C 
ATOM     13  O   UNL     1       3.061  -6.677   2.644  1.00  0.00    -0.455 OA
ATOM     14  O   UNL     1       4.526  -5.039   3.329  1.00  0.00    -0.247 OA
ATOM     15  C   UNL     1       1.952  -6.718   1.716  1.00  0.00     0.220 CG0
ATOM     16  G   UNL     1       2.499  -6.937   0.324  1.00  0.00     0.000 G0
ENDBRANCH   8   9
BRANCH   8  17
ATOM     17  O   UNL     1      -0.224  -3.547   1.240  1.00  0.00    -0.455 OA
BRANCH  17  18
ATOM     18  C   UNL     1      -0.086  -2.453   0.421  1.00  0.00     0.341 C 
ATOM     19  O   UNL     1       0.001  -1.338   0.926  1.00  0.00    -0.249 OA
BRANCH  18  20
ATOM     20  C   UNL     1      -0.063  -2.607  -1.085  1.00  0.00     0.188 C 
ATOM     21  O   UNL     1      -0.400  -1.357  -1.765  1.00  0.00    -0.354 OA
ATOM     22  C   UNL     1      -1.374  -2.385  -1.857  1.00  0.00     0.160 C 
ATOM     23  C   UNL     1       1.145  -3.161  -1.812  1.00  0.00     0.058 C 
ATOM     24  C   UNL     1      -2.669  -1.965  -1.253  1.00  0.00     0.042 C 
ENDBRANCH  18  20
ENDBRANCH  17  18
ENDBRANCH   8  17
ENDBRANCH   7   8
BRANCH   7  25
ATOM     25  O   UNL     1      -2.318  -5.059   0.603  1.00  0.00    -0.453 OA
BRANCH  25  26
ATOM     26  C   UNL     1      -3.569  -5.447   0.959  1.00  0.00     0.303 C 
ATOM     27  C   UNL     1      -3.902  -6.899   0.786  1.00  0.00     0.139 C 
ATOM     28  O   UNL     1      -4.417  -4.633   1.306  1.00  0.00    -0.253 OA
ENDBRANCH  25  26
ENDBRANCH   7  25
ENDBRANCH   5   7
BRANCH   6  29
ATOM     29  C   UNL     1      -0.060  -9.408  -0.001  1.00  0.00     0.174 C 
ATOM     30  O   UNL     1       1.080  -9.936   0.707  1.00  0.00    -0.362 OA
ATOM     31  C   UNL     1       1.340  -9.381  -0.583  1.00  0.00     0.186 C 
BRANCH  31  32
ATOM     32  C   UNL     1       2.139  -8.069  -0.663  1.00  0.00     0.125 C 
ATOM     33  O   UNL     1       3.311  -8.101   0.174  1.00  0.00    -0.359 OA
ATOM     34  C   UNL     1       2.499  -6.937   0.324  1.00  0.00     0.195 CG0
ATOM     35  C   UNL     1       2.466  -7.705  -2.099  1.00  0.00     0.048 C 
ATOM     36  G   UNL     1       1.952  -6.718   1.716  1.00  0.00     0.000 G0
ENDBRANCH  31  32
ENDBRANCH   6  29
ENDBRANCH   1   5
BRANCH   3  37
ATOM     37  C   UNL     1      -2.040  -8.591  -2.593  1.00  0.00     0.118 C 
BRANCH  37  38
ATOM     38  C   UNL     1      -3.341  -8.007  -3.147  1.00  0.00     0.042 C 
BRANCH  38  39
ATOM     39  C   UNL     1      -3.179  -7.076  -4.346  1.00  0.00     0.118 C 
BRANCH  39  40
ATOM     40  N   UNL     1      -2.714  -7.773  -5.532  1.00  0.00    -0.352 N 
ATOM     41  C   UNL     1      -3.430  -8.299  -6.579  1.00  0.00     0.251 C 
ATOM     42  H   UNL     1      -1.738  -7.885  -5.596  1.00  0.00     0.163 HD
ATOM     43  O   UNL     1      -2.882  -9.075  -7.356  1.00  0.00    -0.269 OA
BRANCH  41  44
ATOM     44  C   UNL     1      -4.856  -7.953  -6.769  1.00  0.00     0.039 A 
ATOM     45  C   UNL     1      -5.752  -8.960  -7.138  1.00  0.00     0.014 A 
ATOM     46  C   UNL     1      -5.304  -6.636  -6.644  1.00  0.00     0.014 A 
ATOM     47  C   UNL     1      -7.102  -8.653  -7.337  1.00  0.00     0.010 A 
ATOM     48  C   UNL     1      -6.662  -6.348  -6.753  1.00  0.00     0.010 A 
ATOM     49  C   UNL     1      -7.573  -7.348  -7.122  1.00  0.00    -0.014 A 
BRANCH  49  50
ATOM     50  C   UNL     1      -9.003  -6.997  -7.324  1.00  0.00     0.031 A 
ATOM     51  C   UNL     1      -9.392  -6.007  -8.390  1.00  0.00     0.074 A 
ATOM     52  C   UNL     1      -9.947  -7.521  -6.519  1.00  0.00     0.049 A 
ATOM     53  N   UNL     1     -10.569  -5.510  -8.674  1.00  0.00    -0.248 NA
ATOM     54  C   UNL     1      -8.303  -5.484  -9.231  1.00  0.00     0.031 C 
ATOM     55  C   UNL     1      -9.700  -8.464  -5.428  1.00  0.00     0.029 A 
ATOM     56  N   UNL     1     -11.306  -7.327  -6.490  1.00  0.00    -0.354 N 
ATOM     57  C   UNL     1     -10.359  -4.606  -9.707  1.00  0.00     0.074 A 
ATOM     58  C   UNL     1      -8.935  -4.576  -9.959  1.00  0.00     0.031 C 
ATOM     59  C   UNL     1     -10.869  -8.788  -4.854  1.00  0.00     0.029 A 
ATOM     60  C   UNL     1     -11.943  -8.046  -5.508  1.00  0.00     0.049 A 
ATOM     61  H   UNL     1     -11.779  -6.730  -7.113  1.00  0.00     0.167 HD
ATOM     62  C   UNL     1     -11.271  -3.885 -10.403  1.00  0.00     0.037 A 
ATOM     63  C   UNL     1     -13.246  -8.095  -5.170  1.00  0.00     0.037 A 
ATOM     64  C   UNL     1     -12.690  -3.934 -10.168  1.00  0.00     0.049 A 
ATOM     65  C   UNL     1     -14.239  -7.270  -5.944  1.00  0.00     0.074 A 
ATOM     66  C   UNL     1     -13.703  -3.283 -10.850  1.00  0.00     0.029 A 
ATOM     67  N   UNL     1     -13.298  -4.679  -9.167  1.00  0.00    -0.354 N 
ATOM     68  N   UNL     1     -14.036  -6.464  -6.957  1.00  0.00    -0.248 NA
ATOM     69  C   UNL     1     -15.645  -7.367  -5.528  1.00  0.00     0.031 C 
ATOM     70  C   UNL     1     -14.919  -3.597 -10.233  1.00  0.00     0.029 A 
ATOM     71  C   UNL     1     -14.670  -4.487  -9.201  1.00  0.00     0.049 A 
ATOM     72  H   UNL     1     -12.824  -5.258  -8.528  1.00  0.00     0.167 HD
ATOM     73  C   UNL     1     -15.287  -5.984  -7.321  1.00  0.00     0.074 A 
ATOM     74  C   UNL     1     -16.245  -6.598  -6.426  1.00  0.00     0.031 C 
ATOM     75  C   UNL     1     -15.613  -5.115  -8.309  1.00  0.00     0.037 A 
BRANCH  62  76
ATOM     76  C   UNL     1     -10.755  -2.980 -11.487  1.00  0.00     0.064 A 
ATOM     77  C   UNL     1     -10.180  -3.491 -12.662  1.00  0.00     0.173 A 
ATOM     78  C   UNL     1     -10.847  -1.586 -11.358  1.00  0.00     0.173 A 
ATOM     79  F   UNL     1     -10.057  -4.816 -12.833  1.00  0.00    -0.203 F 
ATOM     80  C   UNL     1      -9.677  -2.641 -13.644  1.00  0.00     0.198 A 
ATOM     81  C   UNL     1     -10.376  -0.739 -12.358  1.00  0.00     0.198 A 
ATOM     82  F   UNL     1     -11.395  -1.043 -10.260  1.00  0.00    -0.203 F 
ATOM     83  F   UNL     1      -9.073  -3.153 -14.725  1.00  0.00    -0.200 F 
ATOM     84  C   UNL     1      -9.780  -1.266 -13.494  1.00  0.00     0.200 A 
ATOM     85  F   UNL     1     -10.489   0.589 -12.218  1.00  0.00    -0.200 F 
ATOM     86  F   UNL     1      -9.297  -0.450 -14.440  1.00  0.00    -0.200 F 
ENDBRANCH  62  76
BRANCH  63  87
ATOM     87  C   UNL     1     -13.692  -8.988  -4.069  1.00  0.00     0.064 A 
ATOM     88  C   UNL     1     -14.452 -10.134  -4.340  1.00  0.00     0.173 A 
ATOM     89  C   UNL     1     -13.365  -8.723  -2.731  1.00  0.00     0.173 A 
ATOM     90  F   UNL     1     -14.805 -10.420  -5.602  1.00  0.00    -0.203 F 
ATOM     91  C   UNL     1     -14.881 -10.973  -3.314  1.00  0.00     0.198 A 
ATOM     92  C   UNL     1     -13.772  -9.577  -1.708  1.00  0.00     0.198 A 
ATOM     93  F   UNL     1     -12.634  -7.642  -2.419  1.00  0.00    -0.203 F 
ATOM     94  F   UNL     1     -15.639 -12.041  -3.597  1.00  0.00    -0.200 F 
ATOM     95  C   UNL     1     -14.535 -10.697  -1.999  1.00  0.00     0.200 A 
ATOM     96  F   UNL     1     -13.421  -9.317  -0.442  1.00  0.00    -0.200 F 
ATOM     97  F   UNL     1     -14.941 -11.509  -1.014  1.00  0.00    -0.200 F 
ENDBRANCH  63  87
BRANCH  75  98
ATOM     98  C   UNL     1     -17.069  -4.808  -8.506  1.00  0.00     0.064 A 
ATOM     99  C   UNL     1     -17.788  -4.022  -7.594  1.00  0.00     0.173 A 
ATOM    100  C   UNL     1     -17.742  -5.272  -9.647  1.00  0.00     0.173 A 
ATOM    101  F   UNL     1     -17.195  -3.567  -6.480  1.00  0.00    -0.203 F 
ATOM    102  C   UNL     1     -19.135  -3.733  -7.804  1.00  0.00     0.198 A 
ATOM    103  C   UNL     1     -19.079  -4.956  -9.869  1.00  0.00     0.198 A 
ATOM    104  F   UNL     1     -17.098  -6.023 -10.553  1.00  0.00    -0.203 F 
ATOM    105  F   UNL     1     -19.815  -3.021  -6.896  1.00  0.00    -0.200 F 
ATOM    106  C   UNL     1     -19.776  -4.193  -8.945  1.00  0.00     0.200 A 
ATOM    107  F   UNL     1     -19.693  -5.389 -10.979  1.00  0.00    -0.200 F 
ATOM    108  F   UNL     1     -21.069  -3.907  -9.149  1.00  0.00    -0.200 F 
ENDBRANCH  75  98
ENDBRANCH  49  50
ENDBRANCH  41  44
ENDBRANCH  39  40
ENDBRANCH  38  39
ENDBRANCH  37  38
ENDBRANCH   3  37
TORSDOF 15
