REMARK SMILES C[C@@H](C(=O)NCCCNC(=O)c1ccc(-c2c3nc(c(-c4c(F)c(F)c(F)c(F)c4F)c4ccc([nH]4)c(-c4c(F)c(F)c(F)c(F)c4F)c4nc(c(-c5c(F)c(F)c(F)c(F)c5F)c5ccc2[nH]5)C=C4)C=C3)cc1)c1ccc(C[C@H]2CCCC2=O)cc1-c1ccc(O)cc1
REMARK SMILES IDX 6 1 5 2 3 3 4 4 2 6 1 7 75 8 76 9 87 10 77 11 86 12 78 13
REMARK SMILES IDX 88 14 89 15 94 16 90 17 93 18 91 19 92 20 79 22 80 23 81 24
REMARK SMILES IDX 84 25 82 26 83 27 85 28 7 29 8 30 9 31 10 32 11 34 12 35
REMARK SMILES IDX 13 36 74 37 14 38 73 39 15 40 16 41 17 42 67 43 18 44 72 45
REMARK SMILES IDX 66 46 68 47 19 48 71 49 65 50 64 51 20 53 52 54 32 55 51 56
REMARK SMILES IDX 33 57 36 58 50 59 69 60 34 61 35 62 49 64 70 65 37 66 21 67
REMARK SMILES IDX 22 68 30 69 23 70 24 71 28 72 31 73 25 74 26 75 29 76 27 77
REMARK SMILES IDX 53 78 54 79 62 80 55 81 56 82 60 83 63 84 57 85 58 86 61 87
REMARK SMILES IDX 59 88 38 89 39 90 47 91 40 92 41 93 45 94 48 95 42 96 43 97
REMARK SMILES IDX 46 98 44 99
REMARK H PARENT 5 5 92 21 9 33 68 52 36 63
REMARK Flexibility Score: inf
ROOT
ATOM      1  C   UNL     1       3.514   1.295   1.411  1.00  0.00     0.117 C 
ENDROOT
BRANCH   1   2
ATOM      2  N   UNL     1       2.495   2.305   1.202  1.00  0.00    -0.356 N 
ATOM      3  C   UNL     1       1.217   2.196   0.733  1.00  0.00     0.227 C 
ATOM      4  O   UNL     1       0.737   3.243   0.295  1.00  0.00    -0.274 OA
ATOM      5  H   UNL     1       2.770   3.220   1.436  1.00  0.00     0.163 HD
BRANCH   3   6
ATOM      6  C   UNL     1       0.508   0.827   0.710  1.00  0.00     0.106 C 
ATOM      7  C   UNL     1       0.846   0.169  -0.632  1.00  0.00     0.023 C 
BRANCH   6   8
ATOM      8  C   UNL     1      -1.015   0.796   0.970  1.00  0.00    -0.028 A 
ATOM      9  C   UNL     1      -1.784   1.973   0.912  1.00  0.00     0.005 A 
ATOM     10  C   UNL     1      -1.710  -0.427   1.206  1.00  0.00    -0.014 A 
ATOM     11  C   UNL     1      -3.173   1.965   1.041  1.00  0.00     0.004 A 
ATOM     12  C   UNL     1      -3.118  -0.404   1.370  1.00  0.00     0.012 A 
ATOM     13  C   UNL     1      -3.858   0.780   1.284  1.00  0.00    -0.047 A 
BRANCH  10  14
ATOM     14  C   UNL     1      -1.051  -1.750   1.216  1.00  0.00    -0.018 A 
ATOM     15  C   UNL     1      -1.322  -2.675   0.188  1.00  0.00     0.012 A 
ATOM     16  C   UNL     1      -0.127  -2.116   2.207  1.00  0.00     0.012 A 
ATOM     17  C   UNL     1      -0.647  -3.895   0.120  1.00  0.00     0.047 A 
ATOM     18  C   UNL     1       0.556  -3.335   2.138  1.00  0.00     0.047 A 
ATOM     19  C   UNL     1       0.299  -4.208   1.086  1.00  0.00     0.115 A 
BRANCH  19  20
ATOM     20  O   UNL     1       0.965  -5.390   0.958  1.00  0.00    -0.508 OA
ATOM     21  H   UNL     1       0.773  -5.961   0.240  1.00  0.00     0.293 HD
ENDBRANCH  19  20
ENDBRANCH  10  14
BRANCH  13  22
ATOM     22  C   UNL     1      -5.362   0.781   1.422  1.00  0.00     0.047 C 
BRANCH  22  23
ATOM     23  C   UNL     1      -5.932   1.350   2.726  1.00  0.00     0.060 C 
ATOM     24  C   UNL     1      -5.423   0.709   4.019  1.00  0.00     0.012 C 
ATOM     25  C   UNL     1      -5.580   2.805   2.937  1.00  0.00     0.136 C 
ATOM     26  C   UNL     1      -4.298   1.603   4.526  1.00  0.00     0.009 C 
ATOM     27  C   UNL     1      -4.692   3.021   4.135  1.00  0.00     0.076 C 
ATOM     28  O   UNL     1      -5.981   3.714   2.219  1.00  0.00    -0.299 OA
ENDBRANCH  22  23
ENDBRANCH  13  22
ENDBRANCH   6   8
ENDBRANCH   3   6
ENDBRANCH   1   2
BRANCH   1  29
ATOM     29  C   UNL     1       4.438   1.161   0.200  1.00  0.00     0.042 C 
BRANCH  29  30
ATOM     30  C   UNL     1       5.112   2.458  -0.237  1.00  0.00     0.118 C 
BRANCH  30  31
ATOM     31  N   UNL     1       6.079   2.942   0.735  1.00  0.00    -0.352 N 
ATOM     32  C   UNL     1       7.432   3.123   0.608  1.00  0.00     0.251 C 
ATOM     33  H   UNL     1       5.707   3.174   1.616  1.00  0.00     0.163 HD
ATOM     34  O   UNL     1       8.113   3.354   1.608  1.00  0.00    -0.269 OA
BRANCH  32  35
ATOM     35  C   UNL     1       8.088   3.017  -0.714  1.00  0.00     0.039 A 
ATOM     36  C   UNL     1       9.304   2.336  -0.809  1.00  0.00     0.014 A 
ATOM     37  C   UNL     1       7.527   3.604  -1.852  1.00  0.00     0.014 A 
ATOM     38  C   UNL     1       9.924   2.186  -2.052  1.00  0.00     0.010 A 
ATOM     39  C   UNL     1       8.104   3.387  -3.102  1.00  0.00     0.010 A 
ATOM     40  C   UNL     1       9.310   2.679  -3.215  1.00  0.00    -0.014 A 
BRANCH  40  41
ATOM     41  C   UNL     1       9.915   2.463  -4.556  1.00  0.00     0.031 A 
ATOM     42  C   UNL     1      10.373   3.634  -5.380  1.00  0.00     0.074 A 
ATOM     43  C   UNL     1       9.998   1.214  -5.056  1.00  0.00     0.049 A 
ATOM     44  N   UNL     1      10.860   3.653  -6.596  1.00  0.00    -0.248 NA
ATOM     45  C   UNL     1      10.243   4.965  -4.766  1.00  0.00     0.031 C 
ATOM     46  C   UNL     1       9.551  -0.001  -4.373  1.00  0.00     0.029 A 
ATOM     47  N   UNL     1      10.477   0.761  -6.260  1.00  0.00    -0.354 N 
ATOM     48  C   UNL     1      11.081   4.991  -6.894  1.00  0.00     0.074 A 
ATOM     49  C   UNL     1      10.625   5.758  -5.756  1.00  0.00     0.031 C 
ATOM     50  C   UNL     1       9.796  -1.062  -5.158  1.00  0.00     0.029 A 
ATOM     51  C   UNL     1      10.376  -0.601  -6.415  1.00  0.00     0.049 A 
ATOM     52  H   UNL     1      10.856   1.355  -6.948  1.00  0.00     0.167 HD
ATOM     53  C   UNL     1      11.636   5.529  -8.007  1.00  0.00     0.037 A 
ATOM     54  C   UNL     1      10.703  -1.387  -7.458  1.00  0.00     0.037 A 
ATOM     55  C   UNL     1      12.105   4.760  -9.131  1.00  0.00     0.049 A 
ATOM     56  C   UNL     1      11.299  -0.762  -8.692  1.00  0.00     0.074 A 
ATOM     57  C   UNL     1      12.731   5.208 -10.281  1.00  0.00     0.029 A 
ATOM     58  N   UNL     1      11.994   3.382  -9.247  1.00  0.00    -0.354 N 
ATOM     59  N   UNL     1      11.565   0.497  -8.935  1.00  0.00    -0.248 NA
ATOM     60  C   UNL     1      11.643  -1.671  -9.794  1.00  0.00     0.031 C 
ATOM     61  C   UNL     1      12.952   4.108 -11.116  1.00  0.00     0.029 A 
ATOM     62  C   UNL     1      12.517   2.966 -10.462  1.00  0.00     0.049 A 
ATOM     63  H   UNL     1      11.601   2.788  -8.568  1.00  0.00     0.167 HD
ATOM     64  C   UNL     1      12.134   0.530 -10.201  1.00  0.00     0.074 A 
ATOM     65  C   UNL     1      12.188  -0.839 -10.669  1.00  0.00     0.031 C 
ATOM     66  C   UNL     1      12.572   1.598 -10.912  1.00  0.00     0.037 A 
BRANCH  53  67
ATOM     67  C   UNL     1      11.769   7.024  -8.065  1.00  0.00     0.064 A 
ATOM     68  C   UNL     1      12.668   7.716  -7.238  1.00  0.00     0.173 A 
ATOM     69  C   UNL     1      11.017   7.772  -8.983  1.00  0.00     0.173 A 
ATOM     70  F   UNL     1      13.405   7.051  -6.336  1.00  0.00    -0.203 F 
ATOM     71  C   UNL     1      12.786   9.102  -7.308  1.00  0.00     0.198 A 
ATOM     72  C   UNL     1      11.161   9.154  -9.073  1.00  0.00     0.198 A 
ATOM     73  F   UNL     1      10.148   7.162  -9.803  1.00  0.00    -0.203 F 
ATOM     74  F   UNL     1      13.614   9.745  -6.472  1.00  0.00    -0.200 F 
ATOM     75  C   UNL     1      12.039   9.819  -8.229  1.00  0.00     0.200 A 
ATOM     76  F   UNL     1      10.450   9.844  -9.975  1.00  0.00    -0.200 F 
ATOM     77  F   UNL     1      12.160  11.152  -8.301  1.00  0.00    -0.200 F 
ENDBRANCH  53  67
BRANCH  54  78
ATOM     78  C   UNL     1      10.493  -2.857  -7.375  1.00  0.00     0.064 A 
ATOM     79  C   UNL     1      11.582  -3.738  -7.321  1.00  0.00     0.173 A 
ATOM     80  C   UNL     1       9.204  -3.411  -7.354  1.00  0.00     0.173 A 
ATOM     81  F   UNL     1      12.834  -3.258  -7.359  1.00  0.00    -0.203 F 
ATOM     82  C   UNL     1      11.391  -5.117  -7.269  1.00  0.00     0.198 A 
ATOM     83  C   UNL     1       9.014  -4.788  -7.271  1.00  0.00     0.198 A 
ATOM     84  F   UNL     1       8.128  -2.611  -7.399  1.00  0.00    -0.203 F 
ATOM     85  F   UNL     1      12.450  -5.938  -7.266  1.00  0.00    -0.200 F 
ATOM     86  C   UNL     1      10.107  -5.641  -7.238  1.00  0.00     0.200 A 
ATOM     87  F   UNL     1       7.772  -5.290  -7.225  1.00  0.00    -0.200 F 
ATOM     88  F   UNL     1       9.924  -6.967  -7.184  1.00  0.00    -0.200 F 
ENDBRANCH  54  78
BRANCH  66  89
ATOM     89  C   UNL     1      13.185   1.329 -12.256  1.00  0.00     0.064 A 
ATOM     90  C   UNL     1      12.411   0.921 -13.352  1.00  0.00     0.173 A 
ATOM     91  C   UNL     1      14.560   1.524 -12.460  1.00  0.00     0.173 A 
ATOM     92  F   UNL     1      11.095   0.705 -13.206  1.00  0.00    -0.203 F 
ATOM     93  C   UNL     1      12.995   0.693 -14.596  1.00  0.00     0.198 A 
ATOM     94  C   UNL     1      15.134   1.327 -13.712  1.00  0.00     0.198 A 
ATOM     95  F   UNL     1      15.344   1.920 -11.446  1.00  0.00    -0.203 F 
ATOM     96  F   UNL     1      12.244   0.256 -15.616  1.00  0.00    -0.200 F 
ATOM     97  C   UNL     1      14.353   0.905 -14.777  1.00  0.00     0.200 A 
ATOM     98  F   UNL     1      16.445   1.547 -13.888  1.00  0.00    -0.200 F 
ATOM     99  F   UNL     1      14.912   0.695 -15.977  1.00  0.00    -0.200 F 
ENDBRANCH  66  89
ENDBRANCH  40  41
ENDBRANCH  32  35
ENDBRANCH  30  31
ENDBRANCH  29  30
ENDBRANCH   1  29
TORSDOF 15
