REMARK SMILES Cc1c(CC(=O)NCCCNC(=O)c2ccc(-c3c4nc(c(-c5c(F)c(F)c(F)c(F)c5F)c5ccc([nH]5)c(-c5c(F)c(F)c(F)c(F)c5F)c5nc(c(-c6c(F)c(F)c(F)c(F)c6F)c6ccc3[nH]6)C=C5)C=C4)cc2)cc(-c2ccc(S(C)(=O)=O)cc2)n1-c1ccccc1
REMARK SMILES IDX 8 1 7 2 5 3 6 4 4 6 3 7 1 8 2 9 89 10 77 11 78 12 90 13
REMARK SMILES IDX 91 14 95 15 92 16 94 17 93 18 79 19 80 20 88 21 81 22 87 23
REMARK SMILES IDX 82 24 83 25 84 26 85 27 86 28 9 29 10 30 11 31 12 32 13 34
REMARK SMILES IDX 14 35 15 36 76 37 16 38 75 39 17 40 18 41 19 42 69 43 20 44
REMARK SMILES IDX 74 45 68 46 70 47 21 48 73 49 67 50 66 51 22 53 54 54 34 55
REMARK SMILES IDX 53 56 35 57 38 58 52 59 71 60 36 61 37 62 51 64 72 65 39 66
REMARK SMILES IDX 23 67 24 68 32 69 25 70 26 71 30 72 33 73 27 74 28 75 31 76
REMARK SMILES IDX 29 77 55 78 56 79 64 80 57 81 58 82 62 83 65 84 59 85 60 86
REMARK SMILES IDX 63 87 61 88 40 89 41 90 49 91 42 92 43 93 47 94 50 95 44 96
REMARK SMILES IDX 45 97 48 98 46 99
REMARK H PARENT 7 5 11 33 70 52 38 63
REMARK Flexibility Score: inf
ROOT
ATOM      1  C   UNL     1      -3.225  -2.559   0.751  1.00  0.00     0.117 C 
ENDROOT
BRANCH   1   2
ATOM      2  N   UNL     1      -2.158  -2.678  -0.250  1.00  0.00    -0.356 N 
ATOM      3  C   UNL     1      -0.817  -2.970  -0.153  1.00  0.00     0.224 C 
ATOM      4  O   UNL     1      -0.263  -3.338  -1.200  1.00  0.00    -0.275 OA
ATOM      5  H   UNL     1      -2.462  -2.516  -1.172  1.00  0.00     0.163 HD
BRANCH   3   6
ATOM      6  C   UNL     1       0.014  -2.903   1.131  1.00  0.00     0.137 C 
BRANCH   6   7
ATOM      7  C   UNL     1       0.021  -1.566   1.799  1.00  0.00    -0.017 A 
ATOM      8  C   UNL     1       0.942  -0.041  -0.093  1.00  0.00     0.065 C 
ATOM      9  C   UNL     1       0.333  -0.331   1.244  1.00  0.00     0.024 A 
ATOM     10  N   UNL     1       0.064   0.647   2.196  1.00  0.00    -0.314 N 
ATOM     11  C   UNL     1      -0.198  -1.344   3.183  1.00  0.00     0.033 A 
ATOM     12  C   UNL     1      -0.223   0.019   3.410  1.00  0.00     0.053 A 
BRANCH  10  13
ATOM     13  C   UNL     1      -0.010   2.046   1.959  1.00  0.00     0.046 A 
ATOM     14  C   UNL     1       0.627   2.945   2.820  1.00  0.00     0.026 A 
ATOM     15  C   UNL     1      -0.826   2.515   0.921  1.00  0.00     0.026 A 
ATOM     16  C   UNL     1       0.447   4.316   2.639  1.00  0.00     0.002 A 
ATOM     17  C   UNL     1      -1.010   3.886   0.755  1.00  0.00     0.002 A 
ATOM     18  C   UNL     1      -0.375   4.785   1.613  1.00  0.00     0.000 A 
ENDBRANCH  10  13
BRANCH  12  19
ATOM     19  C   UNL     1      -0.670   0.702   4.627  1.00  0.00    -0.001 A 
ATOM     20  C   UNL     1      -1.831   1.489   4.595  1.00  0.00     0.011 A 
ATOM     21  C   UNL     1       0.043   0.577   5.825  1.00  0.00     0.011 A 
ATOM     22  C   UNL     1      -2.242   2.197   5.721  1.00  0.00     0.021 A 
ATOM     23  C   UNL     1      -0.364   1.282   6.962  1.00  0.00     0.021 A 
ATOM     24  C   UNL     1      -1.489   2.107   6.894  1.00  0.00     0.067 A 
BRANCH  24  25
ATOM     25  S   UNL     1      -2.003   3.060   8.300  1.00  0.00     0.175 S 
ATOM     26  C   UNL     1      -1.732   4.739   7.788  1.00  0.00     0.163 C 
ATOM     27  O   UNL     1      -3.415   2.851   8.470  1.00  0.00    -0.224 OA
ATOM     28  O   UNL     1      -1.061   2.782   9.387  1.00  0.00    -0.224 OA
ENDBRANCH  24  25
ENDBRANCH  12  19
ENDBRANCH   6   7
ENDBRANCH   3   6
ENDBRANCH   1   2
BRANCH   1  29
ATOM     29  C   UNL     1      -4.192  -1.295   0.709  1.00  0.00     0.042 C 
BRANCH  29  30
ATOM     30  C   UNL     1      -5.197  -0.908  -0.506  1.00  0.00     0.118 C 
BRANCH  30  31
ATOM     31  N   UNL     1      -6.707  -0.966  -0.184  1.00  0.00    -0.352 N 
ATOM     32  C   UNL     1      -8.005  -0.401  -0.375  1.00  0.00     0.251 C 
ATOM     33  H   UNL     1      -6.828  -1.731   0.423  1.00  0.00     0.163 HD
ATOM     34  O   UNL     1      -8.860  -1.000   0.303  1.00  0.00    -0.269 OA
BRANCH  32  35
ATOM     35  C   UNL     1      -8.628   0.750  -1.240  1.00  0.00     0.039 A 
ATOM     36  C   UNL     1      -9.826   1.491  -0.923  1.00  0.00     0.014 A 
ATOM     37  C   UNL     1      -8.245   1.085  -2.496  1.00  0.00     0.014 A 
ATOM     38  C   UNL     1     -10.479   2.666  -1.733  1.00  0.00     0.010 A 
ATOM     39  C   UNL     1      -8.962   2.170  -3.259  1.00  0.00     0.010 A 
ATOM     40  C   UNL     1     -10.040   3.146  -2.989  1.00  0.00    -0.014 A 
BRANCH  40  41
ATOM     41  C   UNL     1      -9.853   4.927  -3.409  1.00  0.00     0.031 A 
ATOM     42  C   UNL     1      -8.732   5.205  -2.465  1.00  0.00     0.074 A 
ATOM     43  C   UNL     1     -10.024   6.068  -4.378  1.00  0.00     0.049 A 
ATOM     44  N   UNL     1      -7.879   4.218  -2.397  1.00  0.00    -0.248 NA
ATOM     45  C   UNL     1      -8.093   6.460  -2.153  1.00  0.00     0.031 C 
ATOM     46  C   UNL     1     -10.876   6.236  -5.613  1.00  0.00     0.029 A 
ATOM     47  N   UNL     1      -9.302   7.394  -4.565  1.00  0.00    -0.354 N 
ATOM     48  C   UNL     1      -6.905   4.729  -3.162  1.00  0.00     0.074 A 
ATOM     49  C   UNL     1      -6.861   6.097  -2.559  1.00  0.00     0.031 C 
ATOM     50  C   UNL     1     -10.702   7.434  -6.291  1.00  0.00     0.029 A 
ATOM     51  C   UNL     1      -9.663   8.302  -5.703  1.00  0.00     0.049 A 
ATOM     52  H   UNL     1      -8.594   7.659  -3.934  1.00  0.00     0.167 HD
ATOM     53  C   UNL     1      -6.583   4.308  -4.449  1.00  0.00     0.037 A 
ATOM     54  C   UNL     1      -9.053   9.538  -6.159  1.00  0.00     0.037 A 
ATOM     55  C   UNL     1      -5.380   4.923  -4.858  1.00  0.00     0.049 A 
ATOM     56  C   UNL     1      -7.730   8.954  -6.409  1.00  0.00     0.074 A 
ATOM     57  C   UNL     1      -4.432   5.699  -4.240  1.00  0.00     0.029 A 
ATOM     58  N   UNL     1      -5.079   5.007  -6.189  1.00  0.00    -0.354 N 
ATOM     59  N   UNL     1      -7.361   8.514  -7.581  1.00  0.00    -0.248 NA
ATOM     60  C   UNL     1      -6.693   9.219  -5.414  1.00  0.00     0.031 C 
ATOM     61  C   UNL     1      -4.420   6.784  -5.146  1.00  0.00     0.029 A 
ATOM     62  C   UNL     1      -4.967   6.353  -6.371  1.00  0.00     0.049 A 
ATOM     63  H   UNL     1      -4.972   4.282  -6.847  1.00  0.00     0.167 HD
ATOM     64  C   UNL     1      -6.057   8.186  -7.335  1.00  0.00     0.074 A 
ATOM     65  C   UNL     1      -5.652   8.988  -6.215  1.00  0.00     0.031 C 
ATOM     66  C   UNL     1      -5.653   6.911  -7.512  1.00  0.00     0.037 A 
BRANCH  53  67
ATOM     67  C   UNL     1      -7.242   3.258  -5.501  1.00  0.00     0.064 A 
ATOM     68  C   UNL     1      -8.594   3.137  -5.987  1.00  0.00     0.173 A 
ATOM     69  C   UNL     1      -6.420   2.245  -6.017  1.00  0.00     0.173 A 
ATOM     70  F   UNL     1      -9.534   4.018  -5.693  1.00  0.00    -0.203 F 
ATOM     71  C   UNL     1      -9.098   2.025  -6.692  1.00  0.00     0.198 A 
ATOM     72  C   UNL     1      -6.898   1.190  -6.820  1.00  0.00     0.198 A 
ATOM     73  F   UNL     1      -5.107   2.268  -5.764  1.00  0.00    -0.203 F 
ATOM     74  F   UNL     1     -10.419   1.898  -6.908  1.00  0.00    -0.200 F 
ATOM     75  C   UNL     1      -8.241   1.042  -7.105  1.00  0.00     0.200 A 
ATOM     76  F   UNL     1      -6.026   0.301  -7.310  1.00  0.00    -0.200 F 
ATOM     77  F   UNL     1      -8.695  -0.027  -7.773  1.00  0.00    -0.200 F 
ENDBRANCH  53  67
BRANCH  54  78
ATOM     78  C   UNL     1      -8.797  11.028  -7.023  1.00  0.00     0.064 A 
ATOM     79  C   UNL     1      -9.726  11.875  -7.653  1.00  0.00     0.173 A 
ATOM     80  C   UNL     1      -7.470  11.687  -7.106  1.00  0.00     0.173 A 
ATOM     81  F   UNL     1     -11.004  11.502  -7.763  1.00  0.00    -0.203 F 
ATOM     82  C   UNL     1      -9.377  13.177  -8.227  1.00  0.00     0.198 A 
ATOM     83  C   UNL     1      -7.131  12.947  -7.650  1.00  0.00     0.198 A 
ATOM     84  F   UNL     1      -6.342  11.152  -6.658  1.00  0.00    -0.203 F 
ATOM     85  F   UNL     1     -10.322  13.921  -8.822  1.00  0.00    -0.200 F 
ATOM     86  C   UNL     1      -8.097  13.716  -8.200  1.00  0.00     0.200 A 
ATOM     87  F   UNL     1      -5.854  13.374  -7.610  1.00  0.00    -0.200 F 
ATOM     88  F   UNL     1      -7.792  14.926  -8.696  1.00  0.00    -0.200 F 
ENDBRANCH  54  78
BRANCH  66  89
ATOM     89  C   UNL     1      -6.478   6.198  -8.558  1.00  0.00     0.064 A 
ATOM     90  C   UNL     1      -6.158   6.347  -9.910  1.00  0.00     0.173 A 
ATOM     91  C   UNL     1      -7.712   5.588  -8.273  1.00  0.00     0.173 A 
ATOM     92  F   UNL     1      -5.035   6.993 -10.255  1.00  0.00    -0.203 F 
ATOM     93  C   UNL     1      -7.005   5.879 -10.918  1.00  0.00     0.198 A 
ATOM     94  C   UNL     1      -8.553   5.094  -9.275  1.00  0.00     0.198 A 
ATOM     95  F   UNL     1      -8.136   5.538  -7.008  1.00  0.00    -0.203 F 
ATOM     96  F   UNL     1      -6.673   6.064 -12.203  1.00  0.00    -0.200 F 
ATOM     97  C   UNL     1      -8.196   5.243 -10.602  1.00  0.00     0.200 A 
ATOM     98  F   UNL     1      -9.709   4.491  -8.956  1.00  0.00    -0.200 F 
ATOM     99  F   UNL     1      -9.002   4.791 -11.574  1.00  0.00    -0.200 F 
ENDBRANCH  66  89
ENDBRANCH  40  41
ENDBRANCH  32  35
ENDBRANCH  30  31
ENDBRANCH  29  30
ENDBRANCH   1  29
TORSDOF 14
