REMARK SMILES COc1cc(C)cc2c1[C@@H](C)[C@@H](CC(=O)N[C@@H](Cc1c[nH]c3ccccc13)C(=O)NCCCNC(=O)c1ccc(-c3c4nc(c(-c5c(F)c(F)c(F)c(F)c5F)c5ccc([nH]5)c(-c5c(F)c(F)c(F)c(F)c5F)c5nc(c(-c6c(F)c(F)c(F)c(F)c6F)c6ccc3[nH]6)C=C5)C=C4)cc1)C(=O)O2
REMARK SMILES IDX 31 1 30 2 28 3 29 4 17 6 16 7 14 8 15 9 13 11 12 12 3 13
REMARK SMILES IDX 4 14 9 15 5 16 8 17 10 18 6 19 7 20 102 21 11 22 100 23
REMARK SMILES IDX 101 24 2 25 1 26 18 27 19 28 20 29 27 30 21 31 22 32 26 33
REMARK SMILES IDX 23 35 25 36 24 37 32 38 33 39 34 40 35 41 36 43 37 44 38 45
REMARK SMILES IDX 99 46 39 47 98 48 40 49 41 50 42 51 92 52 43 53 97 54 91 55
REMARK SMILES IDX 93 56 44 57 96 58 90 59 89 60 45 62 77 63 57 64 76 65 58 66
REMARK SMILES IDX 61 67 75 68 94 69 59 70 60 71 74 73 95 74 62 75 46 76 47 77
REMARK SMILES IDX 55 78 48 79 49 80 53 81 56 82 50 83 51 84 54 85 52 86 78 87
REMARK SMILES IDX 79 88 87 89 80 90 81 91 85 92 88 93 82 94 83 95 86 96 84 97
REMARK SMILES IDX 63 98 64 99 72 100 65 101 66 102 70 103 73 104 67 105 68 106
REMARK SMILES IDX 71 107 69 108
REMARK H PARENT 30 5 16 10 21 34 34 42 93 61 61 72
REMARK Flexibility Score: inf
ROOT
ATOM      1  C   UNL     1      -2.349   8.598  -5.660  1.00  0.00     0.117 C 
ENDROOT
BRANCH   1   2
ATOM      2  N   UNL     1      -1.276   8.209  -4.778  1.00  0.00    -0.354 N 
ATOM      3  C   UNL     1      -1.260   7.279  -3.795  1.00  0.00     0.242 C 
ATOM      4  O   UNL     1      -0.308   7.346  -3.005  1.00  0.00    -0.273 OA
ATOM      5  H   UNL     1      -0.429   8.692  -4.912  1.00  0.00     0.163 HD
BRANCH   3   6
ATOM      6  C   UNL     1      -2.295   6.142  -3.650  1.00  0.00     0.175 C 
BRANCH   6   7
ATOM      7  N   UNL     1      -2.868   5.976  -2.326  1.00  0.00    -0.344 N 
ATOM      8  C   UNL     1      -3.058   4.778  -1.692  1.00  0.00     0.221 C 
ATOM      9  O   UNL     1      -4.025   4.637  -0.947  1.00  0.00    -0.275 OA
ATOM     10  H   UNL     1      -3.141   6.791  -1.845  1.00  0.00     0.164 HD
BRANCH   8  11
ATOM     11  C   UNL     1      -1.980   3.709  -1.814  1.00  0.00     0.116 C 
BRANCH  11  12
ATOM     12  C   UNL     1      -2.163   2.575  -2.854  1.00  0.00     0.116 C 
ATOM     13  C   UNL     1       1.153   1.083  -1.801  1.00  0.00     0.126 A 
ATOM     14  C   UNL     1       2.456   1.612  -1.798  1.00  0.00     0.050 A 
ATOM     15  C   UNL     1       0.143   1.689  -2.551  1.00  0.00     0.041 A 
ATOM     16  C   UNL     1       2.776   2.761  -2.535  1.00  0.00    -0.044 A 
ATOM     17  C   UNL     1       0.528   2.756  -3.382  1.00  0.00     0.138 A 
ATOM     18  C   UNL     1      -1.332   1.301  -2.532  1.00  0.00     0.038 C 
ATOM     19  C   UNL     1       4.160   3.338  -2.491  1.00  0.00     0.044 C 
ATOM     20  C   UNL     1       1.805   3.313  -3.364  1.00  0.00     0.051 A 
ATOM     21  O   UNL     1      -0.359   3.308  -4.320  1.00  0.00    -0.426 OA
ATOM     22  C   UNL     1      -1.875   0.637  -1.263  1.00  0.00     0.014 C 
ATOM     23  C   UNL     1      -1.676   2.905  -4.247  1.00  0.00     0.315 C 
ATOM     24  O   UNL     1      -2.378   2.837  -5.250  1.00  0.00    -0.251 OA
BRANCH  13  25
ATOM     25  O   UNL     1       0.871  -0.100  -1.176  1.00  0.00    -0.496 OA
ATOM     26  C   UNL     1       1.253  -0.127   0.195  1.00  0.00     0.278 C 
ENDBRANCH  13  25
ENDBRANCH  11  12
ENDBRANCH   8  11
ENDBRANCH   6   7
BRANCH   6  27
ATOM     27  C   UNL     1      -3.249   5.693  -4.745  1.00  0.00     0.072 C 
BRANCH  27  28
ATOM     28  C   UNL     1      -4.624   6.210  -5.072  1.00  0.00    -0.020 A 
ATOM     29  C   UNL     1      -5.086   6.035  -6.370  1.00  0.00     0.087 A 
ATOM     30  C   UNL     1      -5.753   6.706  -4.316  1.00  0.00     0.003 A 
ATOM     31  N   UNL     1      -6.441   6.112  -6.358  1.00  0.00    -0.361 N 
ATOM     32  C   UNL     1      -6.861   6.657  -5.175  1.00  0.00     0.046 A 
ATOM     33  C   UNL     1      -6.012   7.153  -2.999  1.00  0.00     0.010 A 
ATOM     34  H   UNL     1      -7.032   5.821  -7.090  1.00  0.00     0.166 HD
ATOM     35  C   UNL     1      -8.156   7.049  -4.814  1.00  0.00     0.026 A 
ATOM     36  C   UNL     1      -7.297   7.593  -2.631  1.00  0.00     0.001 A 
ATOM     37  C   UNL     1      -8.352   7.550  -3.532  1.00  0.00     0.002 A 
ENDBRANCH  27  28
ENDBRANCH   6  27
ENDBRANCH   3   6
ENDBRANCH   1   2
BRANCH   1  38
ATOM     38  C   UNL     1      -3.405   9.380  -4.895  1.00  0.00     0.042 C 
BRANCH  38  39
ATOM     39  C   UNL     1      -2.941  10.791  -4.574  1.00  0.00     0.118 C 
BRANCH  39  40
ATOM     40  N   UNL     1      -2.797  11.600  -5.780  1.00  0.00    -0.352 N 
ATOM     41  C   UNL     1      -3.451  12.743  -6.149  1.00  0.00     0.251 C 
ATOM     42  H   UNL     1      -2.129  11.274  -6.426  1.00  0.00     0.163 HD
ATOM     43  O   UNL     1      -3.387  13.138  -7.316  1.00  0.00    -0.269 OA
BRANCH  41  44
ATOM     44  C   UNL     1      -4.234  13.498  -5.154  1.00  0.00     0.039 A 
ATOM     45  C   UNL     1      -3.774  13.616  -3.842  1.00  0.00     0.014 A 
ATOM     46  C   UNL     1      -5.434  14.104  -5.535  1.00  0.00     0.014 A 
ATOM     47  C   UNL     1      -4.592  14.176  -2.876  1.00  0.00     0.010 A 
ATOM     48  C   UNL     1      -6.198  14.782  -4.584  1.00  0.00     0.010 A 
ATOM     49  C   UNL     1      -5.802  14.788  -3.238  1.00  0.00    -0.014 A 
BRANCH  49  50
ATOM     50  C   UNL     1      -6.606  15.451  -2.182  1.00  0.00     0.031 A 
ATOM     51  C   UNL     1      -7.988  14.968  -1.849  1.00  0.00     0.074 A 
ATOM     52  C   UNL     1      -6.040  16.450  -1.476  1.00  0.00     0.049 A 
ATOM     53  N   UNL     1      -8.809  15.402  -0.924  1.00  0.00    -0.248 NA
ATOM     54  C   UNL     1      -8.528  13.863  -2.656  1.00  0.00     0.031 C 
ATOM     55  C   UNL     1      -4.699  16.991  -1.715  1.00  0.00     0.029 A 
ATOM     56  N   UNL     1      -6.493  17.159  -0.394  1.00  0.00    -0.354 N 
ATOM     57  C   UNL     1      -9.959  14.636  -1.049  1.00  0.00     0.074 A 
ATOM     58  C   UNL     1      -9.752  13.737  -2.163  1.00  0.00     0.031 C 
ATOM     59  C   UNL     1      -4.407  17.884  -0.760  1.00  0.00     0.029 A 
ATOM     60  C   UNL     1      -5.567  18.042   0.108  1.00  0.00     0.049 A 
ATOM     61  H   UNL     1      -7.394  17.047  -0.013  1.00  0.00     0.167 HD
ATOM     62  C   UNL     1     -11.077  14.671  -0.287  1.00  0.00     0.037 A 
ATOM     63  C   UNL     1      -5.646  18.895   1.146  1.00  0.00     0.037 A 
ATOM     64  C   UNL     1     -11.259  15.554   0.835  1.00  0.00     0.049 A 
ATOM     65  C   UNL     1      -6.919  18.948   1.940  1.00  0.00     0.074 A 
ATOM     66  C   UNL     1     -12.349  15.657   1.681  1.00  0.00     0.029 A 
ATOM     67  N   UNL     1     -10.325  16.484   1.270  1.00  0.00    -0.354 N 
ATOM     68  N   UNL     1      -7.996  18.211   1.819  1.00  0.00    -0.248 NA
ATOM     69  C   UNL     1      -6.996  19.956   3.004  1.00  0.00     0.031 C 
ATOM     70  C   UNL     1     -12.096  16.683   2.595  1.00  0.00     0.029 A 
ATOM     71  C   UNL     1     -10.825  17.182   2.357  1.00  0.00     0.049 A 
ATOM     72  H   UNL     1      -9.438  16.626   0.866  1.00  0.00     0.167 HD
ATOM     73  C   UNL     1      -8.873  18.654   2.797  1.00  0.00     0.074 A 
ATOM     74  C   UNL     1      -8.195  19.712   3.517  1.00  0.00     0.031 C 
ATOM     75  C   UNL     1     -10.129  18.225   3.068  1.00  0.00     0.037 A 
BRANCH  62  76
ATOM     76  C   UNL     1     -12.197  13.731  -0.632  1.00  0.00     0.064 A 
ATOM     77  C   UNL     1     -12.094  12.350  -0.408  1.00  0.00     0.173 A 
ATOM     78  C   UNL     1     -13.415  14.226  -1.123  1.00  0.00     0.173 A 
ATOM     79  F   UNL     1     -10.948  11.824   0.050  1.00  0.00    -0.203 F 
ATOM     80  C   UNL     1     -13.163  11.499  -0.676  1.00  0.00     0.198 A 
ATOM     81  C   UNL     1     -14.492  13.376  -1.362  1.00  0.00     0.198 A 
ATOM     82  F   UNL     1     -13.570  15.539  -1.350  1.00  0.00    -0.203 F 
ATOM     83  F   UNL     1     -13.029  10.179  -0.487  1.00  0.00    -0.200 F 
ATOM     84  C   UNL     1     -14.364  12.013  -1.142  1.00  0.00     0.200 A 
ATOM     85  F   UNL     1     -15.656  13.877  -1.797  1.00  0.00    -0.200 F 
ATOM     86  F   UNL     1     -15.398  11.194  -1.381  1.00  0.00    -0.200 F 
ENDBRANCH  62  76
BRANCH  63  87
ATOM     87  C   UNL     1      -4.479  19.749   1.486  1.00  0.00     0.064 A 
ATOM     88  C   UNL     1      -3.762  19.549   2.673  1.00  0.00     0.173 A 
ATOM     89  C   UNL     1      -4.027  20.752   0.613  1.00  0.00     0.173 A 
ATOM     90  F   UNL     1      -4.162  18.615   3.548  1.00  0.00    -0.203 F 
ATOM     91  C   UNL     1      -2.641  20.320   2.975  1.00  0.00     0.198 A 
ATOM     92  C   UNL     1      -2.888  21.499   0.900  1.00  0.00     0.198 A 
ATOM     93  F   UNL     1      -4.674  20.980  -0.540  1.00  0.00    -0.203 F 
ATOM     94  F   UNL     1      -1.990  20.128   4.130  1.00  0.00    -0.200 F 
ATOM     95  C   UNL     1      -2.199  21.287   2.083  1.00  0.00     0.200 A 
ATOM     96  F   UNL     1      -2.453  22.416   0.025  1.00  0.00    -0.200 F 
ATOM     97  F   UNL     1      -1.109  22.014   2.365  1.00  0.00    -0.200 F 
ENDBRANCH  63  87
BRANCH  75  98
ATOM     98  C   UNL     1     -10.857  18.879   4.204  1.00  0.00     0.064 A 
ATOM     99  C   UNL     1     -11.379  20.175   4.086  1.00  0.00     0.173 A 
ATOM    100  C   UNL     1     -11.126  18.162   5.380  1.00  0.00     0.173 A 
ATOM    101  F   UNL     1     -11.136  20.903   2.986  1.00  0.00    -0.203 F 
ATOM    102  C   UNL     1     -12.143  20.731   5.107  1.00  0.00     0.198 A 
ATOM    103  C   UNL     1     -11.915  18.711   6.386  1.00  0.00     0.198 A 
ATOM    104  F   UNL     1     -10.655  16.916   5.535  1.00  0.00    -0.203 F 
ATOM    105  F   UNL     1     -12.614  21.980   4.985  1.00  0.00    -0.200 F 
ATOM    106  C   UNL     1     -12.422  19.994   6.249  1.00  0.00     0.200 A 
ATOM    107  F   UNL     1     -12.199  17.991   7.480  1.00  0.00    -0.200 F 
ATOM    108  F   UNL     1     -13.182  20.521   7.219  1.00  0.00    -0.200 F 
ENDBRANCH  75  98
ENDBRANCH  49  50
ENDBRANCH  41  44
ENDBRANCH  39  40
ENDBRANCH  38  39
ENDBRANCH   1  38
TORSDOF 16
