REMARK SMILES O=C(NCCCNC(=O)c1cccc2c1N[C@H](c1ccccc1Br)[C@H]1CC=C[C@H]21)c1ccc(-c2c3nc(c(-c4c(F)c(F)c(F)c(F)c4F)c4ccc([nH]4)c(-c4c(F)c(F)c(F)c(F)c4F)c4nc(c(-c5c(F)c(F)c(F)c(F)c5F)c5ccc2[nH]5)C=C4)C=C3)cc1
REMARK SMILES IDX 4 1 3 2 1 3 2 4 30 6 31 7 92 8 32 9 91 10 33 11 34 12 35 13
REMARK SMILES IDX 85 14 36 15 90 16 84 17 86 18 37 19 89 20 83 21 82 22 38 24
REMARK SMILES IDX 70 25 50 26 69 27 51 28 54 29 68 30 87 31 52 32 53 33 67 35
REMARK SMILES IDX 88 36 55 37 39 38 40 39 48 40 41 41 42 42 46 43 49 44 43 45
REMARK SMILES IDX 44 46 47 47 45 48 71 49 72 50 80 51 73 52 74 53 78 54 81 55
REMARK SMILES IDX 75 56 76 57 79 58 77 59 56 60 57 61 65 62 58 63 59 64 63 65
REMARK SMILES IDX 66 66 60 67 61 68 64 69 62 70 5 71 6 72 7 73 8 74 9 76 10 77
REMARK SMILES IDX 11 78 15 79 12 80 14 81 16 82 13 83 29 84 17 85 25 87 28 88
REMARK SMILES IDX 26 89 27 90 18 91 19 92 23 93 20 94 22 95 24 96 21 97
REMARK H PARENT 3 5 86 23 54 34 7 75 16 86
REMARK Flexibility Score: inf
ROOT
ATOM      1  C   UNL     1       4.693  -1.193   0.007  1.00  0.00     0.118 C 
ENDROOT
BRANCH   1   2
ATOM      2  N   UNL     1       3.242  -1.058  -0.038  1.00  0.00    -0.352 N 
ATOM      3  O   UNL     1       1.240  -0.033   0.073  1.00  0.00    -0.269 OA
ATOM      4  C   UNL     1       2.454   0.065  -0.073  1.00  0.00     0.251 C 
ATOM      5  H   UNL     1       2.748  -1.909  -0.045  1.00  0.00     0.163 HD
BRANCH   4   6
ATOM      6  C   UNL     1       3.064   1.397  -0.277  1.00  0.00     0.039 A 
ATOM      7  C   UNL     1       2.526   2.500   0.391  1.00  0.00     0.014 A 
ATOM      8  C   UNL     1       4.134   1.571  -1.157  1.00  0.00     0.014 A 
ATOM      9  C   UNL     1       3.078   3.767   0.193  1.00  0.00     0.010 A 
ATOM     10  C   UNL     1       4.765   2.802  -1.250  1.00  0.00     0.010 A 
ATOM     11  C   UNL     1       4.209   3.924  -0.622  1.00  0.00    -0.014 A 
BRANCH  11  12
ATOM     12  C   UNL     1       4.756   5.260  -0.956  1.00  0.00     0.031 A 
ATOM     13  C   UNL     1       4.742   5.713  -2.392  1.00  0.00     0.074 A 
ATOM     14  C   UNL     1       5.297   6.038  -0.002  1.00  0.00     0.049 A 
ATOM     15  N   UNL     1       5.276   6.777  -2.935  1.00  0.00    -0.248 NA
ATOM     16  C   UNL     1       4.066   4.827  -3.357  1.00  0.00     0.031 C 
ATOM     17  C   UNL     1       5.381   5.704   1.419  1.00  0.00     0.029 A 
ATOM     18  N   UNL     1       5.883   7.275  -0.092  1.00  0.00    -0.354 N 
ATOM     19  C   UNL     1       5.021   6.670  -4.296  1.00  0.00     0.074 A 
ATOM     20  C   UNL     1       4.357   5.405  -4.510  1.00  0.00     0.031 C 
ATOM     21  C   UNL     1       5.952   6.728   2.075  1.00  0.00     0.029 A 
ATOM     22  C   UNL     1       6.317   7.766   1.114  1.00  0.00     0.049 A 
ATOM     23  H   UNL     1       5.984   7.764  -0.940  1.00  0.00     0.167 HD
ATOM     24  C   UNL     1       5.279   7.565  -5.277  1.00  0.00     0.037 A 
ATOM     25  C   UNL     1       6.943   8.922   1.405  1.00  0.00     0.037 A 
ATOM     26  C   UNL     1       5.899   8.842  -5.053  1.00  0.00     0.049 A 
ATOM     27  C   UNL     1       7.254   9.887   0.293  1.00  0.00     0.074 A 
ATOM     28  C   UNL     1       6.167   9.843  -5.968  1.00  0.00     0.029 A 
ATOM     29  N   UNL     1       6.340   9.296  -3.818  1.00  0.00    -0.354 N 
ATOM     30  N   UNL     1       6.982   9.793  -0.987  1.00  0.00    -0.248 NA
ATOM     31  C   UNL     1       7.960  11.120   0.667  1.00  0.00     0.031 C 
ATOM     32  C   UNL     1       6.814  10.884  -5.296  1.00  0.00     0.029 A 
ATOM     33  C   UNL     1       6.902  10.555  -3.952  1.00  0.00     0.049 A 
ATOM     34  H   UNL     1       6.265   8.798  -2.972  1.00  0.00     0.167 HD
ATOM     35  C   UNL     1       7.470  10.956  -1.568  1.00  0.00     0.074 A 
ATOM     36  C   UNL     1       8.030  11.753  -0.496  1.00  0.00     0.031 C 
ATOM     37  C   UNL     1       7.461  11.329  -2.872  1.00  0.00     0.037 A 
BRANCH  24  38
ATOM     38  C   UNL     1       4.876   7.197  -6.676  1.00  0.00     0.064 A 
ATOM     39  C   UNL     1       3.526   7.095  -7.051  1.00  0.00     0.173 A 
ATOM     40  C   UNL     1       5.847   6.969  -7.663  1.00  0.00     0.173 A 
ATOM     41  F   UNL     1       2.557   7.286  -6.143  1.00  0.00    -0.203 F 
ATOM     42  C   UNL     1       3.166   6.749  -8.350  1.00  0.00     0.198 A 
ATOM     43  C   UNL     1       5.482   6.658  -8.970  1.00  0.00     0.198 A 
ATOM     44  F   UNL     1       7.152   7.053  -7.361  1.00  0.00    -0.203 F 
ATOM     45  F   UNL     1       1.872   6.602  -8.667  1.00  0.00    -0.200 F 
ATOM     46  C   UNL     1       4.143   6.540  -9.311  1.00  0.00     0.200 A 
ATOM     47  F   UNL     1       6.428   6.470  -9.901  1.00  0.00    -0.200 F 
ATOM     48  F   UNL     1       3.794   6.218 -10.564  1.00  0.00    -0.200 F 
ENDBRANCH  24  38
BRANCH  25  49
ATOM     49  C   UNL     1       7.279   9.239   2.817  1.00  0.00     0.064 A 
ATOM     50  C   UNL     1       6.595  10.253   3.502  1.00  0.00     0.173 A 
ATOM     51  C   UNL     1       8.258   8.522   3.520  1.00  0.00     0.173 A 
ATOM     52  F   UNL     1       5.665  10.981   2.866  1.00  0.00    -0.203 F 
ATOM     53  C   UNL     1       6.880  10.540   4.835  1.00  0.00     0.198 A 
ATOM     54  C   UNL     1       8.523   8.792   4.861  1.00  0.00     0.198 A 
ATOM     55  F   UNL     1       8.940   7.541   2.910  1.00  0.00    -0.203 F 
ATOM     56  F   UNL     1       6.232  11.534   5.458  1.00  0.00    -0.200 F 
ATOM     57  C   UNL     1       7.837   9.803   5.517  1.00  0.00     0.200 A 
ATOM     58  F   UNL     1       9.438   8.067   5.520  1.00  0.00    -0.200 F 
ATOM     59  F   UNL     1       8.099  10.068   6.804  1.00  0.00    -0.200 F 
ENDBRANCH  25  49
BRANCH  37  60
ATOM     60  C   UNL     1       8.075  12.655  -3.217  1.00  0.00     0.064 A 
ATOM     61  C   UNL     1       9.463  12.854  -3.162  1.00  0.00     0.173 A 
ATOM     62  C   UNL     1       7.277  13.717  -3.670  1.00  0.00     0.173 A 
ATOM     63  F   UNL     1      10.268  11.874  -2.726  1.00  0.00    -0.203 F 
ATOM     64  C   UNL     1      10.025  14.074  -3.525  1.00  0.00     0.198 A 
ATOM     65  C   UNL     1       7.846  14.924  -4.065  1.00  0.00     0.198 A 
ATOM     66  F   UNL     1       5.945  13.575  -3.752  1.00  0.00    -0.203 F 
ATOM     67  F   UNL     1      11.349  14.256  -3.421  1.00  0.00    -0.200 F 
ATOM     68  C   UNL     1       9.219  15.104  -3.985  1.00  0.00     0.200 A 
ATOM     69  F   UNL     1       7.067  15.911  -4.528  1.00  0.00    -0.200 F 
ATOM     70  F   UNL     1       9.764  16.273  -4.349  1.00  0.00    -0.200 F 
ENDBRANCH  37  60
ENDBRANCH  11  12
ENDBRANCH   4   6
ENDBRANCH   1   2
BRANCH   1  71
ATOM     71  C   UNL     1       5.190  -1.766   1.318  1.00  0.00     0.042 C 
BRANCH  71  72
ATOM     72  C   UNL     1       4.684  -3.165   1.582  1.00  0.00     0.118 C 
BRANCH  72  73
ATOM     73  N   UNL     1       5.126  -4.131   0.587  1.00  0.00    -0.352 N 
ATOM     74  C   UNL     1       5.834  -5.291   0.783  1.00  0.00     0.253 C 
ATOM     75  H   UNL     1       4.886  -3.926  -0.346  1.00  0.00     0.163 HD
ATOM     76  O   UNL     1       6.214  -5.947  -0.181  1.00  0.00    -0.269 OA
BRANCH  74  77
ATOM     77  C   UNL     1       6.169  -5.718   2.158  1.00  0.00     0.063 A 
ATOM     78  C   UNL     1       7.529  -5.929   2.424  1.00  0.00     0.016 A 
ATOM     79  C   UNL     1       5.191  -5.867   3.165  1.00  0.00     0.051 A 
ATOM     80  C   UNL     1       7.941  -6.239   3.715  1.00  0.00     0.001 A 
ATOM     81  C   UNL     1       5.635  -6.139   4.478  1.00  0.00    -0.017 A 
ATOM     82  N   UNL     1       3.834  -5.661   2.912  1.00  0.00    -0.377 N 
ATOM     83  C   UNL     1       7.000  -6.340   4.739  1.00  0.00     0.006 A 
ATOM     84  C   UNL     1       4.568  -6.292   5.522  1.00  0.00     0.049 C 
ATOM     85  C   UNL     1       2.805  -5.447   3.944  1.00  0.00     0.115 C 
ATOM     86  H   UNL     1       3.542  -5.658   1.972  1.00  0.00     0.161 HD
ATOM     87  C   UNL     1       3.495  -5.213   5.283  1.00  0.00     0.031 C 
ATOM     88  C   UNL     1       4.851  -6.029   6.973  1.00  0.00    -0.023 C 
ATOM     89  C   UNL     1       2.663  -5.284   6.562  1.00  0.00     0.034 C 
ATOM     90  C   UNL     1       3.765  -5.500   7.562  1.00  0.00    -0.030 C 
BRANCH  85  91
ATOM     91  C   UNL     1       1.778  -4.436   3.400  1.00  0.00    -0.011 A 
ATOM     92  C   UNL     1       1.008  -4.910   2.301  1.00  0.00     0.007 A 
ATOM     93  C   UNL     1       1.514  -3.113   3.812  1.00  0.00     0.023 A 
ATOM     94  C   UNL     1       0.023  -4.138   1.676  1.00  0.00     0.000 A 
ATOM     95  C   UNL     1       0.478  -2.365   3.214  1.00  0.00     0.016 A 
ATOM     96  Br  UNL     1       2.506  -2.093   5.072  1.00  0.00    -0.050 Br
ATOM     97  C   UNL     1      -0.261  -2.870   2.152  1.00  0.00     0.001 A 
ENDBRANCH  85  91
ENDBRANCH  74  77
ENDBRANCH  72  73
ENDBRANCH  71  72
ENDBRANCH   1  71
TORSDOF 11
