REMARK SMILES COc1cc(/C=N/NC(N)=O)ccc1OCc1cccc(C(=O)NCCCNC(=O)c2ccc(-c3c4nc(c(-c5c(F)c(F)c(F)c(F)c5F)c5ccc([nH]5)c(-c5c(F)c(F)c(F)c(F)c5F)c5nc(c(-c6c(F)c(F)c(F)c(F)c6F)c6ccc3[nH]6)C=C5)C=C4)cc2)c1
REMARK SMILES IDX 22 1 23 2 24 3 21 5 17 6 18 7 94 8 19 9 20 10 16 11 15 12
REMARK SMILES IDX 14 13 3 14 4 15 5 16 13 17 12 18 2 19 1 20 6 21 7 22 8 23
REMARK SMILES IDX 9 24 10 26 11 27 25 30 26 31 27 32 28 33 29 34 30 36 31 37
REMARK SMILES IDX 32 38 93 39 33 40 92 41 34 42 35 43 36 44 86 45 37 46 91 47
REMARK SMILES IDX 85 48 87 49 38 50 90 51 84 52 83 53 39 55 71 56 51 57 70 58
REMARK SMILES IDX 52 59 55 60 69 61 88 62 53 63 54 64 68 66 89 67 56 68 40 69
REMARK SMILES IDX 41 70 49 71 42 72 43 73 47 74 50 75 44 76 45 77 48 78 46 79
REMARK SMILES IDX 72 80 73 81 81 82 74 83 75 84 79 85 82 86 76 87 77 88 80 89
REMARK SMILES IDX 78 90 57 91 58 92 66 93 59 94 60 95 64 96 67 97 61 98 62 99
REMARK SMILES IDX 65 100 63 101
REMARK H PARENT 24 4 8 25 10 28 10 29 28 35 87 54 55 65
REMARK Flexibility Score: inf
ROOT
ATOM      1  C   UNL     1       0.948  -4.907   0.337  1.00  0.00     0.251 C 
ATOM      2  O   UNL     1       0.020  -5.669   0.598  1.00  0.00    -0.269 OA
ATOM      3  N   UNL     1       2.213  -5.425   0.198  1.00  0.00    -0.352 N 
ATOM      4  H   UNL     1       2.278  -6.395   0.348  1.00  0.00     0.163 HD
ENDROOT
BRANCH   1   5
ATOM      5  C   UNL     1       0.677  -3.473   0.076  1.00  0.00     0.040 A 
ATOM      6  C   UNL     1       1.390  -1.148  -0.007  1.00  0.00    -0.010 A 
ATOM      7  C   UNL     1       0.283  -0.862  -0.814  1.00  0.00     0.007 A 
ATOM      8  C   UNL     1       1.544  -2.453   0.476  1.00  0.00     0.021 A 
ATOM      9  C   UNL     1      -0.666  -1.847  -1.100  1.00  0.00     0.001 A 
ATOM     10  C   UNL     1      -0.463  -3.155  -0.666  1.00  0.00     0.014 A 
BRANCH   6  11
ATOM     11  C   UNL     1       2.472  -0.117   0.249  1.00  0.00     0.265 C 
BRANCH  11  12
ATOM     12  O   UNL     1       2.959  -0.078   1.596  1.00  0.00    -0.485 OA
BRANCH  12  13
ATOM     13  C   UNL     1       2.079   0.266   2.589  1.00  0.00     0.161 A 
ATOM     14  C   UNL     1       1.003   1.160   2.484  1.00  0.00     0.161 A 
ATOM     15  C   UNL     1       0.160   1.358   3.583  1.00  0.00     0.060 A 
ATOM     16  C   UNL     1       0.401   0.688   4.787  1.00  0.00    -0.002 A 
ATOM     17  C   UNL     1       2.338  -0.363   3.815  1.00  0.00     0.051 A 
ATOM     18  C   UNL     1       1.504  -0.157   4.914  1.00  0.00     0.014 A 
BRANCH  14  19
ATOM     19  O   UNL     1       0.878   1.913   1.348  1.00  0.00    -0.493 OA
ATOM     20  C   UNL     1      -0.455   2.066   0.872  1.00  0.00     0.278 C 
ENDBRANCH  14  19
BRANCH  16  21
ATOM     21  C   UNL     1      -0.487   0.888   5.953  1.00  0.00     0.141 C 
ATOM     22  N   UNL     1      -1.603   1.533   5.833  1.00  0.00    -0.179 NA
BRANCH  22  23
ATOM     23  N   UNL     1      -2.372   1.760   6.941  1.00  0.00    -0.229 N 
ATOM     24  C   UNL     1      -1.963   1.808   8.257  1.00  0.00     0.332 C 
ATOM     25  H   UNL     1      -3.332   1.907   6.779  1.00  0.00     0.195 HD
ATOM     26  N   UNL     1      -2.970   2.177   9.100  1.00  0.00    -0.350 N 
ATOM     27  O   UNL     1      -0.849   1.580   8.707  1.00  0.00    -0.247 OA
ATOM     28  H   UNL     1      -3.869   2.361   8.742  1.00  0.00     0.161 HD
ATOM     29  H   UNL     1      -2.799   2.258  10.066  1.00  0.00     0.161 HD
ENDBRANCH  22  23
ENDBRANCH  16  21
ENDBRANCH  12  13
ENDBRANCH  11  12
ENDBRANCH   6  11
ENDBRANCH   1   5
BRANCH   3  30
ATOM     30  C   UNL     1       3.473  -4.778  -0.135  1.00  0.00     0.118 C 
BRANCH  30  31
ATOM     31  C   UNL     1       4.310  -4.553   1.122  1.00  0.00     0.042 C 
BRANCH  31  32
ATOM     32  C   UNL     1       4.928  -5.840   1.649  1.00  0.00     0.118 C 
BRANCH  32  33
ATOM     33  N   UNL     1       5.977  -6.330   0.769  1.00  0.00    -0.352 N 
ATOM     34  C   UNL     1       7.293  -6.596   1.045  1.00  0.00     0.251 C 
ATOM     35  H   UNL     1       5.701  -6.496  -0.162  1.00  0.00     0.163 HD
ATOM     36  O   UNL     1       8.086  -6.770   0.125  1.00  0.00    -0.269 OA
BRANCH  34  37
ATOM     37  C   UNL     1       7.758  -6.667   2.445  1.00  0.00     0.039 A 
ATOM     38  C   UNL     1       9.008  -6.134   2.767  1.00  0.00     0.014 A 
ATOM     39  C   UNL     1       6.985  -7.289   3.430  1.00  0.00     0.014 A 
ATOM     40  C   UNL     1       9.465  -6.189   4.084  1.00  0.00     0.010 A 
ATOM     41  C   UNL     1       7.402  -7.268   4.755  1.00  0.00     0.010 A 
ATOM     42  C   UNL     1       8.654  -6.735   5.093  1.00  0.00    -0.014 A 
BRANCH  42  43
ATOM     43  C   UNL     1       9.107  -6.779   6.504  1.00  0.00     0.031 A 
ATOM     44  C   UNL     1       9.315  -8.104   7.184  1.00  0.00     0.074 A 
ATOM     45  C   UNL     1       9.268  -5.630   7.186  1.00  0.00     0.049 A 
ATOM     46  N   UNL     1       9.635  -8.356   8.428  1.00  0.00    -0.248 NA
ATOM     47  C   UNL     1       9.103  -9.308   6.365  1.00  0.00     0.031 C 
ATOM     48  C   UNL     1       9.045  -4.288   6.645  1.00  0.00     0.029 A 
ATOM     49  N   UNL     1       9.646  -5.406   8.485  1.00  0.00    -0.354 N 
ATOM     50  C   UNL     1       9.643  -9.740   8.542  1.00  0.00     0.074 A 
ATOM     51  C   UNL     1       9.241 -10.274   7.260  1.00  0.00     0.031 C 
ATOM     52  C   UNL     1       9.311  -3.381   7.597  1.00  0.00     0.029 A 
ATOM     53  C   UNL     1       9.685  -4.076   8.825  1.00  0.00     0.049 A 
ATOM     54  H   UNL     1       9.867  -6.130   9.115  1.00  0.00     0.167 HD
ATOM     55  C   UNL     1       9.980 -10.496   9.614  1.00  0.00     0.037 A 
ATOM     56  C   UNL     1       9.982  -3.487   9.998  1.00  0.00     0.037 A 
ATOM     57  C   UNL     1      10.407  -9.955  10.877  1.00  0.00     0.049 A 
ATOM     58  C   UNL     1      10.361  -4.349  11.171  1.00  0.00     0.074 A 
ATOM     59  C   UNL     1      10.833 -10.631  12.007  1.00  0.00     0.029 A 
ATOM     60  N   UNL     1      10.462  -8.601  11.176  1.00  0.00    -0.354 N 
ATOM     61  N   UNL     1      10.435  -5.656  11.248  1.00  0.00    -0.248 NA
ATOM     62  C   UNL     1      10.707  -3.654  12.418  1.00  0.00     0.031 C 
ATOM     63  C   UNL     1      11.100  -9.688  13.004  1.00  0.00     0.029 A 
ATOM     64  C   UNL     1      10.894  -8.421  12.480  1.00  0.00     0.049 A 
ATOM     65  H   UNL     1      10.228  -7.875  10.553  1.00  0.00     0.167 HD
ATOM     66  C   UNL     1      10.861  -5.939  12.538  1.00  0.00     0.074 A 
ATOM     67  C   UNL     1      11.046  -4.666  13.204  1.00  0.00     0.031 C 
ATOM     68  C   UNL     1      11.079  -7.144  13.121  1.00  0.00     0.037 A 
BRANCH  55  69
ATOM     69  C   UNL     1       9.903 -11.989   9.464  1.00  0.00     0.064 A 
ATOM     70  C   UNL     1      10.793 -12.694   8.639  1.00  0.00     0.173 A 
ATOM     71  C   UNL     1       8.949 -12.729  10.179  1.00  0.00     0.173 A 
ATOM     72  F   UNL     1      11.718 -12.035   7.924  1.00  0.00    -0.203 F 
ATOM     73  C   UNL     1      10.709 -14.078   8.510  1.00  0.00     0.198 A 
ATOM     74  C   UNL     1       8.889 -14.116  10.073  1.00  0.00     0.198 A 
ATOM     75  F   UNL     1       8.077 -12.107  10.987  1.00  0.00    -0.203 F 
ATOM     76  F   UNL     1      11.536 -14.722   7.674  1.00  0.00    -0.200 F 
ATOM     77  C   UNL     1       9.763 -14.789   9.232  1.00  0.00     0.200 A 
ATOM     78  F   UNL     1       7.983 -14.803  10.782  1.00  0.00    -0.200 F 
ATOM     79  F   UNL     1       9.689 -16.121   9.112  1.00  0.00    -0.200 F 
ENDBRANCH  55  69
BRANCH  56  80
ATOM     80  C   UNL     1       9.960  -2.005  10.110  1.00  0.00     0.064 A 
ATOM     81  C   UNL     1      11.147  -1.278  10.273  1.00  0.00     0.173 A 
ATOM     82  C   UNL     1       8.757  -1.286  10.053  1.00  0.00     0.173 A 
ATOM     83  F   UNL     1      12.321  -1.922  10.351  1.00  0.00    -0.203 F 
ATOM     84  C   UNL     1      11.130   0.110  10.396  1.00  0.00     0.198 A 
ATOM     85  C   UNL     1       8.744   0.104  10.147  1.00  0.00     0.198 A 
ATOM     86  F   UNL     1       7.594  -1.934   9.891  1.00  0.00    -0.203 F 
ATOM     87  F   UNL     1      12.276   0.776  10.596  1.00  0.00    -0.200 F 
ATOM     88  C   UNL     1       9.930   0.800  10.327  1.00  0.00     0.200 A 
ATOM     89  F   UNL     1       7.584   0.769  10.063  1.00  0.00    -0.200 F 
ATOM     90  F   UNL     1       9.915   2.135  10.441  1.00  0.00    -0.200 F 
ENDBRANCH  56  80
BRANCH  68  91
ATOM     91  C   UNL     1      11.575  -7.142  14.537  1.00  0.00     0.064 A 
ATOM     92  C   UNL     1      10.745  -6.779  15.608  1.00  0.00     0.173 A 
ATOM     93  C   UNL     1      12.887  -7.546  14.829  1.00  0.00     0.173 A 
ATOM     94  F   UNL     1       9.488  -6.372  15.380  1.00  0.00    -0.203 F 
ATOM     95  C   UNL     1      11.220  -6.795  16.917  1.00  0.00     0.198 A 
ATOM     96  C   UNL     1      13.347  -7.591  16.141  1.00  0.00     0.198 A 
ATOM     97  F   UNL     1      13.718  -7.909  13.840  1.00  0.00    -0.203 F 
ATOM     98  F   UNL     1      10.425  -6.397  17.920  1.00  0.00    -0.200 F 
ATOM     99  C   UNL     1      12.517  -7.209  17.183  1.00  0.00     0.200 A 
ATOM    100  F   UNL     1      14.596  -8.005  16.397  1.00  0.00    -0.200 F 
ATOM    101  F   UNL     1      12.969  -7.231  18.444  1.00  0.00    -0.200 F 
ENDBRANCH  68  91
ENDBRANCH  42  43
ENDBRANCH  34  37
ENDBRANCH  32  33
ENDBRANCH  31  32
ENDBRANCH  30  31
ENDBRANCH   3  30
TORSDOF 16
