REMARK SMILES O=C(NCCCNC(=O)c1ccc(-n2cccc2)c(F)c1)c1ccc(-c2c3nc(c(-c4c(F)c(F)c(F)c(F)c4F)c4ccc([nH]4)c(-c4c(F)c(F)c(F)c(F)c4F)c4nc(c(-c5c(F)c(F)c(F)c(F)c5F)c5ccc2[nH]5)C=C4)C=C3)cc1
REMARK SMILES IDX 4 1 3 2 1 3 2 4 22 6 23 7 84 8 24 9 83 10 25 11 26 12 27 13
REMARK SMILES IDX 77 14 28 15 82 16 76 17 78 18 29 19 81 20 75 21 74 22 30 24
REMARK SMILES IDX 62 25 42 26 61 27 43 28 46 29 60 30 79 31 44 32 45 33 59 35
REMARK SMILES IDX 80 36 47 37 31 38 32 39 40 40 33 41 34 42 38 43 41 44 35 45
REMARK SMILES IDX 36 46 39 47 37 48 63 49 64 50 72 51 65 52 66 53 70 54 73 55
REMARK SMILES IDX 67 56 68 57 71 58 69 59 48 60 49 61 57 62 50 63 51 64 55 65
REMARK SMILES IDX 58 66 52 67 53 68 56 69 54 70 5 71 6 72 7 73 8 74 9 76 10 77
REMARK SMILES IDX 11 78 21 79 12 80 19 81 13 82 20 83 14 84 15 85 18 86 16 87
REMARK SMILES IDX 17 88
REMARK H PARENT 3 5 78 23 46 34 7 75
REMARK Flexibility Score: inf
ROOT
ATOM      1  C   UNL     1       4.623  -1.185   0.611  1.00  0.00     0.118 C 
ENDROOT
BRANCH   1   2
ATOM      2  N   UNL     1       3.225  -1.120   0.219  1.00  0.00    -0.352 N 
ATOM      3  O   UNL     1       1.233  -0.326  -0.414  1.00  0.00    -0.269 OA
ATOM      4  C   UNL     1       2.342  -0.084   0.061  1.00  0.00     0.251 C 
ATOM      5  H   UNL     1       2.831  -2.002   0.027  1.00  0.00     0.163 HD
BRANCH   4   6
ATOM      6  C   UNL     1       2.637   1.294   0.516  1.00  0.00     0.039 A 
ATOM      7  C   UNL     1       3.901   1.879   0.430  1.00  0.00     0.014 A 
ATOM      8  C   UNL     1       1.563   2.039   1.035  1.00  0.00     0.014 A 
ATOM      9  C   UNL     1       4.119   3.149   0.948  1.00  0.00     0.010 A 
ATOM     10  C   UNL     1       1.764   3.330   1.518  1.00  0.00     0.010 A 
ATOM     11  C   UNL     1       3.048   3.880   1.475  1.00  0.00    -0.014 A 
BRANCH  11  12
ATOM     12  C   UNL     1       3.286   5.317   1.736  1.00  0.00     0.031 A 
ATOM     13  C   UNL     1       3.255   6.136   0.426  1.00  0.00     0.074 A 
ATOM     14  C   UNL     1       3.568   5.671   3.027  1.00  0.00     0.049 A 
ATOM     15  N   UNL     1       3.818   7.269   0.134  1.00  0.00    -0.248 NA
ATOM     16  C   UNL     1       2.538   5.581  -0.759  1.00  0.00     0.031 C 
ATOM     17  C   UNL     1       3.518   4.748   4.181  1.00  0.00     0.029 A 
ATOM     18  N   UNL     1       3.963   6.846   3.638  1.00  0.00    -0.354 N 
ATOM     19  C   UNL     1       3.389   7.642  -1.160  1.00  0.00     0.074 A 
ATOM     20  C   UNL     1       2.683   6.520  -1.696  1.00  0.00     0.031 C 
ATOM     21  C   UNL     1       3.944   5.359   5.307  1.00  0.00     0.029 A 
ATOM     22  C   UNL     1       4.300   6.734   5.016  1.00  0.00     0.049 A 
ATOM     23  H   UNL     1       4.009   7.702   3.153  1.00  0.00     0.167 HD
ATOM     24  C   UNL     1       3.550   8.898  -1.671  1.00  0.00     0.037 A 
ATOM     25  C   UNL     1       4.866   7.668   5.847  1.00  0.00     0.037 A 
ATOM     26  C   UNL     1       4.260   9.712  -0.749  1.00  0.00     0.049 A 
ATOM     27  C   UNL     1       4.883   8.913   5.065  1.00  0.00     0.074 A 
ATOM     28  C   UNL     1       5.583   9.760  -0.406  1.00  0.00     0.029 A 
ATOM     29  N   UNL     1       3.521  10.379   0.196  1.00  0.00    -0.354 N 
ATOM     30  N   UNL     1       3.832   9.626   4.787  1.00  0.00    -0.248 NA
ATOM     31  C   UNL     1       6.155   9.364   4.487  1.00  0.00     0.031 C 
ATOM     32  C   UNL     1       5.556  10.057   0.970  1.00  0.00     0.029 A 
ATOM     33  C   UNL     1       4.248  10.371   1.359  1.00  0.00     0.049 A 
ATOM     34  H   UNL     1       2.635  10.787   0.063  1.00  0.00     0.167 HD
ATOM     35  C   UNL     1       4.277  10.397   3.741  1.00  0.00     0.074 A 
ATOM     36  C   UNL     1       5.719  10.436   3.833  1.00  0.00     0.031 C 
ATOM     37  C   UNL     1       3.534  10.469   2.609  1.00  0.00     0.037 A 
BRANCH  24  38
ATOM     38  C   UNL     1       2.972   9.588  -2.872  1.00  0.00     0.064 A 
ATOM     39  C   UNL     1       1.646   9.419  -3.286  1.00  0.00     0.173 A 
ATOM     40  C   UNL     1       3.652  10.720  -3.390  1.00  0.00     0.173 A 
ATOM     41  F   UNL     1       0.911   8.394  -2.836  1.00  0.00    -0.203 F 
ATOM     42  C   UNL     1       1.012  10.370  -4.094  1.00  0.00     0.198 A 
ATOM     43  C   UNL     1       3.005  11.686  -4.156  1.00  0.00     0.198 A 
ATOM     44  F   UNL     1       4.941  10.944  -3.087  1.00  0.00    -0.203 F 
ATOM     45  F   UNL     1      -0.276  10.205  -4.424  1.00  0.00    -0.200 F 
ATOM     46  C   UNL     1       1.677  11.519  -4.493  1.00  0.00     0.200 A 
ATOM     47  F   UNL     1       3.653  12.807  -4.507  1.00  0.00    -0.200 F 
ATOM     48  F   UNL     1       1.029  12.477  -5.170  1.00  0.00    -0.200 F 
ENDBRANCH  24  38
BRANCH  25  49
ATOM     49  C   UNL     1       5.513   7.739   7.220  1.00  0.00     0.064 A 
ATOM     50  C   UNL     1       6.229   8.913   7.609  1.00  0.00     0.173 A 
ATOM     51  C   UNL     1       5.583   6.704   8.159  1.00  0.00     0.173 A 
ATOM     52  F   UNL     1       6.132  10.059   6.923  1.00  0.00    -0.203 F 
ATOM     53  C   UNL     1       7.085   8.973   8.710  1.00  0.00     0.198 A 
ATOM     54  C   UNL     1       6.401   6.784   9.305  1.00  0.00     0.198 A 
ATOM     55  F   UNL     1       4.861   5.589   8.015  1.00  0.00    -0.203 F 
ATOM     56  F   UNL     1       7.821  10.075   8.921  1.00  0.00    -0.200 F 
ATOM     57  C   UNL     1       7.188   7.896   9.552  1.00  0.00     0.200 A 
ATOM     58  F   UNL     1       6.439   5.758  10.167  1.00  0.00    -0.200 F 
ATOM     59  F   UNL     1       8.025   7.934  10.597  1.00  0.00    -0.200 F 
ENDBRANCH  25  49
BRANCH  37  60
ATOM     60  C   UNL     1       2.055  10.230   2.824  1.00  0.00     0.064 A 
ATOM     61  C   UNL     1       1.371   9.081   2.392  1.00  0.00     0.173 A 
ATOM     62  C   UNL     1       1.309  11.135   3.593  1.00  0.00     0.173 A 
ATOM     63  F   UNL     1       1.992   8.159   1.662  1.00  0.00    -0.203 F 
ATOM     64  C   UNL     1       0.030   8.845   2.698  1.00  0.00     0.198 A 
ATOM     65  C   UNL     1      -0.033  10.901   3.907  1.00  0.00     0.198 A 
ATOM     66  F   UNL     1       1.884  12.261   4.041  1.00  0.00    -0.203 F 
ATOM     67  F   UNL     1      -0.578   7.737   2.245  1.00  0.00    -0.200 F 
ATOM     68  C   UNL     1      -0.673   9.757   3.459  1.00  0.00     0.200 A 
ATOM     69  F   UNL     1      -0.711  11.794   4.642  1.00  0.00    -0.200 F 
ATOM     70  F   UNL     1      -1.964   9.542   3.748  1.00  0.00    -0.200 F 
ENDBRANCH  37  60
ENDBRANCH  11  12
ENDBRANCH   4   6
ENDBRANCH   1   2
BRANCH   1  71
ATOM     71  C   UNL     1       4.932  -0.824   2.065  1.00  0.00     0.042 C 
BRANCH  71  72
ATOM     72  C   UNL     1       4.359  -1.795   3.092  1.00  0.00     0.118 C 
BRANCH  72  73
ATOM     73  N   UNL     1       4.897  -3.136   2.936  1.00  0.00    -0.352 N 
ATOM     74  C   UNL     1       5.759  -3.848   3.732  1.00  0.00     0.251 C 
ATOM     75  H   UNL     1       4.594  -3.611   2.128  1.00  0.00     0.163 HD
ATOM     76  O   UNL     1       6.273  -4.873   3.314  1.00  0.00    -0.269 OA
BRANCH  74  77
ATOM     77  C   UNL     1       6.072  -3.381   5.097  1.00  0.00     0.042 A 
ATOM     78  C   UNL     1       5.052  -3.082   6.007  1.00  0.00     0.016 A 
ATOM     79  C   UNL     1       7.408  -3.326   5.494  1.00  0.00     0.055 A 
ATOM     80  C   UNL     1       5.372  -2.674   7.304  1.00  0.00     0.030 A 
ATOM     81  C   UNL     1       7.723  -2.897   6.781  1.00  0.00     0.147 A 
ATOM     82  C   UNL     1       6.716  -2.559   7.692  1.00  0.00     0.081 A 
ATOM     83  F   UNL     1       9.018  -2.883   7.129  1.00  0.00    -0.205 F 
BRANCH  82  84
ATOM     84  N   UNL     1       7.035  -2.091   8.994  1.00  0.00    -0.321 N 
ATOM     85  C   UNL     1       8.172  -1.403   9.367  1.00  0.00     0.091 A 
ATOM     86  C   UNL     1       6.232  -2.197  10.115  1.00  0.00     0.091 A 
ATOM     87  C   UNL     1       8.074  -1.056  10.697  1.00  0.00     0.020 A 
ATOM     88  C   UNL     1       6.856  -1.579  11.177  1.00  0.00     0.020 A 
ENDBRANCH  82  84
ENDBRANCH  74  77
ENDBRANCH  72  73
ENDBRANCH  71  72
ENDBRANCH   1  71
TORSDOF 11
