REMARK SMILES C[N@@H+]1CC[N@@H+](Cc2ncc[nH]2)C[C@@]12CCC(=O)N(CC(=O)NCCCNC(=O)c1ccc(-c3c4nc(c(-c5c(F)c(F)c(F)c(F)c5F)c5ccc([nH]5)c(-c5c(F)c(F)c(F)c(F)c5F)c5nc(c(-c6c(F)c(F)c(F)c(F)c6F)c6ccc3[nH]6)C=C5)C=C4)cc1)CC2
REMARK SMILES IDX 20 1 21 2 22 3 19 5 18 6 92 7 93 8 13 9 1 10 2 11 3 12 4 14
REMARK SMILES IDX 12 15 5 16 14 18 6 20 7 21 8 22 11 23 9 24 10 25 16 27 17 28
REMARK SMILES IDX 15 29 23 31 24 32 25 33 26 34 27 35 28 37 29 38 30 39 91 40
REMARK SMILES IDX 31 41 90 42 32 43 33 44 34 45 84 46 35 47 89 48 83 49 85 50
REMARK SMILES IDX 36 51 88 52 82 53 81 54 37 56 69 57 49 58 68 59 50 60 53 61
REMARK SMILES IDX 67 62 86 63 51 64 52 65 66 67 87 68 54 69 38 70 39 71 47 72
REMARK SMILES IDX 40 73 41 74 45 75 48 76 42 77 43 78 46 79 44 80 70 81 71 82
REMARK SMILES IDX 79 83 72 84 73 85 77 86 80 87 74 88 75 89 78 90 76 91 55 92
REMARK SMILES IDX 56 93 64 94 57 95 58 96 62 97 65 98 59 99 60 100 63 101
REMARK SMILES IDX 61 102
REMARK H PARENT 22 4 2 13 5 17 11 26 26 36 85 55 53 66
REMARK Flexibility Score: 90.00
ROOT
ATOM      1  C   UNL     1      -6.359   0.662  -1.121  1.00  0.00     0.239 C 
ATOM      2  O   UNL     1      -7.281   0.969  -1.887  1.00  0.00    -0.273 OA
ATOM      3  N   UNL     1      -6.698   0.532   0.196  1.00  0.00    -0.354 N 
ATOM      4  H   UNL     1      -7.603   0.852   0.417  1.00  0.00     0.163 HD
ENDROOT
BRANCH   1   5
ATOM      5  C   UNL     1      -4.990   0.218  -1.690  1.00  0.00     0.219 C 
BRANCH   5   6
ATOM      6  N   UNL     1      -3.768   0.613  -0.980  1.00  0.00    -0.333 N 
BRANCH   6   7
ATOM      7  C   UNL     1      -2.713  -0.369  -0.813  1.00  0.00     0.127 C 
BRANCH   7   8
ATOM      8  C   UNL     1      -1.267   0.136  -1.123  1.00  0.00     0.096 C 
BRANCH   8   9
ATOM      9  C   UNL     1      -0.535   0.667   0.152  1.00  0.00     0.149 C 
ATOM     10  C   UNL     1       1.788   0.261  -0.693  1.00  0.00     0.333 C 
ATOM     11  N   UNL     1       0.893   1.113   0.072  1.00  0.00    -0.323 N 
ATOM     12  C   UNL     1       1.452   1.386   1.446  1.00  0.00     0.324 C 
ATOM     13  H   UNL     1       0.851   1.978  -0.468  1.00  0.00     0.348 HD
ATOM     14  C   UNL     1       0.839   0.597   2.649  1.00  0.00     0.324 C 
ATOM     15  C   UNL     1      -0.626  -0.541   1.176  1.00  0.00     0.332 C 
ATOM     16  N   UNL     1       0.428  -0.713   2.181  1.00  0.00    -0.319 N 
ATOM     17  H   UNL     1       1.239  -1.146   1.740  1.00  0.00     0.348 HD
BRANCH   9  18
ATOM     18  C   UNL     1      -1.201   2.044   0.488  1.00  0.00     0.084 CG0
ATOM     19  G   UNL     1      -2.696   2.247   0.496  1.00  0.00     0.000 G0
ENDBRANCH   9  18
BRANCH  16  20
ATOM     20  C   UNL     1       0.151  -1.724   3.214  1.00  0.00     0.339 C 
BRANCH  20  21
ATOM     21  C   UNL     1      -1.299  -2.050   3.459  1.00  0.00     0.161 A 
ATOM     22  N   UNL     1      -2.259  -1.229   3.848  1.00  0.00    -0.236 NA
ATOM     23  N   UNL     1      -1.821  -3.293   3.178  1.00  0.00    -0.344 N 
ATOM     24  C   UNL     1      -3.425  -1.943   3.753  1.00  0.00     0.131 A 
ATOM     25  C   UNL     1      -3.179  -3.221   3.317  1.00  0.00     0.104 A 
ATOM     26  H   UNL     1      -1.307  -4.093   2.923  1.00  0.00     0.167 HD
ENDBRANCH  20  21
ENDBRANCH  16  20
ENDBRANCH   8   9
ENDBRANCH   7   8
ENDBRANCH   6   7
BRANCH   6  27
ATOM     27  C   UNL     1      -3.553   1.950  -0.722  1.00  0.00     0.223 C 
ATOM     28  O   UNL     1      -4.172   2.840  -1.301  1.00  0.00    -0.275 OA
BRANCH  27  29
ATOM     29  C   UNL     1      -2.696   2.247   0.496  1.00  0.00     0.107 CG0
ATOM     30  G   UNL     1      -1.201   2.044   0.488  1.00  0.00     0.000 G0
ENDBRANCH  27  29
ENDBRANCH   6  27
ENDBRANCH   5   6
ENDBRANCH   1   5
BRANCH   3  31
ATOM     31  C   UNL     1      -5.957   0.006   1.323  1.00  0.00     0.117 C 
BRANCH  31  32
ATOM     32  C   UNL     1      -5.452   1.115   2.232  1.00  0.00     0.042 C 
BRANCH  32  33
ATOM     33  C   UNL     1      -6.481   1.812   3.104  1.00  0.00     0.118 C 
BRANCH  33  34
ATOM     34  N   UNL     1      -7.055   0.969   4.137  1.00  0.00    -0.352 N 
ATOM     35  C   UNL     1      -7.087   1.119   5.500  1.00  0.00     0.251 C 
ATOM     36  H   UNL     1      -7.495   0.154   3.803  1.00  0.00     0.163 HD
ATOM     37  O   UNL     1      -7.558   0.201   6.182  1.00  0.00    -0.269 OA
BRANCH  35  38
ATOM     38  C   UNL     1      -6.558   2.327   6.181  1.00  0.00     0.039 A 
ATOM     39  C   UNL     1      -5.964   2.176   7.439  1.00  0.00     0.014 A 
ATOM     40  C   UNL     1      -6.684   3.609   5.641  1.00  0.00     0.014 A 
ATOM     41  C   UNL     1      -5.469   3.290   8.126  1.00  0.00     0.010 A 
ATOM     42  C   UNL     1      -6.094   4.703   6.274  1.00  0.00     0.010 A 
ATOM     43  C   UNL     1      -5.508   4.564   7.539  1.00  0.00    -0.014 A 
BRANCH  43  44
ATOM     44  C   UNL     1      -5.000   5.763   8.261  1.00  0.00     0.031 A 
ATOM     45  C   UNL     1      -5.941   6.892   8.604  1.00  0.00     0.074 A 
ATOM     46  C   UNL     1      -3.695   5.861   8.578  1.00  0.00     0.049 A 
ATOM     47  N   UNL     1      -5.689   8.035   9.194  1.00  0.00    -0.248 NA
ATOM     48  C   UNL     1      -7.347   6.726   8.206  1.00  0.00     0.031 C 
ATOM     49  C   UNL     1      -2.670   4.865   8.264  1.00  0.00     0.029 A 
ATOM     50  N   UNL     1      -3.004   6.851   9.235  1.00  0.00    -0.354 N 
ATOM     51  C   UNL     1      -6.896   8.723   9.217  1.00  0.00     0.074 A 
ATOM     52  C   UNL     1      -7.863   7.903   8.524  1.00  0.00     0.031 C 
ATOM     53  C   UNL     1      -1.490   5.278   8.753  1.00  0.00     0.029 A 
ATOM     54  C   UNL     1      -1.665   6.584   9.381  1.00  0.00     0.049 A 
ATOM     55  H   UNL     1      -3.429   7.674   9.568  1.00  0.00     0.167 HD
ATOM     56  C   UNL     1      -7.183   9.918   9.790  1.00  0.00     0.037 A 
ATOM     57  C   UNL     1      -0.688   7.312   9.956  1.00  0.00     0.037 A 
ATOM     58  C   UNL     1      -6.226  10.723  10.502  1.00  0.00     0.049 A 
ATOM     59  C   UNL     1      -1.032   8.636  10.586  1.00  0.00     0.074 A 
ATOM     60  C   UNL     1      -6.426  11.924  11.160  1.00  0.00     0.029 A 
ATOM     61  N   UNL     1      -4.882  10.408  10.647  1.00  0.00    -0.354 N 
ATOM     62  N   UNL     1      -2.191   9.245  10.660  1.00  0.00    -0.248 NA
ATOM     63  C   UNL     1       0.069   9.366  11.229  1.00  0.00     0.031 C 
ATOM     64  C   UNL     1      -5.194  12.362  11.657  1.00  0.00     0.029 A 
ATOM     65  C   UNL     1      -4.239  11.401  11.370  1.00  0.00     0.049 A 
ATOM     66  H   UNL     1      -4.450   9.599  10.290  1.00  0.00     0.167 HD
ATOM     67  C   UNL     1      -1.967  10.406  11.389  1.00  0.00     0.074 A 
ATOM     68  C   UNL     1      -0.565  10.406  11.749  1.00  0.00     0.031 C 
ATOM     69  C   UNL     1      -2.844  11.383  11.733  1.00  0.00     0.037 A 
BRANCH  56  70
ATOM     70  C   UNL     1      -8.595  10.424   9.671  1.00  0.00     0.064 A 
ATOM     71  C   UNL     1      -9.666   9.787  10.318  1.00  0.00     0.173 A 
ATOM     72  C   UNL     1      -8.878  11.575   8.920  1.00  0.00     0.173 A 
ATOM     73  F   UNL     1      -9.455   8.676  11.040  1.00  0.00    -0.203 F 
ATOM     74  C   UNL     1     -10.969  10.260  10.187  1.00  0.00     0.198 A 
ATOM     75  C   UNL     1     -10.177  12.067   8.822  1.00  0.00     0.198 A 
ATOM     76  F   UNL     1      -7.894  12.229   8.286  1.00  0.00    -0.203 F 
ATOM     77  F   UNL     1     -11.981   9.599  10.765  1.00  0.00    -0.200 F 
ATOM     78  C   UNL     1     -11.223  11.404   9.446  1.00  0.00     0.200 A 
ATOM     79  F   UNL     1     -10.418  13.183   8.119  1.00  0.00    -0.200 F 
ATOM     80  F   UNL     1     -12.476  11.863   9.328  1.00  0.00    -0.200 F 
ENDBRANCH  56  70
BRANCH  57  81
ATOM     81  C   UNL     1       0.706   6.793   9.994  1.00  0.00     0.064 A 
ATOM     82  C   UNL     1       1.306   6.424  11.207  1.00  0.00     0.173 A 
ATOM     83  C   UNL     1       1.474   6.675   8.827  1.00  0.00     0.173 A 
ATOM     84  F   UNL     1       0.620   6.538  12.355  1.00  0.00    -0.203 F 
ATOM     85  C   UNL     1       2.627   5.986  11.255  1.00  0.00     0.198 A 
ATOM     86  C   UNL     1       2.785   6.204   8.872  1.00  0.00     0.198 A 
ATOM     87  F   UNL     1       0.949   7.009   7.639  1.00  0.00    -0.203 F 
ATOM     88  F   UNL     1       3.192   5.696  12.435  1.00  0.00    -0.200 F 
ATOM     89  C   UNL     1       3.365   5.871  10.087  1.00  0.00     0.200 A 
ATOM     90  F   UNL     1       3.489   6.079   7.739  1.00  0.00    -0.200 F 
ATOM     91  F   UNL     1       4.635   5.449  10.133  1.00  0.00    -0.200 F 
ENDBRANCH  57  81
BRANCH  69  92
ATOM     92  C   UNL     1      -2.325  12.502  12.592  1.00  0.00     0.064 A 
ATOM     93  C   UNL     1      -1.400  13.442  12.114  1.00  0.00     0.173 A 
ATOM     94  C   UNL     1      -2.772  12.639  13.916  1.00  0.00     0.173 A 
ATOM     95  F   UNL     1      -0.931  13.352  10.861  1.00  0.00    -0.203 F 
ATOM     96  C   UNL     1      -0.906  14.447  12.943  1.00  0.00     0.198 A 
ATOM     97  C   UNL     1      -2.306  13.668  14.729  1.00  0.00     0.198 A 
ATOM     98  F   UNL     1      -3.665  11.775  14.422  1.00  0.00    -0.203 F 
ATOM     99  F   UNL     1       0.032  15.288  12.486  1.00  0.00    -0.200 F 
ATOM    100  C   UNL     1      -1.363  14.562  14.247  1.00  0.00     0.200 A 
ATOM    101  F   UNL     1      -2.764  13.789  15.983  1.00  0.00    -0.200 F 
ATOM    102  F   UNL     1      -0.886  15.529  15.043  1.00  0.00    -0.200 F 
ENDBRANCH  69  92
ENDBRANCH  43  44
ENDBRANCH  35  38
ENDBRANCH  33  34
ENDBRANCH  32  33
ENDBRANCH  31  32
ENDBRANCH   3  31
TORSDOF 13
