REMARK SMILES C[C@@H](C(=O)NCCCNC(=O)c1ccc(-c2c3nc(c(-c4c(F)c(F)c(F)c(F)c4F)c4ccc([nH]4)c(-c4c(F)c(F)c(F)c(F)c4F)c4nc(c(-c5c(F)c(F)c(F)c(F)c5F)c5ccc2[nH]5)C=C4)C=C3)cc1)[N@H+]1CC[N@H+]2CCCC[C@@H]2C1
REMARK SMILES IDX 7 1 6 2 5 3 3 4 4 5 2 7 1 8 75 9 76 10 84 11 77 13 83 14
REMARK SMILES IDX 78 15 82 16 79 17 81 19 80 20 8 21 9 22 10 23 11 25 12 26
REMARK SMILES IDX 13 27 74 28 14 29 73 30 15 31 16 32 17 33 67 34 18 35 72 36
REMARK SMILES IDX 66 37 68 38 19 39 71 40 65 41 64 42 20 44 52 45 32 46 51 47
REMARK SMILES IDX 33 48 36 49 50 50 69 51 34 52 35 53 49 55 70 56 37 57 21 58
REMARK SMILES IDX 22 59 30 60 23 61 24 62 28 63 31 64 25 65 26 66 29 67 27 68
REMARK SMILES IDX 53 69 54 70 62 71 55 72 56 73 60 74 63 75 57 76 58 77 61 78
REMARK SMILES IDX 59 79 38 80 39 81 47 82 40 83 41 84 45 85 48 86 42 87 43 88
REMARK SMILES IDX 46 89 44 90
REMARK H PARENT 5 6 75 12 78 18 9 24 68 43 36 54
REMARK Flexibility Score: inf
ROOT
ATOM      1  C   UNL     1       4.497  -0.805   0.701  1.00  0.00     0.042 C 
ENDROOT
BRANCH   1   2
ATOM      2  C   UNL     1       3.711  -1.899  -0.022  1.00  0.00     0.118 C 
BRANCH   2   3
ATOM      3  N   UNL     1       2.716  -2.486   0.845  1.00  0.00    -0.351 N 
ATOM      4  C   UNL     1       1.387  -2.257   1.009  1.00  0.00     0.278 C 
ATOM      5  O   UNL     1       0.914  -2.874   1.965  1.00  0.00    -0.268 OA
ATOM      6  H   UNL     1       3.072  -3.190   1.434  1.00  0.00     0.163 HD
BRANCH   4   7
ATOM      7  C   UNL     1       0.571  -1.368   0.024  1.00  0.00     0.271 C 
ATOM      8  C   UNL     1       1.092   0.075  -0.022  1.00  0.00     0.086 C 
BRANCH   7   9
ATOM      9  N   UNL     1      -0.914  -1.375   0.202  1.00  0.00    -0.315 N 
ATOM     10  C   UNL     1      -1.550  -2.692   0.381  1.00  0.00     0.325 C 
ATOM     11  C   UNL     1      -1.499  -0.426   1.162  1.00  0.00     0.328 C 
ATOM     12  H   UNL     1      -1.147  -1.027  -0.728  1.00  0.00     0.349 HD
ATOM     13  C   UNL     1      -1.885  -3.157   1.837  1.00  0.00     0.324 C 
ATOM     14  C   UNL     1      -1.339  -0.886   2.617  1.00  0.00     0.239 C 
ATOM     15  N   UNL     1      -2.108  -2.119   2.872  1.00  0.00    -0.323 N 
ATOM     16  C   UNL     1      -1.798   0.200   3.598  1.00  0.00     0.071 C 
ATOM     17  C   UNL     1      -1.778  -2.640   4.208  1.00  0.00     0.262 C 
ATOM     18  H   UNL     1      -3.098  -1.877   2.830  1.00  0.00     0.348 HD
ATOM     19  C   UNL     1      -1.507  -0.247   5.028  1.00  0.00     0.012 C 
ATOM     20  C   UNL     1      -2.114  -1.622   5.302  1.00  0.00     0.062 C 
ENDBRANCH   7   9
ENDBRANCH   4   7
ENDBRANCH   2   3
ENDBRANCH   1   2
BRANCH   1  21
ATOM     21  C   UNL     1       5.159  -1.256   2.003  1.00  0.00     0.118 C 
BRANCH  21  22
ATOM     22  N   UNL     1       6.106  -2.342   1.807  1.00  0.00    -0.352 N 
ATOM     23  C   UNL     1       7.439  -2.419   2.110  1.00  0.00     0.251 C 
ATOM     24  H   UNL     1       5.729  -3.150   1.390  1.00  0.00     0.163 HD
ATOM     25  O   UNL     1       8.100  -3.368   1.687  1.00  0.00    -0.269 OA
BRANCH  23  26
ATOM     26  C   UNL     1       8.099  -1.380   2.928  1.00  0.00     0.039 A 
ATOM     27  C   UNL     1       9.398  -0.987   2.588  1.00  0.00     0.014 A 
ATOM     28  C   UNL     1       7.484  -0.842   4.062  1.00  0.00     0.014 A 
ATOM     29  C   UNL     1      10.066  -0.040   3.366  1.00  0.00     0.010 A 
ATOM     30  C   UNL     1       8.121   0.160   4.792  1.00  0.00     0.010 A 
ATOM     31  C   UNL     1       9.428   0.552   4.468  1.00  0.00    -0.014 A 
BRANCH  31  32
ATOM     32  C   UNL     1      10.141   1.536   5.322  1.00  0.00     0.031 A 
ATOM     33  C   UNL     1      10.451   1.202   6.756  1.00  0.00     0.074 A 
ATOM     34  C   UNL     1      10.479   2.739   4.821  1.00  0.00     0.049 A 
ATOM     35  N   UNL     1      11.034   1.935   7.672  1.00  0.00    -0.248 NA
ATOM     36  C   UNL     1      10.023  -0.122   7.233  1.00  0.00     0.031 C 
ATOM     37  C   UNL     1      10.190   3.201   3.463  1.00  0.00     0.029 A 
ATOM     38  N   UNL     1      11.136   3.796   5.400  1.00  0.00    -0.354 N 
ATOM     39  C   UNL     1      11.029   1.166   8.829  1.00  0.00     0.074 A 
ATOM     40  C   UNL     1      10.329  -0.060   8.519  1.00  0.00     0.031 C 
ATOM     41  C   UNL     1      10.684   4.440   3.307  1.00  0.00     0.029 A 
ATOM     42  C   UNL     1      11.300   4.869   4.560  1.00  0.00     0.049 A 
ATOM     43  H   UNL     1      11.458   3.786   6.331  1.00  0.00     0.167 HD
ATOM     44  C   UNL     1      11.585   1.443  10.034  1.00  0.00     0.037 A 
ATOM     45  C   UNL     1      11.885   6.062   4.776  1.00  0.00     0.037 A 
ATOM     46  C   UNL     1      12.301   2.655  10.333  1.00  0.00     0.049 A 
ATOM     47  C   UNL     1      12.516   6.339   6.113  1.00  0.00     0.074 A 
ATOM     48  C   UNL     1      12.930   3.021  11.510  1.00  0.00     0.029 A 
ATOM     49  N   UNL     1      12.486   3.701   9.440  1.00  0.00    -0.354 N 
ATOM     50  N   UNL     1      12.556   5.582   7.183  1.00  0.00    -0.248 NA
ATOM     51  C   UNL     1      13.202   7.629   6.266  1.00  0.00     0.031 C 
ATOM     52  C   UNL     1      13.465   4.303  11.340  1.00  0.00     0.029 A 
ATOM     53  C   UNL     1      13.215   4.714  10.041  1.00  0.00     0.049 A 
ATOM     54  H   UNL     1      12.148   3.720   8.515  1.00  0.00     0.167 HD
ATOM     55  C   UNL     1      13.297   6.286   8.122  1.00  0.00     0.074 A 
ATOM     56  C   UNL     1      13.698   7.526   7.491  1.00  0.00     0.031 C 
ATOM     57  C   UNL     1      13.618   5.936   9.393  1.00  0.00     0.037 A 
BRANCH  44  58
ATOM     58  C   UNL     1      11.442   0.408  11.113  1.00  0.00     0.064 A 
ATOM     59  C   UNL     1      12.100  -0.830  11.035  1.00  0.00     0.173 A 
ATOM     60  C   UNL     1      10.649   0.656  12.243  1.00  0.00     0.173 A 
ATOM     61  F   UNL     1      12.861  -1.124   9.970  1.00  0.00    -0.203 F 
ATOM     62  C   UNL     1      11.938  -1.794  12.027  1.00  0.00     0.198 A 
ATOM     63  C   UNL     1      10.516  -0.297  13.250  1.00  0.00     0.198 A 
ATOM     64  F   UNL     1      10.002   1.824  12.373  1.00  0.00    -0.203 F 
ATOM     65  F   UNL     1      12.528  -2.990  11.899  1.00  0.00    -0.200 F 
ATOM     66  C   UNL     1      11.152  -1.524  13.136  1.00  0.00     0.200 A 
ATOM     67  F   UNL     1       9.766  -0.031  14.329  1.00  0.00    -0.200 F 
ATOM     68  F   UNL     1      10.998  -2.452  14.091  1.00  0.00    -0.200 F 
ENDBRANCH  44  58
BRANCH  45  69
ATOM     69  C   UNL     1      11.937   7.067   3.682  1.00  0.00     0.064 A 
ATOM     70  C   UNL     1      13.147   7.379   3.046  1.00  0.00     0.173 A 
ATOM     71  C   UNL     1      10.781   7.730   3.247  1.00  0.00     0.173 A 
ATOM     72  F   UNL     1      14.282   6.784   3.440  1.00  0.00    -0.203 F 
ATOM     73  C   UNL     1      13.202   8.332   2.031  1.00  0.00     0.198 A 
ATOM     74  C   UNL     1      10.832   8.662   2.212  1.00  0.00     0.198 A 
ATOM     75  F   UNL     1       9.597   7.461   3.817  1.00  0.00    -0.203 F 
ATOM     76  F   UNL     1      14.378   8.643   1.471  1.00  0.00    -0.200 F 
ATOM     77  C   UNL     1      12.044   8.969   1.611  1.00  0.00     0.200 A 
ATOM     78  F   UNL     1       9.708   9.263   1.798  1.00  0.00    -0.200 F 
ATOM     79  F   UNL     1      12.096   9.880   0.631  1.00  0.00    -0.200 F 
ENDBRANCH  45  69
BRANCH  57  80
ATOM     80  C   UNL     1      14.489   6.883  10.167  1.00  0.00     0.064 A 
ATOM     81  C   UNL     1      14.012   8.118  10.629  1.00  0.00     0.173 A 
ATOM     82  C   UNL     1      15.813   6.534  10.474  1.00  0.00     0.173 A 
ATOM     83  F   UNL     1      12.758   8.505  10.351  1.00  0.00    -0.203 F 
ATOM     84  C   UNL     1      14.839   8.983  11.341  1.00  0.00     0.198 A 
ATOM     85  C   UNL     1      16.627   7.387  11.213  1.00  0.00     0.198 A 
ATOM     86  F   UNL     1      16.316   5.360  10.062  1.00  0.00    -0.203 F 
ATOM     87  F   UNL     1      14.379  10.182  11.726  1.00  0.00    -0.200 F 
ATOM     88  C   UNL     1      16.143   8.615  11.638  1.00  0.00     0.200 A 
ATOM     89  F   UNL     1      17.882   7.023  11.510  1.00  0.00    -0.200 F 
ATOM     90  F   UNL     1      16.936   9.447  12.326  1.00  0.00    -0.200 F 
ENDBRANCH  57  80
ENDBRANCH  31  32
ENDBRANCH  23  26
ENDBRANCH  21  22
ENDBRANCH   1  21
TORSDOF 11
