REMARK SMILES O=C(CSc1ccnc(C(=O)NCCCNC(=O)c2ccc(-c3c4nc(c(-c5c(F)c(F)c(F)c(F)c5F)c5ccc([nH]5)c(-c5c(F)c(F)c(F)c(F)c5F)c5nc(c(-c6c(F)c(F)c(F)c(F)c6F)c6ccc3[nH]6)C=C5)C=C4)cc2)c1)NNc1ccccn1
REMARK SMILES IDX 10 1 11 2 12 3 9 5 5 6 6 7 82 8 7 9 8 10 4 11 3 12 2 13 1 14
REMARK SMILES IDX 83 15 84 17 85 19 86 20 90 21 87 22 89 23 88 24 13 25 14 26
REMARK SMILES IDX 15 27 16 28 17 29 18 31 19 32 20 33 81 34 21 35 80 36 22 37
REMARK SMILES IDX 23 38 24 39 74 40 25 41 79 42 73 43 75 44 26 45 78 46 72 47
REMARK SMILES IDX 71 48 27 50 59 51 39 52 58 53 40 54 43 55 57 56 76 57 41 58
REMARK SMILES IDX 42 59 56 61 77 62 44 63 28 64 29 65 37 66 30 67 31 68 35 69
REMARK SMILES IDX 38 70 32 71 33 72 36 73 34 74 60 75 61 76 69 77 62 78 63 79
REMARK SMILES IDX 67 80 70 81 64 82 65 83 68 84 66 85 45 86 46 87 54 88 47 89
REMARK SMILES IDX 48 90 52 91 55 92 49 93 50 94 53 95 51 96
REMARK H PARENT 12 4 83 16 84 18 16 30 75 49 43 60
REMARK Flexibility Score: inf
ROOT
ATOM      1  C   UNL     1       2.201  -5.981  -3.142  1.00  0.00     0.269 C 
ATOM      2  O   UNL     1       1.313  -6.495  -3.826  1.00  0.00    -0.268 OA
ATOM      3  N   UNL     1       3.153  -6.849  -2.654  1.00  0.00    -0.351 N 
ATOM      4  H   UNL     1       2.998  -7.785  -2.918  1.00  0.00     0.163 HD
ENDROOT
BRANCH   1   5
ATOM      5  C   UNL     1       2.215  -4.490  -2.922  1.00  0.00     0.129 A 
ATOM      6  C   UNL     1       2.900  -2.463  -1.838  1.00  0.00     0.012 A 
ATOM      7  C   UNL     1       2.201  -1.738  -2.796  1.00  0.00     0.035 A 
ATOM      8  C   UNL     1       2.876  -3.858  -1.881  1.00  0.00     0.049 A 
ATOM      9  C   UNL     1       1.506  -2.442  -3.759  1.00  0.00     0.113 A 
ATOM     10  N   UNL     1       1.514  -3.786  -3.850  1.00  0.00    -0.251 NA
BRANCH   6  11
ATOM     11  S   UNL     1       3.947  -1.671  -0.626  1.00  0.00    -0.116 SA
BRANCH  11  12
ATOM     12  C   UNL     1       2.695  -0.987   0.513  1.00  0.00     0.176 C 
BRANCH  12  13
ATOM     13  C   UNL     1       1.951   0.185  -0.094  1.00  0.00     0.248 C 
ATOM     14  O   UNL     1       0.730   0.297  -0.008  1.00  0.00    -0.272 OA
ATOM     15  N   UNL     1       2.771   1.128  -0.686  1.00  0.00    -0.268 N 
ATOM     16  H   UNL     1       3.751   1.030  -0.661  1.00  0.00     0.191 HD
BRANCH  15  17
ATOM     17  N   UNL     1       2.184   2.215  -1.314  1.00  0.00    -0.282 N 
ATOM     18  H   UNL     1       1.211   2.356  -1.266  1.00  0.00     0.190 HD
BRANCH  17  19
ATOM     19  C   UNL     1       2.995   3.107  -2.015  1.00  0.00     0.144 A 
ATOM     20  C   UNL     1       4.094   2.683  -2.763  1.00  0.00     0.048 A 
ATOM     21  N   UNL     1       2.655   4.409  -1.936  1.00  0.00    -0.238 NA
ATOM     22  C   UNL     1       4.878   3.626  -3.424  1.00  0.00     0.005 A 
ATOM     23  C   UNL     1       3.432   5.307  -2.581  1.00  0.00     0.113 A 
ATOM     24  C   UNL     1       4.546   4.969  -3.326  1.00  0.00     0.020 A 
ENDBRANCH  17  19
ENDBRANCH  15  17
ENDBRANCH  12  13
ENDBRANCH  11  12
ENDBRANCH   6  11
ENDBRANCH   1   5
BRANCH   3  25
ATOM     25  C   UNL     1       4.334  -6.674  -1.831  1.00  0.00     0.118 C 
BRANCH  25  26
ATOM     26  C   UNL     1       4.019  -6.942  -0.358  1.00  0.00     0.042 C 
BRANCH  26  27
ATOM     27  C   UNL     1       3.893  -8.430  -0.032  1.00  0.00     0.118 C 
BRANCH  27  28
ATOM     28  N   UNL     1       5.181  -9.104  -0.099  1.00  0.00    -0.352 N 
ATOM     29  C   UNL     1       5.852  -9.837   0.845  1.00  0.00     0.251 C 
ATOM     30  H   UNL     1       5.646  -9.019  -0.962  1.00  0.00     0.163 HD
ATOM     31  O   UNL     1       7.034 -10.111   0.657  1.00  0.00    -0.269 OA
BRANCH  29  32
ATOM     32  C   UNL     1       5.181 -10.307   2.078  1.00  0.00     0.039 A 
ATOM     33  C   UNL     1       5.929 -10.362   3.260  1.00  0.00     0.014 A 
ATOM     34  C   UNL     1       3.866 -10.781   2.067  1.00  0.00     0.014 A 
ATOM     35  C   UNL     1       5.356 -10.868   4.428  1.00  0.00     0.010 A 
ATOM     36  C   UNL     1       3.274 -11.225   3.249  1.00  0.00     0.010 A 
ATOM     37  C   UNL     1       4.019 -11.293   4.436  1.00  0.00    -0.014 A 
BRANCH  37  38
ATOM     38  C   UNL     1       3.402 -11.846   5.669  1.00  0.00     0.031 A 
ATOM     39  C   UNL     1       2.991 -13.293   5.725  1.00  0.00     0.074 A 
ATOM     40  C   UNL     1       3.176 -11.038   6.722  1.00  0.00     0.049 A 
ATOM     41  N   UNL     1       2.402 -13.951   6.692  1.00  0.00    -0.248 NA
ATOM     42  C   UNL     1       3.253 -14.103   4.525  1.00  0.00     0.031 C 
ATOM     43  C   UNL     1       3.492  -9.610   6.774  1.00  0.00     0.029 A 
ATOM     44  N   UNL     1       2.624 -11.302   7.950  1.00  0.00    -0.354 N 
ATOM     45  C   UNL     1       2.200 -15.237   6.208  1.00  0.00     0.074 A 
ATOM     46  C   UNL     1       2.693 -15.259   4.848  1.00  0.00     0.031 C 
ATOM     47  C   UNL     1       3.151  -9.129   7.980  1.00  0.00     0.029 A 
ATOM     48  C   UNL     1       2.568 -10.206   8.775  1.00  0.00     0.049 A 
ATOM     49  H   UNL     1       2.298 -12.193   8.214  1.00  0.00     0.167 HD
ATOM     50  C   UNL     1       1.670 -16.308   6.846  1.00  0.00     0.037 A 
ATOM     51  C   UNL     1       2.100 -10.086  10.031  1.00  0.00     0.037 A 
ATOM     52  C   UNL     1       1.222 -16.295   8.214  1.00  0.00     0.049 A 
ATOM     53  C   UNL     1       1.547 -11.300  10.727  1.00  0.00     0.074 A 
ATOM     54  C   UNL     1       0.732 -17.343   8.974  1.00  0.00     0.029 A 
ATOM     55  N   UNL     1       1.215 -15.173   9.030  1.00  0.00    -0.354 N 
ATOM     56  N   UNL     1       1.425 -12.527  10.283  1.00  0.00    -0.248 NA
ATOM     57  C   UNL     1       1.079 -11.113  12.107  1.00  0.00     0.031 C 
ATOM     58  C   UNL     1       0.397 -16.848  10.239  1.00  0.00     0.029 A 
ATOM     59  C   UNL     1       0.719 -15.501  10.281  1.00  0.00     0.049 A 
ATOM     60  H   UNL     1       1.518 -14.276   8.760  1.00  0.00     0.167 HD
ATOM     61  C   UNL     1       0.903 -13.264  11.336  1.00  0.00     0.074 A 
ATOM     62  C   UNL     1       0.741 -12.349  12.446  1.00  0.00     0.031 C 
ATOM     63  C   UNL     1       0.586 -14.582  11.381  1.00  0.00     0.037 A 
BRANCH  50  64
ATOM     64  C   UNL     1       1.546 -17.589   6.074  1.00  0.00     0.064 A 
ATOM     65  C   UNL     1       2.671 -18.353   5.727  1.00  0.00     0.173 A 
ATOM     66  C   UNL     1       0.283 -18.080   5.710  1.00  0.00     0.173 A 
ATOM     67  F   UNL     1       3.902 -17.922   6.042  1.00  0.00    -0.203 F 
ATOM     68  C   UNL     1       2.538 -19.546   5.021  1.00  0.00     0.198 A 
ATOM     69  C   UNL     1       0.152 -19.288   5.029  1.00  0.00     0.198 A 
ATOM     70  F   UNL     1      -0.826 -17.393   6.022  1.00  0.00    -0.203 F 
ATOM     71  F   UNL     1       3.629 -20.235   4.662  1.00  0.00    -0.200 F 
ATOM     72  C   UNL     1       1.279 -20.016   4.679  1.00  0.00     0.200 A 
ATOM     73  F   UNL     1      -1.067 -19.747   4.710  1.00  0.00    -0.200 F 
ATOM     74  F   UNL     1       1.152 -21.169   4.007  1.00  0.00    -0.200 F 
ENDBRANCH  50  64
BRANCH  51  75
ATOM     75  C   UNL     1       2.177  -8.779  10.734  1.00  0.00     0.064 A 
ATOM     76  C   UNL     1       3.063  -8.593  11.805  1.00  0.00     0.173 A 
ATOM     77  C   UNL     1       1.362  -7.700  10.365  1.00  0.00     0.173 A 
ATOM     78  F   UNL     1       3.848  -9.603  12.206  1.00  0.00    -0.203 F 
ATOM     79  C   UNL     1       3.113  -7.385  12.496  1.00  0.00     0.198 A 
ATOM     80  C   UNL     1       1.432  -6.483  11.040  1.00  0.00     0.198 A 
ATOM     81  F   UNL     1       0.502  -7.825   9.343  1.00  0.00    -0.203 F 
ATOM     82  F   UNL     1       3.934  -7.250  13.546  1.00  0.00    -0.200 F 
ATOM     83  C   UNL     1       2.300  -6.329  12.110  1.00  0.00     0.200 A 
ATOM     84  F   UNL     1       0.656  -5.461  10.656  1.00  0.00    -0.200 F 
ATOM     85  F   UNL     1       2.349  -5.167  12.775  1.00  0.00    -0.200 F 
ENDBRANCH  51  75
BRANCH  63  86
ATOM     86  C   UNL     1       0.086 -15.120  12.689  1.00  0.00     0.064 A 
ATOM     87  C   UNL     1      -1.193 -14.812  13.174  1.00  0.00     0.173 A 
ATOM     88  C   UNL     1       0.894 -15.973  13.457  1.00  0.00     0.173 A 
ATOM     89  F   UNL     1      -1.996 -13.988  12.484  1.00  0.00    -0.203 F 
ATOM     90  C   UNL     1      -1.633 -15.312  14.396  1.00  0.00     0.198 A 
ATOM     91  C   UNL     1       0.439 -16.494  14.664  1.00  0.00     0.198 A 
ATOM     92  F   UNL     1       2.123 -16.303  13.033  1.00  0.00    -0.203 F 
ATOM     93  F   UNL     1      -2.838 -14.960  14.867  1.00  0.00    -0.200 F 
ATOM     94  C   UNL     1      -0.819 -16.156  15.138  1.00  0.00     0.200 A 
ATOM     95  F   UNL     1       1.222 -17.319  15.374  1.00  0.00    -0.200 F 
ATOM     96  F   UNL     1      -1.245 -16.636  16.314  1.00  0.00    -0.200 F 
ENDBRANCH  63  86
ENDBRANCH  37  38
ENDBRANCH  29  32
ENDBRANCH  27  28
ENDBRANCH  26  27
ENDBRANCH  25  26
ENDBRANCH   3  25
TORSDOF 15
