REMARK SMILES CC(C)(C)N(CC(=O)NCCCNC(=O)c1ccc(-c2c3nc(c(-c4c(F)c(F)c(F)c(F)c4F)c4ccc([nH]4)c(-c4c(F)c(F)c(F)c(F)c4F)c4nc(c(-c5c(F)c(F)c(F)c(F)c5F)c5ccc2[nH]5)C=C4)C=C3)cc1)C(=O)NCCc1cnc[nH]1
REMARK SMILES IDX 7 1 8 2 9 3 6 5 5 6 2 7 1 8 3 9 4 10 79 11 80 12 81 13 82 15
REMARK SMILES IDX 83 16 84 17 85 18 88 19 86 20 87 21 10 23 11 24 12 25 13 26
REMARK SMILES IDX 14 27 15 29 16 30 17 31 78 32 18 33 77 34 19 35 20 36 21 37
REMARK SMILES IDX 71 38 22 39 76 40 70 41 72 42 23 43 75 44 69 45 68 46 24 48
REMARK SMILES IDX 56 49 36 50 55 51 37 52 40 53 54 54 73 55 38 56 39 57 53 59
REMARK SMILES IDX 74 60 41 61 25 62 26 63 34 64 27 65 28 66 32 67 35 68 29 69
REMARK SMILES IDX 30 70 33 71 31 72 57 73 58 74 66 75 59 76 60 77 64 78 67 79
REMARK SMILES IDX 61 80 62 81 65 82 63 83 42 84 43 85 51 86 44 87 45 88 49 89
REMARK SMILES IDX 52 90 46 91 47 92 50 93 48 94
REMARK H PARENT 9 4 81 14 88 22 13 28 72 47 40 58
REMARK Flexibility Score: inf
ROOT
ATOM      1  C   UNL     1       3.440   1.776   2.021  1.00  0.00     0.239 C 
ATOM      2  O   UNL     1       3.947   1.897   3.141  1.00  0.00    -0.273 OA
ATOM      3  N   UNL     1       4.282   1.880   0.956  1.00  0.00    -0.354 N 
ATOM      4  H   UNL     1       5.145   2.317   1.137  1.00  0.00     0.163 HD
ENDROOT
BRANCH   1   5
ATOM      5  C   UNL     1       1.968   1.354   1.863  1.00  0.00     0.221 C 
BRANCH   5   6
ATOM      6  N   UNL     1       1.147   2.071   0.875  1.00  0.00    -0.311 N 
BRANCH   6   7
ATOM      7  C   UNL     1       0.280   1.265  -0.094  1.00  0.00     0.037 C 
ATOM      8  C   UNL     1       0.504  -0.272  -0.042  1.00  0.00     0.034 C 
ATOM      9  C   UNL     1       0.521   1.661  -1.572  1.00  0.00     0.034 C 
ATOM     10  C   UNL     1      -1.218   1.465   0.244  1.00  0.00     0.034 C 
ENDBRANCH   6   7
BRANCH   6  11
ATOM     11  C   UNL     1       0.909   3.429   0.946  1.00  0.00     0.318 C 
ATOM     12  O   UNL     1       0.315   4.042   0.052  1.00  0.00    -0.249 OA
ATOM     13  N   UNL     1       1.274   4.226   1.962  1.00  0.00    -0.338 N 
ATOM     14  H   UNL     1       1.139   5.168   1.713  1.00  0.00     0.165 HD
BRANCH  13  15
ATOM     15  C   UNL     1       1.807   4.142   3.319  1.00  0.00     0.124 C 
BRANCH  15  16
ATOM     16  C   UNL     1       3.170   4.840   3.436  1.00  0.00     0.077 C 
BRANCH  16  17
ATOM     17  C   UNL     1       3.057   6.321   3.595  1.00  0.00     0.036 A 
ATOM     18  C   UNL     1       2.488   7.097   4.584  1.00  0.00     0.134 A 
ATOM     19  N   UNL     1       3.608   7.227   2.723  1.00  0.00    -0.348 N 
ATOM     20  N   UNL     1       2.674   8.430   4.330  1.00  0.00    -0.245 NA
ATOM     21  C   UNL     1       3.358   8.478   3.211  1.00  0.00     0.196 A 
ATOM     22  H   UNL     1       4.095   7.013   1.895  1.00  0.00     0.167 HD
ENDBRANCH  16  17
ENDBRANCH  15  16
ENDBRANCH  13  15
ENDBRANCH   6  11
ENDBRANCH   5   6
ENDBRANCH   1   5
BRANCH   3  23
ATOM     23  C   UNL     1       4.081   1.435  -0.405  1.00  0.00     0.117 C 
BRANCH  23  24
ATOM     24  C   UNL     1       4.000   2.581  -1.403  1.00  0.00     0.042 C 
BRANCH  24  25
ATOM     25  C   UNL     1       5.301   3.361  -1.554  1.00  0.00     0.118 C 
BRANCH  25  26
ATOM     26  N   UNL     1       6.388   2.542  -2.079  1.00  0.00    -0.352 N 
ATOM     27  C   UNL     1       6.922   2.448  -3.340  1.00  0.00     0.251 C 
ATOM     28  H   UNL     1       6.812   1.953  -1.414  1.00  0.00     0.163 HD
ATOM     29  O   UNL     1       7.673   1.510  -3.606  1.00  0.00    -0.269 OA
BRANCH  27  30
ATOM     30  C   UNL     1       6.600   3.440  -4.388  1.00  0.00     0.039 A 
ATOM     31  C   UNL     1       6.412   3.000  -5.703  1.00  0.00     0.014 A 
ATOM     32  C   UNL     1       6.530   4.804  -4.099  1.00  0.00     0.014 A 
ATOM     33  C   UNL     1       6.066   3.913  -6.704  1.00  0.00     0.010 A 
ATOM     34  C   UNL     1       6.108   5.702  -5.077  1.00  0.00     0.010 A 
ATOM     35  C   UNL     1       5.861   5.264  -6.386  1.00  0.00    -0.014 A 
BRANCH  35  36
ATOM     36  C   UNL     1       5.354   6.237  -7.389  1.00  0.00     0.031 A 
ATOM     37  C   UNL     1       6.186   7.425  -7.783  1.00  0.00     0.074 A 
ATOM     38  C   UNL     1       4.099   6.106  -7.860  1.00  0.00     0.049 A 
ATOM     39  N   UNL     1       5.857   8.461  -8.512  1.00  0.00    -0.248 NA
ATOM     40  C   UNL     1       7.562   7.466  -7.266  1.00  0.00     0.031 C 
ATOM     41  C   UNL     1       3.179   5.018  -7.524  1.00  0.00     0.029 A 
ATOM     42  N   UNL     1       3.369   6.908  -8.702  1.00  0.00    -0.354 N 
ATOM     43  C   UNL     1       6.974   9.285  -8.524  1.00  0.00     0.074 A 
ATOM     44  C   UNL     1       7.977   8.649  -7.697  1.00  0.00     0.031 C 
ATOM     45  C   UNL     1       2.013   5.215  -8.158  1.00  0.00     0.029 A 
ATOM     46  C   UNL     1       2.083   6.468  -8.903  1.00  0.00     0.049 A 
ATOM     47  H   UNL     1       3.732   7.721  -9.122  1.00  0.00     0.167 HD
ATOM     48  C   UNL     1       7.151  10.457  -9.180  1.00  0.00     0.037 A 
ATOM     49  C   UNL     1       1.065   7.025  -9.586  1.00  0.00     0.037 A 
ATOM     50  C   UNL     1       6.160  11.071 -10.025  1.00  0.00     0.049 A 
ATOM     51  C   UNL     1       1.277   8.344 -10.276  1.00  0.00     0.074 A 
ATOM     52  C   UNL     1       6.273  12.213 -10.799  1.00  0.00     0.029 A 
ATOM     53  N   UNL     1       4.869  10.594 -10.203  1.00  0.00    -0.354 N 
ATOM     54  N   UNL     1       2.358   9.082 -10.334  1.00  0.00    -0.248 NA
ATOM     55  C   UNL     1       0.124   8.911 -10.989  1.00  0.00     0.031 C 
ATOM     56  C   UNL     1       5.036  12.454 -11.406  1.00  0.00     0.029 A 
ATOM     57  C   UNL     1       4.165  11.439 -11.046  1.00  0.00     0.049 A 
ATOM     58  H   UNL     1       4.507   9.776  -9.791  1.00  0.00     0.167 HD
ATOM     59  C   UNL     1       2.023  10.191 -11.097  1.00  0.00     0.074 A 
ATOM     60  C   UNL     1       0.642  10.020 -11.499  1.00  0.00     0.031 C 
ATOM     61  C   UNL     1       2.789  11.259 -11.430  1.00  0.00     0.037 A 
BRANCH  48  62
ATOM     62  C   UNL     1       8.467  11.158  -9.013  1.00  0.00     0.064 A 
ATOM     63  C   UNL     1       9.646  10.657  -9.585  1.00  0.00     0.173 A 
ATOM     64  C   UNL     1       8.543  12.371  -8.311  1.00  0.00     0.173 A 
ATOM     65  F   UNL     1       9.629   9.496 -10.258  1.00  0.00    -0.203 F 
ATOM     66  C   UNL     1      10.856  11.329  -9.439  1.00  0.00     0.198 A 
ATOM     67  C   UNL     1       9.750  13.056  -8.191  1.00  0.00     0.198 A 
ATOM     68  F   UNL     1       7.445  12.899  -7.750  1.00  0.00    -0.203 F 
ATOM     69  F   UNL     1      11.977  10.808  -9.957  1.00  0.00    -0.200 F 
ATOM     70  C   UNL     1      10.906  12.531  -8.748  1.00  0.00     0.200 A 
ATOM     71  F   UNL     1       9.795  14.223  -7.534  1.00  0.00    -0.200 F 
ATOM     72  F   UNL     1      12.071  13.181  -8.615  1.00  0.00    -0.200 F 
ENDBRANCH  48  62
BRANCH  49  73
ATOM     73  C   UNL     1      -0.251   6.338  -9.644  1.00  0.00     0.064 A 
ATOM     74  C   UNL     1      -0.710   5.768 -10.839  1.00  0.00     0.173 A 
ATOM     75  C   UNL     1      -1.073   6.234  -8.512  1.00  0.00     0.173 A 
ATOM     76  F   UNL     1       0.031   5.863 -11.953  1.00  0.00    -0.203 F 
ATOM     77  C   UNL     1      -1.948   5.132 -10.904  1.00  0.00     0.198 A 
ATOM     78  C   UNL     1      -2.299   5.574  -8.572  1.00  0.00     0.198 A 
ATOM     79  F   UNL     1      -0.679   6.761  -7.344  1.00  0.00    -0.203 F 
ATOM     80  F   UNL     1      -2.380   4.631 -12.069  1.00  0.00    -0.200 F 
ATOM     81  C   UNL     1      -2.738   5.029  -9.769  1.00  0.00     0.200 A 
ATOM     82  F   UNL     1      -3.054   5.465  -7.470  1.00  0.00    -0.200 F 
ATOM     83  F   UNL     1      -3.925   4.411  -9.831  1.00  0.00    -0.200 F 
ENDBRANCH  49  73
BRANCH  61  84
ATOM     84  C   UNL     1       2.153  12.323 -12.274  1.00  0.00     0.064 A 
ATOM     85  C   UNL     1       1.209  13.211 -11.739  1.00  0.00     0.173 A 
ATOM     86  C   UNL     1       2.526  12.488 -13.616  1.00  0.00     0.173 A 
ATOM     87  F   UNL     1       0.807  13.082 -10.465  1.00  0.00    -0.203 F 
ATOM     88  C   UNL     1       0.650  14.217 -12.522  1.00  0.00     0.198 A 
ATOM     89  C   UNL     1       1.985  13.512 -14.388  1.00  0.00     0.198 A 
ATOM     90  F   UNL     1       3.428  11.666 -14.173  1.00  0.00    -0.203 F 
ATOM     91  F   UNL     1      -0.279  15.031 -12.001  1.00  0.00    -0.200 F 
ATOM     92  C   UNL     1       1.044  14.372 -13.842  1.00  0.00     0.200 A 
ATOM     93  F   UNL     1       2.376  13.668 -15.661  1.00  0.00    -0.200 F 
ATOM     94  F   UNL     1       0.513  15.348 -14.591  1.00  0.00    -0.200 F 
ENDBRANCH  61  84
ENDBRANCH  35  36
ENDBRANCH  27  30
ENDBRANCH  25  26
ENDBRANCH  24  25
ENDBRANCH  23  24
ENDBRANCH   3  23
TORSDOF 16
