REMARK SMILES COc1ccc(OC)c(-c2cc(C(=O)NCCCNC(=O)c3ccc(-c4c5nc(c(-c6c(F)c(F)c(F)c(F)c6F)c6ccc([nH]6)c(-c6c(F)c(F)c(F)c(F)c6F)c6nc(c(-c7c(F)c(F)c(F)c(F)c7F)c7ccc4[nH]7)C=C6)C=C5)cc3)ccn2)c1
REMARK SMILES IDX 17 1 16 2 15 3 13 4 14 5 12 7 10 8 11 9 87 10 86 11 85 12
REMARK SMILES IDX 9 13 3 14 4 15 88 16 5 17 6 18 2 19 1 20 7 21 8 22 18 23
REMARK SMILES IDX 19 24 20 25 21 27 22 28 23 29 84 30 24 31 83 32 25 33 26 34
REMARK SMILES IDX 27 35 77 36 28 37 82 38 76 39 78 40 29 41 81 42 75 43 74 44
REMARK SMILES IDX 30 46 62 47 42 48 61 49 43 50 46 51 60 52 79 53 44 54 45 55
REMARK SMILES IDX 59 57 80 58 47 59 31 60 32 61 40 62 33 63 34 64 38 65 41 66
REMARK SMILES IDX 35 67 36 68 39 69 37 70 63 71 64 72 72 73 65 74 66 75 70 76
REMARK SMILES IDX 73 77 67 78 68 79 71 80 69 81 48 82 49 83 57 84 50 85 51 86
REMARK SMILES IDX 55 87 58 88 52 89 53 90 56 91 54 92
REMARK H PARENT 15 6 19 26 78 45 46 56
REMARK Flexibility Score: inf
ROOT
ATOM      1  C   UNL     1       5.299   3.752   2.712  1.00  0.00     0.042 C 
ENDROOT
BRANCH   1   2
ATOM      2  C   UNL     1       6.079   2.551   2.172  1.00  0.00     0.118 C 
BRANCH   2   3
ATOM      3  N   UNL     1       7.187   2.204   3.047  1.00  0.00    -0.352 N 
ATOM      4  C   UNL     1       7.356   1.185   3.951  1.00  0.00     0.251 C 
ATOM      5  O   UNL     1       8.449   1.067   4.503  1.00  0.00    -0.269 OA
ATOM      6  H   UNL     1       7.959   2.811   2.978  1.00  0.00     0.163 HD
BRANCH   4   7
ATOM      7  C   UNL     1       6.295   0.190   4.241  1.00  0.00     0.043 A 
ATOM      8  C   UNL     1       4.018  -0.525   4.424  1.00  0.00     0.075 A 
ATOM      9  C   UNL     1       4.941   0.500   4.256  1.00  0.00     0.043 A 
ATOM     10  N   UNL     1       4.388  -1.807   4.649  1.00  0.00    -0.256 NA
ATOM     11  C   UNL     1       5.711  -2.068   4.730  1.00  0.00     0.112 A 
ATOM     12  C   UNL     1       6.692  -1.117   4.525  1.00  0.00     0.034 A 
BRANCH   8  13
ATOM     13  C   UNL     1       2.588  -0.269   4.234  1.00  0.00     0.046 A 
ATOM     14  C   UNL     1       0.833   0.147   2.557  1.00  0.00     0.119 A 
ATOM     15  C   UNL     1      -0.046   0.480   3.580  1.00  0.00     0.050 A 
ATOM     16  C   UNL     1       2.132  -0.238   2.888  1.00  0.00     0.060 A 
ATOM     17  C   UNL     1       0.371   0.429   4.911  1.00  0.00     0.051 A 
ATOM     18  C   UNL     1       1.681   0.062   5.255  1.00  0.00     0.128 A 
BRANCH  14  19
ATOM     19  O   UNL     1       0.325   0.279   1.296  1.00  0.00    -0.497 OA
ATOM     20  C   UNL     1       1.103  -0.240   0.224  1.00  0.00     0.278 C 
ENDBRANCH  14  19
BRANCH  18  21
ATOM     21  O   UNL     1       1.906   0.173   6.601  1.00  0.00    -0.496 OA
ATOM     22  C   UNL     1       2.937  -0.605   7.191  1.00  0.00     0.278 C 
ENDBRANCH  18  21
ENDBRANCH   8  13
ENDBRANCH   4   7
ENDBRANCH   2   3
ENDBRANCH   1   2
BRANCH   1  23
ATOM     23  C   UNL     1       6.013   5.085   2.502  1.00  0.00     0.118 C 
BRANCH  23  24
ATOM     24  N   UNL     1       6.047   5.467   1.100  1.00  0.00    -0.352 N 
ATOM     25  C   UNL     1       5.700   6.646   0.492  1.00  0.00     0.251 C 
ATOM     26  H   UNL     1       6.371   4.767   0.489  1.00  0.00     0.163 HD
ATOM     27  O   UNL     1       5.616   6.680  -0.732  1.00  0.00    -0.269 OA
BRANCH  25  28
ATOM     28  C   UNL     1       5.422   7.870   1.278  1.00  0.00     0.039 A 
ATOM     29  C   UNL     1       4.428   8.739   0.814  1.00  0.00     0.014 A 
ATOM     30  C   UNL     1       6.175   8.218   2.403  1.00  0.00     0.014 A 
ATOM     31  C   UNL     1       4.173   9.935   1.487  1.00  0.00     0.010 A 
ATOM     32  C   UNL     1       5.877   9.383   3.112  1.00  0.00     0.010 A 
ATOM     33  C   UNL     1       4.886  10.261   2.651  1.00  0.00    -0.014 A 
BRANCH  33  34
ATOM     34  C   UNL     1       4.612  11.529   3.373  1.00  0.00     0.031 A 
ATOM     35  C   UNL     1       5.648  12.618   3.423  1.00  0.00     0.074 A 
ATOM     36  C   UNL     1       3.435  11.689   4.007  1.00  0.00     0.049 A 
ATOM     37  N   UNL     1       5.591  13.790   4.005  1.00  0.00    -0.248 NA
ATOM     38  C   UNL     1       6.928  12.346   2.751  1.00  0.00     0.031 C 
ATOM     39  C   UNL     1       2.370  10.687   4.074  1.00  0.00     0.029 A 
ATOM     40  N   UNL     1       2.937  12.752   4.716  1.00  0.00    -0.354 N 
ATOM     41  C   UNL     1       6.826  14.386   3.782  1.00  0.00     0.074 A 
ATOM     42  C   UNL     1       7.630  13.429   3.052  1.00  0.00     0.031 C 
ATOM     43  C   UNL     1       1.335  11.192   4.763  1.00  0.00     0.029 A 
ATOM     44  C   UNL     1       1.671  12.542   5.206  1.00  0.00     0.049 A 
ATOM     45  H   UNL     1       3.439  13.587   4.861  1.00  0.00     0.167 HD
ATOM     46  C   UNL     1       7.243  15.626   4.134  1.00  0.00     0.037 A 
ATOM     47  C   UNL     1       0.871  13.350   5.926  1.00  0.00     0.037 A 
ATOM     48  C   UNL     1       6.431  16.587   4.834  1.00  0.00     0.049 A 
ATOM     49  C   UNL     1       1.345  14.734   6.274  1.00  0.00     0.074 A 
ATOM     50  C   UNL     1       6.743  17.887   5.190  1.00  0.00     0.029 A 
ATOM     51  N   UNL     1       5.141  16.349   5.284  1.00  0.00    -0.354 N 
ATOM     52  N   UNL     1       2.490  15.310   5.998  1.00  0.00    -0.248 NA
ATOM     53  C   UNL     1       0.408  15.586   7.018  1.00  0.00     0.031 C 
ATOM     54  C   UNL     1       5.654  18.425   5.886  1.00  0.00     0.029 A 
ATOM     55  C   UNL     1       4.647  17.475   5.924  1.00  0.00     0.049 A 
ATOM     56  H   UNL     1       4.648  15.505   5.166  1.00  0.00     0.167 HD
ATOM     57  C   UNL     1       2.402  16.597   6.510  1.00  0.00     0.074 A 
ATOM     58  C   UNL     1       1.084  16.723   7.098  1.00  0.00     0.031 C 
ATOM     59  C   UNL     1       3.330  17.585   6.496  1.00  0.00     0.037 A 
BRANCH  46  60
ATOM     60  C   UNL     1       8.644  16.018   3.761  1.00  0.00     0.064 A 
ATOM     61  C   UNL     1       9.009  16.263   2.429  1.00  0.00     0.173 A 
ATOM     62  C   UNL     1       9.625  16.185   4.750  1.00  0.00     0.173 A 
ATOM     63  F   UNL     1       8.112  16.106   1.444  1.00  0.00    -0.203 F 
ATOM     64  C   UNL     1      10.310  16.633   2.097  1.00  0.00     0.198 A 
ATOM     65  C   UNL     1      10.918  16.583   4.418  1.00  0.00     0.198 A 
ATOM     66  F   UNL     1       9.329  15.970   6.041  1.00  0.00    -0.203 F 
ATOM     67  F   UNL     1      10.646  16.816   0.813  1.00  0.00    -0.200 F 
ATOM     68  C   UNL     1      11.261  16.800   3.092  1.00  0.00     0.200 A 
ATOM     69  F   UNL     1      11.833  16.755   5.382  1.00  0.00    -0.200 F 
ATOM     70  F   UNL     1      12.511  17.162   2.773  1.00  0.00    -0.200 F 
ENDBRANCH  46  60
BRANCH  47  71
ATOM     71  C   UNL     1      -0.481  12.884   6.326  1.00  0.00     0.064 A 
ATOM     72  C   UNL     1      -1.631  13.423   5.733  1.00  0.00     0.173 A 
ATOM     73  C   UNL     1      -0.653  11.892   7.302  1.00  0.00     0.173 A 
ATOM     74  F   UNL     1      -1.518  14.388   4.808  1.00  0.00    -0.203 F 
ATOM     75  C   UNL     1      -2.903  13.002   6.115  1.00  0.00     0.198 A 
ATOM     76  C   UNL     1      -1.924  11.453   7.664  1.00  0.00     0.198 A 
ATOM     77  F   UNL     1       0.417  11.341   7.894  1.00  0.00    -0.203 F 
ATOM     78  F   UNL     1      -3.987  13.564   5.563  1.00  0.00    -0.200 F 
ATOM     79  C   UNL     1      -3.048  12.013   7.077  1.00  0.00     0.200 A 
ATOM     80  F   UNL     1      -2.060  10.488   8.584  1.00  0.00    -0.200 F 
ATOM     81  F   UNL     1      -4.271  11.605   7.441  1.00  0.00    -0.200 F 
ENDBRANCH  47  71
BRANCH  59  82
ATOM     82  C   UNL     1       2.936  18.899   7.103  1.00  0.00     0.064 A 
ATOM     83  C   UNL     1       2.802  19.058   8.490  1.00  0.00     0.173 A 
ATOM     84  C   UNL     1       2.707  20.017   6.287  1.00  0.00     0.173 A 
ATOM     85  F   UNL     1       2.996  18.015   9.311  1.00  0.00    -0.203 F 
ATOM     86  C   UNL     1       2.422  20.282   9.036  1.00  0.00     0.198 A 
ATOM     87  C   UNL     1       2.355  21.246   6.838  1.00  0.00     0.198 A 
ATOM     88  F   UNL     1       2.828  19.919   4.955  1.00  0.00    -0.203 F 
ATOM     89  F   UNL     1       2.248  20.397  10.360  1.00  0.00    -0.200 F 
ATOM     90  C   UNL     1       2.204  21.375   8.211  1.00  0.00     0.200 A 
ATOM     91  F   UNL     1       2.155  22.304   6.041  1.00  0.00    -0.200 F 
ATOM     92  F   UNL     1       1.838  22.551   8.738  1.00  0.00    -0.200 F 
ENDBRANCH  59  82
ENDBRANCH  33  34
ENDBRANCH  25  28
ENDBRANCH  23  24
ENDBRANCH   1  23
TORSDOF 13
