REMARK SMILES CCCC[N@H+](CC)[C@H]1CCC[C@]([NH3+])(C(=O)NCCCNC(=O)c2ccc(-c3c4nc(c(-c5c(F)c(F)c(F)c(F)c5F)c5ccc([nH]5)c(-c5c(F)c(F)c(F)c(F)c5F)c5nc(c(-c6c(F)c(F)c(F)c(F)c6F)c6ccc3[nH]6)C=C5)C=C4)cc2)C1
REMARK SMILES IDX 17 1 16 2 14 3 15 4 12 6 8 7 9 8 86 9 10 10 11 11 5 12 4 14
REMARK SMILES IDX 3 15 2 16 1 17 6 18 7 19 13 20 18 24 19 25 20 26 21 27 22 29
REMARK SMILES IDX 23 30 24 31 85 32 25 33 84 34 26 35 27 36 28 37 78 38 29 39
REMARK SMILES IDX 83 40 77 41 79 42 30 43 82 44 76 45 75 46 31 48 63 49 43 50
REMARK SMILES IDX 62 51 44 52 47 53 61 54 80 55 45 56 46 57 60 59 81 60 48 61
REMARK SMILES IDX 32 62 33 63 41 64 34 65 35 66 39 67 42 68 36 69 37 70 40 71
REMARK SMILES IDX 38 72 64 73 65 74 73 75 66 76 67 77 71 78 74 79 68 80 69 81
REMARK SMILES IDX 72 82 70 83 49 84 50 85 58 86 51 87 52 88 56 89 59 90 53 91
REMARK SMILES IDX 54 92 57 93 55 94
REMARK H PARENT 16 5 5 13 13 21 13 22 13 23 20 28 79 47 47 58
REMARK Flexibility Score: inf
ROOT
ATOM      1  C   UNL     1      -4.408  -1.758  -0.514  1.00  0.00     0.118 C 
ENDROOT
BRANCH   1   2
ATOM      2  N   UNL     1      -3.729  -3.017  -0.766  1.00  0.00    -0.351 N 
ATOM      3  C   UNL     1      -3.344  -4.052   0.032  1.00  0.00     0.281 C 
ATOM      4  O   UNL     1      -2.812  -5.001  -0.556  1.00  0.00    -0.268 OA
ATOM      5  H   UNL     1      -3.499  -3.151  -1.713  1.00  0.00     0.163 HD
BRANCH   3   6
ATOM      6  C   UNL     1      -3.602  -4.086   1.579  1.00  0.00     0.179 C 
ATOM      7  C   UNL     1      -1.472  -2.855   2.258  1.00  0.00     0.190 C 
ATOM      8  C   UNL     1      -0.920  -4.125   2.933  1.00  0.00     0.065 C 
ATOM      9  C   UNL     1      -3.019  -2.871   2.322  1.00  0.00     0.144 C 
ATOM     10  C   UNL     1      -1.475  -5.380   2.262  1.00  0.00     0.013 C 
ATOM     11  C   UNL     1      -3.005  -5.378   2.199  1.00  0.00     0.079 C 
BRANCH   7  12
ATOM     12  N   UNL     1      -0.889  -1.570   2.692  1.00  0.00    -0.333 N 
ATOM     13  H   UNL     1      -1.270  -0.977   1.955  1.00  0.00     0.348 HD
BRANCH  12  14
ATOM     14  C   UNL     1       0.577  -1.464   2.596  1.00  0.00     0.262 C 
BRANCH  14  15
ATOM     15  C   UNL     1       1.221  -1.877   1.259  1.00  0.00     0.061 C 
BRANCH  15  16
ATOM     16  C   UNL     1       0.707  -1.157   0.009  1.00  0.00     0.002 C 
ATOM     17  C   UNL     1       1.010   0.331  -0.010  1.00  0.00     0.004 C 
ENDBRANCH  15  16
ENDBRANCH  14  15
ENDBRANCH  12  14
BRANCH  12  18
ATOM     18  C   UNL     1      -1.401  -0.970   3.933  1.00  0.00     0.258 C 
ATOM     19  C   UNL     1      -1.181  -1.739   5.232  1.00  0.00     0.071 C 
ENDBRANCH  12  18
ENDBRANCH   7  12
BRANCH   6  20
ATOM     20  N   UNL     1      -5.069  -4.178   1.800  1.00  0.00    -0.345 N 
ATOM     21  H   UNL     1      -5.262  -4.201   2.802  1.00  0.00     0.345 HD
ATOM     22  H   UNL     1      -5.426  -5.028   1.366  1.00  0.00     0.345 HD
ATOM     23  H   UNL     1      -5.527  -3.366   1.385  1.00  0.00     0.345 HD
ENDBRANCH   6  20
ENDBRANCH   3   6
ENDBRANCH   1   2
BRANCH   1  24
ATOM     24  C   UNL     1      -3.472  -0.553  -0.565  1.00  0.00     0.042 C 
BRANCH  24  25
ATOM     25  C   UNL     1      -2.761  -0.345  -1.900  1.00  0.00     0.118 C 
BRANCH  25  26
ATOM     26  N   UNL     1      -3.684  -0.074  -2.991  1.00  0.00    -0.352 N 
ATOM     27  C   UNL     1      -3.776   0.999  -3.840  1.00  0.00     0.251 C 
ATOM     28  H   UNL     1      -4.354  -0.778  -3.145  1.00  0.00     0.163 HD
ATOM     29  O   UNL     1      -4.757   1.094  -4.574  1.00  0.00    -0.269 OA
BRANCH  27  30
ATOM     30  C   UNL     1      -2.729   2.046  -3.890  1.00  0.00     0.039 A 
ATOM     31  C   UNL     1      -3.130   3.372  -4.086  1.00  0.00     0.014 A 
ATOM     32  C   UNL     1      -1.366   1.738  -3.837  1.00  0.00     0.014 A 
ATOM     33  C   UNL     1      -2.176   4.387  -4.193  1.00  0.00     0.010 A 
ATOM     34  C   UNL     1      -0.414   2.759  -3.883  1.00  0.00     0.010 A 
ATOM     35  C   UNL     1      -0.809   4.091  -4.077  1.00  0.00    -0.014 A 
BRANCH  35  36
ATOM     36  C   UNL     1       0.208   5.168  -4.185  1.00  0.00     0.031 A 
ATOM     37  C   UNL     1       1.139   5.222  -5.365  1.00  0.00     0.074 A 
ATOM     38  C   UNL     1       0.310   6.088  -3.208  1.00  0.00     0.049 A 
ATOM     39  N   UNL     1       2.088   6.085  -5.632  1.00  0.00    -0.248 NA
ATOM     40  C   UNL     1       1.000   4.155  -6.367  1.00  0.00     0.031 C 
ATOM     41  C   UNL     1      -0.501   6.119  -1.990  1.00  0.00     0.029 A 
ATOM     42  N   UNL     1       1.140   7.174  -3.084  1.00  0.00    -0.354 N 
ATOM     43  C   UNL     1       2.665   5.657  -6.821  1.00  0.00     0.074 A 
ATOM     44  C   UNL     1       1.990   4.435  -7.202  1.00  0.00     0.031 C 
ATOM     45  C   UNL     1      -0.144   7.184  -1.253  1.00  0.00     0.029 A 
ATOM     46  C   UNL     1       0.932   7.897  -1.935  1.00  0.00     0.049 A 
ATOM     47  H   UNL     1       1.821   7.411  -3.754  1.00  0.00     0.167 HD
ATOM     48  C   UNL     1       3.654   6.241  -7.541  1.00  0.00     0.037 A 
ATOM     49  C   UNL     1       1.536   9.013  -1.488  1.00  0.00     0.037 A 
ATOM     50  C   UNL     1       4.308   7.471  -7.179  1.00  0.00     0.049 A 
ATOM     51  C   UNL     1       2.607   9.659  -2.322  1.00  0.00     0.074 A 
ATOM     52  C   UNL     1       5.286   8.167  -7.870  1.00  0.00     0.029 A 
ATOM     53  N   UNL     1       4.047   8.192  -6.023  1.00  0.00    -0.354 N 
ATOM     54  N   UNL     1       3.100   9.280  -3.475  1.00  0.00    -0.248 NA
ATOM     55  C   UNL     1       3.196  10.899  -1.796  1.00  0.00     0.031 C 
ATOM     56  C   UNL     1       5.637   9.294  -7.117  1.00  0.00     0.029 A 
ATOM     57  C   UNL     1       4.851   9.320  -5.977  1.00  0.00     0.049 A 
ATOM     58  H   UNL     1       3.387   7.940  -5.337  1.00  0.00     0.167 HD
ATOM     59  C   UNL     1       4.036  10.243  -3.825  1.00  0.00     0.074 A 
ATOM     60  C   UNL     1       4.031  11.235  -2.770  1.00  0.00     0.031 C 
ATOM     61  C   UNL     1       4.830  10.300  -4.922  1.00  0.00     0.037 A 
BRANCH  48  62
ATOM     62  C   UNL     1       4.086   5.554  -8.803  1.00  0.00     0.064 A 
ATOM     63  C   UNL     1       3.273   5.543  -9.946  1.00  0.00     0.173 A 
ATOM     64  C   UNL     1       5.339   4.928  -8.881  1.00  0.00     0.173 A 
ATOM     65  F   UNL     1       2.062   6.118  -9.918  1.00  0.00    -0.203 F 
ATOM     66  C   UNL     1       3.688   4.907 -11.114  1.00  0.00     0.198 A 
ATOM     67  C   UNL     1       5.761   4.316 -10.059  1.00  0.00     0.198 A 
ATOM     68  F   UNL     1       6.157   4.915  -7.818  1.00  0.00    -0.203 F 
ATOM     69  F   UNL     1       2.876   4.871 -12.179  1.00  0.00    -0.200 F 
ATOM     70  C   UNL     1       4.933   4.300 -11.171  1.00  0.00     0.200 A 
ATOM     71  F   UNL     1       6.969   3.737 -10.116  1.00  0.00    -0.200 F 
ATOM     72  F   UNL     1       5.332   3.692 -12.296  1.00  0.00    -0.200 F 
ENDBRANCH  48  62
BRANCH  49  73
ATOM     73  C   UNL     1       1.109   9.618  -0.201  1.00  0.00     0.064 A 
ATOM     74  C   UNL     1       0.378  10.814  -0.179  1.00  0.00     0.173 A 
ATOM     75  C   UNL     1       1.421   9.018   1.026  1.00  0.00     0.173 A 
ATOM     76  F   UNL     1       0.076  11.434  -1.329  1.00  0.00    -0.203 F 
ATOM     77  C   UNL     1      -0.009  11.397   1.025  1.00  0.00     0.198 A 
ATOM     78  C   UNL     1       1.012   9.589   2.229  1.00  0.00     0.198 A 
ATOM     79  F   UNL     1       2.115   7.870   1.056  1.00  0.00    -0.203 F 
ATOM     80  F   UNL     1      -0.671  12.562   1.020  1.00  0.00    -0.200 F 
ATOM     81  C   UNL     1       0.304  10.782   2.228  1.00  0.00     0.200 A 
ATOM     82  F   UNL     1       1.307   8.987   3.389  1.00  0.00    -0.200 F 
ATOM     83  F   UNL     1      -0.071  11.342   3.386  1.00  0.00    -0.200 F 
ENDBRANCH  49  73
BRANCH  61  84
ATOM     84  C   UNL     1       5.736  11.489  -5.047  1.00  0.00     0.064 A 
ATOM     85  C   UNL     1       6.878  11.630  -4.245  1.00  0.00     0.173 A 
ATOM     86  C   UNL     1       5.467  12.491  -5.992  1.00  0.00     0.173 A 
ATOM     87  F   UNL     1       7.168  10.706  -3.316  1.00  0.00    -0.203 F 
ATOM     88  C   UNL     1       7.702  12.745  -4.364  1.00  0.00     0.198 A 
ATOM     89  C   UNL     1       6.307  13.592  -6.125  1.00  0.00     0.198 A 
ATOM     90  F   UNL     1       4.390  12.400  -6.786  1.00  0.00    -0.203 F 
ATOM     91  F   UNL     1       8.759  12.884  -3.553  1.00  0.00    -0.200 F 
ATOM     92  C   UNL     1       7.418  13.723  -5.306  1.00  0.00     0.200 A 
ATOM     93  F   UNL     1       6.037  14.532  -7.042  1.00  0.00    -0.200 F 
ATOM     94  F   UNL     1       8.212  14.797  -5.417  1.00  0.00    -0.200 F 
ENDBRANCH  61  84
ENDBRANCH  35  36
ENDBRANCH  27  30
ENDBRANCH  25  26
ENDBRANCH  24  25
ENDBRANCH   1  24
TORSDOF 16
