REMARK SMILES CC[C@@](C)(NS(=O)(=O)c1ccc(F)c(Cl)c1)C(=O)NCCCNC(=O)c1ccc(-c2c3nc(c(-c4c(F)c(F)c(F)c(F)c4F)c4ccc([nH]4)c(-c4c(F)c(F)c(F)c(F)c4F)c4nc(c(-c5c(F)c(F)c(F)c(F)c5F)c5ccc2[nH]5)C=C4)C=C3)cc1
REMARK SMILES IDX 20 1 19 2 17 3 18 4 3 6 4 7 2 8 1 9 5 10 6 12 7 13 8 14 9 15
REMARK SMILES IDX 10 16 16 17 11 18 14 19 12 20 15 21 13 22 21 23 22 24 23 25
REMARK SMILES IDX 24 26 25 28 26 29 27 30 88 31 28 32 87 33 29 34 30 35 31 36
REMARK SMILES IDX 81 37 32 38 86 39 80 40 82 41 33 42 85 43 79 44 78 45 34 47
REMARK SMILES IDX 66 48 46 49 65 50 47 51 50 52 64 53 83 54 48 55 49 56 63 58
REMARK SMILES IDX 84 59 51 60 35 61 36 62 44 63 37 64 38 65 42 66 45 67 39 68
REMARK SMILES IDX 40 69 43 70 41 71 67 72 68 73 76 74 69 75 70 76 74 77 77 78
REMARK SMILES IDX 71 79 72 80 75 81 73 82 52 83 53 84 61 85 54 86 55 87 59 88
REMARK SMILES IDX 62 89 56 90 57 91 60 92 58 93
REMARK H PARENT 19 5 5 11 23 27 82 46 50 57
REMARK Flexibility Score: inf
ROOT
ATOM      1  C   UNL     1       1.793   4.240   3.644  1.00  0.00     0.117 C 
ENDROOT
BRANCH   1   2
ATOM      2  N   UNL     1       2.485   3.201   2.872  1.00  0.00    -0.354 N 
ATOM      3  C   UNL     1       2.207   2.019   2.233  1.00  0.00     0.241 C 
ATOM      4  O   UNL     1       3.157   1.588   1.560  1.00  0.00    -0.273 OA
ATOM      5  H   UNL     1       3.442   3.418   2.787  1.00  0.00     0.163 HD
BRANCH   3   6
ATOM      6  C   UNL     1       0.923   1.156   2.352  1.00  0.00     0.108 C 
ATOM      7  C   UNL     1      -0.343   1.999   2.164  1.00  0.00     0.040 C 
BRANCH   6   8
ATOM      8  C   UNL     1       0.873   0.006   1.254  1.00  0.00     0.030 C 
ATOM      9  C   UNL     1       1.040   0.346  -0.220  1.00  0.00     0.006 C 
ENDBRANCH   6   8
BRANCH   6  10
ATOM     10  N   UNL     1       0.818   0.343   3.589  1.00  0.00    -0.196 NA
ATOM     11  H   UNL     1       0.938  -0.614   3.258  1.00  0.00     0.142 HD
BRANCH  10  12
ATOM     12  S   UNL     1       1.671   0.375   5.003  1.00  0.00     0.241 S 
ATOM     13  O   UNL     1       1.477   1.677   5.604  1.00  0.00    -0.207 OA
ATOM     14  O   UNL     1       1.233  -0.803   5.709  1.00  0.00    -0.207 OA
BRANCH  12  15
ATOM     15  C   UNL     1       3.417   0.174   4.704  1.00  0.00     0.084 A 
ATOM     16  C   UNL     1       4.064  -1.032   4.965  1.00  0.00     0.025 A 
ATOM     17  C   UNL     1       4.204   1.302   4.467  1.00  0.00     0.045 A 
ATOM     18  C   UNL     1       5.468  -1.088   4.932  1.00  0.00     0.042 A 
ATOM     19  C   UNL     1       5.588   1.246   4.369  1.00  0.00     0.078 A 
ATOM     20  C   UNL     1       6.221   0.046   4.621  1.00  0.00     0.141 A 
ATOM     21  Cl  UNL     1       6.465   2.676   3.986  1.00  0.00    -0.081 Cl
ATOM     22  F   UNL     1       7.559  -0.031   4.616  1.00  0.00    -0.205 F 
ENDBRANCH  12  15
ENDBRANCH  10  12
ENDBRANCH   6  10
ENDBRANCH   3   6
ENDBRANCH   1   2
BRANCH   1  23
ATOM     23  C   UNL     1       2.004   4.484   5.173  1.00  0.00     0.042 C 
BRANCH  23  24
ATOM     24  C   UNL     1       3.320   4.353   5.971  1.00  0.00     0.118 C 
BRANCH  24  25
ATOM     25  N   UNL     1       4.395   5.240   5.578  1.00  0.00    -0.352 N 
ATOM     26  C   UNL     1       5.482   5.645   6.327  1.00  0.00     0.251 C 
ATOM     27  H   UNL     1       4.344   5.600   4.663  1.00  0.00     0.163 HD
ATOM     28  O   UNL     1       6.219   6.531   5.901  1.00  0.00    -0.269 OA
BRANCH  26  29
ATOM     29  C   UNL     1       5.768   5.066   7.667  1.00  0.00     0.039 A 
ATOM     30  C   UNL     1       5.834   5.930   8.765  1.00  0.00     0.014 A 
ATOM     31  C   UNL     1       6.103   3.719   7.836  1.00  0.00     0.014 A 
ATOM     32  C   UNL     1       6.197   5.443  10.028  1.00  0.00     0.010 A 
ATOM     33  C   UNL     1       6.443   3.226   9.109  1.00  0.00     0.010 A 
ATOM     34  C   UNL     1       6.494   4.082  10.222  1.00  0.00    -0.014 A 
BRANCH  34  35
ATOM     35  C   UNL     1       6.822   3.590  11.595  1.00  0.00     0.031 A 
ATOM     36  C   UNL     1       8.211   3.140  11.965  1.00  0.00     0.074 A 
ATOM     37  C   UNL     1       5.858   3.590  12.539  1.00  0.00     0.049 A 
ATOM     38  N   UNL     1       8.692   2.813  13.142  1.00  0.00    -0.248 NA
ATOM     39  C   UNL     1       9.187   3.033  10.872  1.00  0.00     0.031 C 
ATOM     40  C   UNL     1       4.461   3.957  12.307  1.00  0.00     0.029 A 
ATOM     41  N   UNL     1       5.903   3.292  13.881  1.00  0.00    -0.354 N 
ATOM     42  C   UNL     1      10.024   2.474  12.933  1.00  0.00     0.074 A 
ATOM     43  C   UNL     1      10.260   2.581  11.508  1.00  0.00     0.031 C 
ATOM     44  C   UNL     1       3.794   3.909  13.470  1.00  0.00     0.029 A 
ATOM     45  C   UNL     1       4.704   3.478  14.528  1.00  0.00     0.049 A 
ATOM     46  H   UNL     1       6.717   2.976  14.336  1.00  0.00     0.167 HD
ATOM     47  C   UNL     1      10.968   2.128  13.845  1.00  0.00     0.037 A 
ATOM     48  C   UNL     1       4.373   3.331  15.826  1.00  0.00     0.037 A 
ATOM     49  C   UNL     1      10.729   2.015  15.264  1.00  0.00     0.049 A 
ATOM     50  C   UNL     1       5.436   2.930  16.815  1.00  0.00     0.074 A 
ATOM     51  C   UNL     1      11.630   1.710  16.271  1.00  0.00     0.029 A 
ATOM     52  N   UNL     1       9.496   2.189  15.876  1.00  0.00    -0.354 N 
ATOM     53  N   UNL     1       6.710   2.698  16.615  1.00  0.00    -0.248 NA
ATOM     54  C   UNL     1       5.015   2.783  18.216  1.00  0.00     0.031 C 
ATOM     55  C   UNL     1      10.930   1.639  17.482  1.00  0.00     0.029 A 
ATOM     56  C   UNL     1       9.607   1.968  17.241  1.00  0.00     0.049 A 
ATOM     57  H   UNL     1       8.664   2.434  15.409  1.00  0.00     0.167 HD
ATOM     58  C   UNL     1       7.248   2.407  17.862  1.00  0.00     0.074 A 
ATOM     59  C   UNL     1       6.165   2.516  18.817  1.00  0.00     0.031 C 
ATOM     60  C   UNL     1       8.523   2.078  18.186  1.00  0.00     0.037 A 
BRANCH  47  61
ATOM     61  C   UNL     1      12.356   1.837  13.339  1.00  0.00     0.064 A 
ATOM     62  C   UNL     1      13.176   2.848  12.813  1.00  0.00     0.173 A 
ATOM     63  C   UNL     1      12.893   0.543  13.424  1.00  0.00     0.173 A 
ATOM     64  F   UNL     1      12.716   4.104  12.707  1.00  0.00    -0.203 F 
ATOM     65  C   UNL     1      14.464   2.568  12.359  1.00  0.00     0.198 A 
ATOM     66  C   UNL     1      14.193   0.273  13.001  1.00  0.00     0.198 A 
ATOM     67  F   UNL     1      12.163  -0.461  13.933  1.00  0.00    -0.203 F 
ATOM     68  F   UNL     1      15.207   3.541  11.814  1.00  0.00    -0.200 F 
ATOM     69  C   UNL     1      14.973   1.283  12.459  1.00  0.00     0.200 A 
ATOM     70  F   UNL     1      14.691  -0.966  13.117  1.00  0.00    -0.200 F 
ATOM     71  F   UNL     1      16.215   1.016  12.030  1.00  0.00    -0.200 F 
ENDBRANCH  47  61
BRANCH  48  72
ATOM     72  C   UNL     1       2.977   3.589  16.274  1.00  0.00     0.064 A 
ATOM     73  C   UNL     1       2.671   4.662  17.124  1.00  0.00     0.173 A 
ATOM     74  C   UNL     1       1.920   2.758  15.873  1.00  0.00     0.173 A 
ATOM     75  F   UNL     1       3.648   5.475  17.555  1.00  0.00    -0.203 F 
ATOM     76  C   UNL     1       1.370   4.879  17.574  1.00  0.00     0.198 A 
ATOM     77  C   UNL     1       0.614   2.996  16.296  1.00  0.00     0.198 A 
ATOM     78  F   UNL     1       2.155   1.718  15.060  1.00  0.00    -0.203 F 
ATOM     79  F   UNL     1       1.117   5.879  18.430  1.00  0.00    -0.200 F 
ATOM     80  C   UNL     1       0.341   4.050  17.154  1.00  0.00     0.200 A 
ATOM     81  F   UNL     1      -0.380   2.202  15.874  1.00  0.00    -0.200 F 
ATOM     82  F   UNL     1      -0.911   4.261  17.584  1.00  0.00    -0.200 F 
ENDBRANCH  48  72
BRANCH  60  83
ATOM     83  C   UNL     1       8.824   1.843  19.641  1.00  0.00     0.064 A 
ATOM     84  C   UNL     1       8.316   0.733  20.334  1.00  0.00     0.173 A 
ATOM     85  C   UNL     1       9.648   2.733  20.348  1.00  0.00     0.173 A 
ATOM     86  F   UNL     1       7.513  -0.143  19.711  1.00  0.00    -0.203 F 
ATOM     87  C   UNL     1       8.589   0.545  21.687  1.00  0.00     0.198 A 
ATOM     88  C   UNL     1       9.949   2.522  21.691  1.00  0.00     0.198 A 
ATOM     89  F   UNL     1      10.168   3.807  19.735  1.00  0.00    -0.203 F 
ATOM     90  F   UNL     1       8.039  -0.487  22.342  1.00  0.00    -0.200 F 
ATOM     91  C   UNL     1       9.409   1.435  22.363  1.00  0.00     0.200 A 
ATOM     92  F   UNL     1      10.756   3.374  22.338  1.00  0.00    -0.200 F 
ATOM     93  F   UNL     1       9.672   1.252  23.664  1.00  0.00    -0.200 F 
ENDBRANCH  60  83
ENDBRANCH  34  35
ENDBRANCH  26  29
ENDBRANCH  24  25
ENDBRANCH  23  24
ENDBRANCH   1  23
TORSDOF 14
