REMARK SMILES O=C(NCCCNC(=O)[C@H]1C[C@H](O)CN1C(=O)[C@@H]1CC(=O)N(C2CC2)C1)c1ccc(-c2c3nc(c(-c4c(F)c(F)c(F)c(F)c4F)c4ccc([nH]4)c(-c4c(F)c(F)c(F)c(F)c4F)c4nc(c(-c5c(F)c(F)c(F)c(F)c5F)c5ccc2[nH]5)C=C4)C=C3)cc1
REMARK SMILES IDX 5 1 4 2 3 3 1 4 2 5 27 7 28 8 89 9 29 10 88 11 30 12 31 13
REMARK SMILES IDX 32 14 82 15 33 16 87 17 81 18 83 19 34 20 86 21 80 22 79 23
REMARK SMILES IDX 35 25 67 26 47 27 66 28 48 29 51 30 65 31 84 32 49 33 50 34
REMARK SMILES IDX 64 36 85 37 52 38 36 39 37 40 45 41 38 42 39 43 43 44 46 45
REMARK SMILES IDX 40 46 41 47 44 48 42 49 68 50 69 51 77 52 70 53 71 54 75 55
REMARK SMILES IDX 78 56 72 57 73 58 76 59 74 60 53 61 54 62 62 63 55 64 56 65
REMARK SMILES IDX 60 66 63 67 57 68 58 69 61 70 59 71 6 72 7 73 8 74 9 76
REMARK SMILES IDX 10 77 11 78 15 79 12 80 14 81 16 82 17 83 18 84 19 85 26 86
REMARK SMILES IDX 20 87 22 88 21 89 23 90 24 91 25 92 13 93
REMARK H PARENT 3 6 83 24 51 35 7 75 13 94
REMARK Flexibility Score: inf
ROOT
ATOM      1  C   UNL     1       4.495  -1.902  -1.945  1.00  0.00     0.042 C 
ENDROOT
BRANCH   1   2
ATOM      2  C   UNL     1       4.276  -0.490  -1.403  1.00  0.00     0.118 C 
BRANCH   2   3
ATOM      3  N   UNL     1       2.874  -0.202  -1.139  1.00  0.00    -0.352 N 
ATOM      4  O   UNL     1       0.997   0.068   0.072  1.00  0.00    -0.269 OA
ATOM      5  C   UNL     1       2.224   0.044   0.047  1.00  0.00     0.251 C 
ATOM      6  H   UNL     1       2.299  -0.179  -1.938  1.00  0.00     0.163 HD
BRANCH   5   7
ATOM      7  C   UNL     1       2.986   0.268   1.296  1.00  0.00     0.039 A 
ATOM      8  C   UNL     1       4.140   1.052   1.305  1.00  0.00     0.014 A 
ATOM      9  C   UNL     1       2.506  -0.275   2.494  1.00  0.00     0.014 A 
ATOM     10  C   UNL     1       4.891   1.169   2.469  1.00  0.00     0.010 A 
ATOM     11  C   UNL     1       3.211  -0.073   3.686  1.00  0.00     0.010 A 
ATOM     12  C   UNL     1       4.426   0.629   3.679  1.00  0.00    -0.014 A 
BRANCH  12  13
ATOM     13  C   UNL     1       5.194   0.876   4.928  1.00  0.00     0.031 A 
ATOM     14  C   UNL     1       5.809  -0.254   5.705  1.00  0.00     0.074 A 
ATOM     15  C   UNL     1       5.355   2.147   5.345  1.00  0.00     0.049 A 
ATOM     16  N   UNL     1       6.529  -0.207   6.799  1.00  0.00    -0.248 NA
ATOM     17  C   UNL     1       5.582  -1.615   5.197  1.00  0.00     0.031 C 
ATOM     18  C   UNL     1       4.792   3.326   4.681  1.00  0.00     0.029 A 
ATOM     19  N   UNL     1       6.049   2.667   6.408  1.00  0.00    -0.354 N 
ATOM     20  C   UNL     1       6.830  -1.526   7.116  1.00  0.00     0.074 A 
ATOM     21  C   UNL     1       6.185  -2.354   6.118  1.00  0.00     0.031 C 
ATOM     22  C   UNL     1       5.202   4.430   5.321  1.00  0.00     0.029 A 
ATOM     23  C   UNL     1       5.996   4.037   6.479  1.00  0.00     0.049 A 
ATOM     24  H   UNL     1       6.537   2.111   7.057  1.00  0.00     0.167 HD
ATOM     25  C   UNL     1       7.584  -1.998   8.139  1.00  0.00     0.037 A 
ATOM     26  C   UNL     1       6.511   4.887   7.387  1.00  0.00     0.037 A 
ATOM     27  C   UNL     1       8.225  -1.165   9.127  1.00  0.00     0.049 A 
ATOM     28  C   UNL     1       7.305   4.330   8.534  1.00  0.00     0.074 A 
ATOM     29  C   UNL     1       9.036  -1.546  10.182  1.00  0.00     0.029 A 
ATOM     30  N   UNL     1       8.118   0.218   9.187  1.00  0.00    -0.354 N 
ATOM     31  N   UNL     1       7.620   3.085   8.796  1.00  0.00    -0.248 NA
ATOM     32  C   UNL     1       7.815   5.298   9.513  1.00  0.00     0.031 C 
ATOM     33  C   UNL     1       9.367  -0.402  10.917  1.00  0.00     0.029 A 
ATOM     34  C   UNL     1       8.823   0.701  10.280  1.00  0.00     0.049 A 
ATOM     35  H   UNL     1       7.616   0.774   8.548  1.00  0.00     0.167 HD
ATOM     36  C   UNL     1       8.385   3.121   9.953  1.00  0.00     0.074 A 
ATOM     37  C   UNL     1       8.505   4.515  10.329  1.00  0.00     0.031 C 
ATOM     38  C   UNL     1       8.937   2.092  10.642  1.00  0.00     0.037 A 
BRANCH  25  39
ATOM     39  C   UNL     1       7.742  -3.489   8.262  1.00  0.00     0.064 A 
ATOM     40  C   UNL     1       8.489  -4.234   7.337  1.00  0.00     0.173 A 
ATOM     41  C   UNL     1       7.178  -4.176   9.349  1.00  0.00     0.173 A 
ATOM     42  F   UNL     1       9.044  -3.631   6.275  1.00  0.00    -0.203 F 
ATOM     43  C   UNL     1       8.639  -5.612   7.478  1.00  0.00     0.198 A 
ATOM     44  C   UNL     1       7.359  -5.548   9.506  1.00  0.00     0.198 A 
ATOM     45  F   UNL     1       6.463  -3.514  10.271  1.00  0.00    -0.203 F 
ATOM     46  F   UNL     1       9.316  -6.309   6.554  1.00  0.00    -0.200 F 
ATOM     47  C   UNL     1       8.081  -6.266   8.566  1.00  0.00     0.200 A 
ATOM     48  F   UNL     1       6.833  -6.175  10.567  1.00  0.00    -0.200 F 
ATOM     49  F   UNL     1       8.236  -7.590   8.706  1.00  0.00    -0.200 F 
ENDBRANCH  25  39
BRANCH  26  50
ATOM     50  C   UNL     1       6.282   6.349   7.247  1.00  0.00     0.064 A 
ATOM     51  C   UNL     1       7.343   7.225   6.980  1.00  0.00     0.173 A 
ATOM     52  C   UNL     1       4.999   6.901   7.378  1.00  0.00     0.173 A 
ATOM     53  F   UNL     1       8.592   6.749   6.863  1.00  0.00    -0.203 F 
ATOM     54  C   UNL     1       7.133   8.598   6.872  1.00  0.00     0.198 A 
ATOM     55  C   UNL     1       4.784   8.269   7.234  1.00  0.00     0.198 A 
ATOM     56  F   UNL     1       3.948   6.106   7.628  1.00  0.00    -0.203 F 
ATOM     57  F   UNL     1       8.172   9.418   6.667  1.00  0.00    -0.200 F 
ATOM     58  C   UNL     1       5.852   9.118   6.992  1.00  0.00     0.200 A 
ATOM     59  F   UNL     1       3.542   8.763   7.330  1.00  0.00    -0.200 F 
ATOM     60  F   UNL     1       5.650  10.438   6.881  1.00  0.00    -0.200 F 
ENDBRANCH  26  50
BRANCH  38  61
ATOM     61  C   UNL     1       9.758   2.442  11.851  1.00  0.00     0.064 A 
ATOM     62  C   UNL     1       9.176   2.952  13.021  1.00  0.00     0.173 A 
ATOM     63  C   UNL     1      11.148   2.244  11.844  1.00  0.00     0.173 A 
ATOM     64  F   UNL     1       7.854   3.176  13.075  1.00  0.00    -0.203 F 
ATOM     65  C   UNL     1       9.958   3.285  14.124  1.00  0.00     0.198 A 
ATOM     66  C   UNL     1      11.921   2.543  12.962  1.00  0.00     0.198 A 
ATOM     67  F   UNL     1      11.756   1.753  10.754  1.00  0.00    -0.203 F 
ATOM     68  F   UNL     1       9.387   3.830  15.207  1.00  0.00    -0.200 F 
ATOM     69  C   UNL     1      11.328   3.073  14.097  1.00  0.00     0.200 A 
ATOM     70  F   UNL     1      13.243   2.322  12.938  1.00  0.00    -0.200 F 
ATOM     71  F   UNL     1      12.078   3.389  15.161  1.00  0.00    -0.200 F 
ENDBRANCH  38  61
ENDBRANCH  12  13
ENDBRANCH   5   7
ENDBRANCH   2   3
ENDBRANCH   1   2
BRANCH   1  72
ATOM     72  C   UNL     1       3.974  -2.114  -3.367  1.00  0.00     0.117 C 
BRANCH  72  73
ATOM     73  N   UNL     1       4.677  -1.292  -4.328  1.00  0.00    -0.354 N 
ATOM     74  C   UNL     1       5.747  -1.520  -5.130  1.00  0.00     0.242 C 
ATOM     75  H   UNL     1       4.304  -0.386  -4.417  1.00  0.00     0.163 HD
ATOM     76  O   UNL     1       6.234  -0.514  -5.663  1.00  0.00    -0.273 OA
BRANCH  74  77
ATOM     77  C   UNL     1       6.441  -2.891  -5.309  1.00  0.00     0.177 C 
ATOM     78  C   UNL     1       7.133  -3.414  -4.045  1.00  0.00     0.069 C 
ATOM     79  N   UNL     1       5.658  -4.021  -5.832  1.00  0.00    -0.328 N 
ATOM     80  C   UNL     1       6.371  -4.678  -3.664  1.00  0.00     0.136 C 
ATOM     81  C   UNL     1       5.851  -5.196  -5.000  1.00  0.00     0.152 C 
BRANCH  79  82
ATOM     82  C   UNL     1       5.203  -3.962  -7.132  1.00  0.00     0.228 C 
ATOM     83  O   UNL     1       5.269  -2.897  -7.756  1.00  0.00    -0.274 OA
BRANCH  82  84
ATOM     84  C   UNL     1       4.640  -5.174  -7.876  1.00  0.00     0.107 C 
ATOM     85  C   UNL     1       3.434  -5.850  -7.249  1.00  0.00     0.115 C 
ATOM     86  C   UNL     1       5.651  -6.273  -8.118  1.00  0.00     0.133 C 
ATOM     87  C   UNL     1       3.966  -7.166  -6.736  1.00  0.00     0.223 C 
ATOM     88  N   UNL     1       5.265  -7.332  -7.219  1.00  0.00    -0.339 N 
ATOM     89  O   UNL     1       3.344  -7.899  -5.989  1.00  0.00    -0.275 OA
BRANCH  88  90
ATOM     90  C   UNL     1       6.197  -8.361  -6.865  1.00  0.00     0.085 C 
ATOM     91  C   UNL     1       6.361  -8.800  -5.432  1.00  0.00     0.027 C 
ATOM     92  C   UNL     1       5.803  -9.750  -6.454  1.00  0.00     0.027 C 
ENDBRANCH  88  90
ENDBRANCH  82  84
ENDBRANCH  79  82
BRANCH  80  93
ATOM     93  O   UNL     1       7.204  -5.606  -2.990  1.00  0.00    -0.391 OA
ATOM     94  H   UNL     1       7.962  -5.828  -3.552  1.00  0.00     0.211 HD
ENDBRANCH  80  93
ENDBRANCH  74  77
ENDBRANCH  72  73
ENDBRANCH   1  72
TORSDOF 14
