REMARK SMILES COc1ccc(-c2sc(C(=O)NCCCNC(=O)c3ccc(-c4c5nc(c(-c6c(F)c(F)c(F)c(F)c6F)c6ccc([nH]6)c(-c6c(F)c(F)c(F)c(F)c6F)c6nc(c(-c7c(F)c(F)c(F)c(F)c7F)c7ccc4[nH]7)C=C6)C=C5)cc3)cc2C)c(OC)c1
REMARK SMILES IDX 14 1 13 2 12 3 10 4 11 5 9 7 7 8 8 9 83 10 82 11 84 12 6 13
REMARK SMILES IDX 3 14 4 15 88 16 5 17 85 18 2 19 1 20 86 21 87 22 15 23 16 24
REMARK SMILES IDX 17 25 18 27 19 28 20 29 81 30 21 31 80 32 22 33 23 34 24 35
REMARK SMILES IDX 74 36 25 37 79 38 73 39 75 40 26 41 78 42 72 43 71 44 27 46
REMARK SMILES IDX 59 47 39 48 58 49 40 50 43 51 57 52 76 53 41 54 42 55 56 57
REMARK SMILES IDX 77 58 44 59 28 60 29 61 37 62 30 63 31 64 35 65 38 66 32 67
REMARK SMILES IDX 33 68 36 69 34 70 60 71 61 72 69 73 62 74 63 75 67 76 70 77
REMARK SMILES IDX 64 78 65 79 68 80 66 81 45 82 46 83 54 84 47 85 48 86 52 87
REMARK SMILES IDX 55 88 49 89 50 90 53 91 51 92
REMARK H PARENT 12 6 16 26 75 45 43 56
REMARK Flexibility Score: inf
ROOT
ATOM      1  C   UNL     1       0.635   5.547   8.172  1.00  0.00     0.042 C 
ENDROOT
BRANCH   1   2
ATOM      2  C   UNL     1       0.500   6.826   7.346  1.00  0.00     0.118 C 
BRANCH   2   3
ATOM      3  N   UNL     1       1.735   7.587   7.312  1.00  0.00    -0.351 N 
ATOM      4  C   UNL     1       2.710   7.746   6.356  1.00  0.00     0.261 C 
ATOM      5  O   UNL     1       3.570   8.590   6.640  1.00  0.00    -0.268 OA
ATOM      6  H   UNL     1       1.910   8.091   8.139  1.00  0.00     0.163 HD
BRANCH   4   7
ATOM      7  C   UNL     1       2.740   7.034   5.086  1.00  0.00     0.093 A 
ATOM      8  C   UNL     1       2.496   5.502   3.147  1.00  0.00     0.042 A 
ATOM      9  S   UNL     1       2.006   5.528   4.785  1.00  0.00    -0.130 S 
ATOM     10  C   UNL     1       3.332   6.563   2.843  1.00  0.00    -0.031 A 
ATOM     11  C   UNL     1       3.463   7.436   3.973  1.00  0.00     0.029 A 
ATOM     12  C   UNL     1       4.018   6.797   1.538  1.00  0.00     0.046 C 
BRANCH   8  13
ATOM     13  C   UNL     1       2.024   4.399   2.302  1.00  0.00     0.034 A 
ATOM     14  C   UNL     1       1.010   2.293   0.748  1.00  0.00     0.122 A 
ATOM     15  C   UNL     1       0.205   3.390   1.051  1.00  0.00     0.047 A 
ATOM     16  C   UNL     1       2.337   2.264   1.188  1.00  0.00     0.093 A 
ATOM     17  C   UNL     1       0.704   4.434   1.827  1.00  0.00     0.017 A 
ATOM     18  C   UNL     1       2.856   3.315   1.960  1.00  0.00     0.131 A 
BRANCH  14  19
ATOM     19  O   UNL     1       0.397   1.325  -0.001  1.00  0.00    -0.497 OA
ATOM     20  C   UNL     1       0.999   0.036   0.015  1.00  0.00     0.278 C 
ENDBRANCH  14  19
BRANCH  18  21
ATOM     21  O   UNL     1       4.143   3.366   2.435  1.00  0.00    -0.496 OA
ATOM     22  C   UNL     1       5.052   2.368   1.995  1.00  0.00     0.278 C 
ENDBRANCH  18  21
ENDBRANCH   8  13
ENDBRANCH   4   7
ENDBRANCH   2   3
ENDBRANCH   1   2
BRANCH   1  23
ATOM     23  C   UNL     1       0.783   5.790   9.676  1.00  0.00     0.118 C 
BRANCH  23  24
ATOM     24  N   UNL     1      -0.398   6.414  10.255  1.00  0.00    -0.352 N 
ATOM     25  C   UNL     1      -1.202   6.035  11.295  1.00  0.00     0.251 C 
ATOM     26  H   UNL     1      -0.665   7.257   9.822  1.00  0.00     0.163 HD
ATOM     27  O   UNL     1      -2.266   6.630  11.467  1.00  0.00    -0.269 OA
BRANCH  25  28
ATOM     28  C   UNL     1      -0.833   4.937  12.217  1.00  0.00     0.039 A 
ATOM     29  C   UNL     1      -1.861   4.137  12.730  1.00  0.00     0.014 A 
ATOM     30  C   UNL     1       0.478   4.744  12.662  1.00  0.00     0.014 A 
ATOM     31  C   UNL     1      -1.575   3.135  13.660  1.00  0.00     0.010 A 
ATOM     32  C   UNL     1       0.773   3.704  13.546  1.00  0.00     0.010 A 
ATOM     33  C   UNL     1      -0.252   2.900  14.066  1.00  0.00    -0.014 A 
BRANCH  33  34
ATOM     34  C   UNL     1       0.051   1.819  15.037  1.00  0.00     0.031 A 
ATOM     35  C   UNL     1       0.538   2.140  16.421  1.00  0.00     0.074 A 
ATOM     36  C   UNL     1      -0.086   0.535  14.657  1.00  0.00     0.049 A 
ATOM     37  N   UNL     1       0.815   1.327  17.411  1.00  0.00    -0.248 NA
ATOM     38  C   UNL     1       0.771   3.559  16.728  1.00  0.00     0.031 C 
ATOM     39  C   UNL     1      -0.478   0.091  13.319  1.00  0.00     0.029 A 
ATOM     40  N   UNL     1       0.093  -0.630  15.358  1.00  0.00    -0.354 N 
ATOM     41  C   UNL     1       1.267   2.132  18.447  1.00  0.00     0.074 A 
ATOM     42  C   UNL     1       1.272   3.493  17.953  1.00  0.00     0.031 C 
ATOM     43  C   UNL     1      -0.530  -1.250  13.301  1.00  0.00     0.029 A 
ATOM     44  C   UNL     1      -0.165  -1.758  14.621  1.00  0.00     0.049 A 
ATOM     45  H   UNL     1       0.379  -0.655  16.300  1.00  0.00     0.167 HD
ATOM     46  C   UNL     1       1.628   1.772  19.703  1.00  0.00     0.037 A 
ATOM     47  C   UNL     1      -0.127  -3.057  14.972  1.00  0.00     0.037 A 
ATOM     48  C   UNL     1       1.595   0.422  20.203  1.00  0.00     0.049 A 
ATOM     49  C   UNL     1       0.201  -3.429  16.390  1.00  0.00     0.074 A 
ATOM     50  C   UNL     1       1.868  -0.035  21.481  1.00  0.00     0.029 A 
ATOM     51  N   UNL     1       1.271  -0.692  19.442  1.00  0.00    -0.354 N 
ATOM     52  N   UNL     1       0.537  -2.652  17.390  1.00  0.00    -0.248 NA
ATOM     53  C   UNL     1       0.133  -4.856  16.733  1.00  0.00     0.031 C 
ATOM     54  C   UNL     1       1.740  -1.429  21.485  1.00  0.00     0.029 A 
ATOM     55  C   UNL     1       1.350  -1.837  20.219  1.00  0.00     0.049 A 
ATOM     56  H   UNL     1       1.021  -0.671  18.490  1.00  0.00     0.167 HD
ATOM     57  C   UNL     1       0.704  -3.488  18.484  1.00  0.00     0.074 A 
ATOM     58  C   UNL     1       0.415  -4.833  18.029  1.00  0.00     0.031 C 
ATOM     59  C   UNL     1       1.064  -3.169  19.752  1.00  0.00     0.037 A 
BRANCH  46  60
ATOM     60  C   UNL     1       2.088   2.864  20.625  1.00  0.00     0.064 A 
ATOM     61  C   UNL     1       1.195   3.815  21.141  1.00  0.00     0.173 A 
ATOM     62  C   UNL     1       3.434   2.953  21.008  1.00  0.00     0.173 A 
ATOM     63  F   UNL     1      -0.102   3.780  20.798  1.00  0.00    -0.203 F 
ATOM     64  C   UNL     1       1.639   4.838  21.976  1.00  0.00     0.198 A 
ATOM     65  C   UNL     1       3.871   3.961  21.864  1.00  0.00     0.198 A 
ATOM     66  F   UNL     1       4.329   2.065  20.549  1.00  0.00    -0.203 F 
ATOM     67  F   UNL     1       0.778   5.767  22.412  1.00  0.00    -0.200 F 
ATOM     68  C   UNL     1       2.975   4.907  22.339  1.00  0.00     0.200 A 
ATOM     69  F   UNL     1       5.161   4.022  22.224  1.00  0.00    -0.200 F 
ATOM     70  F   UNL     1       3.403   5.894  23.140  1.00  0.00    -0.200 F 
ENDBRANCH  46  60
BRANCH  47  71
ATOM     71  C   UNL     1      -0.472  -4.089  13.964  1.00  0.00     0.064 A 
ATOM     72  C   UNL     1      -1.711  -4.742  14.000  1.00  0.00     0.173 A 
ATOM     73  C   UNL     1       0.407  -4.405  12.919  1.00  0.00     0.173 A 
ATOM     74  F   UNL     1      -2.576  -4.482  14.991  1.00  0.00    -0.203 F 
ATOM     75  C   UNL     1      -2.057  -5.679  13.029  1.00  0.00     0.198 A 
ATOM     76  C   UNL     1       0.052  -5.326  11.937  1.00  0.00     0.198 A 
ATOM     77  F   UNL     1       1.600  -3.798  12.839  1.00  0.00    -0.203 F 
ATOM     78  F   UNL     1      -3.239  -6.306  13.097  1.00  0.00    -0.200 F 
ATOM     79  C   UNL     1      -1.178  -5.964  11.994  1.00  0.00     0.200 A 
ATOM     80  F   UNL     1       0.897  -5.589  10.931  1.00  0.00    -0.200 F 
ATOM     81  F   UNL     1      -1.518  -6.854  11.052  1.00  0.00    -0.200 F 
ENDBRANCH  47  71
BRANCH  59  82
ATOM     82  C   UNL     1       1.151  -4.293  20.740  1.00  0.00     0.064 A 
ATOM     83  C   UNL     1       2.210  -5.212  20.712  1.00  0.00     0.173 A 
ATOM     84  C   UNL     1       0.181  -4.436  21.743  1.00  0.00     0.173 A 
ATOM     85  F   UNL     1       3.154  -5.126  19.762  1.00  0.00    -0.203 F 
ATOM     86  C   UNL     1       2.281  -6.249  21.638  1.00  0.00     0.198 A 
ATOM     87  C   UNL     1       0.268  -5.460  22.681  1.00  0.00     0.198 A 
ATOM     88  F   UNL     1      -0.849  -3.580  21.814  1.00  0.00    -0.203 F 
ATOM     89  F   UNL     1       3.278  -7.142  21.567  1.00  0.00    -0.200 F 
ATOM     90  C   UNL     1       1.313  -6.369  22.625  1.00  0.00     0.200 A 
ATOM     91  F   UNL     1      -0.664  -5.571  23.639  1.00  0.00    -0.200 F 
ATOM     92  F   UNL     1       1.384  -7.367  23.516  1.00  0.00    -0.200 F 
ENDBRANCH  59  82
ENDBRANCH  33  34
ENDBRANCH  25  28
ENDBRANCH  23  24
ENDBRANCH   1  23
TORSDOF 13
