REMARK SMILES C=CC[N@@H+](CC(=O)NCCCNC(=O)c1ccc(-c2c3nc(c(-c4c(F)c(F)c(F)c(F)c4F)c4ccc([nH]4)c(-c4c(F)c(F)c(F)c(F)c4F)c4nc(c(-c5c(F)c(F)c(F)c(F)c5F)c5ccc2[nH]5)C=C4)C=C3)cc1)C[C@H]1CCC[C@H](C)C1
REMARK SMILES IDX 9 1 8 2 6 3 7 4 5 6 4 7 3 9 2 10 1 11 78 12 79 13 80 14
REMARK SMILES IDX 85 15 81 16 83 17 82 18 84 19 10 20 11 21 12 22 13 23 14 25
REMARK SMILES IDX 15 26 16 27 77 28 17 29 76 30 18 31 19 32 20 33 70 34 21 35
REMARK SMILES IDX 75 36 69 37 71 38 22 39 74 40 68 41 67 42 23 44 55 45 35 46
REMARK SMILES IDX 54 47 36 48 39 49 53 50 72 51 37 52 38 53 52 55 73 56 40 57
REMARK SMILES IDX 24 58 25 59 33 60 26 61 27 62 31 63 34 64 28 65 29 66 32 67
REMARK SMILES IDX 30 68 56 69 57 70 65 71 58 72 59 73 63 74 66 75 60 76 61 77
REMARK SMILES IDX 64 78 62 79 41 80 42 81 50 82 43 83 44 84 48 85 51 86 45 87
REMARK SMILES IDX 46 88 49 89 47 90
REMARK H PARENT 8 5 4 8 12 24 71 43 39 54
REMARK Flexibility Score: inf
ROOT
ATOM      1  C   UNL     1      -3.430  -0.695   0.966  1.00  0.00     0.118 C 
ENDROOT
BRANCH   1   2
ATOM      2  N   UNL     1      -3.797   0.343   0.016  1.00  0.00    -0.351 N 
ATOM      3  C   UNL     1      -3.620   0.468  -1.330  1.00  0.00     0.275 C 
ATOM      4  O   UNL     1      -4.035   1.523  -1.828  1.00  0.00    -0.269 OA
ATOM      5  H   UNL     1      -4.267   1.105   0.426  1.00  0.00     0.163 HD
BRANCH   3   6
ATOM      6  C   UNL     1      -2.984  -0.618  -2.231  1.00  0.00     0.363 C 
BRANCH   6   7
ATOM      7  N   UNL     1      -1.482  -0.682  -2.260  1.00  0.00    -0.324 N 
ATOM      8  H   UNL     1      -1.119  -1.203  -3.059  1.00  0.00     0.348 HD
BRANCH   7   9
ATOM      9  C   UNL     1      -1.010  -1.466  -1.131  1.00  0.00     0.290 C 
BRANCH   9  10
ATOM     10  C   UNL     1       0.349  -2.084  -1.169  1.00  0.00     0.025 C 
ATOM     11  C   UNL     1       1.207  -2.006  -0.139  1.00  0.00     0.010 C 
ENDBRANCH   9  10
ENDBRANCH   7   9
BRANCH   7  12
ATOM     12  C   UNL     1      -0.905   0.661  -2.513  1.00  0.00     0.266 C 
BRANCH  12  13
ATOM     13  C   UNL     1       0.479   1.045  -1.946  1.00  0.00     0.044 C 
ATOM     14  C   UNL     1       1.665   0.431  -2.698  1.00  0.00     0.009 C 
ATOM     15  C   UNL     1       0.673   2.580  -1.962  1.00  0.00     0.012 C 
ATOM     16  C   UNL     1       2.954   0.726  -1.931  1.00  0.00     0.001 C 
ATOM     17  C   UNL     1       1.979   3.011  -1.270  1.00  0.00    -0.014 C 
ATOM     18  C   UNL     1       3.193   2.229  -1.800  1.00  0.00     0.003 C 
ATOM     19  C   UNL     1       1.856   2.908   0.254  1.00  0.00     0.007 C 
ENDBRANCH  12  13
ENDBRANCH   7  12
ENDBRANCH   6   7
ENDBRANCH   3   6
ENDBRANCH   1   2
BRANCH   1  20
ATOM     20  C   UNL     1      -2.205  -0.286   1.795  1.00  0.00     0.042 C 
BRANCH  20  21
ATOM     21  C   UNL     1      -2.502   0.596   2.997  1.00  0.00     0.118 C 
BRANCH  21  22
ATOM     22  N   UNL     1      -2.802  -0.174   4.191  1.00  0.00    -0.352 N 
ATOM     23  C   UNL     1      -2.049  -0.480   5.297  1.00  0.00     0.251 C 
ATOM     24  H   UNL     1      -3.714  -0.545   4.211  1.00  0.00     0.163 HD
ATOM     25  O   UNL     1      -2.493  -1.323   6.082  1.00  0.00    -0.269 OA
BRANCH  23  26
ATOM     26  C   UNL     1      -0.727   0.140   5.588  1.00  0.00     0.039 A 
ATOM     27  C   UNL     1       0.211  -0.613   6.309  1.00  0.00     0.014 A 
ATOM     28  C   UNL     1      -0.416   1.463   5.269  1.00  0.00     0.014 A 
ATOM     29  C   UNL     1       1.444  -0.059   6.677  1.00  0.00     0.010 A 
ATOM     30  C   UNL     1       0.851   1.984   5.547  1.00  0.00     0.010 A 
ATOM     31  C   UNL     1       1.787   1.242   6.281  1.00  0.00    -0.014 A 
BRANCH  31  32
ATOM     32  C   UNL     1       3.081   1.861   6.682  1.00  0.00     0.031 A 
ATOM     33  C   UNL     1       3.096   3.082   7.568  1.00  0.00     0.074 A 
ATOM     34  C   UNL     1       4.245   1.357   6.231  1.00  0.00     0.049 A 
ATOM     35  N   UNL     1       4.111   3.802   7.978  1.00  0.00    -0.248 NA
ATOM     36  C   UNL     1       1.790   3.575   8.033  1.00  0.00     0.031 C 
ATOM     37  C   UNL     1       4.380   0.197   5.350  1.00  0.00     0.029 A 
ATOM     38  N   UNL     1       5.540   1.759   6.451  1.00  0.00    -0.354 N 
ATOM     39  C   UNL     1       3.566   4.838   8.726  1.00  0.00     0.074 A 
ATOM     40  C   UNL     1       2.128   4.687   8.667  1.00  0.00     0.031 C 
ATOM     41  C   UNL     1       5.683  -0.041   5.134  1.00  0.00     0.029 A 
ATOM     42  C   UNL     1       6.476   0.971   5.826  1.00  0.00     0.049 A 
ATOM     43  H   UNL     1       5.776   2.539   7.004  1.00  0.00     0.167 HD
ATOM     44  C   UNL     1       4.200   5.812   9.423  1.00  0.00     0.037 A 
ATOM     45  C   UNL     1       7.820   1.054   5.813  1.00  0.00     0.037 A 
ATOM     46  C   UNL     1       5.630   5.948   9.513  1.00  0.00     0.049 A 
ATOM     47  C   UNL     1       8.503   2.155   6.579  1.00  0.00     0.074 A 
ATOM     48  C   UNL     1       6.368   6.872  10.233  1.00  0.00     0.029 A 
ATOM     49  N   UNL     1       6.542   5.131   8.861  1.00  0.00    -0.354 N 
ATOM     50  N   UNL     1       7.977   3.100   7.318  1.00  0.00    -0.248 NA
ATOM     51  C   UNL     1       9.971   2.197   6.507  1.00  0.00     0.031 C 
ATOM     52  C   UNL     1       7.726   6.637   9.986  1.00  0.00     0.029 A 
ATOM     53  C   UNL     1       7.835   5.539   9.148  1.00  0.00     0.049 A 
ATOM     54  H   UNL     1       6.305   4.372   8.280  1.00  0.00     0.167 HD
ATOM     55  C   UNL     1       9.046   3.827   7.825  1.00  0.00     0.074 A 
ATOM     56  C   UNL     1      10.252   3.210   7.315  1.00  0.00     0.031 C 
ATOM     57  C   UNL     1       9.027   4.909   8.643  1.00  0.00     0.037 A 
BRANCH  44  58
ATOM     58  C   UNL     1       3.341   6.811  10.147  1.00  0.00     0.064 A 
ATOM     59  C   UNL     1       2.581   6.450  11.271  1.00  0.00     0.173 A 
ATOM     60  C   UNL     1       3.281   8.145   9.718  1.00  0.00     0.173 A 
ATOM     61  F   UNL     1       2.594   5.184  11.716  1.00  0.00    -0.203 F 
ATOM     62  C   UNL     1       1.761   7.376  11.911  1.00  0.00     0.198 A 
ATOM     63  C   UNL     1       2.485   9.076  10.380  1.00  0.00     0.198 A 
ATOM     64  F   UNL     1       3.993   8.547   8.655  1.00  0.00    -0.203 F 
ATOM     65  F   UNL     1       0.996   6.991  12.942  1.00  0.00    -0.200 F 
ATOM     66  C   UNL     1       1.717   8.689  11.467  1.00  0.00     0.200 A 
ATOM     67  F   UNL     1       2.452  10.348   9.959  1.00  0.00    -0.200 F 
ATOM     68  F   UNL     1       0.925   9.578  12.082  1.00  0.00    -0.200 F 
ENDBRANCH  44  58
BRANCH  45  69
ATOM     69  C   UNL     1       8.616   0.034   5.083  1.00  0.00     0.064 A 
ATOM     70  C   UNL     1       9.366  -0.920   5.785  1.00  0.00     0.173 A 
ATOM     71  C   UNL     1       8.638  -0.018   3.683  1.00  0.00     0.173 A 
ATOM     72  F   UNL     1       9.394  -0.896   7.125  1.00  0.00    -0.203 F 
ATOM     73  C   UNL     1      10.119  -1.881   5.112  1.00  0.00     0.198 A 
ATOM     74  C   UNL     1       9.371  -0.994   3.011  1.00  0.00     0.198 A 
ATOM     75  F   UNL     1       7.935   0.872   2.966  1.00  0.00    -0.203 F 
ATOM     76  F   UNL     1      10.855  -2.758   5.807  1.00  0.00    -0.200 F 
ATOM     77  C   UNL     1      10.115  -1.921   3.726  1.00  0.00     0.200 A 
ATOM     78  F   UNL     1       9.357  -1.038   1.672  1.00  0.00    -0.200 F 
ATOM     79  F   UNL     1      10.833  -2.850   3.080  1.00  0.00    -0.200 F 
ENDBRANCH  45  69
BRANCH  57  80
ATOM     80  C   UNL     1      10.351   5.470   9.071  1.00  0.00     0.064 A 
ATOM     81  C   UNL     1      11.167   6.191   8.187  1.00  0.00     0.173 A 
ATOM     82  C   UNL     1      10.792   5.315  10.395  1.00  0.00     0.173 A 
ATOM     83  F   UNL     1      10.798   6.353   6.908  1.00  0.00    -0.203 F 
ATOM     84  C   UNL     1      12.387   6.715   8.607  1.00  0.00     0.198 A 
ATOM     85  C   UNL     1      11.999   5.864  10.817  1.00  0.00     0.198 A 
ATOM     86  F   UNL     1      10.046   4.639  11.281  1.00  0.00    -0.203 F 
ATOM     87  F   UNL     1      13.172   7.362   7.733  1.00  0.00    -0.200 F 
ATOM     88  C   UNL     1      12.799   6.558   9.922  1.00  0.00     0.200 A 
ATOM     89  F   UNL     1      12.390   5.721  12.091  1.00  0.00    -0.200 F 
ATOM     90  F   UNL     1      13.970   7.068  10.325  1.00  0.00    -0.200 F 
ENDBRANCH  57  80
ENDBRANCH  31  32
ENDBRANCH  23  26
ENDBRANCH  21  22
ENDBRANCH  20  21
ENDBRANCH   1  20
TORSDOF 15
