REMARK SMILES O=C(NCCCNC(=O)[C@@H](c1c[nH]c2ccc(Cl)cc12)[NH+]1CC[NH+](CCNc2cc(=O)oc3ccccc23)CC1)c1ccc(-c2c3nc(c(-c4c(F)c(F)c(F)c(F)c4F)c4ccc([nH]4)c(-c4c(F)c(F)c(F)c(F)c4F)c4nc(c(-c5c(F)c(F)c(F)c(F)c5F)c5ccc2[nH]5)C=C4)C=C3)cc1
REMARK SMILES IDX 7 1 8 2 9 3 6 5 5 6 4 7 3 8 1 9 2 10 41 12 42 13 103 14
REMARK SMILES IDX 43 15 102 16 44 17 45 18 46 19 96 20 47 21 101 22 95 23
REMARK SMILES IDX 97 24 48 25 100 26 94 27 93 28 49 30 81 31 61 32 80 33 62 34
REMARK SMILES IDX 65 35 79 36 98 37 63 38 64 39 78 41 99 42 66 43 50 44 51 45
REMARK SMILES IDX 59 46 52 47 53 48 57 49 60 50 54 51 55 52 58 53 56 54 82 55
REMARK SMILES IDX 83 56 91 57 84 58 85 59 89 60 92 61 86 62 87 63 90 64 88 65
REMARK SMILES IDX 67 66 68 67 76 68 69 69 70 70 74 71 77 72 71 73 72 74 75 75
REMARK SMILES IDX 73 76 10 77 11 78 12 79 20 80 13 81 14 82 19 83 15 85 17 86
REMARK SMILES IDX 16 87 18 88 21 89 22 90 40 91 23 93 39 94 24 95 25 97 26 98
REMARK SMILES IDX 27 99 28 101 29 102 38 103 30 104 33 105 37 106 31 107
REMARK SMILES IDX 32 108 34 109 36 110 35 111
REMARK H PARENT 7 4 3 11 97 29 65 40 13 84 21 92 24 96 27 100
REMARK Flexibility Score: inf
ROOT
ATOM      1  N   UNL     1       6.017   3.501  -1.654  1.00  0.00    -0.351 N 
ATOM      2  C   UNL     1       6.353   4.528  -2.501  1.00  0.00     0.283 C 
ATOM      3  O   UNL     1       6.668   5.596  -1.960  1.00  0.00    -0.268 OA
ATOM      4  H   UNL     1       6.422   3.517  -0.757  1.00  0.00     0.163 HD
ENDROOT
BRANCH   1   5
ATOM      5  C   UNL     1       5.134   2.404  -1.945  1.00  0.00     0.118 C 
BRANCH   5   6
ATOM      6  C   UNL     1       5.504   1.068  -1.367  1.00  0.00     0.042 C 
BRANCH   6   7
ATOM      7  C   UNL     1       4.766   0.840  -0.061  1.00  0.00     0.118 C 
BRANCH   7   8
ATOM      8  N   UNL     1       3.300   0.786  -0.208  1.00  0.00    -0.352 N 
ATOM      9  O   UNL     1       1.229  -0.124  -0.197  1.00  0.00    -0.269 OA
ATOM     10  C   UNL     1       2.399  -0.210   0.116  1.00  0.00     0.251 C 
ATOM     11  H   UNL     1       2.896   1.592  -0.603  1.00  0.00     0.163 HD
BRANCH  10  12
ATOM     12  C   UNL     1       2.912  -1.402   0.816  1.00  0.00     0.039 A 
ATOM     13  C   UNL     1       3.865  -1.225   1.810  1.00  0.00     0.014 A 
ATOM     14  C   UNL     1       2.551  -2.683   0.394  1.00  0.00     0.014 A 
ATOM     15  C   UNL     1       4.681  -2.285   2.136  1.00  0.00     0.010 A 
ATOM     16  C   UNL     1       3.248  -3.787   0.893  1.00  0.00     0.010 A 
ATOM     17  C   UNL     1       4.362  -3.590   1.721  1.00  0.00    -0.014 A 
BRANCH  17  18
ATOM     18  C   UNL     1       5.208  -4.694   2.242  1.00  0.00     0.031 A 
ATOM     19  C   UNL     1       5.960  -5.617   1.327  1.00  0.00     0.074 A 
ATOM     20  C   UNL     1       5.380  -4.760   3.578  1.00  0.00     0.049 A 
ATOM     21  N   UNL     1       6.778  -6.590   1.642  1.00  0.00    -0.248 NA
ATOM     22  C   UNL     1       5.768  -5.450  -0.123  1.00  0.00     0.031 C 
ATOM     23  C   UNL     1       4.688  -3.909   4.555  1.00  0.00     0.029 A 
ATOM     24  N   UNL     1       6.229  -5.510   4.346  1.00  0.00    -0.354 N 
ATOM     25  C   UNL     1       7.160  -7.176   0.442  1.00  0.00     0.074 A 
ATOM     26  C   UNL     1       6.484  -6.454  -0.613  1.00  0.00     0.031 C 
ATOM     27  C   UNL     1       5.232  -4.088   5.763  1.00  0.00     0.029 A 
ATOM     28  C   UNL     1       6.210  -5.161   5.675  1.00  0.00     0.049 A 
ATOM     29  H   UNL     1       6.796  -6.228   3.982  1.00  0.00     0.167 HD
ATOM     30  C   UNL     1       7.996  -8.225   0.252  1.00  0.00     0.037 A 
ATOM     31  C   UNL     1       6.883  -5.669   6.721  1.00  0.00     0.037 A 
ATOM     32  C   UNL     1       8.688  -8.908   1.317  1.00  0.00     0.049 A 
ATOM     33  C   UNL     1       7.814  -6.814   6.471  1.00  0.00     0.074 A 
ATOM     34  C   UNL     1       9.551  -9.987   1.236  1.00  0.00     0.029 A 
ATOM     35  N   UNL     1       8.603  -8.566   2.660  1.00  0.00    -0.354 N 
ATOM     36  N   UNL     1       8.130  -7.385   5.334  1.00  0.00    -0.248 NA
ATOM     37  C   UNL     1       8.460  -7.405   7.647  1.00  0.00     0.031 C 
ATOM     38  C   UNL     1       9.964 -10.317   2.531  1.00  0.00     0.029 A 
ATOM     39  C   UNL     1       9.392  -9.418   3.417  1.00  0.00     0.049 A 
ATOM     40  H   UNL     1       8.062  -7.827   3.021  1.00  0.00     0.167 HD
ATOM     41  C   UNL     1       8.997  -8.414   5.657  1.00  0.00     0.074 A 
ATOM     42  C   UNL     1       9.198  -8.354   7.092  1.00  0.00     0.031 C 
ATOM     43  C   UNL     1       9.559  -9.342   4.845  1.00  0.00     0.037 A 
BRANCH  30  44
ATOM     44  C   UNL     1       8.197  -8.724  -1.151  1.00  0.00     0.064 A 
ATOM     45  C   UNL     1       8.971  -8.019  -2.084  1.00  0.00     0.173 A 
ATOM     46  C   UNL     1       7.666  -9.963  -1.543  1.00  0.00     0.173 A 
ATOM     47  F   UNL     1       9.487  -6.822  -1.766  1.00  0.00    -0.203 F 
ATOM     48  C   UNL     1       9.198  -8.532  -3.360  1.00  0.00     0.198 A 
ATOM     49  C   UNL     1       7.915 -10.484  -2.811  1.00  0.00     0.198 A 
ATOM     50  F   UNL     1       6.920 -10.679  -0.689  1.00  0.00    -0.203 F 
ATOM     51  F   UNL     1       9.917  -7.827  -4.245  1.00  0.00    -0.200 F 
ATOM     52  C   UNL     1       8.680  -9.768  -3.718  1.00  0.00     0.200 A 
ATOM     53  F   UNL     1       7.420 -11.682  -3.151  1.00  0.00    -0.200 F 
ATOM     54  F   UNL     1       8.912 -10.265  -4.941  1.00  0.00    -0.200 F 
ENDBRANCH  30  44
BRANCH  31  55
ATOM     55  C   UNL     1       6.648  -5.130   8.085  1.00  0.00     0.064 A 
ATOM     56  C   UNL     1       7.660  -4.463   8.788  1.00  0.00     0.173 A 
ATOM     57  C   UNL     1       5.393  -5.248   8.704  1.00  0.00     0.173 A 
ATOM     58  F   UNL     1       8.881  -4.338   8.248  1.00  0.00    -0.203 F 
ATOM     59  C   UNL     1       7.428  -3.944  10.061  1.00  0.00     0.198 A 
ATOM     60  C   UNL     1       5.151  -4.694   9.958  1.00  0.00     0.198 A 
ATOM     61  F   UNL     1       4.388  -5.871   8.072  1.00  0.00    -0.203 F 
ATOM     62  F   UNL     1       8.423  -3.346  10.729  1.00  0.00    -0.200 F 
ATOM     63  C   UNL     1       6.171  -4.051  10.639  1.00  0.00     0.200 A 
ATOM     64  F   UNL     1       3.928  -4.777  10.498  1.00  0.00    -0.200 F 
ATOM     65  F   UNL     1       5.945  -3.536  11.855  1.00  0.00    -0.200 F 
ENDBRANCH  31  55
BRANCH  43  66
ATOM     66  C   UNL     1      10.438 -10.356   5.509  1.00  0.00     0.064 A 
ATOM     67  C   UNL     1       9.897 -11.377   6.306  1.00  0.00     0.173 A 
ATOM     68  C   UNL     1      11.830 -10.299   5.361  1.00  0.00     0.173 A 
ATOM     69  F   UNL     1       8.571 -11.456   6.493  1.00  0.00    -0.203 F 
ATOM     70  C   UNL     1      10.724 -12.283   6.961  1.00  0.00     0.198 A 
ATOM     71  C   UNL     1      12.652 -11.225   5.995  1.00  0.00     0.198 A 
ATOM     72  F   UNL     1      12.392  -9.342   4.606  1.00  0.00    -0.203 F 
ATOM     73  F   UNL     1      10.191 -13.211   7.767  1.00  0.00    -0.200 F 
ATOM     74  C   UNL     1      12.100 -12.209   6.802  1.00  0.00     0.200 A 
ATOM     75  F   UNL     1      13.981 -11.157   5.835  1.00  0.00    -0.200 F 
ATOM     76  F   UNL     1      12.896 -13.077   7.441  1.00  0.00    -0.200 F 
ENDBRANCH  43  66
ENDBRANCH  17  18
ENDBRANCH  10  12
ENDBRANCH   7   8
ENDBRANCH   6   7
ENDBRANCH   5   6
ENDBRANCH   1   5
BRANCH   2  77
ATOM     77  C   UNL     1       6.378   4.384  -4.049  1.00  0.00     0.308 C 
BRANCH  77  78
ATOM     78  C   UNL     1       7.135   3.127  -4.515  1.00  0.00     0.044 A 
ATOM     79  C   UNL     1       6.683   1.850  -4.820  1.00  0.00     0.094 A 
ATOM     80  C   UNL     1       8.578   3.053  -4.672  1.00  0.00     0.011 A 
ATOM     81  N   UNL     1       7.750   1.023  -5.042  1.00  0.00    -0.361 N 
ATOM     82  C   UNL     1       8.918   1.730  -4.962  1.00  0.00     0.046 A 
ATOM     83  C   UNL     1       9.628   3.993  -4.576  1.00  0.00     0.031 A 
ATOM     84  H   UNL     1       7.686   0.059  -5.232  1.00  0.00     0.166 HD
ATOM     85  C   UNL     1      10.235   1.287  -5.131  1.00  0.00     0.028 A 
ATOM     86  C   UNL     1      10.948   3.572  -4.781  1.00  0.00     0.041 A 
ATOM     87  C   UNL     1      11.251   2.239  -5.042  1.00  0.00     0.022 A 
ATOM     88  Cl  UNL     1      12.224   4.728  -4.715  1.00  0.00    -0.084 Cl
ENDBRANCH  77  78
BRANCH  77  89
ATOM     89  N   UNL     1       5.132   4.723  -4.783  1.00  0.00    -0.312 N 
ATOM     90  C   UNL     1       3.998   3.818  -4.784  1.00  0.00     0.325 C 
ATOM     91  C   UNL     1       4.646   6.117  -4.634  1.00  0.00     0.325 C 
ATOM     92  H   UNL     1       5.550   4.587  -5.703  1.00  0.00     0.349 HD
ATOM     93  C   UNL     1       3.051   4.040  -3.595  1.00  0.00     0.324 C 
ATOM     94  C   UNL     1       3.322   6.396  -3.824  1.00  0.00     0.324 C 
ATOM     95  N   UNL     1       2.358   5.304  -3.628  1.00  0.00    -0.324 N 
ATOM     96  H   UNL     1       1.956   5.501  -2.712  1.00  0.00     0.348 HD
BRANCH  95  97
ATOM     97  C   UNL     1       1.081   5.312  -4.340  1.00  0.00     0.283 C 
BRANCH  97  98
ATOM     98  C   UNL     1       0.912   4.574  -5.695  1.00  0.00     0.174 C 
BRANCH  98  99
ATOM     99  N   UNL     1       1.063   3.115  -5.592  1.00  0.00    -0.379 N 
ATOM    100  H   UNL     1       1.066   2.739  -4.682  1.00  0.00     0.160 HD
BRANCH  99 101
ATOM    101  C   UNL     1       1.203   2.211  -6.635  1.00  0.00     0.053 A 
ATOM    102  C   UNL     1       1.063   2.529  -7.929  1.00  0.00     0.120 A 
ATOM    103  C   UNL     1       1.495   0.792  -6.326  1.00  0.00     0.041 A 
ATOM    104  C   UNL     1       1.070   1.548  -9.021  1.00  0.00     0.338 A 
ATOM    105  C   UNL     1       1.353  -0.160  -7.340  1.00  0.00     0.140 A 
ATOM    106  C   UNL     1       1.943   0.330  -5.079  1.00  0.00     0.014 A 
ATOM    107  O   UNL     1       1.016   1.912 -10.190  1.00  0.00    -0.246 OA
ATOM    108  O   UNL     1       1.061   0.213  -8.663  1.00  0.00    -0.423 OA
ATOM    109  C   UNL     1       1.551  -1.526  -7.123  1.00  0.00     0.048 A 
ATOM    110  C   UNL     1       2.181  -1.035  -4.854  1.00  0.00     0.001 A 
ATOM    111  C   UNL     1       1.963  -1.965  -5.869  1.00  0.00     0.004 A 
ENDBRANCH  99 101
ENDBRANCH  98  99
ENDBRANCH  97  98
ENDBRANCH  95  97
ENDBRANCH  77  89
ENDBRANCH   2  77
TORSDOF 16
