REMARK SMILES O=C(CNC(=O)OCC1=Cc2ccccc2S1(=O)=O)NCCCNC(=O)c1ccc(-c2c3nc(c(-c4c(F)c(F)c(F)c(F)c4F)c4ccc([nH]4)c(-c4c(F)c(F)c(F)c(F)c4F)c4nc(c(-c5c(F)c(F)c(F)c(F)c5F)c5ccc2[nH]5)C=C4)C=C3)cc1
REMARK SMILES IDX 21 1 20 2 1 3 2 4 3 6 4 7 5 8 6 10 7 11 8 12 9 13 10 14
REMARK SMILES IDX 17 15 11 16 16 17 18 18 19 19 12 20 15 21 13 22 14 23 22 24
REMARK SMILES IDX 23 25 24 26 25 27 26 29 27 30 28 31 89 32 29 33 88 34 30 35
REMARK SMILES IDX 31 36 32 37 82 38 33 39 87 40 81 41 83 42 34 43 86 44 80 45
REMARK SMILES IDX 79 46 35 48 67 49 47 50 66 51 48 52 51 53 65 54 84 55 49 56
REMARK SMILES IDX 50 57 64 59 85 60 52 61 36 62 37 63 45 64 38 65 39 66 43 67
REMARK SMILES IDX 46 68 40 69 41 70 44 71 42 72 68 73 69 74 77 75 70 76 71 77
REMARK SMILES IDX 75 78 78 79 72 80 73 81 76 82 74 83 53 84 54 85 62 86 55 87
REMARK SMILES IDX 56 88 60 89 63 90 57 91 58 92 61 93 59 94
REMARK H PARENT 20 5 4 9 24 28 83 47 51 58
REMARK Flexibility Score: inf
ROOT
ATOM      1  C   UNL     1       2.055   1.906  -1.540  1.00  0.00     0.117 C 
ENDROOT
BRANCH   1   2
ATOM      2  N   UNL     1       2.718   0.805  -0.878  1.00  0.00    -0.354 N 
ATOM      3  O   UNL     1       1.000   0.256   0.542  1.00  0.00    -0.273 OA
ATOM      4  C   UNL     1       2.103   0.005   0.067  1.00  0.00     0.239 C 
ATOM      5  H   UNL     1       3.655   0.615  -1.113  1.00  0.00     0.163 HD
BRANCH   4   6
ATOM      6  C   UNL     1       2.982  -1.147   0.576  1.00  0.00     0.219 C 
BRANCH   6   7
ATOM      7  N   UNL     1       3.947  -1.515  -0.452  1.00  0.00    -0.312 N 
ATOM      8  C   UNL     1       5.299  -1.508  -0.347  1.00  0.00     0.407 C 
ATOM      9  H   UNL     1       3.577  -1.801  -1.318  1.00  0.00     0.167 HD
ATOM     10  O   UNL     1       6.019  -1.614  -1.331  1.00  0.00    -0.225 OA
BRANCH   8  11
ATOM     11  O   UNL     1       5.736  -1.377   0.927  1.00  0.00    -0.444 OA
BRANCH  11  12
ATOM     12  C   UNL     1       7.155  -1.445   1.098  1.00  0.00     0.283 C 
BRANCH  12  13
ATOM     13  C   UNL     1       7.675  -2.825   1.283  1.00  0.00     0.087 C 
ATOM     14  C   UNL     1       8.965  -3.174   1.461  1.00  0.00     0.029 C 
ATOM     15  S   UNL     1       6.626  -4.215   1.306  1.00  0.00     0.206 S 
ATOM     16  C   UNL     1       9.154  -4.616   1.579  1.00  0.00    -0.005 A 
ATOM     17  C   UNL     1       7.961  -5.326   1.492  1.00  0.00     0.079 A 
ATOM     18  O   UNL     1       5.856  -4.247   2.532  1.00  0.00    -0.219 OA
ATOM     19  O   UNL     1       6.039  -4.465   0.007  1.00  0.00    -0.219 OA
ATOM     20  C   UNL     1      10.344  -5.309   1.726  1.00  0.00     0.009 A 
ATOM     21  C   UNL     1       7.885  -6.707   1.507  1.00  0.00     0.021 A 
ATOM     22  C   UNL     1      10.303  -6.710   1.759  1.00  0.00     0.001 A 
ATOM     23  C   UNL     1       9.085  -7.404   1.642  1.00  0.00     0.001 A 
ENDBRANCH  12  13
ENDBRANCH  11  12
ENDBRANCH   8  11
ENDBRANCH   6   7
ENDBRANCH   4   6
ENDBRANCH   1   2
BRANCH   1  24
ATOM     24  C   UNL     1       2.380   3.260  -0.922  1.00  0.00     0.042 C 
BRANCH  24  25
ATOM     25  C   UNL     1       3.856   3.646  -0.965  1.00  0.00     0.118 C 
BRANCH  25  26
ATOM     26  N   UNL     1       4.383   3.771  -2.316  1.00  0.00    -0.352 N 
ATOM     27  C   UNL     1       5.030   4.808  -2.940  1.00  0.00     0.251 C 
ATOM     28  H   UNL     1       4.253   2.974  -2.879  1.00  0.00     0.163 HD
ATOM     29  O   UNL     1       5.259   4.726  -4.145  1.00  0.00    -0.269 OA
BRANCH  27  30
ATOM     30  C   UNL     1       5.445   6.027  -2.207  1.00  0.00     0.039 A 
ATOM     31  C   UNL     1       5.387   7.255  -2.876  1.00  0.00     0.014 A 
ATOM     32  C   UNL     1       5.955   5.980  -0.907  1.00  0.00     0.014 A 
ATOM     33  C   UNL     1       5.802   8.426  -2.236  1.00  0.00     0.010 A 
ATOM     34  C   UNL     1       6.285   7.160  -0.237  1.00  0.00     0.010 A 
ATOM     35  C   UNL     1       6.235   8.394  -0.901  1.00  0.00    -0.014 A 
BRANCH  35  36
ATOM     36  C   UNL     1       6.673   9.639  -0.213  1.00  0.00     0.031 A 
ATOM     37  C   UNL     1       8.097   9.790   0.257  1.00  0.00     0.074 A 
ATOM     38  C   UNL     1       5.789  10.632   0.006  1.00  0.00     0.049 A 
ATOM     39  N   UNL     1       8.666  10.799   0.871  1.00  0.00    -0.248 NA
ATOM     40  C   UNL     1       8.995   8.648   0.029  1.00  0.00     0.031 C 
ATOM     41  C   UNL     1       4.372  10.597  -0.358  1.00  0.00     0.029 A 
ATOM     42  N   UNL     1       5.951  11.866   0.587  1.00  0.00    -0.354 N 
ATOM     43  C   UNL     1       9.979  10.408   1.107  1.00  0.00     0.074 A 
ATOM     44  C   UNL     1      10.104   9.048   0.632  1.00  0.00     0.031 C 
ATOM     45  C   UNL     1       3.803  11.766  -0.024  1.00  0.00     0.029 A 
ATOM     46  C   UNL     1       4.802  12.619   0.612  1.00  0.00     0.049 A 
ATOM     47  H   UNL     1       6.809  12.181   0.952  1.00  0.00     0.167 HD
ATOM     48  C   UNL     1      10.995  11.126   1.644  1.00  0.00     0.037 A 
ATOM     49  C   UNL     1       4.579  13.858   1.092  1.00  0.00     0.037 A 
ATOM     50  C   UNL     1      10.874  12.485   2.103  1.00  0.00     0.049 A 
ATOM     51  C   UNL     1       5.723  14.630   1.695  1.00  0.00     0.074 A 
ATOM     52  C   UNL     1      11.854  13.313   2.621  1.00  0.00     0.029 A 
ATOM     53  N   UNL     1       9.694  13.216   2.104  1.00  0.00    -0.354 N 
ATOM     54  N   UNL     1       6.976  14.274   1.849  1.00  0.00    -0.248 NA
ATOM     55  C   UNL     1       5.423  15.985   2.178  1.00  0.00     0.031 C 
ATOM     56  C   UNL     1      11.257  14.523   2.991  1.00  0.00     0.029 A 
ATOM     57  C   UNL     1       9.920  14.477   2.634  1.00  0.00     0.049 A 
ATOM     58  H   UNL     1       8.826  12.888   1.776  1.00  0.00     0.167 HD
ATOM     59  C   UNL     1       7.620  15.373   2.405  1.00  0.00     0.074 A 
ATOM     60  C   UNL     1       6.621  16.411   2.548  1.00  0.00     0.031 C 
ATOM     61  C   UNL     1       8.922  15.510   2.760  1.00  0.00     0.037 A 
BRANCH  48  62
ATOM     62  C   UNL     1      12.334  10.451   1.767  1.00  0.00     0.064 A 
ATOM     63  C   UNL     1      13.095  10.107   0.638  1.00  0.00     0.173 A 
ATOM     64  C   UNL     1      12.879  10.173   3.030  1.00  0.00     0.173 A 
ATOM     65  F   UNL     1      12.619  10.339  -0.595  1.00  0.00    -0.203 F 
ATOM     66  C   UNL     1      14.332   9.479   0.769  1.00  0.00     0.198 A 
ATOM     67  C   UNL     1      14.132   9.579   3.158  1.00  0.00     0.198 A 
ATOM     68  F   UNL     1      12.200  10.486   4.144  1.00  0.00    -0.203 F 
ATOM     69  F   UNL     1      15.011   9.105  -0.325  1.00  0.00    -0.200 F 
ATOM     70  C   UNL     1      14.853   9.223   2.028  1.00  0.00     0.200 A 
ATOM     71  F   UNL     1      14.641   9.347   4.375  1.00  0.00    -0.200 F 
ATOM     72  F   UNL     1      16.045   8.624   2.152  1.00  0.00    -0.200 F 
ENDBRANCH  48  62
BRANCH  49  73
ATOM     73  C   UNL     1       3.223  14.462   0.996  1.00  0.00     0.064 A 
ATOM     74  C   UNL     1       2.981  15.569   0.169  1.00  0.00     0.173 A 
ATOM     75  C   UNL     1       2.147  13.962   1.744  1.00  0.00     0.173 A 
ATOM     76  F   UNL     1       3.981  16.098  -0.551  1.00  0.00    -0.203 F 
ATOM     77  C   UNL     1       1.724  16.169   0.117  1.00  0.00     0.198 A 
ATOM     78  C   UNL     1       0.883  14.541   1.665  1.00  0.00     0.198 A 
ATOM     79  F   UNL     1       2.322  12.902   2.547  1.00  0.00    -0.203 F 
ATOM     80  F   UNL     1       1.537  17.262  -0.636  1.00  0.00    -0.200 F 
ATOM     81  C   UNL     1       0.675  15.652   0.861  1.00  0.00     0.200 A 
ATOM     82  F   UNL     1      -0.133  14.028   2.373  1.00  0.00    -0.200 F 
ATOM     83  F   UNL     1      -0.533  16.229   0.811  1.00  0.00    -0.200 F 
ENDBRANCH  49  73
BRANCH  61  84
ATOM     84  C   UNL     1       9.359  16.852   3.278  1.00  0.00     0.064 A 
ATOM     85  C   UNL     1       8.928  17.352   4.516  1.00  0.00     0.173 A 
ATOM     86  C   UNL     1      10.242  17.644   2.526  1.00  0.00     0.173 A 
ATOM     87  F   UNL     1       8.076  16.642   5.271  1.00  0.00    -0.203 F 
ATOM     88  C   UNL     1       9.329  18.610   4.960  1.00  0.00     0.198 A 
ATOM     89  C   UNL     1      10.672  18.883   2.991  1.00  0.00     0.198 A 
ATOM     90  F   UNL     1      10.696  17.212   1.339  1.00  0.00    -0.203 F 
ATOM     91  F   UNL     1       8.850  19.094   6.115  1.00  0.00    -0.200 F 
ATOM     92  C   UNL     1      10.205  19.371   4.202  1.00  0.00     0.200 A 
ATOM     93  F   UNL     1      11.535  19.608   2.265  1.00  0.00    -0.200 F 
ATOM     94  F   UNL     1      10.592  20.579   4.633  1.00  0.00    -0.200 F 
ENDBRANCH  61  84
ENDBRANCH  35  36
ENDBRANCH  27  30
ENDBRANCH  25  26
ENDBRANCH  24  25
ENDBRANCH   1  24
TORSDOF 14
