REMARK SMILES O=C(NCCCNC(=O)c1cnc2ccc(Cl)cc2c1C(F)(F)F)c1ccc(-c2c3nc(c(-c4c(F)c(F)c(F)c(F)c4F)c4ccc([nH]4)c(-c4c(F)c(F)c(F)c(F)c4F)c4nc(c(-c5c(F)c(F)c(F)c(F)c5F)c5ccc2[nH]5)C=C4)C=C3)cc1
REMARK SMILES IDX 4 1 3 2 1 3 2 4 25 6 26 7 87 8 27 9 86 10 28 11 29 12 30 13
REMARK SMILES IDX 80 14 31 15 85 16 79 17 81 18 32 19 84 20 78 21 77 22 33 24
REMARK SMILES IDX 65 25 45 26 64 27 46 28 49 29 63 30 82 31 47 32 48 33 62 35
REMARK SMILES IDX 83 36 50 37 34 38 35 39 43 40 36 41 37 42 41 43 44 44 38 45
REMARK SMILES IDX 39 46 42 47 40 48 66 49 67 50 75 51 68 52 69 53 73 54 76 55
REMARK SMILES IDX 70 56 71 57 74 58 72 59 51 60 52 61 60 62 53 63 54 64 58 65
REMARK SMILES IDX 61 66 55 67 56 68 59 69 57 70 5 71 6 72 7 73 8 74 9 76 10 77
REMARK SMILES IDX 11 78 20 79 12 80 19 81 13 82 18 83 14 84 16 85 15 86 17 87
REMARK SMILES IDX 21 88 22 89 23 90 24 91
REMARK H PARENT 3 5 81 23 49 34 7 75
REMARK Flexibility Score: inf
ROOT
ATOM      1  C   UNL     1       4.616   1.376   0.184  1.00  0.00     0.118 C 
ENDROOT
BRANCH   1   2
ATOM      2  N   UNL     1       3.171   1.188   0.221  1.00  0.00    -0.352 N 
ATOM      3  O   UNL     1       1.193   0.125   0.054  1.00  0.00    -0.269 OA
ATOM      4  C   UNL     1       2.412   0.043   0.164  1.00  0.00     0.251 C 
ATOM      5  H   UNL     1       2.652   2.021   0.302  1.00  0.00     0.163 HD
BRANCH   4   6
ATOM      6  C   UNL     1       3.056  -1.287   0.201  1.00  0.00     0.039 A 
ATOM      7  C   UNL     1       4.122  -1.542   1.062  1.00  0.00     0.014 A 
ATOM      8  C   UNL     1       2.573  -2.307  -0.626  1.00  0.00     0.014 A 
ATOM      9  C   UNL     1       4.828  -2.731   0.955  1.00  0.00     0.010 A 
ATOM     10  C   UNL     1       3.209  -3.553  -0.641  1.00  0.00     0.010 A 
ATOM     11  C   UNL     1       4.368  -3.762   0.121  1.00  0.00    -0.014 A 
BRANCH  11  12
ATOM     12  C   UNL     1       5.085  -5.062   0.126  1.00  0.00     0.031 A 
ATOM     13  C   UNL     1       5.746  -5.596  -1.113  1.00  0.00     0.074 A 
ATOM     14  C   UNL     1       5.170  -5.742   1.286  1.00  0.00     0.049 A 
ATOM     15  N   UNL     1       6.430  -6.703  -1.270  1.00  0.00    -0.248 NA
ATOM     16  C   UNL     1       5.622  -4.793  -2.339  1.00  0.00     0.031 C 
ATOM     17  C   UNL     1       4.557  -5.325   2.551  1.00  0.00     0.029 A 
ATOM     18  N   UNL     1       5.823  -6.905   1.604  1.00  0.00    -0.354 N 
ATOM     19  C   UNL     1       6.794  -6.741  -2.610  1.00  0.00     0.074 A 
ATOM     20  C   UNL     1       6.239  -5.557  -3.230  1.00  0.00     0.031 C 
ATOM     21  C   UNL     1       4.912  -6.182   3.517  1.00  0.00     0.029 A 
ATOM     22  C   UNL     1       5.711  -7.250   2.929  1.00  0.00     0.049 A 
ATOM     23  H   UNL     1       6.323  -7.440   0.947  1.00  0.00     0.167 HD
ATOM     24  C   UNL     1       7.530  -7.678  -3.256  1.00  0.00     0.037 A 
ATOM     25  C   UNL     1       6.181  -8.319   3.597  1.00  0.00     0.037 A 
ATOM     26  C   UNL     1       8.097  -8.842  -2.624  1.00  0.00     0.049 A 
ATOM     27  C   UNL     1       6.978  -9.346   2.849  1.00  0.00     0.074 A 
ATOM     28  C   UNL     1       8.885  -9.832  -3.186  1.00  0.00     0.029 A 
ATOM     29  N   UNL     1       7.934  -9.175  -1.287  1.00  0.00    -0.354 N 
ATOM     30  N   UNL     1       7.335  -9.357   1.588  1.00  0.00    -0.248 NA
ATOM     31  C   UNL     1       7.432 -10.513   3.615  1.00  0.00     0.031 C 
ATOM     32  C   UNL     1       9.161 -10.786  -2.201  1.00  0.00     0.029 A 
ATOM     33  C   UNL     1       8.588 -10.366  -1.012  1.00  0.00     0.049 A 
ATOM     34  H   UNL     1       7.428  -8.643  -0.630  1.00  0.00     0.167 HD
ATOM     35  C   UNL     1       8.065 -10.522   1.410  1.00  0.00     0.074 A 
ATOM     36  C   UNL     1       8.121 -11.180   2.699  1.00  0.00     0.031 C 
ATOM     37  C   UNL     1       8.633 -11.005   0.279  1.00  0.00     0.037 A 
BRANCH  24  38
ATOM     38  C   UNL     1       7.753  -7.498  -4.731  1.00  0.00     0.064 A 
ATOM     39  C   UNL     1       8.614  -6.510  -5.233  1.00  0.00     0.173 A 
ATOM     40  C   UNL     1       7.142  -8.364  -5.651  1.00  0.00     0.173 A 
ATOM     41  F   UNL     1       9.215  -5.650  -4.398  1.00  0.00    -0.203 F 
ATOM     42  C   UNL     1       8.837  -6.383  -6.603  1.00  0.00     0.198 A 
ATOM     43  C   UNL     1       7.388  -8.251  -7.017  1.00  0.00     0.198 A 
ATOM     44  F   UNL     1       6.315  -9.330  -5.224  1.00  0.00    -0.203 F 
ATOM     45  F   UNL     1       9.633  -5.408  -7.063  1.00  0.00    -0.200 F 
ATOM     46  C   UNL     1       8.231  -7.258  -7.492  1.00  0.00     0.200 A 
ATOM     47  F   UNL     1       6.811  -9.105  -7.874  1.00  0.00    -0.200 F 
ATOM     48  F   UNL     1       8.455  -7.141  -8.809  1.00  0.00    -0.200 F 
ENDBRANCH  24  38
BRANCH  25  49
ATOM     49  C   UNL     1       5.893  -8.466   5.046  1.00  0.00     0.064 A 
ATOM     50  C   UNL     1       6.913  -8.358   6.000  1.00  0.00     0.173 A 
ATOM     51  C   UNL     1       4.588  -8.694   5.508  1.00  0.00     0.173 A 
ATOM     52  F   UNL     1       8.179  -8.157   5.607  1.00  0.00    -0.203 F 
ATOM     53  C   UNL     1       6.640  -8.486   7.361  1.00  0.00     0.198 A 
ATOM     54  C   UNL     1       4.311  -8.790   6.869  1.00  0.00     0.198 A 
ATOM     55  F   UNL     1       3.575  -8.797   4.634  1.00  0.00    -0.203 F 
ATOM     56  F   UNL     1       7.639  -8.418   8.251  1.00  0.00    -0.200 F 
ATOM     57  C   UNL     1       5.339  -8.694   7.794  1.00  0.00     0.200 A 
ATOM     58  F   UNL     1       3.050  -8.970   7.283  1.00  0.00    -0.200 F 
ATOM     59  F   UNL     1       5.076  -8.805   9.103  1.00  0.00    -0.200 F 
ENDBRANCH  25  49
BRANCH  37  60
ATOM     60  C   UNL     1       9.386 -12.297   0.396  1.00  0.00     0.064 A 
ATOM     61  C   UNL     1       8.723 -13.520   0.569  1.00  0.00     0.173 A 
ATOM     62  C   UNL     1      10.786 -12.312   0.312  1.00  0.00     0.173 A 
ATOM     63  F   UNL     1       7.386 -13.554   0.674  1.00  0.00    -0.203 F 
ATOM     64  C   UNL     1       9.437 -14.710   0.680  1.00  0.00     0.198 A 
ATOM     65  C   UNL     1      11.495 -13.507   0.394  1.00  0.00     0.198 A 
ATOM     66  F   UNL     1      11.466 -11.168   0.143  1.00  0.00    -0.203 F 
ATOM     67  F   UNL     1       8.786 -15.862   0.895  1.00  0.00    -0.200 F 
ATOM     68  C   UNL     1      10.820 -14.703   0.586  1.00  0.00     0.200 A 
ATOM     69  F   UNL     1      12.831 -13.500   0.293  1.00  0.00    -0.200 F 
ATOM     70  F   UNL     1      11.506 -15.850   0.690  1.00  0.00    -0.200 F 
ENDBRANCH  37  60
ENDBRANCH  11  12
ENDBRANCH   4   6
ENDBRANCH   1   2
BRANCH   1  71
ATOM     71  C   UNL     1       5.113   1.976  -1.123  1.00  0.00     0.042 C 
BRANCH  71  72
ATOM     72  C   UNL     1       4.623   3.391  -1.379  1.00  0.00     0.118 C 
BRANCH  72  73
ATOM     73  N   UNL     1       5.020   4.323  -0.336  1.00  0.00    -0.352 N 
ATOM     74  C   UNL     1       5.607   5.556  -0.425  1.00  0.00     0.253 C 
ATOM     75  H   UNL     1       4.838   4.018   0.583  1.00  0.00     0.163 HD
ATOM     76  O   UNL     1       5.918   6.173   0.584  1.00  0.00    -0.269 OA
BRANCH  74  77
ATOM     77  C   UNL     1       5.919   6.131  -1.740  1.00  0.00     0.070 A 
ATOM     78  C   UNL     1       7.250   6.433  -1.966  1.00  0.00     0.126 A 
ATOM     79  C   UNL     1       4.982   6.407  -2.744  1.00  0.00     0.079 A 
ATOM     80  N   UNL     1       7.718   6.922  -3.134  1.00  0.00    -0.255 NA
ATOM     81  C   UNL     1       5.462   6.853  -4.009  1.00  0.00     0.015 A 
ATOM     82  C   UNL     1       6.849   7.113  -4.133  1.00  0.00     0.071 A 
ATOM     83  C   UNL     1       4.642   7.042  -5.149  1.00  0.00     0.031 A 
ATOM     84  C   UNL     1       7.349   7.585  -5.339  1.00  0.00     0.030 A 
ATOM     85  C   UNL     1       5.176   7.498  -6.353  1.00  0.00     0.041 A 
ATOM     86  C   UNL     1       6.528   7.784  -6.450  1.00  0.00     0.023 A 
ATOM     87  Cl  UNL     1       4.155   7.702  -7.721  1.00  0.00    -0.084 Cl
BRANCH  79  88
ATOM     88  C   UNL     1       3.505   6.243  -2.499  1.00  0.00     0.417 C 
ATOM     89  F   UNL     1       3.012   5.136  -3.124  1.00  0.00    -0.166 F 
ATOM     90  F   UNL     1       3.138   6.127  -1.196  1.00  0.00    -0.166 F 
ATOM     91  F   UNL     1       2.771   7.288  -2.974  1.00  0.00    -0.166 F 
ENDBRANCH  79  88
ENDBRANCH  74  77
ENDBRANCH  72  73
ENDBRANCH  71  72
ENDBRANCH   1  71
TORSDOF 11
