REMARK SMILES CC(C)C(=O)Nc1ccc2c([C@@H](C(=O)NCCCNC(=O)c3ccc(-c4c5nc(c(-c6c(F)c(F)c(F)c(F)c6F)c6ccc([nH]6)c(-c6c(F)c(F)c(F)c(F)c6F)c6nc(c(-c7c(F)c(F)c(F)c(F)c7F)c7ccc4[nH]7)C=C6)C=C5)cc3)[NH+]3CC[NH+](Cc4ccccc4)CC3)c[nH]c2c1
REMARK SMILES IDX 16 1 15 2 13 3 14 4 12 6 11 7 7 8 8 9 101 10 9 11 100 12
REMARK SMILES IDX 10 13 99 14 98 15 6 17 4 18 5 19 2 21 1 22 3 23 85 24 86 25
REMARK SMILES IDX 97 26 87 28 96 29 88 30 89 32 90 33 91 34 95 35 92 36 94 37
REMARK SMILES IDX 93 38 17 39 18 40 19 41 20 42 21 44 22 45 23 46 84 47 24 48
REMARK SMILES IDX 83 49 25 50 26 51 27 52 77 53 28 54 82 55 76 56 78 57 29 58
REMARK SMILES IDX 81 59 75 60 74 61 30 63 62 64 42 65 61 66 43 67 46 68 60 69
REMARK SMILES IDX 79 70 44 71 45 72 59 74 80 75 47 76 31 77 32 78 40 79 33 80
REMARK SMILES IDX 34 81 38 82 41 83 35 84 36 85 39 86 37 87 63 88 64 89 72 90
REMARK SMILES IDX 65 91 66 92 70 93 73 94 67 95 68 96 71 97 69 98 48 99 49 100
REMARK SMILES IDX 57 101 50 102 51 103 55 104 58 105 52 106 53 107 56 108
REMARK SMILES IDX 54 109
REMARK H PARENT 15 5 99 16 6 20 85 27 88 31 19 43 78 62 46 73
REMARK Flexibility Score: inf
ROOT
ATOM      1  C   UNL     1       0.524   5.205  -3.917  1.00  0.00     0.118 C 
ENDROOT
BRANCH   1   2
ATOM      2  N   UNL     1       1.265   6.425  -3.674  1.00  0.00    -0.351 N 
ATOM      3  C   UNL     1       1.887   6.863  -2.533  1.00  0.00     0.283 C 
ATOM      4  O   UNL     1       2.358   8.004  -2.593  1.00  0.00    -0.268 OA
ATOM      5  H   UNL     1       1.333   7.033  -4.445  1.00  0.00     0.163 HD
BRANCH   3   6
ATOM      6  C   UNL     1       2.032   5.910  -1.307  1.00  0.00     0.308 C 
BRANCH   6   7
ATOM      7  C   UNL     1       0.732   5.580  -0.619  1.00  0.00     0.044 A 
ATOM      8  C   UNL     1      -1.101   1.956   0.446  1.00  0.00     0.043 A 
ATOM      9  C   UNL     1      -0.117   1.871  -0.527  1.00  0.00     0.027 A 
ATOM     10  C   UNL     1      -1.589   3.203   0.850  1.00  0.00     0.052 A 
ATOM     11  C   UNL     1       0.588   2.997  -0.937  1.00  0.00     0.013 A 
ATOM     12  C   UNL     1      -0.912   4.339   0.378  1.00  0.00     0.048 A 
ATOM     13  C   UNL     1       0.206   4.257  -0.451  1.00  0.00     0.009 A 
ATOM     14  N   UNL     1      -1.132   5.675   0.614  1.00  0.00    -0.361 N 
ATOM     15  C   UNL     1      -0.195   6.429  -0.040  1.00  0.00     0.094 A 
ATOM     16  H   UNL     1      -1.858   6.037   1.173  1.00  0.00     0.166 HD
BRANCH   8  17
ATOM     17  N   UNL     1      -1.641   0.800   1.015  1.00  0.00    -0.326 N 
ATOM     18  C   UNL     1      -1.036  -0.377   1.360  1.00  0.00     0.226 C 
ATOM     19  O   UNL     1      -1.771  -1.345   1.590  1.00  0.00    -0.274 OA
ATOM     20  H   UNL     1      -2.608   0.840   1.196  1.00  0.00     0.169 HD
BRANCH  18  21
ATOM     21  C   UNL     1       0.483  -0.511   1.594  1.00  0.00     0.072 C 
ATOM     22  C   UNL     1       1.339  -0.774   0.361  1.00  0.00     0.018 C 
ATOM     23  C   UNL     1       1.067   0.583   2.488  1.00  0.00     0.018 C 
ENDBRANCH  18  21
ENDBRANCH   8  17
ENDBRANCH   6   7
BRANCH   6  24
ATOM     24  N   UNL     1       3.050   6.385  -0.351  1.00  0.00    -0.312 N 
ATOM     25  C   UNL     1       2.815   7.667   0.314  1.00  0.00     0.325 C 
ATOM     26  C   UNL     1       3.634   5.373   0.532  1.00  0.00     0.325 C 
ATOM     27  H   UNL     1       3.789   6.608  -1.018  1.00  0.00     0.349 HD
ATOM     28  C   UNL     1       2.368   7.634   1.799  1.00  0.00     0.324 C 
ATOM     29  C   UNL     1       3.105   5.336   1.985  1.00  0.00     0.324 C 
ATOM     30  N   UNL     1       2.976   6.626   2.668  1.00  0.00    -0.322 N 
ATOM     31  H   UNL     1       2.315   6.461   3.427  1.00  0.00     0.348 HD
BRANCH  30  32
ATOM     32  C   UNL     1       4.140   7.078   3.434  1.00  0.00     0.299 C 
BRANCH  32  33
ATOM     33  C   UNL     1       5.389   7.418   2.657  1.00  0.00     0.006 A 
ATOM     34  C   UNL     1       6.408   6.468   2.499  1.00  0.00     0.009 A 
ATOM     35  C   UNL     1       5.537   8.672   2.049  1.00  0.00     0.009 A 
ATOM     36  C   UNL     1       7.508   6.741   1.685  1.00  0.00     0.001 A 
ATOM     37  C   UNL     1       6.624   8.935   1.216  1.00  0.00     0.001 A 
ATOM     38  C   UNL     1       7.604   7.965   1.026  1.00  0.00     0.000 A 
ENDBRANCH  32  33
ENDBRANCH  30  32
ENDBRANCH   6  24
ENDBRANCH   3   6
ENDBRANCH   1   2
BRANCH   1  39
ATOM     39  C   UNL     1      -0.963   5.367  -3.616  1.00  0.00     0.042 C 
BRANCH  39  40
ATOM     40  C   UNL     1      -1.639   6.437  -4.460  1.00  0.00     0.118 C 
BRANCH  40  41
ATOM     41  N   UNL     1      -1.697   6.062  -5.864  1.00  0.00    -0.352 N 
ATOM     42  C   UNL     1      -2.787   5.782  -6.643  1.00  0.00     0.251 C 
ATOM     43  H   UNL     1      -0.827   6.000  -6.320  1.00  0.00     0.163 HD
ATOM     44  O   UNL     1      -2.632   5.225  -7.732  1.00  0.00    -0.269 OA
BRANCH  42  45
ATOM     45  C   UNL     1      -4.146   6.137  -6.186  1.00  0.00     0.039 A 
ATOM     46  C   UNL     1      -5.195   5.247  -6.429  1.00  0.00     0.014 A 
ATOM     47  C   UNL     1      -4.397   7.362  -5.560  1.00  0.00     0.014 A 
ATOM     48  C   UNL     1      -6.486   5.567  -6.008  1.00  0.00     0.010 A 
ATOM     49  C   UNL     1      -5.667   7.643  -5.067  1.00  0.00     0.010 A 
ATOM     50  C   UNL     1      -6.728   6.756  -5.302  1.00  0.00    -0.014 A 
BRANCH  50  51
ATOM     51  C   UNL     1      -8.089   7.105  -4.827  1.00  0.00     0.031 A 
ATOM     52  C   UNL     1      -8.791   8.316  -5.377  1.00  0.00     0.074 A 
ATOM     53  C   UNL     1      -8.667   6.365  -3.862  1.00  0.00     0.049 A 
ATOM     54  N   UNL     1      -9.951   8.823  -5.045  1.00  0.00    -0.248 NA
ATOM     55  C   UNL     1      -8.081   9.076  -6.418  1.00  0.00     0.031 C 
ATOM     56  C   UNL     1      -8.064   5.197  -3.218  1.00  0.00     0.029 A 
ATOM     57  N   UNL     1      -9.887   6.491  -3.247  1.00  0.00    -0.354 N 
ATOM     58  C   UNL     1     -10.100   9.965  -5.822  1.00  0.00     0.074 A 
ATOM     59  C   UNL     1      -8.890  10.108  -6.601  1.00  0.00     0.031 C 
ATOM     60  C   UNL     1      -8.926   4.699  -2.316  1.00  0.00     0.029 A 
ATOM     61  C   UNL     1     -10.123   5.533  -2.292  1.00  0.00     0.049 A 
ATOM     62  H   UNL     1     -10.531   7.201  -3.470  1.00  0.00     0.167 HD
ATOM     63  C   UNL     1     -11.161  10.803  -5.897  1.00  0.00     0.037 A 
ATOM     64  C   UNL     1     -11.186   5.353  -1.486  1.00  0.00     0.037 A 
ATOM     65  C   UNL     1     -12.375  10.637  -5.142  1.00  0.00     0.049 A 
ATOM     66  C   UNL     1     -12.355   6.294  -1.594  1.00  0.00     0.074 A 
ATOM     67  C   UNL     1     -13.532  11.394  -5.190  1.00  0.00     0.029 A 
ATOM     68  N   UNL     1     -12.587   9.640  -4.201  1.00  0.00    -0.354 N 
ATOM     69  N   UNL     1     -12.512   7.332  -2.379  1.00  0.00    -0.248 NA
ATOM     70  C   UNL     1     -13.498   6.034  -0.708  1.00  0.00     0.031 C 
ATOM     71  C   UNL     1     -14.429  10.881  -4.247  1.00  0.00     0.029 A 
ATOM     72  C   UNL     1     -13.850   9.775  -3.646  1.00  0.00     0.049 A 
ATOM     73  H   UNL     1     -11.937   8.941  -3.962  1.00  0.00     0.167 HD
ATOM     74  C   UNL     1     -13.777   7.832  -2.103  1.00  0.00     0.074 A 
ATOM     75  C   UNL     1     -14.352   6.974  -1.088  1.00  0.00     0.031 C 
ATOM     76  C   UNL     1     -14.406   8.906  -2.641  1.00  0.00     0.037 A 
BRANCH  63  77
ATOM     77  C   UNL     1     -11.058  11.972  -6.834  1.00  0.00     0.064 A 
ATOM     78  C   UNL     1     -11.060  11.801  -8.227  1.00  0.00     0.173 A 
ATOM     79  C   UNL     1     -10.988  13.281  -6.335  1.00  0.00     0.173 A 
ATOM     80  F   UNL     1     -11.113  10.569  -8.756  1.00  0.00    -0.203 F 
ATOM     81  C   UNL     1     -10.966  12.895  -9.084  1.00  0.00     0.198 A 
ATOM     82  C   UNL     1     -10.926  14.375  -7.195  1.00  0.00     0.198 A 
ATOM     83  F   UNL     1     -10.988  13.502  -5.011  1.00  0.00    -0.203 F 
ATOM     84  F   UNL     1     -10.919  12.703 -10.409  1.00  0.00    -0.200 F 
ATOM     85  C   UNL     1     -10.906  14.180  -8.568  1.00  0.00     0.200 A 
ATOM     86  F   UNL     1     -10.881  15.617  -6.695  1.00  0.00    -0.200 F 
ATOM     87  F   UNL     1     -10.823  15.232  -9.394  1.00  0.00    -0.200 F 
ENDBRANCH  63  77
BRANCH  64  88
ATOM     88  C   UNL     1     -11.205   4.218  -0.528  1.00  0.00     0.064 A 
ATOM     89  C   UNL     1     -12.070   3.131  -0.717  1.00  0.00     0.173 A 
ATOM     90  C   UNL     1     -10.361   4.193   0.592  1.00  0.00     0.173 A 
ATOM     91  F   UNL     1     -12.909   3.118  -1.763  1.00  0.00    -0.203 F 
ATOM     92  C   UNL     1     -12.105   2.072   0.189  1.00  0.00     0.198 A 
ATOM     93  C   UNL     1     -10.377   3.121   1.482  1.00  0.00     0.198 A 
ATOM     94  F   UNL     1      -9.510   5.205   0.815  1.00  0.00    -0.203 F 
ATOM     95  F   UNL     1     -12.973   1.068   0.008  1.00  0.00    -0.200 F 
ATOM     96  C   UNL     1     -11.255   2.066   1.284  1.00  0.00     0.200 A 
ATOM     97  F   UNL     1      -9.543   3.111   2.530  1.00  0.00    -0.200 F 
ATOM     98  F   UNL     1     -11.286   1.046   2.153  1.00  0.00    -0.200 F 
ENDBRANCH  64  88
BRANCH  76  99
ATOM     99  C   UNL     1     -15.799   9.194  -2.164  1.00  0.00     0.064 A 
ATOM    100  C   UNL     1     -16.047   9.708  -0.883  1.00  0.00     0.173 A 
ATOM    101  C   UNL     1     -16.896   8.988  -3.015  1.00  0.00     0.173 A 
ATOM    102  F   UNL     1     -15.033   9.907  -0.028  1.00  0.00    -0.203 F 
ATOM    103  C   UNL     1     -17.345   9.982  -0.462  1.00  0.00     0.198 A 
ATOM    104  C   UNL     1     -18.190   9.291  -2.601  1.00  0.00     0.198 A 
ATOM    105  F   UNL     1     -16.711   8.504  -4.252  1.00  0.00    -0.203 F 
ATOM    106  F   UNL     1     -17.563  10.428   0.783  1.00  0.00    -0.200 F 
ATOM    107  C   UNL     1     -18.414   9.780  -1.323  1.00  0.00     0.200 A 
ATOM    108  F   UNL     1     -19.220   9.108  -3.438  1.00  0.00    -0.200 F 
ATOM    109  F   UNL     1     -19.662  10.051  -0.918  1.00  0.00    -0.200 F 
ENDBRANCH  76  99
ENDBRANCH  50  51
ENDBRANCH  42  45
ENDBRANCH  40  41
ENDBRANCH  39  40
ENDBRANCH   1  39
TORSDOF 16
