REMARK SMILES O=C(NCCCNC(=O)[C@@H](Cc1cccc(F)c1)[C@H]1CCCCC[C@@H]1O)c1ccc(-c2c3nc(c(-c4c(F)c(F)c(F)c(F)c4F)c4ccc([nH]4)c(-c4c(F)c(F)c(F)c(F)c4F)c4nc(c(-c5c(F)c(F)c(F)c(F)c5F)c5ccc2[nH]5)C=C4)C=C3)cc1
REMARK SMILES IDX 6 1 5 2 4 3 3 4 1 5 2 6 27 8 28 9 89 10 29 11 88 12 30 13
REMARK SMILES IDX 31 14 32 15 82 16 33 17 87 18 81 19 83 20 34 21 86 22 80 23
REMARK SMILES IDX 79 24 35 26 67 27 47 28 66 29 48 30 51 31 65 32 84 33 49 34
REMARK SMILES IDX 50 35 64 37 85 38 52 39 36 40 37 41 45 42 38 43 39 44 43 45
REMARK SMILES IDX 46 46 40 47 41 48 44 49 42 50 68 51 69 52 77 53 70 54 71 55
REMARK SMILES IDX 75 56 78 57 72 58 73 59 76 60 74 61 53 62 54 63 62 64 55 65
REMARK SMILES IDX 56 66 60 67 63 68 57 69 58 70 61 71 59 72 7 73 8 74 9 76
REMARK SMILES IDX 10 77 11 78 12 79 13 80 18 81 14 82 16 83 15 84 17 85 19 86
REMARK SMILES IDX 20 87 21 88 22 89 25 91 24 92 23 93 26 95
REMARK H PARENT 3 7 83 25 51 36 7 75 26 96
REMARK Flexibility Score: 90.00
ROOT
ATOM      1  C   UNL     1       4.162  -2.000  -2.807  1.00  0.00     0.117 C 
ENDROOT
BRANCH   1   2
ATOM      2  C   UNL     1       4.252  -1.072  -1.600  1.00  0.00     0.042 C 
BRANCH   2   3
ATOM      3  C   UNL     1       3.635   0.291  -1.887  1.00  0.00     0.118 C 
BRANCH   3   4
ATOM      4  N   UNL     1       2.331   0.443  -1.265  1.00  0.00    -0.352 N 
ATOM      5  O   UNL     1       0.725   0.506   0.276  1.00  0.00    -0.269 OA
ATOM      6  C   UNL     1       1.935   0.597   0.039  1.00  0.00     0.251 C 
ATOM      7  H   UNL     1       1.585   0.434  -1.906  1.00  0.00     0.163 HD
BRANCH   6   8
ATOM      8  C   UNL     1       2.866   0.842   1.176  1.00  0.00     0.039 A 
ATOM      9  C   UNL     1       4.090   1.496   1.049  1.00  0.00     0.014 A 
ATOM     10  C   UNL     1       2.429   0.500   2.467  1.00  0.00     0.014 A 
ATOM     11  C   UNL     1       4.895   1.732   2.166  1.00  0.00     0.010 A 
ATOM     12  C   UNL     1       3.191   0.824   3.600  1.00  0.00     0.010 A 
ATOM     13  C   UNL     1       4.438   1.444   3.460  1.00  0.00    -0.014 A 
BRANCH  13  14
ATOM     14  C   UNL     1       5.237   1.893   4.634  1.00  0.00     0.031 A 
ATOM     15  C   UNL     1       5.814   0.913   5.614  1.00  0.00     0.074 A 
ATOM     16  C   UNL     1       5.471   3.212   4.797  1.00  0.00     0.049 A 
ATOM     17  N   UNL     1       6.559   1.143   6.668  1.00  0.00    -0.248 NA
ATOM     18  C   UNL     1       5.507  -0.507   5.396  1.00  0.00     0.031 C 
ATOM     19  C   UNL     1       4.946   4.271   3.932  1.00  0.00     0.029 A 
ATOM     20  N   UNL     1       6.229   3.889   5.721  1.00  0.00    -0.354 N 
ATOM     21  C   UNL     1       6.798  -0.097   7.244  1.00  0.00     0.074 A 
ATOM     22  C   UNL     1       6.090  -1.075   6.444  1.00  0.00     0.031 C 
ATOM     23  C   UNL     1       5.455   5.449   4.317  1.00  0.00     0.029 A 
ATOM     24  C   UNL     1       6.290   5.243   5.496  1.00  0.00     0.049 A 
ATOM     25  H   UNL     1       6.685   3.446   6.473  1.00  0.00     0.167 HD
ATOM     26  C   UNL     1       7.552  -0.394   8.330  1.00  0.00     0.037 A 
ATOM     27  C   UNL     1       6.941   6.217   6.161  1.00  0.00     0.037 A 
ATOM     28  C   UNL     1       8.273   0.577   9.115  1.00  0.00     0.049 A 
ATOM     29  C   UNL     1       7.763   5.863   7.365  1.00  0.00     0.074 A 
ATOM     30  C   UNL     1       9.079   0.364  10.221  1.00  0.00     0.029 A 
ATOM     31  N   UNL     1       8.280   1.943   8.875  1.00  0.00    -0.354 N 
ATOM     32  N   UNL     1       7.989   4.684   7.891  1.00  0.00    -0.248 NA
ATOM     33  C   UNL     1       8.414   6.973   8.074  1.00  0.00     0.031 C 
ATOM     34  C   UNL     1       9.540   1.603  10.674  1.00  0.00     0.029 A 
ATOM     35  C   UNL     1       9.064   2.586   9.822  1.00  0.00     0.049 A 
ATOM     36  H   UNL     1       7.800   2.390   8.141  1.00  0.00     0.167 HD
ATOM     37  C   UNL     1       8.812   4.906   8.985  1.00  0.00     0.074 A 
ATOM     38  C   UNL     1       9.064   6.332   9.037  1.00  0.00     0.031 C 
ATOM     39  C   UNL     1       9.307   4.006   9.868  1.00  0.00     0.037 A 
BRANCH  26  40
ATOM     40  C   UNL     1       7.638  -1.835   8.745  1.00  0.00     0.064 A 
ATOM     41  C   UNL     1       7.033  -2.271   9.934  1.00  0.00     0.173 A 
ATOM     42  C   UNL     1       8.368  -2.771   7.999  1.00  0.00     0.173 A 
ATOM     43  F   UNL     1       6.331  -1.414  10.691  1.00  0.00    -0.203 F 
ATOM     44  C   UNL     1       7.160  -3.590  10.361  1.00  0.00     0.198 A 
ATOM     45  C   UNL     1       8.470  -4.097   8.415  1.00  0.00     0.198 A 
ATOM     46  F   UNL     1       8.958  -2.407   6.850  1.00  0.00    -0.203 F 
ATOM     47  F   UNL     1       6.596  -3.978  11.514  1.00  0.00    -0.200 F 
ATOM     48  C   UNL     1       7.873  -4.503   9.599  1.00  0.00     0.200 A 
ATOM     49  F   UNL     1       9.139  -4.983   7.665  1.00  0.00    -0.200 F 
ATOM     50  F   UNL     1       7.982  -5.776  10.003  1.00  0.00    -0.200 F 
ENDBRANCH  26  40
BRANCH  27  51
ATOM     51  C   UNL     1       6.852   7.616   5.670  1.00  0.00     0.064 A 
ATOM     52  C   UNL     1       5.655   8.342   5.750  1.00  0.00     0.173 A 
ATOM     53  C   UNL     1       7.951   8.233   5.058  1.00  0.00     0.173 A 
ATOM     54  F   UNL     1       4.574   7.793   6.324  1.00  0.00    -0.203 F 
ATOM     55  C   UNL     1       5.552   9.621   5.207  1.00  0.00     0.198 A 
ATOM     56  C   UNL     1       7.854   9.523   4.539  1.00  0.00     0.198 A 
ATOM     57  F   UNL     1       9.123   7.586   4.976  1.00  0.00    -0.203 F 
ATOM     58  F   UNL     1       4.383  10.274   5.256  1.00  0.00    -0.200 F 
ATOM     59  C   UNL     1       6.652  10.210   4.603  1.00  0.00     0.200 A 
ATOM     60  F   UNL     1       8.925  10.098   3.974  1.00  0.00    -0.200 F 
ATOM     61  F   UNL     1       6.552  11.441   4.082  1.00  0.00    -0.200 F 
ENDBRANCH  27  51
BRANCH  39  62
ATOM     62  C   UNL     1      10.187   4.527  10.966  1.00  0.00     0.064 A 
ATOM     63  C   UNL     1      11.564   4.255  10.963  1.00  0.00     0.173 A 
ATOM     64  C   UNL     1       9.659   5.240  12.051  1.00  0.00     0.173 A 
ATOM     65  F   UNL     1      12.116   3.572   9.950  1.00  0.00    -0.203 F 
ATOM     66  C   UNL     1      12.377   4.670  12.014  1.00  0.00     0.198 A 
ATOM     67  C   UNL     1      10.480   5.676  13.088  1.00  0.00     0.198 A 
ATOM     68  F   UNL     1       8.351   5.537  12.092  1.00  0.00    -0.203 F 
ATOM     69  F   UNL     1      13.685   4.375  12.004  1.00  0.00    -0.200 F 
ATOM     70  C   UNL     1      11.836   5.383  13.073  1.00  0.00     0.200 A 
ATOM     71  F   UNL     1       9.961   6.385  14.099  1.00  0.00    -0.200 F 
ATOM     72  F   UNL     1      12.623   5.791  14.078  1.00  0.00    -0.200 F 
ENDBRANCH  39  62
ENDBRANCH  13  14
ENDBRANCH   6   8
ENDBRANCH   3   4
ENDBRANCH   2   3
ENDBRANCH   1   2
BRANCH   1  73
ATOM     73  N   UNL     1       5.248  -1.750  -3.740  1.00  0.00    -0.356 N 
ATOM     74  C   UNL     1       6.092  -2.587  -4.392  1.00  0.00     0.223 C 
ATOM     75  H   UNL     1       5.398  -0.797  -3.934  1.00  0.00     0.163 HD
ATOM     76  O   UNL     1       6.962  -2.056  -5.091  1.00  0.00    -0.275 OA
BRANCH  74  77
ATOM     77  C   UNL     1       6.034  -4.114  -4.293  1.00  0.00     0.088 C 
BRANCH  77  78
ATOM     78  C   UNL     1       6.859  -4.609  -3.076  1.00  0.00     0.049 C 
BRANCH  78  79
ATOM     79  C   UNL     1       6.348  -4.338  -1.682  1.00  0.00    -0.044 A 
ATOM     80  C   UNL     1       5.333  -5.122  -1.112  1.00  0.00     0.004 A 
ATOM     81  C   UNL     1       6.902  -3.300  -0.917  1.00  0.00     0.043 A 
ATOM     82  C   UNL     1       4.853  -4.846   0.173  1.00  0.00     0.003 A 
ATOM     83  C   UNL     1       6.423  -3.040   0.364  1.00  0.00     0.123 A 
ATOM     84  C   UNL     1       5.396  -3.797   0.912  1.00  0.00     0.039 A 
ATOM     85  F   UNL     1       6.935  -2.019   1.065  1.00  0.00    -0.207 F 
ENDBRANCH  78  79
ENDBRANCH  77  78
BRANCH  77  86
ATOM     86  C   UNL     1       4.641  -4.769  -4.561  1.00  0.00     0.030 C 
BRANCH  86  87
ATOM     87  C   UNL     1       3.827  -4.062  -5.681  1.00  0.00     0.007 C 
BRANCH  87  88
ATOM     88  C   UNL     1       4.509  -3.981  -7.045  1.00  0.00     0.000 C 
BRANCH  88  89
ATOM     89  C   UNL     1       4.222  -5.158  -7.968  1.00  0.00     0.000 CG0
ATOM     90  G   UNL     1       4.112  -6.526  -7.304  1.00  0.00     0.000 G0
ENDBRANCH  88  89
ENDBRANCH  87  88
ENDBRANCH  86  87
BRANCH  86  91
ATOM     91  C   UNL     1       4.747  -6.299  -4.795  1.00  0.00     0.118 C 
BRANCH  91  92
ATOM     92  C   UNL     1       5.136  -6.786  -6.199  1.00  0.00     0.032 C 
BRANCH  92  93
ATOM     93  C   UNL     1       4.112  -6.526  -7.304  1.00  0.00     0.003 CG0
ATOM     94  G   UNL     1       4.222  -5.158  -7.968  1.00  0.00     0.000 G0
ENDBRANCH  92  93
ENDBRANCH  91  92
BRANCH  91  95
ATOM     95  O   UNL     1       3.521  -6.919  -4.389  1.00  0.00    -0.393 OA
ATOM     96  H   UNL     1       2.801  -6.617  -4.964  1.00  0.00     0.210 HD
ENDBRANCH  91  95
ENDBRANCH  86  91
ENDBRANCH  77  86
ENDBRANCH  74  77
ENDBRANCH   1  73
TORSDOF 14
