REMARK SMILES C=CC[N@H+](CC(=O)NCCCNC(=O)c1ccc(-c2c3nc(c(-c4c(F)c(F)c(F)c(F)c4F)c4ccc([nH]4)c(-c4c(F)c(F)c(F)c(F)c4F)c4nc(c(-c5c(F)c(F)c(F)c(F)c5F)c5ccc2[nH]5)C=C4)C=C3)cc1)[C@H]1CC(=O)N(c2ccccc2)C1=O
REMARK SMILES IDX 9 1 8 2 6 3 7 4 5 6 4 7 3 9 2 10 1 11 78 12 79 13 89 14
REMARK SMILES IDX 80 15 82 16 90 17 81 18 83 19 84 20 88 21 85 22 87 23 86 24
REMARK SMILES IDX 10 25 11 26 12 27 13 28 14 30 15 31 16 32 77 33 17 34 76 35
REMARK SMILES IDX 18 36 19 37 20 38 70 39 21 40 75 41 69 42 71 43 22 44 74 45
REMARK SMILES IDX 68 46 67 47 23 49 55 50 35 51 54 52 36 53 39 54 53 55 72 56
REMARK SMILES IDX 37 57 38 58 52 60 73 61 40 62 24 63 25 64 33 65 26 66 27 67
REMARK SMILES IDX 31 68 34 69 28 70 29 71 32 72 30 73 56 74 57 75 65 76 58 77
REMARK SMILES IDX 59 78 63 79 66 80 60 81 61 82 64 83 62 84 41 85 42 86 50 87
REMARK SMILES IDX 43 88 44 89 48 90 51 91 45 92 46 93 49 94 47 95
REMARK H PARENT 8 5 4 8 12 29 71 48 39 59
REMARK Flexibility Score: inf
ROOT
ATOM      1  C   UNL     1      -4.420   4.595   3.583  1.00  0.00     0.118 C 
ENDROOT
BRANCH   1   2
ATOM      2  N   UNL     1      -3.288   4.557   4.501  1.00  0.00    -0.351 N 
ATOM      3  C   UNL     1      -2.037   4.022   4.369  1.00  0.00     0.275 C 
ATOM      4  O   UNL     1      -1.290   4.074   5.349  1.00  0.00    -0.269 OA
ATOM      5  H   UNL     1      -3.454   4.992   5.368  1.00  0.00     0.163 HD
BRANCH   3   6
ATOM      6  C   UNL     1      -1.567   3.423   3.037  1.00  0.00     0.364 C 
BRANCH   6   7
ATOM      7  N   UNL     1      -1.551   1.918   3.029  1.00  0.00    -0.313 N 
ATOM      8  H   UNL     1      -1.132   1.500   3.859  1.00  0.00     0.349 HD
BRANCH   7   9
ATOM      9  C   UNL     1      -2.940   1.443   3.012  1.00  0.00     0.291 C 
BRANCH   9  10
ATOM     10  C   UNL     1      -3.209   0.006   3.358  1.00  0.00     0.025 C 
ATOM     11  C   UNL     1      -3.780  -0.409   4.499  1.00  0.00     0.010 C 
ENDBRANCH   9  10
ENDBRANCH   7   9
BRANCH   7  12
ATOM     12  C   UNL     1      -0.710   1.495   1.869  1.00  0.00     0.285 C 
ATOM     13  C   UNL     1       0.764   1.551   2.239  1.00  0.00     0.176 C 
ATOM     14  C   UNL     1      -0.842   0.040   1.460  1.00  0.00     0.292 C 
ATOM     15  C   UNL     1       1.094   0.139   2.617  1.00  0.00     0.240 C 
ATOM     16  N   UNL     1       0.118  -0.696   2.116  1.00  0.00    -0.245 N 
ATOM     17  O   UNL     1      -1.694  -0.328   0.657  1.00  0.00    -0.267 OA
ATOM     18  O   UNL     1       2.157  -0.147   3.152  1.00  0.00    -0.274 OA
BRANCH  16  19
ATOM     19  C   UNL     1       0.161  -2.120   2.193  1.00  0.00     0.052 A 
ATOM     20  C   UNL     1      -0.575  -2.935   1.319  1.00  0.00     0.027 A 
ATOM     21  C   UNL     1       0.931  -2.766   3.176  1.00  0.00     0.027 A 
ATOM     22  C   UNL     1      -0.525  -4.332   1.408  1.00  0.00     0.002 A 
ATOM     23  C   UNL     1       0.971  -4.162   3.276  1.00  0.00     0.002 A 
ATOM     24  C   UNL     1       0.247  -4.946   2.387  1.00  0.00     0.000 A 
ENDBRANCH  16  19
ENDBRANCH   7  12
ENDBRANCH   6   7
ENDBRANCH   3   6
ENDBRANCH   1   2
BRANCH   1  25
ATOM     25  C   UNL     1      -5.573   3.697   4.040  1.00  0.00     0.042 C 
BRANCH  25  26
ATOM     26  C   UNL     1      -6.245   4.158   5.327  1.00  0.00     0.118 C 
BRANCH  26  27
ATOM     27  N   UNL     1      -7.377   5.025   5.057  1.00  0.00    -0.352 N 
ATOM     28  C   UNL     1      -8.725   4.775   5.152  1.00  0.00     0.251 C 
ATOM     29  H   UNL     1      -7.143   5.934   4.761  1.00  0.00     0.163 HD
ATOM     30  O   UNL     1      -9.513   5.559   4.629  1.00  0.00    -0.269 OA
BRANCH  28  31
ATOM     31  C   UNL     1      -9.249   3.580   5.861  1.00  0.00     0.039 A 
ATOM     32  C   UNL     1     -10.397   2.957   5.357  1.00  0.00     0.014 A 
ATOM     33  C   UNL     1      -8.688   3.116   7.054  1.00  0.00     0.014 A 
ATOM     34  C   UNL     1     -10.955   1.861   6.024  1.00  0.00     0.010 A 
ATOM     35  C   UNL     1      -9.196   1.973   7.675  1.00  0.00     0.010 A 
ATOM     36  C   UNL     1     -10.349   1.347   7.181  1.00  0.00    -0.014 A 
BRANCH  36  37
ATOM     37  C   UNL     1     -10.934   0.185   7.903  1.00  0.00     0.031 A 
ATOM     38  C   UNL     1     -11.459   0.348   9.306  1.00  0.00     0.074 A 
ATOM     39  C   UNL     1     -10.952  -1.031   7.323  1.00  0.00     0.049 A 
ATOM     40  N   UNL     1     -11.954  -0.554  10.117  1.00  0.00    -0.248 NA
ATOM     41  C   UNL     1     -11.395   1.699   9.883  1.00  0.00     0.031 C 
ATOM     42  C   UNL     1     -10.430  -1.339   5.991  1.00  0.00     0.029 A 
ATOM     43  N   UNL     1     -11.418  -2.237   7.785  1.00  0.00    -0.354 N 
ATOM     44  C   UNL     1     -12.232   0.113  11.303  1.00  0.00     0.074 A 
ATOM     45  C   UNL     1     -11.813   1.486  11.122  1.00  0.00     0.031 C 
ATOM     46  C   UNL     1     -10.619  -2.643   5.737  1.00  0.00     0.029 A 
ATOM     47  C   UNL     1     -11.247  -3.270   6.896  1.00  0.00     0.049 A 
ATOM     48  H   UNL     1     -11.835  -2.350   8.669  1.00  0.00     0.167 HD
ATOM     49  C   UNL     1     -12.805  -0.367  12.433  1.00  0.00     0.037 A 
ATOM     50  C   UNL     1     -11.557  -4.577   7.005  1.00  0.00     0.037 A 
ATOM     51  C   UNL     1     -13.267  -1.720  12.599  1.00  0.00     0.049 A 
ATOM     52  C   UNL     1     -12.222  -5.079   8.257  1.00  0.00     0.074 A 
ATOM     53  C   UNL     1     -13.938  -2.277  13.674  1.00  0.00     0.029 A 
ATOM     54  N   UNL     1     -13.106  -2.729  11.662  1.00  0.00    -0.354 N 
ATOM     55  N   UNL     1     -12.548  -4.421   9.342  1.00  0.00    -0.248 NA
ATOM     56  C   UNL     1     -12.572  -6.507   8.294  1.00  0.00     0.031 C 
ATOM     57  C   UNL     1     -14.150  -3.633  13.403  1.00  0.00     0.029 A 
ATOM     58  C   UNL     1     -13.647  -3.911  12.143  1.00  0.00     0.049 A 
ATOM     59  H   UNL     1     -12.672  -2.622  10.785  1.00  0.00     0.167 HD
ATOM     60  C   UNL     1     -13.156  -5.344  10.181  1.00  0.00     0.074 A 
ATOM     61  C   UNL     1     -13.169  -6.607   9.474  1.00  0.00     0.031 C 
ATOM     62  C   UNL     1     -13.656  -5.161  11.427  1.00  0.00     0.037 A 
BRANCH  49  63
ATOM     63  C   UNL     1     -12.971   0.581  13.584  1.00  0.00     0.064 A 
ATOM     64  C   UNL     1     -13.911   1.622  13.552  1.00  0.00     0.173 A 
ATOM     65  C   UNL     1     -12.204   0.425  14.749  1.00  0.00     0.173 A 
ATOM     66  F   UNL     1     -14.662   1.820  12.458  1.00  0.00    -0.203 F 
ATOM     67  C   UNL     1     -14.057   2.490  14.631  1.00  0.00     0.198 A 
ATOM     68  C   UNL     1     -12.373   1.278  15.838  1.00  0.00     0.198 A 
ATOM     69  F   UNL     1     -11.296  -0.558  14.835  1.00  0.00    -0.203 F 
ATOM     70  F   UNL     1     -14.928   3.506  14.559  1.00  0.00    -0.200 F 
ATOM     71  C   UNL     1     -13.293   2.313  15.775  1.00  0.00     0.200 A 
ATOM     72  F   UNL     1     -11.642   1.099  16.947  1.00  0.00    -0.200 F 
ATOM     73  F   UNL     1     -13.438   3.147  16.814  1.00  0.00    -0.200 F 
ENDBRANCH  49  63
BRANCH  50  74
ATOM     74  C   UNL     1     -11.261  -5.498   5.878  1.00  0.00     0.064 A 
ATOM     75  C   UNL     1     -12.293  -6.017   5.084  1.00  0.00     0.173 A 
ATOM     76  C   UNL     1      -9.946  -5.870   5.568  1.00  0.00     0.173 A 
ATOM     77  F   UNL     1     -13.569  -5.707   5.357  1.00  0.00    -0.203 F 
ATOM     78  C   UNL     1     -12.020  -6.885   4.029  1.00  0.00     0.198 A 
ATOM     79  C   UNL     1      -9.672  -6.718   4.497  1.00  0.00     0.198 A 
ATOM     80  F   UNL     1      -8.924  -5.396   6.297  1.00  0.00    -0.203 F 
ATOM     81  F   UNL     1     -13.027  -7.397   3.308  1.00  0.00    -0.200 F 
ATOM     82  C   UNL     1     -10.710  -7.230   3.733  1.00  0.00     0.200 A 
ATOM     83  F   UNL     1      -8.404  -7.039   4.206  1.00  0.00    -0.200 F 
ATOM     84  F   UNL     1     -10.448  -8.059   2.713  1.00  0.00    -0.200 F 
ENDBRANCH  50  74
BRANCH  62  85
ATOM     85  C   UNL     1     -14.281  -6.347  12.099  1.00  0.00     0.064 A 
ATOM     86  C   UNL     1     -13.501  -7.394  12.610  1.00  0.00     0.173 A 
ATOM     87  C   UNL     1     -15.672  -6.417  12.271  1.00  0.00     0.173 A 
ATOM     88  F   UNL     1     -12.168  -7.380  12.457  1.00  0.00    -0.203 F 
ATOM     89  C   UNL     1     -14.093  -8.480  13.251  1.00  0.00     0.198 A 
ATOM     90  C   UNL     1     -16.258  -7.491  12.934  1.00  0.00     0.198 A 
ATOM     91  F   UNL     1     -16.460  -5.437  11.804  1.00  0.00    -0.203 F 
ATOM     92  F   UNL     1     -13.332  -9.489  13.696  1.00  0.00    -0.200 F 
ATOM     93  C   UNL     1     -15.469  -8.524  13.418  1.00  0.00     0.200 A 
ATOM     94  F   UNL     1     -17.587  -7.527  13.104  1.00  0.00    -0.200 F 
ATOM     95  F   UNL     1     -16.037  -9.566  14.040  1.00  0.00    -0.200 F 
ENDBRANCH  62  85
ENDBRANCH  36  37
ENDBRANCH  28  31
ENDBRANCH  26  27
ENDBRANCH  25  26
ENDBRANCH   1  25
TORSDOF 15
