REMARK SMILES Cc1ccc(C(C)(C)C)c(OCC(=O)c2nc(C)c(C(=O)NCCCNC(=O)c3ccc(-c4c5nc(c(-c6c(F)c(F)c(F)c(F)c6F)c6ccc([nH]6)c(-c6c(F)c(F)c(F)c(F)c6F)c6nc(c(-c7c(F)c(F)c(F)c(F)c7F)c7ccc4[nH]7)C=C6)C=C5)cc3)s2)c1
REMARK SMILES IDX 20 1 21 2 22 3 19 5 15 6 16 7 92 8 17 9 18 10 13 11 14 12
REMARK SMILES IDX 12 13 11 14 10 15 1 16 2 17 3 18 93 19 4 20 5 21 6 22 7 23
REMARK SMILES IDX 8 24 9 25 23 26 24 27 25 28 26 29 27 30 28 32 29 33 30 34
REMARK SMILES IDX 91 35 31 36 90 37 32 38 33 39 34 40 84 41 35 42 89 43 83 44
REMARK SMILES IDX 85 45 36 46 88 47 82 48 81 49 37 51 69 52 49 53 68 54 50 55
REMARK SMILES IDX 53 56 67 57 86 58 51 59 52 60 66 62 87 63 54 64 38 65 39 66
REMARK SMILES IDX 47 67 40 68 41 69 45 70 48 71 42 72 43 73 46 74 44 75 70 76
REMARK SMILES IDX 71 77 79 78 72 79 73 80 77 81 80 82 74 83 75 84 78 85 76 86
REMARK SMILES IDX 55 87 56 88 64 89 57 90 58 91 62 92 65 93 59 94 60 95 63 96
REMARK SMILES IDX 61 97
REMARK H PARENT 22 4 26 31 85 50 53 61
REMARK Flexibility Score: inf
ROOT
ATOM      1  C   UNL     1      -2.646   2.924   5.370  1.00  0.00     0.263 C 
ATOM      2  O   UNL     1      -3.591   2.221   4.986  1.00  0.00    -0.268 OA
ATOM      3  N   UNL     1      -2.644   3.061   6.735  1.00  0.00    -0.351 N 
ATOM      4  H   UNL     1      -3.391   2.587   7.165  1.00  0.00     0.163 HD
ENDROOT
BRANCH   1   5
ATOM      5  C   UNL     1      -1.676   3.499   4.434  1.00  0.00     0.115 A 
ATOM      6  C   UNL     1      -0.562   3.862   2.251  1.00  0.00     0.164 A 
ATOM      7  N   UNL     1      -0.013   4.597   3.185  1.00  0.00    -0.237 NA
ATOM      8  S   UNL     1      -1.843   2.899   2.791  1.00  0.00    -0.105 S 
ATOM      9  C   UNL     1      -0.644   4.438   4.412  1.00  0.00     0.062 A 
ATOM     10  C   UNL     1      -0.091   5.370   5.418  1.00  0.00     0.068 C 
BRANCH   6  11
ATOM     11  C   UNL     1      -0.056   3.908   0.887  1.00  0.00     0.228 C 
ATOM     12  O   UNL     1       1.084   4.308   0.614  1.00  0.00    -0.288 OA
BRANCH  11  13
ATOM     13  C   UNL     1      -0.992   3.563  -0.277  1.00  0.00     0.313 C 
BRANCH  13  14
ATOM     14  O   UNL     1      -1.704   2.348  -0.319  1.00  0.00    -0.485 OA
BRANCH  14  15
ATOM     15  C   UNL     1      -1.041   1.156  -0.257  1.00  0.00     0.123 A 
ATOM     16  C   UNL     1       2.525  -0.220  -0.146  1.00  0.00     0.044 C 
ATOM     17  C   UNL     1       1.027  -0.151  -0.140  1.00  0.00    -0.047 A 
ATOM     18  C   UNL     1       0.271  -1.306   0.016  1.00  0.00     0.004 A 
ATOM     19  C   UNL     1       0.362   1.067  -0.309  1.00  0.00     0.050 A 
ATOM     20  C   UNL     1      -1.124  -1.235   0.015  1.00  0.00     0.008 A 
ATOM     21  C   UNL     1      -1.824  -0.011  -0.113  1.00  0.00    -0.000 A 
BRANCH  21  22
ATOM     22  C   UNL     1      -3.375  -0.065  -0.106  1.00  0.00    -0.010 C 
ATOM     23  C   UNL     1      -3.843  -0.874  -1.340  1.00  0.00     0.016 C 
ATOM     24  C   UNL     1      -3.867  -0.771   1.181  1.00  0.00     0.016 C 
ATOM     25  C   UNL     1      -4.135   1.280  -0.168  1.00  0.00     0.016 C 
ENDBRANCH  21  22
ENDBRANCH  14  15
ENDBRANCH  13  14
ENDBRANCH  11  13
ENDBRANCH   6  11
ENDBRANCH   1   5
BRANCH   3  26
ATOM     26  C   UNL     1      -1.796   3.743   7.686  1.00  0.00     0.118 C 
BRANCH  26  27
ATOM     27  C   UNL     1      -2.115   5.233   7.741  1.00  0.00     0.042 C 
BRANCH  27  28
ATOM     28  C   UNL     1      -2.851   5.684   8.989  1.00  0.00     0.118 C 
BRANCH  28  29
ATOM     29  N   UNL     1      -2.001   6.475   9.883  1.00  0.00    -0.352 N 
ATOM     30  C   UNL     1      -2.325   7.090  11.082  1.00  0.00     0.251 C 
ATOM     31  H   UNL     1      -1.068   6.585   9.590  1.00  0.00     0.163 HD
ATOM     32  O   UNL     1      -1.499   7.707  11.720  1.00  0.00    -0.269 OA
BRANCH  30  33
ATOM     33  C   UNL     1      -3.678   6.845  11.622  1.00  0.00     0.039 A 
ATOM     34  C   UNL     1      -3.764   6.163  12.838  1.00  0.00     0.014 A 
ATOM     35  C   UNL     1      -4.781   6.975  10.784  1.00  0.00     0.014 A 
ATOM     36  C   UNL     1      -4.885   5.382  13.087  1.00  0.00     0.010 A 
ATOM     37  C   UNL     1      -5.836   6.109  10.973  1.00  0.00     0.010 A 
ATOM     38  C   UNL     1      -5.852   5.262  12.089  1.00  0.00    -0.014 A 
BRANCH  38  39
ATOM     39  C   UNL     1      -6.838   4.188  12.072  1.00  0.00     0.031 A 
ATOM     40  C   UNL     1      -8.267   4.490  12.296  1.00  0.00     0.074 A 
ATOM     41  C   UNL     1      -6.449   2.928  11.768  1.00  0.00     0.049 A 
ATOM     42  N   UNL     1      -9.136   3.624  12.698  1.00  0.00    -0.248 NA
ATOM     43  C   UNL     1      -8.827   5.825  12.124  1.00  0.00     0.031 C 
ATOM     44  C   UNL     1      -7.309   1.797  11.429  1.00  0.00     0.029 A 
ATOM     45  N   UNL     1      -5.165   2.363  11.892  1.00  0.00    -0.354 N 
ATOM     46  C   UNL     1     -10.383   4.197  12.594  1.00  0.00     0.074 A 
ATOM     47  C   UNL     1     -10.132   5.583  12.273  1.00  0.00     0.031 C 
ATOM     48  C   UNL     1      -6.638   0.658  11.659  1.00  0.00     0.029 A 
ATOM     49  C   UNL     1      -5.379   1.019  12.283  1.00  0.00     0.049 A 
ATOM     50  H   UNL     1      -4.301   2.808  11.738  1.00  0.00     0.167 HD
ATOM     51  C   UNL     1     -11.490   3.405  12.676  1.00  0.00     0.037 A 
ATOM     52  C   UNL     1      -4.932   0.538  13.479  1.00  0.00     0.037 A 
ATOM     53  C   UNL     1     -11.128   2.020  12.961  1.00  0.00     0.049 A 
ATOM     54  C   UNL     1      -6.024   0.001  14.375  1.00  0.00     0.074 A 
ATOM     55  C   UNL     1     -10.942   0.914  12.148  1.00  0.00     0.029 A 
ATOM     56  N   UNL     1     -10.582   1.698  14.197  1.00  0.00    -0.354 N 
ATOM     57  N   UNL     1      -7.290   0.263  14.206  1.00  0.00    -0.248 NA
ATOM     58  C   UNL     1      -5.779  -0.825  15.555  1.00  0.00     0.031 C 
ATOM     59  C   UNL     1     -10.233  -0.062  12.889  1.00  0.00     0.029 A 
ATOM     60  C   UNL     1     -10.007   0.443  14.158  1.00  0.00     0.049 A 
ATOM     61  H   UNL     1     -10.602   2.281  14.990  1.00  0.00     0.167 HD
ATOM     62  C   UNL     1      -8.012  -0.294  15.228  1.00  0.00     0.074 A 
ATOM     63  C   UNL     1      -7.025  -0.985  16.035  1.00  0.00     0.031 C 
ATOM     64  C   UNL     1      -9.360  -0.115  15.333  1.00  0.00     0.037 A 
BRANCH  51  65
ATOM     65  C   UNL     1     -12.864   3.833  12.213  1.00  0.00     0.064 A 
ATOM     66  C   UNL     1     -13.759   2.901  11.644  1.00  0.00     0.173 A 
ATOM     67  C   UNL     1     -13.337   5.157  12.248  1.00  0.00     0.173 A 
ATOM     68  F   UNL     1     -13.500   1.587  11.645  1.00  0.00    -0.203 F 
ATOM     69  C   UNL     1     -14.961   3.285  11.042  1.00  0.00     0.198 A 
ATOM     70  C   UNL     1     -14.508   5.551  11.593  1.00  0.00     0.198 A 
ATOM     71  F   UNL     1     -12.708   6.099  12.962  1.00  0.00    -0.203 F 
ATOM     72  F   UNL     1     -15.764   2.354  10.508  1.00  0.00    -0.200 F 
ATOM     73  C   UNL     1     -15.314   4.616  10.977  1.00  0.00     0.200 A 
ATOM     74  F   UNL     1     -14.849   6.848  11.564  1.00  0.00    -0.200 F 
ATOM     75  F   UNL     1     -16.438   4.991  10.351  1.00  0.00    -0.200 F 
ENDBRANCH  51  65
BRANCH  52  76
ATOM     76  C   UNL     1      -3.689   1.200  13.949  1.00  0.00     0.064 A 
ATOM     77  C   UNL     1      -2.522   1.046  13.176  1.00  0.00     0.173 A 
ATOM     78  C   UNL     1      -3.721   2.251  14.871  1.00  0.00     0.173 A 
ATOM     79  F   UNL     1      -2.442   0.055  12.274  1.00  0.00    -0.203 F 
ATOM     80  C   UNL     1      -1.487   1.976  13.234  1.00  0.00     0.198 A 
ATOM     81  C   UNL     1      -2.675   3.174  14.936  1.00  0.00     0.198 A 
ATOM     82  F   UNL     1      -4.813   2.463  15.620  1.00  0.00    -0.203 F 
ATOM     83  F   UNL     1      -0.445   1.869  12.396  1.00  0.00    -0.200 F 
ATOM     84  C   UNL     1      -1.578   3.056  14.094  1.00  0.00     0.200 A 
ATOM     85  F   UNL     1      -2.776   4.239  15.744  1.00  0.00    -0.200 F 
ATOM     86  F   UNL     1      -0.635   4.008  14.077  1.00  0.00    -0.200 F 
ENDBRANCH  52  76
BRANCH  64  87
ATOM     87  C   UNL     1     -10.216  -0.496  16.511  1.00  0.00     0.064 A 
ATOM     88  C   UNL     1      -9.771  -0.458  17.842  1.00  0.00     0.173 A 
ATOM     89  C   UNL     1     -11.597  -0.755  16.331  1.00  0.00     0.173 A 
ATOM     90  F   UNL     1      -8.508  -0.126  18.142  1.00  0.00    -0.203 F 
ATOM     91  C   UNL     1     -10.635  -0.703  18.913  1.00  0.00     0.198 A 
ATOM     92  C   UNL     1     -12.466  -0.944  17.403  1.00  0.00     0.198 A 
ATOM     93  F   UNL     1     -12.143  -0.803  15.107  1.00  0.00    -0.203 F 
ATOM     94  F   UNL     1     -10.159  -0.685  20.166  1.00  0.00    -0.200 F 
ATOM     95  C   UNL     1     -11.982  -0.930  18.695  1.00  0.00     0.200 A 
ATOM     96  F   UNL     1     -13.776  -1.116  17.177  1.00  0.00    -0.200 F 
ATOM     97  F   UNL     1     -12.815  -1.113  19.728  1.00  0.00    -0.200 F 
ENDBRANCH  64  87
ENDBRANCH  38  39
ENDBRANCH  30  33
ENDBRANCH  28  29
ENDBRANCH  27  28
ENDBRANCH  26  27
ENDBRANCH   3  26
TORSDOF 15
