REMARK SMILES C[C@H](C(=O)NCCCNC(=O)c1ccc(-c2c3nc(c(-c4c(F)c(F)c(F)c(F)c4F)c4ccc([nH]4)c(-c4c(F)c(F)c(F)c(F)c4F)c4nc(c(-c5c(F)c(F)c(F)c(F)c5F)c5ccc2[nH]5)C=C4)C=C3)cc1)c1cccc(C(=O)c2ccccc2)c1
REMARK SMILES IDX 6 1 5 2 3 3 4 4 2 6 1 7 75 8 76 9 88 10 77 11 79 12 78 13
REMARK SMILES IDX 80 14 81 15 82 16 83 17 87 18 84 19 86 20 85 21 7 22 8 23
REMARK SMILES IDX 9 24 10 25 11 27 12 28 13 29 74 30 14 31 73 32 15 33 16 34
REMARK SMILES IDX 17 35 67 36 18 37 72 38 66 39 68 40 19 41 71 42 65 43 64 44
REMARK SMILES IDX 20 46 52 47 32 48 51 49 33 50 36 51 50 52 69 53 34 54 35 55
REMARK SMILES IDX 49 57 70 58 37 59 21 60 22 61 30 62 23 63 24 64 28 65 31 66
REMARK SMILES IDX 25 67 26 68 29 69 27 70 53 71 54 72 62 73 55 74 56 75 60 76
REMARK SMILES IDX 63 77 57 78 58 79 61 80 59 81 38 82 39 83 47 84 40 85 41 86
REMARK SMILES IDX 45 87 48 88 42 89 43 90 46 91 44 92
REMARK H PARENT 5 5 9 26 68 45 36 56
REMARK Flexibility Score: inf
ROOT
ATOM      1  C   UNL     1       0.944   2.558   0.318  1.00  0.00     0.117 C 
ENDROOT
BRANCH   1   2
ATOM      2  N   UNL     1       1.229   1.171   0.636  1.00  0.00    -0.356 N 
ATOM      3  C   UNL     1       1.059   0.041  -0.112  1.00  0.00     0.227 C 
ATOM      4  O   UNL     1       1.357  -1.036   0.411  1.00  0.00    -0.274 OA
ATOM      5  H   UNL     1       1.604   1.021   1.534  1.00  0.00     0.163 HD
BRANCH   3   6
ATOM      6  C   UNL     1       0.489   0.127  -1.535  1.00  0.00     0.105 C 
ATOM      7  C   UNL     1       1.146  -0.942  -2.420  1.00  0.00     0.023 C 
BRANCH   6   8
ATOM      8  C   UNL     1      -1.030   0.018  -1.510  1.00  0.00    -0.035 A 
ATOM      9  C   UNL     1      -1.821   1.167  -1.660  1.00  0.00     0.004 A 
ATOM     10  C   UNL     1      -1.672  -1.213  -1.290  1.00  0.00     0.016 A 
ATOM     11  C   UNL     1      -3.210   1.095  -1.555  1.00  0.00     0.001 A 
ATOM     12  C   UNL     1      -3.068  -1.299  -1.194  1.00  0.00     0.023 A 
ATOM     13  C   UNL     1      -3.830  -0.131  -1.319  1.00  0.00     0.012 A 
BRANCH  12  14
ATOM     14  C   UNL     1      -3.790  -2.594  -1.014  1.00  0.00     0.193 C 
ATOM     15  O   UNL     1      -5.018  -2.625  -1.019  1.00  0.00    -0.289 OA
BRANCH  14  16
ATOM     16  C   UNL     1      -3.064  -3.876  -0.907  1.00  0.00     0.022 A 
ATOM     17  C   UNL     1      -3.323  -4.862  -1.864  1.00  0.00     0.012 A 
ATOM     18  C   UNL     1      -2.148  -4.110   0.123  1.00  0.00     0.012 A 
ATOM     19  C   UNL     1      -2.624  -6.068  -1.820  1.00  0.00     0.001 A 
ATOM     20  C   UNL     1      -1.448  -5.317   0.159  1.00  0.00     0.001 A 
ATOM     21  C   UNL     1      -1.682  -6.290  -0.815  1.00  0.00     0.000 A 
ENDBRANCH  14  16
ENDBRANCH  12  14
ENDBRANCH   6   8
ENDBRANCH   3   6
ENDBRANCH   1   2
BRANCH   1  22
ATOM     22  C   UNL     1      -0.312   3.074   1.017  1.00  0.00     0.042 C 
BRANCH  22  23
ATOM     23  C   UNL     1      -0.199   3.188   2.535  1.00  0.00     0.118 C 
BRANCH  23  24
ATOM     24  N   UNL     1       0.808   4.154   2.954  1.00  0.00    -0.352 N 
ATOM     25  C   UNL     1       0.723   5.249   3.770  1.00  0.00     0.251 C 
ATOM     26  H   UNL     1       1.706   3.990   2.587  1.00  0.00     0.163 HD
ATOM     27  O   UNL     1       1.688   6.009   3.839  1.00  0.00    -0.269 OA
BRANCH  25  28
ATOM     28  C   UNL     1      -0.494   5.555   4.560  1.00  0.00     0.039 A 
ATOM     29  C   UNL     1      -0.838   6.901   4.742  1.00  0.00     0.014 A 
ATOM     30  C   UNL     1      -1.252   4.562   5.188  1.00  0.00     0.014 A 
ATOM     31  C   UNL     1      -1.953   7.245   5.508  1.00  0.00     0.010 A 
ATOM     32  C   UNL     1      -2.404   4.903   5.902  1.00  0.00     0.010 A 
ATOM     33  C   UNL     1      -2.761   6.248   6.077  1.00  0.00    -0.014 A 
BRANCH  33  34
ATOM     34  C   UNL     1      -3.974   6.615   6.851  1.00  0.00     0.031 A 
ATOM     35  C   UNL     1      -4.045   6.372   8.333  1.00  0.00     0.074 A 
ATOM     36  C   UNL     1      -5.030   7.151   6.209  1.00  0.00     0.049 A 
ATOM     37  N   UNL     1      -5.015   6.646   9.171  1.00  0.00    -0.248 NA
ATOM     38  C   UNL     1      -2.884   5.717   8.954  1.00  0.00     0.031 C 
ATOM     39  C   UNL     1      -5.109   7.387   4.767  1.00  0.00     0.029 A 
ATOM     40  N   UNL     1      -6.237   7.596   6.687  1.00  0.00    -0.354 N 
ATOM     41  C   UNL     1      -4.587   6.189  10.410  1.00  0.00     0.074 A 
ATOM     42  C   UNL     1      -3.288   5.581  10.209  1.00  0.00     0.031 C 
ATOM     43  C   UNL     1      -6.290   7.958   4.480  1.00  0.00     0.029 A 
ATOM     44  C   UNL     1      -7.057   8.110   5.713  1.00  0.00     0.049 A 
ATOM     45  H   UNL     1      -6.491   7.550   7.637  1.00  0.00     0.167 HD
ATOM     46  C   UNL     1      -5.209   6.287  11.609  1.00  0.00     0.037 A 
ATOM     47  C   UNL     1      -8.285   8.653   5.805  1.00  0.00     0.037 A 
ATOM     48  C   UNL     1      -6.487   6.916  11.817  1.00  0.00     0.049 A 
ATOM     49  C   UNL     1      -8.939   8.780   7.152  1.00  0.00     0.074 A 
ATOM     50  C   UNL     1      -7.169   7.118  13.005  1.00  0.00     0.029 A 
ATOM     51  N   UNL     1      -7.278   7.447  10.809  1.00  0.00    -0.354 N 
ATOM     52  N   UNL     1      -8.492   8.409   8.326  1.00  0.00    -0.248 NA
ATOM     53  C   UNL     1     -10.265   9.413   7.186  1.00  0.00     0.031 C 
ATOM     54  C   UNL     1      -8.386   7.744  12.712  1.00  0.00     0.029 A 
ATOM     55  C   UNL     1      -8.447   7.963  11.346  1.00  0.00     0.049 A 
ATOM     56  H   UNL     1      -7.043   7.455   9.853  1.00  0.00     0.167 HD
ATOM     57  C   UNL     1      -9.469   8.778   9.240  1.00  0.00     0.074 A 
ATOM     58  C   UNL     1     -10.526   9.420   8.486  1.00  0.00     0.031 C 
ATOM     59  C   UNL     1      -9.490   8.598  10.583  1.00  0.00     0.037 A 
BRANCH  46  60
ATOM     60  C   UNL     1      -4.508   5.704  12.801  1.00  0.00     0.064 A 
ATOM     61  C   UNL     1      -3.381   6.323  13.361  1.00  0.00     0.173 A 
ATOM     62  C   UNL     1      -4.991   4.538  13.413  1.00  0.00     0.173 A 
ATOM     63  F   UNL     1      -2.875   7.434  12.804  1.00  0.00    -0.203 F 
ATOM     64  C   UNL     1      -2.747   5.782  14.476  1.00  0.00     0.198 A 
ATOM     65  C   UNL     1      -4.369   4.013  14.543  1.00  0.00     0.198 A 
ATOM     66  F   UNL     1      -6.069   3.911  12.920  1.00  0.00    -0.203 F 
ATOM     67  F   UNL     1      -1.647   6.367  14.970  1.00  0.00    -0.200 F 
ATOM     68  C   UNL     1      -3.245   4.631  15.070  1.00  0.00     0.200 A 
ATOM     69  F   UNL     1      -4.856   2.907  15.122  1.00  0.00    -0.200 F 
ATOM     70  F   UNL     1      -2.636   4.115  16.146  1.00  0.00    -0.200 F 
ENDBRANCH  46  60
BRANCH  47  71
ATOM     71  C   UNL     1      -8.958   9.161   4.584  1.00  0.00     0.064 A 
ATOM     72  C   UNL     1      -9.085  10.538   4.356  1.00  0.00     0.173 A 
ATOM     73  C   UNL     1      -9.478   8.286   3.621  1.00  0.00     0.173 A 
ATOM     74  F   UNL     1      -8.619  11.412   5.261  1.00  0.00    -0.203 F 
ATOM     75  C   UNL     1      -9.721  11.022   3.215  1.00  0.00     0.198 A 
ATOM     76  C   UNL     1     -10.095   8.771   2.469  1.00  0.00     0.198 A 
ATOM     77  F   UNL     1      -9.376   6.960   3.793  1.00  0.00    -0.203 F 
ATOM     78  F   UNL     1      -9.860  12.342   3.038  1.00  0.00    -0.200 F 
ATOM     79  C   UNL     1     -10.220  10.138   2.270  1.00  0.00     0.200 A 
ATOM     80  F   UNL     1     -10.566   7.915   1.553  1.00  0.00    -0.200 F 
ATOM     81  F   UNL     1     -10.828  10.604   1.170  1.00  0.00    -0.200 F 
ENDBRANCH  47  71
BRANCH  59  82
ATOM     82  C   UNL     1     -10.687   9.116  11.321  1.00  0.00     0.064 A 
ATOM     83  C   UNL     1     -11.927   8.465  11.251  1.00  0.00     0.173 A 
ATOM     84  C   UNL     1     -10.589  10.265  12.120  1.00  0.00     0.173 A 
ATOM     85  F   UNL     1     -12.074   7.373  10.486  1.00  0.00    -0.203 F 
ATOM     86  C   UNL     1     -13.034   8.961  11.934  1.00  0.00     0.198 A 
ATOM     87  C   UNL     1     -11.692  10.744  12.821  1.00  0.00     0.198 A 
ATOM     88  F   UNL     1      -9.423  10.920  12.222  1.00  0.00    -0.203 F 
ATOM     89  F   UNL     1     -14.221   8.350  11.816  1.00  0.00    -0.200 F 
ATOM     90  C   UNL     1     -12.915  10.097  12.722  1.00  0.00     0.200 A 
ATOM     91  F   UNL     1     -11.574  11.837  13.587  1.00  0.00    -0.200 F 
ATOM     92  F   UNL     1     -13.982  10.573  13.378  1.00  0.00    -0.200 F 
ENDBRANCH  59  82
ENDBRANCH  33  34
ENDBRANCH  25  28
ENDBRANCH  23  24
ENDBRANCH  22  23
ENDBRANCH   1  22
TORSDOF 13
