REMARK SMILES CCCn1c(N2CCC[C@@H](C)C2)c(/C=C2/SC(=S)N(CC(=O)NCCCNC(=O)c3ccc(-c4c5nc(c(-c6c(F)c(F)c(F)c(F)c6F)c6ccc([nH]6)c(-c6c(F)c(F)c(F)c(F)c6F)c6nc(c(-c7c(F)c(F)c(F)c(F)c7F)c7ccc4[nH]7)C=C6)C=C5)cc3)C2=O)c(C)c(C#N)c1=O
REMARK SMILES IDX 24 1 23 2 21 3 22 4 20 6 19 7 14 8 15 9 16 10 93 11 17 12
REMARK SMILES IDX 94 13 18 14 13 15 4 16 5 17 100 18 97 19 101 20 95 21 96 22
REMARK SMILES IDX 3 23 2 24 1 25 6 26 7 27 12 28 8 29 10 30 9 31 11 32 98 33
REMARK SMILES IDX 99 34 25 35 26 36 27 37 28 38 29 40 30 41 31 42 92 43 32 44
REMARK SMILES IDX 91 45 33 46 34 47 35 48 85 49 36 50 90 51 84 52 86 53 37 54
REMARK SMILES IDX 89 55 83 56 82 57 38 59 70 60 50 61 69 62 51 63 54 64 68 65
REMARK SMILES IDX 87 66 52 67 53 68 67 70 88 71 55 72 39 73 40 74 48 75 41 76
REMARK SMILES IDX 42 77 46 78 49 79 43 80 44 81 47 82 45 83 71 84 72 85 80 86
REMARK SMILES IDX 73 87 74 88 78 89 81 90 75 91 76 92 79 93 77 94 56 95 57 96
REMARK SMILES IDX 65 97 58 98 59 99 63 100 66 101 60 102 61 103 64 104 62 105
REMARK H PARENT 23 5 27 39 86 58 54 69
REMARK Flexibility Score: inf
ROOT
ATOM      1  C   UNL     1      -1.746  -9.587  -4.243  1.00  0.00     0.117 C 
ENDROOT
BRANCH   1   2
ATOM      2  N   UNL     1      -2.571  -8.400  -4.317  1.00  0.00    -0.354 N 
ATOM      3  C   UNL     1      -2.499  -7.337  -5.168  1.00  0.00     0.240 C 
ATOM      4  O   UNL     1      -3.461  -6.567  -5.183  1.00  0.00    -0.273 OA
ATOM      5  H   UNL     1      -3.295  -8.353  -3.652  1.00  0.00     0.163 HD
BRANCH   3   6
ATOM      6  C   UNL     1      -1.321  -7.165  -6.139  1.00  0.00     0.227 C 
BRANCH   6   7
ATOM      7  N   UNL     1      -0.038  -7.051  -5.441  1.00  0.00    -0.283 N 
ATOM      8  C   UNL     1       1.794  -5.263  -2.857  1.00  0.00     0.033 C 
ATOM      9  C   UNL     1       1.420  -6.045  -3.882  1.00  0.00     0.081 C 
ATOM     10  S   UNL     1       2.338  -7.364  -4.491  1.00  0.00    -0.054 SA
ATOM     11  C   UNL     1       0.144  -5.937  -4.646  1.00  0.00     0.266 C 
ATOM     12  C   UNL     1       1.071  -7.844  -5.623  1.00  0.00     0.148 C 
ATOM     13  O   UNL     1      -0.620  -4.987  -4.588  1.00  0.00    -0.268 OA
ATOM     14  S   UNL     1       1.299  -9.076  -6.723  1.00  0.00    -0.052 S 
BRANCH   8  15
ATOM     15  C   UNL     1       0.980  -4.159  -2.325  1.00  0.00     0.021 A 
ATOM     16  N   UNL     1       0.483  -1.830  -2.159  1.00  0.00    -0.293 N 
ATOM     17  C   UNL     1       1.375  -2.859  -2.533  1.00  0.00     0.119 A 
ATOM     18  C   UNL     1      -0.836  -2.082  -1.763  1.00  0.00     0.270 A 
ATOM     19  C   UNL     1      -1.177  -3.468  -1.387  1.00  0.00     0.121 A 
ATOM     20  O   UNL     1      -1.699  -1.209  -1.674  1.00  0.00    -0.268 OA
ATOM     21  C   UNL     1      -0.292  -4.451  -1.625  1.00  0.00    -0.017 A 
ATOM     22  C   UNL     1      -0.570  -5.888  -1.234  1.00  0.00     0.047 C 
BRANCH  16  23
ATOM     23  C   UNL     1       0.796  -0.420  -2.407  1.00  0.00     0.127 C 
BRANCH  23  24
ATOM     24  C   UNL     1       0.572   0.536  -1.220  1.00  0.00     0.019 C 
ATOM     25  C   UNL     1       1.150   0.054   0.101  1.00  0.00     0.006 C 
ENDBRANCH  23  24
ENDBRANCH  16  23
BRANCH  17  26
ATOM     26  N   UNL     1       2.594  -2.543  -3.185  1.00  0.00    -0.357 N 
ATOM     27  C   UNL     1       3.749  -1.966  -2.477  1.00  0.00     0.118 C 
ATOM     28  C   UNL     1       2.916  -3.037  -4.534  1.00  0.00     0.121 C 
ATOM     29  C   UNL     1       4.397  -0.846  -3.304  1.00  0.00     0.022 C 
ATOM     30  C   UNL     1       3.470  -1.905  -5.402  1.00  0.00     0.005 C 
ATOM     31  C   UNL     1       4.699  -1.273  -4.738  1.00  0.00     0.007 C 
ATOM     32  C   UNL     1       3.818  -2.425  -6.796  1.00  0.00     0.009 C 
ENDBRANCH  17  26
BRANCH  19  33
ATOM     33  C   UNL     1      -2.448  -3.692  -0.788  1.00  0.00     0.105 C 
ATOM     34  N   UNL     1      -3.460  -3.949  -0.276  1.00  0.00    -0.192 NA
ENDBRANCH  19  33
ENDBRANCH   8  15
ENDBRANCH   6   7
ENDBRANCH   3   6
ENDBRANCH   1   2
BRANCH   1  35
ATOM     35  C   UNL     1      -0.978  -9.668  -2.931  1.00  0.00     0.042 C 
BRANCH  35  36
ATOM     36  C   UNL     1      -1.885  -9.904  -1.727  1.00  0.00     0.118 C 
BRANCH  36  37
ATOM     37  N   UNL     1      -2.511 -11.219  -1.762  1.00  0.00    -0.352 N 
ATOM     38  C   UNL     1      -2.323 -12.295  -0.930  1.00  0.00     0.251 C 
ATOM     39  H   UNL     1      -3.164 -11.356  -2.487  1.00  0.00     0.163 HD
ATOM     40  O   UNL     1      -2.770 -13.397  -1.224  1.00  0.00    -0.269 OA
BRANCH  38  41
ATOM     41  C   UNL     1      -1.559 -12.114   0.317  1.00  0.00     0.039 A 
ATOM     42  C   UNL     1      -0.531 -13.008   0.621  1.00  0.00     0.014 A 
ATOM     43  C   UNL     1      -1.861 -11.054   1.178  1.00  0.00     0.014 A 
ATOM     44  C   UNL     1       0.237 -12.804   1.767  1.00  0.00     0.010 A 
ATOM     45  C   UNL     1      -1.052 -10.812   2.280  1.00  0.00     0.010 A 
ATOM     46  C   UNL     1      -0.004 -11.692   2.591  1.00  0.00    -0.014 A 
BRANCH  46  47
ATOM     47  C   UNL     1       0.795 -11.468   3.817  1.00  0.00     0.031 A 
ATOM     48  C   UNL     1       0.143 -11.624   5.161  1.00  0.00     0.074 A 
ATOM     49  C   UNL     1       2.087 -11.105   3.723  1.00  0.00     0.049 A 
ATOM     50  N   UNL     1       0.659 -11.460   6.352  1.00  0.00    -0.248 NA
ATOM     51  C   UNL     1      -1.280 -11.999   5.168  1.00  0.00     0.031 C 
ATOM     52  C   UNL     1       2.819 -10.906   2.472  1.00  0.00     0.029 A 
ATOM     53  N   UNL     1       3.015 -10.838   4.698  1.00  0.00    -0.354 N 
ATOM     54  C   UNL     1      -0.371 -11.725   7.244  1.00  0.00     0.074 A 
ATOM     55  C   UNL     1      -1.558 -11.987   6.463  1.00  0.00     0.031 C 
ATOM     56  C   UNL     1       4.089 -10.576   2.756  1.00  0.00     0.029 A 
ATOM     57  C   UNL     1       4.253 -10.504   4.206  1.00  0.00     0.049 A 
ATOM     58  H   UNL     1       2.813 -10.883   5.661  1.00  0.00     0.167 HD
ATOM     59  C   UNL     1      -0.319 -11.780   8.595  1.00  0.00     0.037 A 
ATOM     60  C   UNL     1       5.388 -10.177   4.854  1.00  0.00     0.037 A 
ATOM     61  C   UNL     1       0.867 -11.523   9.367  1.00  0.00     0.049 A 
ATOM     62  C   UNL     1       5.398 -10.176   6.361  1.00  0.00     0.074 A 
ATOM     63  C   UNL     1       1.026 -11.578  10.739  1.00  0.00     0.029 A 
ATOM     64  N   UNL     1       2.093 -11.155   8.834  1.00  0.00    -0.354 N 
ATOM     65  N   UNL     1       4.437 -10.491   7.195  1.00  0.00    -0.248 NA
ATOM     66  C   UNL     1       6.653  -9.780   7.017  1.00  0.00     0.031 C 
ATOM     67  C   UNL     1       2.330 -11.182  11.043  1.00  0.00     0.029 A 
ATOM     68  C   UNL     1       3.006 -10.948   9.856  1.00  0.00     0.049 A 
ATOM     69  H   UNL     1       2.287 -11.056   7.874  1.00  0.00     0.167 HD
ATOM     70  C   UNL     1       4.977 -10.362   8.469  1.00  0.00     0.074 A 
ATOM     71  C   UNL     1       6.356  -9.958   8.297  1.00  0.00     0.031 C 
ATOM     72  C   UNL     1       4.381 -10.557   9.671  1.00  0.00     0.037 A 
BRANCH  59  73
ATOM     73  C   UNL     1      -1.575 -12.149   9.329  1.00  0.00     0.064 A 
ATOM     74  C   UNL     1      -2.104 -13.447   9.265  1.00  0.00     0.173 A 
ATOM     75  C   UNL     1      -2.211 -11.222  10.168  1.00  0.00     0.173 A 
ATOM     76  F   UNL     1      -1.540 -14.368   8.469  1.00  0.00    -0.203 F 
ATOM     77  C   UNL     1      -3.230 -13.799  10.003  1.00  0.00     0.198 A 
ATOM     78  C   UNL     1      -3.317 -11.587  10.930  1.00  0.00     0.198 A 
ATOM     79  F   UNL     1      -1.744  -9.968  10.268  1.00  0.00    -0.203 F 
ATOM     80  F   UNL     1      -3.738 -15.035   9.899  1.00  0.00    -0.200 F 
ATOM     81  C   UNL     1      -3.828 -12.873  10.845  1.00  0.00     0.200 A 
ATOM     82  F   UNL     1      -3.881 -10.696  11.757  1.00  0.00    -0.200 F 
ATOM     83  F   UNL     1      -4.896 -13.221  11.574  1.00  0.00    -0.200 F 
ENDBRANCH  59  73
BRANCH  60  84
ATOM     84  C   UNL     1       6.618  -9.857   4.081  1.00  0.00     0.064 A 
ATOM     85  C   UNL     1       7.738 -10.700   4.129  1.00  0.00     0.173 A 
ATOM     86  C   UNL     1       6.702  -8.712   3.275  1.00  0.00     0.173 A 
ATOM     87  F   UNL     1       7.716 -11.797   4.900  1.00  0.00    -0.203 F 
ATOM     88  C   UNL     1       8.897 -10.402   3.416  1.00  0.00     0.198 A 
ATOM     89  C   UNL     1       7.850  -8.432   2.536  1.00  0.00     0.198 A 
ATOM     90  F   UNL     1       5.660  -7.872   3.188  1.00  0.00    -0.203 F 
ATOM     91  F   UNL     1       9.966 -11.204   3.516  1.00  0.00    -0.200 F 
ATOM     92  C   UNL     1       8.949  -9.274   2.613  1.00  0.00     0.200 A 
ATOM     93  F   UNL     1       7.889  -7.350   1.746  1.00  0.00    -0.200 F 
ATOM     94  F   UNL     1      10.060  -8.994   1.917  1.00  0.00    -0.200 F 
ENDBRANCH  60  84
BRANCH  72  95
ATOM     95  C   UNL     1       5.211 -10.360  10.908  1.00  0.00     0.064 A 
ATOM     96  C   UNL     1       5.628  -9.086  11.318  1.00  0.00     0.173 A 
ATOM     97  C   UNL     1       5.509 -11.448  11.745  1.00  0.00     0.173 A 
ATOM     98  F   UNL     1       5.379  -8.014  10.550  1.00  0.00    -0.203 F 
ATOM     99  C   UNL     1       6.325  -8.909  12.511  1.00  0.00     0.198 A 
ATOM    100  C   UNL     1       6.172 -11.263  12.955  1.00  0.00     0.198 A 
ATOM    101  F   UNL     1       5.123 -12.688  11.407  1.00  0.00    -0.203 F 
ATOM    102  F   UNL     1       6.746  -7.686  12.863  1.00  0.00    -0.200 F 
ATOM    103  C   UNL     1       6.584  -9.995  13.334  1.00  0.00     0.200 A 
ATOM    104  F   UNL     1       6.400 -12.310  13.759  1.00  0.00    -0.200 F 
ATOM    105  F   UNL     1       7.231  -9.818  14.494  1.00  0.00    -0.200 F 
ENDBRANCH  72  95
ENDBRANCH  46  47
ENDBRANCH  38  41
ENDBRANCH  36  37
ENDBRANCH  35  36
ENDBRANCH   1  35
TORSDOF 16
