REMARK SMILES CC(C)N(CCC#N)C(=O)c1ccncc1/C=C/C(=O)NCCCNC(=O)c1ccc(-c2c3nc(c(-c4c(F)c(F)c(F)c(F)c4F)c4ccc([nH]4)c(-c4c(F)c(F)c(F)c(F)c4F)c4nc(c(-c5c(F)c(F)c(F)c(F)c5F)c5ccc2[nH]5)C=C4)C=C3)cc1
REMARK SMILES IDX 19 1 20 2 21 3 18 5 17 6 16 7 11 8 12 9 13 10 15 11 14 12
REMARK SMILES IDX 9 13 10 14 4 15 2 16 1 17 3 18 5 19 6 20 7 21 8 22 22 23
REMARK SMILES IDX 23 24 24 25 25 26 26 27 27 29 28 30 29 31 90 32 30 33 89 34
REMARK SMILES IDX 31 35 32 36 33 37 83 38 34 39 88 40 82 41 84 42 35 43 87 44
REMARK SMILES IDX 81 45 80 46 36 48 68 49 48 50 67 51 49 52 52 53 66 54 85 55
REMARK SMILES IDX 50 56 51 57 65 59 86 60 53 61 37 62 38 63 46 64 39 65 40 66
REMARK SMILES IDX 44 67 47 68 41 69 42 70 45 71 43 72 69 73 70 74 78 75 71 76
REMARK SMILES IDX 72 77 76 78 79 79 73 80 74 81 77 82 75 83 54 84 55 85 63 86
REMARK SMILES IDX 56 87 57 88 61 89 64 90 58 91 59 92 62 93 60 94
REMARK H PARENT 21 4 25 28 84 47 52 58
REMARK Flexibility Score: inf
ROOT
ATOM      1  C   UNL     1      -3.078  -3.162   4.098  1.00  0.00     0.244 C 
ATOM      2  O   UNL     1      -3.785  -3.577   5.011  1.00  0.00    -0.270 OA
ATOM      3  N   UNL     1      -1.742  -3.413   4.095  1.00  0.00    -0.352 N 
ATOM      4  H   UNL     1      -1.410  -3.961   4.843  1.00  0.00     0.163 HD
ENDROOT
BRANCH   1   5
ATOM      5  C   UNL     1      -3.643  -2.240   3.092  1.00  0.00     0.072 C 
ATOM      6  C   UNL     1      -3.558  -2.339   1.754  1.00  0.00     0.016 C 
BRANCH   6   7
ATOM      7  C   UNL     1      -4.085  -1.211   0.974  1.00  0.00     0.006 A 
ATOM      8  C   UNL     1      -3.300  -0.158   0.437  1.00  0.00     0.050 A 
ATOM      9  C   UNL     1      -3.951   1.060   0.241  1.00  0.00     0.034 A 
ATOM     10  C   UNL     1      -5.337   1.117   0.315  1.00  0.00     0.112 A 
ATOM     11  C   UNL     1      -5.476  -1.060   0.976  1.00  0.00     0.119 A 
ATOM     12  N   UNL     1      -6.119   0.073   0.632  1.00  0.00    -0.264 NA
BRANCH   8  13
ATOM     13  C   UNL     1      -1.845  -0.373   0.043  1.00  0.00     0.254 C 
ATOM     14  O   UNL     1      -1.254  -1.294   0.606  1.00  0.00    -0.269 OA
BRANCH  13  15
ATOM     15  N   UNL     1      -1.151   0.359  -0.972  1.00  0.00    -0.335 N 
BRANCH  15  16
ATOM     16  C   UNL     1       0.297   0.053  -1.200  1.00  0.00     0.079 C 
ATOM     17  C   UNL     1       1.153  -0.013   0.072  1.00  0.00     0.031 C 
ATOM     18  C   UNL     1       0.522  -1.192  -2.062  1.00  0.00     0.031 C 
ENDBRANCH  15  16
BRANCH  15  19
ATOM     19  C   UNL     1      -1.750   1.273  -1.974  1.00  0.00     0.135 C 
BRANCH  19  20
ATOM     20  C   UNL     1      -2.531   0.626  -3.121  1.00  0.00     0.141 C 
BRANCH  20  21
ATOM     21  C   UNL     1      -3.519  -0.401  -2.592  1.00  0.00     0.064 C 
ATOM     22  N   UNL     1      -4.338  -1.252  -2.153  1.00  0.00    -0.198 NA
ENDBRANCH  20  21
ENDBRANCH  19  20
ENDBRANCH  15  19
ENDBRANCH  13  15
ENDBRANCH   8  13
ENDBRANCH   6   7
ENDBRANCH   1   5
BRANCH   3  23
ATOM     23  C   UNL     1      -0.740  -2.985   3.142  1.00  0.00     0.118 C 
BRANCH  23  24
ATOM     24  C   UNL     1      -0.125  -1.635   3.487  1.00  0.00     0.042 C 
BRANCH  24  25
ATOM     25  C   UNL     1       0.921  -1.716   4.588  1.00  0.00     0.118 C 
BRANCH  25  26
ATOM     26  N   UNL     1       1.985  -2.666   4.275  1.00  0.00    -0.352 N 
ATOM     27  C   UNL     1       3.326  -2.494   4.064  1.00  0.00     0.251 C 
ATOM     28  H   UNL     1       1.682  -3.600   4.202  1.00  0.00     0.163 HD
ATOM     29  O   UNL     1       3.982  -3.405   3.568  1.00  0.00    -0.269 OA
BRANCH  27  30
ATOM     30  C   UNL     1       3.994  -1.233   4.439  1.00  0.00     0.039 A 
ATOM     31  C   UNL     1       5.086  -0.793   3.685  1.00  0.00     0.014 A 
ATOM     32  C   UNL     1       3.591  -0.518   5.567  1.00  0.00     0.014 A 
ATOM     33  C   UNL     1       5.746   0.383   4.043  1.00  0.00     0.010 A 
ATOM     34  C   UNL     1       4.171   0.708   5.854  1.00  0.00     0.010 A 
ATOM     35  C   UNL     1       5.276   1.153   5.117  1.00  0.00    -0.014 A 
BRANCH  35  36
ATOM     36  C   UNL     1       5.955   2.401   5.535  1.00  0.00     0.031 A 
ATOM     37  C   UNL     1       6.551   2.496   6.913  1.00  0.00     0.074 A 
ATOM     38  C   UNL     1       5.964   3.464   4.711  1.00  0.00     0.049 A 
ATOM     39  N   UNL     1       7.102   3.521   7.511  1.00  0.00    -0.248 NA
ATOM     40  C   UNL     1       6.478   1.285   7.747  1.00  0.00     0.031 C 
ATOM     41  C   UNL     1       5.373   3.503   3.373  1.00  0.00     0.029 A 
ATOM     42  N   UNL     1       6.483   4.721   4.884  1.00  0.00    -0.354 N 
ATOM     43  C   UNL     1       7.407   3.087   8.794  1.00  0.00     0.074 A 
ATOM     44  C   UNL     1       6.920   1.731   8.912  1.00  0.00     0.031 C 
ATOM     45  C   UNL     1       5.597   4.710   2.831  1.00  0.00     0.029 A 
ATOM     46  C   UNL     1       6.307   5.541   3.798  1.00  0.00     0.049 A 
ATOM     47  H   UNL     1       6.939   5.008   5.708  1.00  0.00     0.167 HD
ATOM     48  C   UNL     1       8.063   3.749   9.777  1.00  0.00     0.037 A 
ATOM     49  C   UNL     1       6.682   6.819   3.609  1.00  0.00     0.037 A 
ATOM     50  C   UNL     1       8.577   5.085   9.635  1.00  0.00     0.049 A 
ATOM     51  C   UNL     1       7.420   7.532   4.708  1.00  0.00     0.074 A 
ATOM     52  C   UNL     1       9.315   5.829  10.536  1.00  0.00     0.029 A 
ATOM     53  N   UNL     1       8.402   5.878   8.508  1.00  0.00    -0.354 N 
ATOM     54  N   UNL     1       7.766   7.093   5.894  1.00  0.00    -0.248 NA
ATOM     55  C   UNL     1       7.827   8.916   4.437  1.00  0.00     0.031 C 
ATOM     56  C   UNL     1       9.545   7.090   9.975  1.00  0.00     0.029 A 
ATOM     57  C   UNL     1       9.001   7.111   8.700  1.00  0.00     0.049 A 
ATOM     58  H   UNL     1       7.922   5.603   7.693  1.00  0.00     0.167 HD
ATOM     59  C   UNL     1       8.464   8.130   6.497  1.00  0.00     0.074 A 
ATOM     60  C   UNL     1       8.496   9.219   5.541  1.00  0.00     0.031 C 
ATOM     61  C   UNL     1       9.031   8.177   7.729  1.00  0.00     0.037 A 
BRANCH  48  62
ATOM     62  C   UNL     1       8.249   3.032  11.086  1.00  0.00     0.064 A 
ATOM     63  C   UNL     1       9.062   1.893  11.198  1.00  0.00     0.173 A 
ATOM     64  C   UNL     1       7.595   3.482  12.242  1.00  0.00     0.173 A 
ATOM     65  F   UNL     1       9.702   1.410  10.122  1.00  0.00    -0.203 F 
ATOM     66  C   UNL     1       9.171   1.203  12.403  1.00  0.00     0.198 A 
ATOM     67  C   UNL     1       7.737   2.812  13.455  1.00  0.00     0.198 A 
ATOM     68  F   UNL     1       6.810   4.570  12.197  1.00  0.00    -0.203 F 
ATOM     69  F   UNL     1       9.891   0.074  12.464  1.00  0.00    -0.200 F 
ATOM     70  C   UNL     1       8.512   1.665  13.531  1.00  0.00     0.200 A 
ATOM     71  F   UNL     1       7.111   3.269  14.548  1.00  0.00    -0.200 F 
ATOM     72  F   UNL     1       8.614   0.999  14.689  1.00  0.00    -0.200 F 
ENDBRANCH  48  62
BRANCH  49  73
ATOM     73  C   UNL     1       6.420   7.477   2.304  1.00  0.00     0.064 A 
ATOM     74  C   UNL     1       7.473   7.754   1.421  1.00  0.00     0.173 A 
ATOM     75  C   UNL     1       5.121   7.817   1.898  1.00  0.00     0.173 A 
ATOM     76  F   UNL     1       8.734   7.459   1.770  1.00  0.00    -0.203 F 
ATOM     77  C   UNL     1       7.239   8.358   0.188  1.00  0.00     0.198 A 
ATOM     78  C   UNL     1       4.886   8.396   0.653  1.00  0.00     0.198 A 
ATOM     79  F   UNL     1       4.078   7.562   2.701  1.00  0.00    -0.203 F 
ATOM     80  F   UNL     1       8.268   8.641  -0.623  1.00  0.00    -0.200 F 
ATOM     81  C   UNL     1       5.945   8.672  -0.198  1.00  0.00     0.200 A 
ATOM     82  F   UNL     1       3.632   8.681   0.275  1.00  0.00    -0.200 F 
ATOM     83  F   UNL     1       5.719   9.242  -1.390  1.00  0.00    -0.200 F 
ENDBRANCH  49  73
BRANCH  61  84
ATOM     84  C   UNL     1       9.781   9.426   8.092  1.00  0.00     0.064 A 
ATOM     85  C   UNL     1       9.123  10.637   8.350  1.00  0.00     0.173 A 
ATOM     86  C   UNL     1      11.179   9.397   8.218  1.00  0.00     0.173 A 
ATOM     87  F   UNL     1       7.789  10.720   8.229  1.00  0.00    -0.203 F 
ATOM     88  C   UNL     1       9.839  11.780   8.693  1.00  0.00     0.198 A 
ATOM     89  C   UNL     1      11.888  10.533   8.594  1.00  0.00     0.198 A 
ATOM     90  F   UNL     1      11.855   8.261   7.989  1.00  0.00    -0.203 F 
ATOM     91  F   UNL     1       9.195  12.940   8.883  1.00  0.00    -0.200 F 
ATOM     92  C   UNL     1      11.219  11.726   8.822  1.00  0.00     0.200 A 
ATOM     93  F   UNL     1      13.220  10.474   8.733  1.00  0.00    -0.200 F 
ATOM     94  F   UNL     1      11.906  12.826   9.158  1.00  0.00    -0.200 F 
ENDBRANCH  61  84
ENDBRANCH  35  36
ENDBRANCH  27  30
ENDBRANCH  25  26
ENDBRANCH  24  25
ENDBRANCH  23  24
ENDBRANCH   3  23
TORSDOF 17
