REMARK SMILES Cc1cc(C)c2c(OCCCC(=O)NCCCNC(=O)c3ccc(-c4c5nc(c(-c6c(F)c(F)c(F)c(F)c6F)c6ccc([nH]6)c(-c6c(F)c(F)c(F)c(F)c6F)c6nc(c(-c7c(F)c(F)c(F)c(F)c7F)c7ccc4[nH]7)C=C6)C=C5)cc3)nsc2n1
REMARK SMILES IDX 15 1 14 2 12 3 13 4 11 6 10 7 9 8 8 9 7 10 1 11 2 12 3 13
REMARK SMILES IDX 87 14 4 15 86 16 5 17 6 18 85 19 84 20 16 21 17 22 18 23
REMARK SMILES IDX 19 24 20 26 21 27 22 28 83 29 23 30 82 31 24 32 25 33 26 34
REMARK SMILES IDX 76 35 27 36 81 37 75 38 77 39 28 40 80 41 74 42 73 43 29 45
REMARK SMILES IDX 61 46 41 47 60 48 42 49 45 50 59 51 78 52 43 53 44 54 58 56
REMARK SMILES IDX 79 57 46 58 30 59 31 60 39 61 32 62 33 63 37 64 40 65 34 66
REMARK SMILES IDX 35 67 38 68 36 69 62 70 63 71 71 72 64 73 65 74 69 75 72 76
REMARK SMILES IDX 66 77 67 78 70 79 68 80 47 81 48 82 56 83 49 84 50 85 54 86
REMARK SMILES IDX 57 87 51 88 52 89 55 90 53 91
REMARK H PARENT 14 5 18 25 77 44 45 55
REMARK Flexibility Score: inf
ROOT
ATOM      1  C   UNL     1      -0.315   2.338   4.574  1.00  0.00     0.117 C 
ENDROOT
BRANCH   1   2
ATOM      2  N   UNL     1      -1.652   1.736   4.005  1.00  0.00    -0.356 N 
ATOM      3  C   UNL     1      -2.678   1.713   3.088  1.00  0.00     0.220 C 
ATOM      4  O   UNL     1      -3.448   0.770   3.387  1.00  0.00    -0.275 OA
ATOM      5  H   UNL     1      -1.863   0.997   4.621  1.00  0.00     0.163 HD
BRANCH   3   6
ATOM      6  C   UNL     1      -3.053   2.439   1.652  1.00  0.00     0.103 C 
BRANCH   6   7
ATOM      7  C   UNL     1      -3.788   3.790   1.115  1.00  0.00     0.051 C 
BRANCH   7   8
ATOM      8  C   UNL     1      -3.378   5.344   1.046  1.00  0.00     0.232 C 
BRANCH   8   9
ATOM      9  O   UNL     1      -2.614   5.967  -0.005  1.00  0.00    -0.477 OA
BRANCH   9  10
ATOM     10  C   UNL     1      -1.273   5.789  -0.171  1.00  0.00     0.235 A 
ATOM     11  C   UNL     1       1.337   0.982  -0.238  1.00  0.00     0.067 C 
ATOM     12  C   UNL     1       0.903   2.390   0.077  1.00  0.00     0.039 A 
ATOM     13  C   UNL     1       0.062   2.614   1.158  1.00  0.00     0.027 A 
ATOM     14  N   UNL     1       1.308   3.379  -0.755  1.00  0.00    -0.240 NA
ATOM     15  C   UNL     1      -0.537   3.872   1.327  1.00  0.00    -0.034 A 
ATOM     16  C   UNL     1       0.580   4.511  -0.628  1.00  0.00     0.147 A 
ATOM     17  C   UNL     1      -1.201   4.410   2.520  1.00  0.00     0.045 C 
ATOM     18  C   UNL     1      -0.454   4.728   0.260  1.00  0.00     0.078 A 
ATOM     19  S   UNL     1       0.778   5.965  -1.492  1.00  0.00    -0.012 S 
ATOM     20  N   UNL     1      -0.689   6.640  -1.015  1.00  0.00    -0.153 NA
ENDBRANCH   9  10
ENDBRANCH   8   9
ENDBRANCH   7   8
ENDBRANCH   6   7
ENDBRANCH   3   6
ENDBRANCH   1   2
BRANCH   1  21
ATOM     21  C   UNL     1      -0.479   3.724   5.297  1.00  0.00     0.042 C 
BRANCH  21  22
ATOM     22  C   UNL     1       0.370   4.111   6.491  1.00  0.00     0.118 C 
BRANCH  22  23
ATOM     23  N   UNL     1       1.667   4.731   6.161  1.00  0.00    -0.352 N 
ATOM     24  C   UNL     1       2.775   4.824   7.011  1.00  0.00     0.251 C 
ATOM     25  H   UNL     1       1.762   5.116   5.260  1.00  0.00     0.163 HD
ATOM     26  O   UNL     1       3.618   5.662   6.919  1.00  0.00    -0.269 OA
BRANCH  24  27
ATOM     27  C   UNL     1       2.829   3.767   8.039  1.00  0.00     0.039 A 
ATOM     28  C   UNL     1       2.698   4.082   9.393  1.00  0.00     0.014 A 
ATOM     29  C   UNL     1       2.615   2.489   7.543  1.00  0.00     0.014 A 
ATOM     30  C   UNL     1       2.209   3.098  10.251  1.00  0.00     0.010 A 
ATOM     31  C   UNL     1       1.939   1.615   8.352  1.00  0.00     0.010 A 
ATOM     32  C   UNL     1       1.772   1.877   9.714  1.00  0.00    -0.014 A 
BRANCH  32  33
ATOM     33  C   UNL     1       1.046   0.898  10.527  1.00  0.00     0.031 A 
ATOM     34  C   UNL     1      -0.011   1.416  11.453  1.00  0.00     0.074 A 
ATOM     35  C   UNL     1       1.188  -0.432  10.328  1.00  0.00     0.049 A 
ATOM     36  N   UNL     1      -0.034   1.317  12.743  1.00  0.00    -0.248 NA
ATOM     37  C   UNL     1      -1.138   2.190  10.907  1.00  0.00     0.031 C 
ATOM     38  C   UNL     1       1.983  -1.142   9.314  1.00  0.00     0.029 A 
ATOM     39  N   UNL     1       0.546  -1.453  10.955  1.00  0.00    -0.354 N 
ATOM     40  C   UNL     1      -1.236   1.880  13.173  1.00  0.00     0.074 A 
ATOM     41  C   UNL     1      -1.823   2.501  12.013  1.00  0.00     0.031 C 
ATOM     42  C   UNL     1       1.577  -2.424   9.225  1.00  0.00     0.029 A 
ATOM     43  C   UNL     1       0.667  -2.680  10.320  1.00  0.00     0.049 A 
ATOM     44  H   UNL     1       0.038  -1.332  11.790  1.00  0.00     0.167 HD
ATOM     45  C   UNL     1      -1.729   1.639  14.423  1.00  0.00     0.037 A 
ATOM     46  C   UNL     1       0.084  -3.847  10.674  1.00  0.00     0.037 A 
ATOM     47  C   UNL     1      -0.718   1.082  15.282  1.00  0.00     0.049 A 
ATOM     48  C   UNL     1      -0.263  -3.731  12.110  1.00  0.00     0.074 A 
ATOM     49  C   UNL     1       0.493   1.536  15.766  1.00  0.00     0.029 A 
ATOM     50  N   UNL     1      -0.710  -0.277  15.477  1.00  0.00    -0.354 N 
ATOM     51  N   UNL     1       0.629  -3.661  13.060  1.00  0.00    -0.248 NA
ATOM     52  C   UNL     1      -1.582  -3.222  12.449  1.00  0.00     0.031 C 
ATOM     53  C   UNL     1       1.346   0.393  15.739  1.00  0.00     0.029 A 
ATOM     54  C   UNL     1       0.585  -0.697  15.312  1.00  0.00     0.049 A 
ATOM     55  H   UNL     1      -1.486  -0.843  15.693  1.00  0.00     0.167 HD
ATOM     56  C   UNL     1       0.122  -2.726  13.949  1.00  0.00     0.074 A 
ATOM     57  C   UNL     1      -1.281  -2.564  13.573  1.00  0.00     0.031 C 
ATOM     58  C   UNL     1       0.951  -1.962  14.719  1.00  0.00     0.037 A 
BRANCH  45  59
ATOM     59  C   UNL     1      -3.188   1.613  14.809  1.00  0.00     0.064 A 
ATOM     60  C   UNL     1      -3.549   1.534  16.172  1.00  0.00     0.173 A 
ATOM     61  C   UNL     1      -4.226   1.359  13.891  1.00  0.00     0.173 A 
ATOM     62  F   UNL     1      -2.638   1.741  17.135  1.00  0.00    -0.203 F 
ATOM     63  C   UNL     1      -4.832   1.154  16.578  1.00  0.00     0.198 A 
ATOM     64  C   UNL     1      -5.519   1.028  14.300  1.00  0.00     0.198 A 
ATOM     65  F   UNL     1      -4.004   1.309  12.572  1.00  0.00    -0.203 F 
ATOM     66  F   UNL     1      -5.094   0.974  17.880  1.00  0.00    -0.200 F 
ATOM     67  C   UNL     1      -5.814   0.895  15.641  1.00  0.00     0.200 A 
ATOM     68  F   UNL     1      -6.453   0.762  13.376  1.00  0.00    -0.200 F 
ATOM     69  F   UNL     1      -7.026   0.471  16.023  1.00  0.00    -0.200 F 
ENDBRANCH  45  59
BRANCH  46  70
ATOM     70  C   UNL     1      -0.381  -4.940   9.796  1.00  0.00     0.064 A 
ATOM     71  C   UNL     1      -0.669  -6.210  10.315  1.00  0.00     0.173 A 
ATOM     72  C   UNL     1      -0.807  -4.687   8.476  1.00  0.00     0.173 A 
ATOM     73  F   UNL     1      -0.323  -6.517  11.572  1.00  0.00    -0.203 F 
ATOM     74  C   UNL     1      -1.378  -7.159   9.572  1.00  0.00     0.198 A 
ATOM     75  C   UNL     1      -1.508  -5.637   7.733  1.00  0.00     0.198 A 
ATOM     76  F   UNL     1      -0.633  -3.481   7.913  1.00  0.00    -0.203 F 
ATOM     77  F   UNL     1      -1.694  -8.337  10.126  1.00  0.00    -0.200 F 
ATOM     78  C   UNL     1      -1.808  -6.867   8.288  1.00  0.00     0.200 A 
ATOM     79  F   UNL     1      -1.943  -5.331   6.502  1.00  0.00    -0.200 F 
ATOM     80  F   UNL     1      -2.545  -7.752   7.602  1.00  0.00    -0.200 F 
ENDBRANCH  46  70
BRANCH  58  81
ATOM     81  C   UNL     1       2.414  -2.315  14.753  1.00  0.00     0.064 A 
ATOM     82  C   UNL     1       3.265  -2.232  13.637  1.00  0.00     0.173 A 
ATOM     83  C   UNL     1       3.010  -2.568  15.995  1.00  0.00     0.173 A 
ATOM     84  F   UNL     1       2.793  -1.897  12.432  1.00  0.00    -0.203 F 
ATOM     85  C   UNL     1       4.640  -2.425  13.755  1.00  0.00     0.198 A 
ATOM     86  C   UNL     1       4.388  -2.726  16.117  1.00  0.00     0.198 A 
ATOM     87  F   UNL     1       2.257  -2.601  17.106  1.00  0.00    -0.203 F 
ATOM     88  F   UNL     1       5.427  -2.338  12.672  1.00  0.00    -0.200 F 
ATOM     89  C   UNL     1       5.202  -2.661  14.997  1.00  0.00     0.200 A 
ATOM     90  F   UNL     1       4.933  -2.904  17.328  1.00  0.00    -0.200 F 
ATOM     91  F   UNL     1       6.530  -2.796  15.121  1.00  0.00    -0.200 F 
ENDBRANCH  58  81
ENDBRANCH  32  33
ENDBRANCH  24  27
ENDBRANCH  22  23
ENDBRANCH  21  22
ENDBRANCH   1  21
TORSDOF 14
