REMARK SMILES O=C(NCCCNC(=O)c1cc(F)ccc1N1CCCc2ccccc21)c1ccc(-c2c3nc(c(-c4c(F)c(F)c(F)c(F)c4F)c4ccc([nH]4)c(-c4c(F)c(F)c(F)c(F)c4F)c4nc(c(-c5c(F)c(F)c(F)c(F)c5F)c5ccc2[nH]5)C=C4)C=C3)cc1
REMARK SMILES IDX 4 1 3 2 1 3 2 4 27 6 28 7 89 8 29 9 88 10 30 11 31 12 32 13
REMARK SMILES IDX 82 14 33 15 87 16 81 17 83 18 34 19 86 20 80 21 79 22 35 24
REMARK SMILES IDX 67 25 47 26 66 27 48 28 51 29 65 30 84 31 49 32 50 33 64 35
REMARK SMILES IDX 85 36 52 37 36 38 37 39 45 40 38 41 39 42 43 43 46 44 40 45
REMARK SMILES IDX 41 46 44 47 42 48 68 49 69 50 77 51 70 52 71 53 75 54 78 55
REMARK SMILES IDX 72 56 73 57 76 58 74 59 53 60 54 61 62 62 55 63 56 64 60 65
REMARK SMILES IDX 63 66 57 67 58 68 61 69 59 70 5 71 6 72 7 73 8 74 9 76 10 77
REMARK SMILES IDX 11 78 16 79 12 80 15 81 13 82 14 83 17 84 18 85 26 86 19 87
REMARK SMILES IDX 21 88 25 89 20 90 22 91 24 92 23 93
REMARK H PARENT 3 5 83 23 51 34 7 75
REMARK Flexibility Score: inf
ROOT
ATOM      1  C   UNL     1       4.666  -1.349   0.492  1.00  0.00     0.118 C 
ENDROOT
BRANCH   1   2
ATOM      2  N   UNL     1       3.235  -1.197   0.269  1.00  0.00    -0.352 N 
ATOM      3  O   UNL     1       1.265  -0.167  -0.058  1.00  0.00    -0.269 OA
ATOM      4  C   UNL     1       2.492  -0.107  -0.110  1.00  0.00     0.251 C 
ATOM      5  H   UNL     1       2.710  -2.017   0.415  1.00  0.00     0.163 HD
BRANCH   4   6
ATOM      6  C   UNL     1       3.140   1.145  -0.558  1.00  0.00     0.039 A 
ATOM      7  C   UNL     1       4.252   1.129  -1.403  1.00  0.00     0.014 A 
ATOM      8  C   UNL     1       2.584   2.368  -0.169  1.00  0.00     0.014 A 
ATOM      9  C   UNL     1       4.894   2.319  -1.732  1.00  0.00     0.010 A 
ATOM     10  C   UNL     1       3.177   3.567  -0.571  1.00  0.00     0.010 A 
ATOM     11  C   UNL     1       4.358   3.552  -1.329  1.00  0.00    -0.014 A 
BRANCH  11  12
ATOM     12  C   UNL     1       5.016   4.815  -1.745  1.00  0.00     0.031 A 
ATOM     13  C   UNL     1       5.632   5.733  -0.729  1.00  0.00     0.074 A 
ATOM     14  C   UNL     1       5.067   5.126  -3.054  1.00  0.00     0.049 A 
ATOM     15  N   UNL     1       6.222   6.889  -0.911  1.00  0.00    -0.248 NA
ATOM     16  C   UNL     1       5.577   5.304   0.677  1.00  0.00     0.031 C 
ATOM     17  C   UNL     1       4.506   4.311  -4.133  1.00  0.00     0.029 A 
ATOM     18  N   UNL     1       5.624   6.199  -3.702  1.00  0.00    -0.354 N 
ATOM     19  C   UNL     1       6.587   7.333   0.352  1.00  0.00     0.074 A 
ATOM     20  C   UNL     1       6.136   6.334   1.298  1.00  0.00     0.031 C 
ATOM     21  C   UNL     1       4.780   4.892  -5.310  1.00  0.00     0.029 A 
ATOM     22  C   UNL     1       5.482   6.148  -5.067  1.00  0.00     0.049 A 
ATOM     23  H   UNL     1       6.081   6.935  -3.234  1.00  0.00     0.167 HD
ATOM     24  C   UNL     1       7.246   8.467   0.687  1.00  0.00     0.037 A 
ATOM     25  C   UNL     1       5.858   7.022  -6.019  1.00  0.00     0.037 A 
ATOM     26  C   UNL     1       7.713   9.446  -0.260  1.00  0.00     0.049 A 
ATOM     27  C   UNL     1       6.560   8.287  -5.618  1.00  0.00     0.074 A 
ATOM     28  C   UNL     1       8.420  10.611  -0.017  1.00  0.00     0.029 A 
ATOM     29  N   UNL     1       7.519   9.375  -1.632  1.00  0.00    -0.354 N 
ATOM     30  N   UNL     1       6.909   8.690  -4.421  1.00  0.00    -0.248 NA
ATOM     31  C   UNL     1       6.912   9.221  -6.695  1.00  0.00     0.031 C 
ATOM     32  C   UNL     1       8.618  11.265  -1.237  1.00  0.00     0.029 A 
ATOM     33  C   UNL     1       8.075  10.486  -2.245  1.00  0.00     0.049 A 
ATOM     34  H   UNL     1       7.055   8.643  -2.100  1.00  0.00     0.167 HD
ATOM     35  C   UNL     1       7.532   9.916  -4.599  1.00  0.00     0.074 A 
ATOM     36  C   UNL     1       7.524  10.188  -6.022  1.00  0.00     0.031 C 
ATOM     37  C   UNL     1       8.061  10.741  -3.663  1.00  0.00     0.037 A 
BRANCH  24  38
ATOM     38  C   UNL     1       7.498   8.726   2.144  1.00  0.00     0.064 A 
ATOM     39  C   UNL     1       6.810   9.752   2.811  1.00  0.00     0.173 A 
ATOM     40  C   UNL     1       8.463   8.006   2.863  1.00  0.00     0.173 A 
ATOM     41  F   UNL     1       5.882  10.474   2.166  1.00  0.00    -0.203 F 
ATOM     42  C   UNL     1       7.086  10.052   4.142  1.00  0.00     0.198 A 
ATOM     43  C   UNL     1       8.719   8.293   4.201  1.00  0.00     0.198 A 
ATOM     44  F   UNL     1       9.139   7.009   2.273  1.00  0.00    -0.203 F 
ATOM     45  F   UNL     1       6.435  11.053   4.751  1.00  0.00    -0.200 F 
ATOM     46  C   UNL     1       8.037   9.320   4.837  1.00  0.00     0.200 A 
ATOM     47  F   UNL     1       9.623   7.571   4.878  1.00  0.00    -0.200 F 
ATOM     48  F   UNL     1       8.295   9.603   6.122  1.00  0.00    -0.200 F 
ENDBRANCH  24  38
BRANCH  25  49
ATOM     49  C   UNL     1       5.575   6.707  -7.441  1.00  0.00     0.064 A 
ATOM     50  C   UNL     1       4.265   6.717  -7.941  1.00  0.00     0.173 A 
ATOM     51  C   UNL     1       6.605   6.322  -8.308  1.00  0.00     0.173 A 
ATOM     52  F   UNL     1       3.246   7.072  -7.145  1.00  0.00    -0.203 F 
ATOM     53  C   UNL     1       3.992   6.323  -9.248  1.00  0.00     0.198 A 
ATOM     54  C   UNL     1       6.334   5.951  -9.623  1.00  0.00     0.198 A 
ATOM     55  F   UNL     1       7.875   6.314  -7.877  1.00  0.00    -0.203 F 
ATOM     56  F   UNL     1       2.727   6.297  -9.688  1.00  0.00    -0.200 F 
ATOM     57  C   UNL     1       5.027   5.941 -10.089  1.00  0.00     0.200 A 
ATOM     58  F   UNL     1       7.338   5.599 -10.438  1.00  0.00    -0.200 F 
ATOM     59  F   UNL     1       4.765   5.561 -11.346  1.00  0.00    -0.200 F 
ENDBRANCH  25  49
BRANCH  37  60
ATOM     60  C   UNL     1       8.698  12.011  -4.139  1.00  0.00     0.064 A 
ATOM     61  C   UNL     1      10.092  12.159  -4.111  1.00  0.00     0.173 A 
ATOM     62  C   UNL     1       7.925  13.109  -4.541  1.00  0.00     0.173 A 
ATOM     63  F   UNL     1      10.873  11.138  -3.727  1.00  0.00    -0.203 F 
ATOM     64  C   UNL     1      10.690  13.369  -4.450  1.00  0.00     0.198 A 
ATOM     65  C   UNL     1       8.527  14.311  -4.902  1.00  0.00     0.198 A 
ATOM     66  F   UNL     1       6.588  13.009  -4.597  1.00  0.00    -0.203 F 
ATOM     67  F   UNL     1      12.022  13.499  -4.384  1.00  0.00    -0.200 F 
ATOM     68  C   UNL     1       9.907  14.443  -4.846  1.00  0.00     0.200 A 
ATOM     69  F   UNL     1       7.772  15.343  -5.304  1.00  0.00    -0.200 F 
ATOM     70  F   UNL     1      10.483  15.607  -5.176  1.00  0.00    -0.200 F 
ENDBRANCH  37  60
ENDBRANCH  11  12
ENDBRANCH   4   6
ENDBRANCH   1   2
BRANCH   1  71
ATOM     71  C   UNL     1       5.025  -1.498   1.965  1.00  0.00     0.042 C 
BRANCH  71  72
ATOM     72  C   UNL     1       4.442  -2.738   2.629  1.00  0.00     0.118 C 
BRANCH  72  73
ATOM     73  N   UNL     1       4.889  -3.972   1.999  1.00  0.00    -0.352 N 
ATOM     74  C   UNL     1       5.717  -4.968   2.458  1.00  0.00     0.253 C 
ATOM     75  H   UNL     1       4.539  -4.117   1.090  1.00  0.00     0.163 HD
ATOM     76  O   UNL     1       6.019  -5.880   1.692  1.00  0.00    -0.269 OA
BRANCH  74  77
ATOM     77  C   UNL     1       6.199  -4.949   3.858  1.00  0.00     0.066 A 
ATOM     78  C   UNL     1       5.229  -4.838   4.869  1.00  0.00     0.055 A 
ATOM     79  C   UNL     1       7.554  -5.146   4.196  1.00  0.00     0.054 A 
ATOM     80  C   UNL     1       5.612  -4.803   6.201  1.00  0.00     0.124 A 
ATOM     81  C   UNL     1       7.902  -5.108   5.565  1.00  0.00     0.030 A 
ATOM     82  F   UNL     1       4.680  -4.654   7.150  1.00  0.00    -0.207 F 
ATOM     83  C   UNL     1       6.943  -4.920   6.561  1.00  0.00     0.041 A 
BRANCH  79  84
ATOM     84  N   UNL     1       8.583  -5.428   3.278  1.00  0.00    -0.341 N 
ATOM     85  C   UNL     1       8.875  -4.437   2.239  1.00  0.00     0.123 C 
ATOM     86  C   UNL     1       9.372  -6.604   3.253  1.00  0.00     0.044 A 
ATOM     87  C   UNL     1      10.374  -4.154   2.219  1.00  0.00     0.027 C 
ATOM     88  C   UNL     1      10.623  -6.631   2.605  1.00  0.00    -0.024 A 
ATOM     89  C   UNL     1       8.929  -7.781   3.883  1.00  0.00     0.026 A 
ATOM     90  C   UNL     1      11.142  -5.423   1.869  1.00  0.00     0.039 C 
ATOM     91  C   UNL     1      11.391  -7.809   2.604  1.00  0.00     0.006 A 
ATOM     92  C   UNL     1       9.696  -8.947   3.877  1.00  0.00     0.002 A 
ATOM     93  C   UNL     1      10.931  -8.959   3.241  1.00  0.00     0.000 A 
ENDBRANCH  79  84
ENDBRANCH  74  77
ENDBRANCH  72  73
ENDBRANCH  71  72
ENDBRANCH   1  71
TORSDOF 11
