REMARK SMILES O=C(NCCCNC(=O)c1ccccc1-c1ccccc1C(=O)N1CC[NH+](Cc2ccc3c(c2)OCO3)CC1)c1ccc(-c2c3nc(c(-c4c(F)c(F)c(F)c(F)c4F)c4ccc([nH]4)c(-c4c(F)c(F)c(F)c(F)c4F)c4nc(c(-c5c(F)c(F)c(F)c(F)c5F)c5ccc2[nH]5)C=C4)C=C3)cc1
REMARK SMILES IDX 6 1 5 2 4 3 3 4 1 5 2 6 40 8 41 9 102 10 42 11 101 12 43 13
REMARK SMILES IDX 44 14 45 15 95 16 46 17 100 18 94 19 96 20 47 21 99 22 93 23
REMARK SMILES IDX 92 24 48 26 80 27 60 28 79 29 61 30 64 31 78 32 97 33 62 34
REMARK SMILES IDX 63 35 77 37 98 38 65 39 49 40 50 41 58 42 51 43 52 44 56 45
REMARK SMILES IDX 59 46 53 47 54 48 57 49 55 50 81 51 82 52 90 53 83 54 84 55
REMARK SMILES IDX 88 56 91 57 85 58 86 59 89 60 87 61 66 62 67 63 75 64 68 65
REMARK SMILES IDX 69 66 73 67 76 68 70 69 71 70 74 71 72 72 7 73 8 74 9 76
REMARK SMILES IDX 10 77 11 78 15 79 12 80 14 81 13 82 16 83 17 84 21 85 18 86
REMARK SMILES IDX 20 87 19 88 22 89 23 90 24 91 25 92 39 93 26 94 38 95 27 96
REMARK SMILES IDX 28 98 29 99 30 100 34 101 31 102 33 103 32 104 35 105 37 106
REMARK SMILES IDX 36 107
REMARK H PARENT 3 7 96 25 64 36 7 75 27 97
REMARK Flexibility Score: inf
ROOT
ATOM      1  C   UNL     1       4.023  -0.289  -3.207  1.00  0.00     0.118 C 
ENDROOT
BRANCH   1   2
ATOM      2  C   UNL     1       4.660  -0.493  -1.845  1.00  0.00     0.042 C 
BRANCH   2   3
ATOM      3  C   UNL     1       4.433   0.726  -0.964  1.00  0.00     0.118 C 
BRANCH   3   4
ATOM      4  N   UNL     1       3.016   0.887  -0.645  1.00  0.00    -0.352 N 
ATOM      5  O   UNL     1       1.055   0.194   0.252  1.00  0.00    -0.269 OA
ATOM      6  C   UNL     1       2.273   0.233   0.312  1.00  0.00     0.251 C 
ATOM      7  H   UNL     1       2.528   1.551  -1.185  1.00  0.00     0.163 HD
BRANCH   6   8
ATOM      8  C   UNL     1       2.999  -0.448   1.403  1.00  0.00     0.039 A 
ATOM      9  C   UNL     1       4.115   0.177   1.946  1.00  0.00     0.014 A 
ATOM     10  C   UNL     1       2.605  -1.708   1.855  1.00  0.00     0.014 A 
ATOM     11  C   UNL     1       4.978  -0.544   2.743  1.00  0.00     0.010 A 
ATOM     12  C   UNL     1       3.377  -2.357   2.824  1.00  0.00     0.010 A 
ATOM     13  C   UNL     1       4.587  -1.790   3.254  1.00  0.00    -0.014 A 
BRANCH  13  14
ATOM     14  C   UNL     1       5.434  -2.379   4.319  1.00  0.00     0.031 A 
ATOM     15  C   UNL     1       6.089  -3.717   4.161  1.00  0.00     0.074 A 
ATOM     16  C   UNL     1       5.671  -1.620   5.409  1.00  0.00     0.049 A 
ATOM     17  N   UNL     1       6.900  -4.333   4.984  1.00  0.00    -0.248 NA
ATOM     18  C   UNL     1       5.793  -4.473   2.935  1.00  0.00     0.031 C 
ATOM     19  C   UNL     1       5.069  -0.305   5.665  1.00  0.00     0.029 A 
ATOM     20  N   UNL     1       6.510  -1.804   6.475  1.00  0.00    -0.354 N 
ATOM     21  C   UNL     1       7.198  -5.550   4.388  1.00  0.00     0.074 A 
ATOM     22  C   UNL     1       6.456  -5.603   3.146  1.00  0.00     0.031 C 
ATOM     23  C   UNL     1       5.626   0.236   6.754  1.00  0.00     0.029 A 
ATOM     24  C   UNL     1       6.535  -0.737   7.340  1.00  0.00     0.049 A 
ATOM     25  H   UNL     1       7.044  -2.621   6.609  1.00  0.00     0.167 HD
ATOM     26  C   UNL     1       8.024  -6.524   4.840  1.00  0.00     0.037 A 
ATOM     27  C   UNL     1       7.191  -0.567   8.501  1.00  0.00     0.037 A 
ATOM     28  C   UNL     1       8.759  -6.449   6.079  1.00  0.00     0.049 A 
ATOM     29  C   UNL     1       8.075  -1.676   8.982  1.00  0.00     0.074 A 
ATOM     30  C   UNL     1       9.616  -7.383   6.634  1.00  0.00     0.029 A 
ATOM     31  N   UNL     1       8.725  -5.371   6.954  1.00  0.00    -0.354 N 
ATOM     32  N   UNL     1       8.346  -2.824   8.408  1.00  0.00    -0.248 NA
ATOM     33  C   UNL     1       8.740  -1.473  10.272  1.00  0.00     0.031 C 
ATOM     34  C   UNL     1      10.064  -6.891   7.864  1.00  0.00     0.029 A 
ATOM     35  C   UNL     1       9.535  -5.624   8.051  1.00  0.00     0.049 A 
ATOM     36  H   UNL     1       8.203  -4.547   6.817  1.00  0.00     0.167 HD
ATOM     37  C   UNL     1       9.217  -3.478   9.263  1.00  0.00     0.074 A 
ATOM     38  C   UNL     1       9.460  -2.580  10.375  1.00  0.00     0.031 C 
ATOM     39  C   UNL     1       9.758  -4.715   9.148  1.00  0.00     0.037 A 
BRANCH  26  40
ATOM     40  C   UNL     1       8.167  -7.764   4.003  1.00  0.00     0.064 A 
ATOM     41  C   UNL     1       8.848  -7.752   2.777  1.00  0.00     0.173 A 
ATOM     42  C   UNL     1       7.664  -8.993   4.458  1.00  0.00     0.173 A 
ATOM     43  F   UNL     1       9.337  -6.602   2.287  1.00  0.00    -0.203 F 
ATOM     44  C   UNL     1       9.003  -8.917   2.029  1.00  0.00     0.198 A 
ATOM     45  C   UNL     1       7.846 -10.162   3.723  1.00  0.00     0.198 A 
ATOM     46  F   UNL     1       7.007  -9.065   5.626  1.00  0.00    -0.203 F 
ATOM     47  F   UNL     1       9.621  -8.872   0.841  1.00  0.00    -0.200 F 
ATOM     48  C   UNL     1       8.510 -10.122   2.507  1.00  0.00     0.200 A 
ATOM     49  F   UNL     1       7.381 -11.328   4.193  1.00  0.00    -0.200 F 
ATOM     50  F   UNL     1       8.671 -11.245   1.792  1.00  0.00    -0.200 F 
ENDBRANCH  26  40
BRANCH  27  51
ATOM     51  C   UNL     1       6.990   0.674   9.293  1.00  0.00     0.064 A 
ATOM     52  C   UNL     1       8.038   1.576   9.516  1.00  0.00     0.173 A 
ATOM     53  C   UNL     1       5.735   0.986   9.842  1.00  0.00     0.173 A 
ATOM     54  F   UNL     1       9.260   1.318   9.025  1.00  0.00    -0.203 F 
ATOM     55  C   UNL     1       7.847   2.726  10.280  1.00  0.00     0.198 A 
ATOM     56  C   UNL     1       5.535   2.156  10.569  1.00  0.00     0.198 A 
ATOM     57  F   UNL     1       4.693   0.164   9.649  1.00  0.00    -0.203 F 
ATOM     58  F   UNL     1       8.881   3.542  10.526  1.00  0.00    -0.200 F 
ATOM     59  C   UNL     1       6.595   3.018  10.799  1.00  0.00     0.200 A 
ATOM     60  F   UNL     1       4.317   2.445  11.045  1.00  0.00    -0.200 F 
ATOM     61  F   UNL     1       6.411   4.128  11.528  1.00  0.00    -0.200 F 
ENDBRANCH  27  51
BRANCH  39  62
ATOM     62  C   UNL     1      10.685  -5.145  10.246  1.00  0.00     0.064 A 
ATOM     63  C   UNL     1      10.216  -5.428  11.537  1.00  0.00     0.173 A 
ATOM     64  C   UNL     1      12.061  -5.269  10.004  1.00  0.00     0.173 A 
ATOM     65  F   UNL     1       8.911  -5.304  11.824  1.00  0.00    -0.203 F 
ATOM     66  C   UNL     1      11.096  -5.779  12.557  1.00  0.00     0.198 A 
ATOM     67  C   UNL     1      12.934  -5.655  11.016  1.00  0.00     0.198 A 
ATOM     68  F   UNL     1      12.560  -5.015   8.784  1.00  0.00    -0.203 F 
ATOM     69  F   UNL     1      10.634  -5.976  13.799  1.00  0.00    -0.200 F 
ATOM     70  C   UNL     1      12.452  -5.897  12.294  1.00  0.00     0.200 A 
ATOM     71  F   UNL     1      14.242  -5.783  10.758  1.00  0.00    -0.200 F 
ATOM     72  F   UNL     1      13.299  -6.232  13.277  1.00  0.00    -0.200 F 
ENDBRANCH  39  62
ENDBRANCH  13  14
ENDBRANCH   6   8
ENDBRANCH   3   4
ENDBRANCH   2   3
ENDBRANCH   1   2
BRANCH   1  73
ATOM     73  N   UNL     1       4.536   0.933  -3.787  1.00  0.00    -0.352 N 
ATOM     74  C   UNL     1       5.806   1.006  -4.287  1.00  0.00     0.251 C 
ATOM     75  H   UNL     1       3.958   1.729  -3.822  1.00  0.00     0.163 HD
ATOM     76  O   UNL     1       6.581   1.849  -3.847  1.00  0.00    -0.269 OA
BRANCH  74  77
ATOM     77  C   UNL     1       6.196   0.034  -5.343  1.00  0.00     0.047 A 
ATOM     78  C   UNL     1       7.539  -0.378  -5.333  1.00  0.00     0.014 A 
ATOM     79  C   UNL     1       5.304  -0.417  -6.349  1.00  0.00    -0.005 A 
ATOM     80  C   UNL     1       8.009  -1.277  -6.287  1.00  0.00     0.001 A 
ATOM     81  C   UNL     1       5.810  -1.343  -7.288  1.00  0.00     0.009 A 
ATOM     82  C   UNL     1       7.141  -1.769  -7.256  1.00  0.00     0.001 A 
BRANCH  79  83
ATOM     83  C   UNL     1       3.868  -0.040  -6.438  1.00  0.00    -0.005 A 
ATOM     84  C   UNL     1       2.942  -1.102  -6.242  1.00  0.00     0.009 A 
ATOM     85  C   UNL     1       3.346   1.275  -6.541  1.00  0.00     0.047 A 
ATOM     86  C   UNL     1       1.577  -0.883  -6.061  1.00  0.00     0.001 A 
ATOM     87  C   UNL     1       1.951   1.467  -6.379  1.00  0.00     0.014 A 
ATOM     88  C   UNL     1       1.080   0.407  -6.120  1.00  0.00     0.001 A 
BRANCH  85  89
ATOM     89  C   UNL     1       4.146   2.551  -6.565  1.00  0.00     0.254 C 
ATOM     90  O   UNL     1       3.624   3.562  -6.085  1.00  0.00    -0.269 OA
ATOM     91  N   UNL     1       5.467   2.571  -6.996  1.00  0.00    -0.327 N 
ATOM     92  C   UNL     1       6.333   3.592  -6.420  1.00  0.00     0.181 C 
ATOM     93  C   UNL     1       5.873   2.140  -8.326  1.00  0.00     0.181 C 
ATOM     94  C   UNL     1       7.823   3.192  -6.440  1.00  0.00     0.284 C 
ATOM     95  C   UNL     1       7.387   1.820  -8.436  1.00  0.00     0.284 C 
ATOM     96  N   UNL     1       8.354   2.653  -7.702  1.00  0.00    -0.328 N 
ATOM     97  H   UNL     1       9.070   1.985  -7.418  1.00  0.00     0.348 HD
BRANCH  96  98
ATOM     98  C   UNL     1       9.163   3.583  -8.500  1.00  0.00     0.299 C 
BRANCH  98  99
ATOM     99  C   UNL     1       8.359   4.741  -9.041  1.00  0.00     0.010 A 
ATOM    100  C   UNL     1       7.597   4.562 -10.219  1.00  0.00     0.013 A 
ATOM    101  C   UNL     1       8.131   5.847  -8.209  1.00  0.00     0.060 A 
ATOM    102  C   UNL     1       6.461   5.337 -10.445  1.00  0.00     0.051 A 
ATOM    103  C   UNL     1       6.966   6.542  -8.420  1.00  0.00     0.166 A 
ATOM    104  C   UNL     1       6.132   6.262  -9.480  1.00  0.00     0.165 A 
ATOM    105  O   UNL     1       6.389   7.383  -7.516  1.00  0.00    -0.454 OA
ATOM    106  O   UNL     1       4.929   6.888  -9.354  1.00  0.00    -0.454 OA
ATOM    107  C   UNL     1       5.024   7.324  -7.979  1.00  0.00     0.468 C 
ENDBRANCH  98  99
ENDBRANCH  96  98
ENDBRANCH  85  89
ENDBRANCH  79  83
ENDBRANCH  74  77
ENDBRANCH   1  73
TORSDOF 14
