REMARK SMILES C=CCOc1ccccc1/C=C/c1cc(C(=O)NCCCNC(=O)c2ccc(-c3c4nc(c(-c5c(F)c(F)c(F)c(F)c5F)c5ccc([nH]5)c(-c5c(F)c(F)c(F)c(F)c5F)c5nc(c(-c6c(F)c(F)c(F)c(F)c6F)c6ccc3[nH]6)C=C5)C=C4)cc2)ncn1
REMARK SMILES IDX 16 1 17 2 18 3 15 5 13 6 14 7 90 8 89 9 88 10 12 11 11 12
REMARK SMILES IDX 10 13 5 14 6 15 7 16 9 17 8 18 4 19 3 20 2 21 1 22 19 23
REMARK SMILES IDX 20 24 21 25 22 26 23 27 24 29 25 30 26 31 87 32 27 33 86 34
REMARK SMILES IDX 28 35 29 36 30 37 80 38 31 39 85 40 79 41 81 42 32 43 84 44
REMARK SMILES IDX 78 45 77 46 33 48 65 49 45 50 64 51 46 52 49 53 63 54 82 55
REMARK SMILES IDX 47 56 48 57 62 59 83 60 50 61 34 62 35 63 43 64 36 65 37 66
REMARK SMILES IDX 41 67 44 68 38 69 39 70 42 71 40 72 66 73 67 74 75 75 68 76
REMARK SMILES IDX 69 77 73 78 76 79 70 80 71 81 74 82 72 83 51 84 52 85 60 86
REMARK SMILES IDX 53 87 54 88 58 89 61 90 55 91 56 92 59 93 57 94
REMARK H PARENT 18 4 22 28 81 47 49 58
REMARK Flexibility Score: inf
ROOT
ATOM      1  C   UNL     1       5.013   1.010   2.763  1.00  0.00     0.270 C 
ATOM      2  O   UNL     1       6.088   1.587   2.929  1.00  0.00    -0.268 OA
ATOM      3  N   UNL     1       4.043   1.196   3.728  1.00  0.00    -0.351 N 
ATOM      4  H   UNL     1       4.344   1.728   4.500  1.00  0.00     0.163 HD
ENDROOT
BRANCH   1   5
ATOM      5  C   UNL     1       4.787   0.182   1.532  1.00  0.00     0.132 A 
ATOM      6  C   UNL     1       3.707  -1.498   0.318  1.00  0.00     0.067 A 
ATOM      7  C   UNL     1       4.005  -0.947   1.546  1.00  0.00     0.062 A 
ATOM      8  N   UNL     1       4.296  -1.087  -0.818  1.00  0.00    -0.237 NA
ATOM      9  C   UNL     1       5.135  -0.048  -0.707  1.00  0.00     0.223 A 
ATOM     10  N   UNL     1       5.387   0.638   0.411  1.00  0.00    -0.231 NA
BRANCH   6  11
ATOM     11  C   UNL     1       2.630  -2.484   0.141  1.00  0.00     0.029 C 
ATOM     12  C   UNL     1       1.550  -2.511   0.943  1.00  0.00     0.014 C 
BRANCH  12  13
ATOM     13  C   UNL     1       0.304  -3.259   0.711  1.00  0.00     0.017 A 
ATOM     14  C   UNL     1      -0.921  -2.708   1.138  1.00  0.00     0.126 A 
ATOM     15  C   UNL     1      -2.121  -3.405   0.987  1.00  0.00     0.047 A 
ATOM     16  C   UNL     1      -2.116  -4.656   0.374  1.00  0.00     0.004 A 
ATOM     17  C   UNL     1       0.291  -4.520   0.107  1.00  0.00     0.012 A 
ATOM     18  C   UNL     1      -0.914  -5.210  -0.068  1.00  0.00     0.001 A 
BRANCH  14  19
ATOM     19  O   UNL     1      -0.958  -1.482   1.763  1.00  0.00    -0.489 OA
BRANCH  19  20
ATOM     20  C   UNL     1      -1.287  -0.439   0.833  1.00  0.00     0.257 C 
BRANCH  20  21
ATOM     21  C   UNL     1      -0.143   0.532   0.785  1.00  0.00     0.006 C 
ATOM     22  C   UNL     1       0.600   0.773  -0.304  1.00  0.00     0.007 C 
ENDBRANCH  20  21
ENDBRANCH  19  20
ENDBRANCH  14  19
ENDBRANCH  12  13
ENDBRANCH   6  11
ENDBRANCH   1   5
BRANCH   3  23
ATOM     23  C   UNL     1       2.660   0.753   3.820  1.00  0.00     0.118 C 
BRANCH  23  24
ATOM     24  C   UNL     1       2.509  -0.424   4.786  1.00  0.00     0.042 C 
BRANCH  24  25
ATOM     25  C   UNL     1       2.608  -0.032   6.258  1.00  0.00     0.118 C 
BRANCH  25  26
ATOM     26  N   UNL     1       1.445   0.714   6.708  1.00  0.00    -0.352 N 
ATOM     27  C   UNL     1       0.618   0.513   7.780  1.00  0.00     0.251 C 
ATOM     28  H   UNL     1       1.213   1.492   6.149  1.00  0.00     0.163 HD
ATOM     29  O   UNL     1      -0.424   1.169   7.855  1.00  0.00    -0.269 OA
BRANCH  27  30
ATOM     30  C   UNL     1       0.933  -0.469   8.844  1.00  0.00     0.039 A 
ATOM     31  C   UNL     1      -0.131  -1.148   9.450  1.00  0.00     0.014 A 
ATOM     32  C   UNL     1       2.235  -0.673   9.313  1.00  0.00     0.014 A 
ATOM     33  C   UNL     1       0.109  -2.040  10.498  1.00  0.00     0.010 A 
ATOM     34  C   UNL     1       2.482  -1.617  10.312  1.00  0.00     0.010 A 
ATOM     35  C   UNL     1       1.420  -2.294  10.929  1.00  0.00    -0.014 A 
BRANCH  35  36
ATOM     36  C   UNL     1       1.674  -3.255  12.033  1.00  0.00     0.031 A 
ATOM     37  C   UNL     1       2.224  -2.785  13.351  1.00  0.00     0.074 A 
ATOM     38  C   UNL     1       1.439  -4.566  11.836  1.00  0.00     0.049 A 
ATOM     39  N   UNL     1       2.474  -3.474  14.437  1.00  0.00    -0.248 NA
ATOM     40  C   UNL     1       2.566  -1.359  13.455  1.00  0.00     0.031 C 
ATOM     41  C   UNL     1       0.981  -5.159  10.580  1.00  0.00     0.029 A 
ATOM     42  N   UNL     1       1.556  -5.635  12.688  1.00  0.00    -0.354 N 
ATOM     43  C   UNL     1       3.016  -2.571  15.343  1.00  0.00     0.074 A 
ATOM     44  C   UNL     1       3.106  -1.297  14.663  1.00  0.00     0.031 C 
ATOM     45  C   UNL     1       0.836  -6.483  10.748  1.00  0.00     0.029 A 
ATOM     46  C   UNL     1       1.204  -6.832  12.117  1.00  0.00     0.049 A 
ATOM     47  H   UNL     1       1.864  -5.551  13.620  1.00  0.00     0.167 HD
ATOM     48  C   UNL     1       3.384  -2.780  16.631  1.00  0.00     0.037 A 
ATOM     49  C   UNL     1       1.169  -8.072  12.641  1.00  0.00     0.037 A 
ATOM     50  C   UNL     1       3.264  -4.042  17.314  1.00  0.00     0.049 A 
ATOM     51  C   UNL     1       1.514  -8.270  14.090  1.00  0.00     0.074 A 
ATOM     52  C   UNL     1       3.527  -4.336  18.640  1.00  0.00     0.029 A 
ATOM     53  N   UNL     1       2.849  -5.224  16.718  1.00  0.00    -0.354 N 
ATOM     54  N   UNL     1       1.927  -7.389  14.968  1.00  0.00    -0.248 NA
ATOM     55  C   UNL     1       1.366  -9.630  14.627  1.00  0.00     0.031 C 
ATOM     56  C   UNL     1       3.309  -5.705  18.837  1.00  0.00     0.029 A 
ATOM     57  C   UNL     1       2.867  -6.255  17.644  1.00  0.00     0.049 A 
ATOM     58  H   UNL     1       2.581  -5.317  15.775  1.00  0.00     0.167 HD
ATOM     59  C   UNL     1       2.070  -8.079  16.164  1.00  0.00     0.074 A 
ATOM     60  C   UNL     1       1.683  -9.451  15.902  1.00  0.00     0.031 C 
ATOM     61  C   UNL     1       2.484  -7.616  17.369  1.00  0.00     0.037 A 
BRANCH  48  62
ATOM     62  C   UNL     1       3.953  -1.611  17.383  1.00  0.00     0.064 A 
ATOM     63  C   UNL     1       3.159  -0.514  17.753  1.00  0.00     0.173 A 
ATOM     64  C   UNL     1       5.307  -1.591  17.749  1.00  0.00     0.173 A 
ATOM     65  F   UNL     1       1.860  -0.478  17.420  1.00  0.00    -0.203 F 
ATOM     66  C   UNL     1       3.708   0.576  18.424  1.00  0.00     0.198 A 
ATOM     67  C   UNL     1       5.846  -0.513  18.448  1.00  0.00     0.198 A 
ATOM     68  F   UNL     1       6.110  -2.617  17.428  1.00  0.00    -0.203 F 
ATOM     69  F   UNL     1       2.942   1.637  18.714  1.00  0.00    -0.200 F 
ATOM     70  C   UNL     1       5.049   0.573  18.775  1.00  0.00     0.200 A 
ATOM     71  F   UNL     1       7.140  -0.522  18.796  1.00  0.00    -0.200 F 
ATOM     72  F   UNL     1       5.577   1.624  19.419  1.00  0.00    -0.200 F 
ENDBRANCH  48  62
BRANCH  49  73
ATOM     73  C   UNL     1       0.737  -9.207  11.788  1.00  0.00     0.064 A 
ATOM     74  C   UNL     1      -0.529  -9.787  11.948  1.00  0.00     0.173 A 
ATOM     75  C   UNL     1       1.559  -9.699  10.765  1.00  0.00     0.173 A 
ATOM     76  F   UNL     1      -1.343  -9.359  12.924  1.00  0.00    -0.203 F 
ATOM     77  C   UNL     1      -0.954 -10.824  11.120  1.00  0.00     0.198 A 
ATOM     78  C   UNL     1       1.124 -10.720   9.922  1.00  0.00     0.198 A 
ATOM     79  F   UNL     1       2.775  -9.169  10.567  1.00  0.00    -0.203 F 
ATOM     80  F   UNL     1      -2.159 -11.378  11.309  1.00  0.00    -0.200 F 
ATOM     81  C   UNL     1      -0.131 -11.283  10.102  1.00  0.00     0.200 A 
ATOM     82  F   UNL     1       1.915 -11.150   8.930  1.00  0.00    -0.200 F 
ATOM     83  F   UNL     1      -0.546 -12.268   9.295  1.00  0.00    -0.200 F 
ENDBRANCH  49  73
BRANCH  61  84
ATOM     84  C   UNL     1       2.524  -8.598  18.503  1.00  0.00     0.064 A 
ATOM     85  C   UNL     1       3.505  -9.599  18.573  1.00  0.00     0.173 A 
ATOM     86  C   UNL     1       1.590  -8.518  19.546  1.00  0.00     0.173 A 
ATOM     87  F   UNL     1       4.411  -9.726  17.592  1.00  0.00    -0.203 F 
ATOM     88  C   UNL     1       3.533 -10.499  19.635  1.00  0.00     0.198 A 
ATOM     89  C   UNL     1       1.637  -9.403  20.620  1.00  0.00     0.198 A 
ATOM     90  F   UNL     1       0.635  -7.576  19.528  1.00  0.00    -0.203 F 
ATOM     91  F   UNL     1       4.451 -11.475  19.660  1.00  0.00    -0.200 F 
ATOM     92  C   UNL     1       2.604 -10.396  20.660  1.00  0.00     0.200 A 
ATOM     93  F   UNL     1       0.745  -9.296  21.614  1.00  0.00    -0.200 F 
ATOM     94  F   UNL     1       2.635 -11.262  21.683  1.00  0.00    -0.200 F 
ENDBRANCH  61  84
ENDBRANCH  35  36
ENDBRANCH  27  30
ENDBRANCH  25  26
ENDBRANCH  24  25
ENDBRANCH  23  24
ENDBRANCH   3  23
TORSDOF 15
