REMARK SMILES CNC(=O)c1ccc(N(CCC(=O)NCCCNC(=O)c2ccc(-c3c4nc(c(-c5c(F)c(F)c(F)c(F)c5F)c5ccc([nH]5)c(-c5c(F)c(F)c(F)c(F)c5F)c5nc(c(-c6c(F)c(F)c(F)c(F)c6F)c6ccc3[nH]6)C=C5)C=C4)cc2)C2CC2)nn1
REMARK SMILES IDX 15 1 14 2 12 3 13 4 11 6 10 7 9 8 8 9 5 10 6 11 88 12 7 13
REMARK SMILES IDX 87 14 3 15 1 16 2 17 4 19 84 20 85 21 86 22 16 23 17 24
REMARK SMILES IDX 18 25 19 26 20 28 21 29 22 30 83 31 23 32 82 33 24 34 25 35
REMARK SMILES IDX 26 36 76 37 27 38 81 39 75 40 77 41 28 42 80 43 74 44 73 45
REMARK SMILES IDX 29 47 61 48 41 49 60 50 42 51 45 52 59 53 78 54 43 55 44 56
REMARK SMILES IDX 58 58 79 59 46 60 30 61 31 62 39 63 32 64 33 65 37 66 40 67
REMARK SMILES IDX 34 68 35 69 38 70 36 71 62 72 63 73 71 74 64 75 65 76 69 77
REMARK SMILES IDX 72 78 66 79 67 80 70 81 68 82 47 83 48 84 56 85 49 86 50 87
REMARK SMILES IDX 54 88 57 89 51 90 52 91 55 92 53 93
REMARK H PARENT 14 5 2 18 18 27 77 46 45 57
REMARK Flexibility Score: inf
ROOT
ATOM      1  C   UNL     1       0.072  -2.478  -5.822  1.00  0.00     0.117 C 
ENDROOT
BRANCH   1   2
ATOM      2  N   UNL     1      -0.487  -2.315  -7.154  1.00  0.00    -0.356 N 
ATOM      3  C   UNL     1      -0.800  -1.193  -7.866  1.00  0.00     0.221 C 
ATOM      4  O   UNL     1      -1.278  -1.345  -8.993  1.00  0.00    -0.275 OA
ATOM      5  H   UNL     1      -0.672  -3.160  -7.624  1.00  0.00     0.163 HD
BRANCH   3   6
ATOM      6  C   UNL     1      -0.585   0.191  -7.301  1.00  0.00     0.121 C 
BRANCH   6   7
ATOM      7  C   UNL     1      -1.914   0.865  -6.971  1.00  0.00     0.128 C 
BRANCH   7   8
ATOM      8  N   UNL     1      -2.583   0.267  -5.794  1.00  0.00    -0.352 N 
BRANCH   8   9
ATOM      9  C   UNL     1      -2.087   0.687  -4.539  1.00  0.00     0.151 A 
ATOM     10  C   UNL     1      -0.926   1.446  -2.132  1.00  0.00     0.150 A 
ATOM     11  C   UNL     1      -1.906   0.475  -2.119  1.00  0.00     0.040 A 
ATOM     12  N   UNL     1      -0.525   2.017  -3.279  1.00  0.00    -0.143 NA
ATOM     13  C   UNL     1      -2.509   0.121  -3.336  1.00  0.00     0.051 A 
ATOM     14  N   UNL     1      -1.092   1.604  -4.478  1.00  0.00    -0.132 NA
BRANCH  10  15
ATOM     15  C   UNL     1      -0.377   2.013  -0.878  1.00  0.00     0.271 C 
ATOM     16  C   UNL     1       0.982  -0.052  -0.258  1.00  0.00     0.143 C 
ATOM     17  N   UNL     1       0.411   1.256  -0.044  1.00  0.00    -0.354 N 
ATOM     18  H   UNL     1       0.617   1.666   0.827  1.00  0.00     0.163 HD
ATOM     19  O   UNL     1      -0.660   3.164  -0.555  1.00  0.00    -0.267 OA
ENDBRANCH  10  15
ENDBRANCH   8   9
BRANCH   8  20
ATOM     20  C   UNL     1      -3.919  -0.301  -6.064  1.00  0.00     0.084 C 
ATOM     21  C   UNL     1      -3.994  -1.603  -6.839  1.00  0.00     0.027 C 
ATOM     22  C   UNL     1      -4.581  -1.512  -5.471  1.00  0.00     0.027 C 
ENDBRANCH   8  20
ENDBRANCH   7   8
ENDBRANCH   6   7
ENDBRANCH   3   6
ENDBRANCH   1   2
BRANCH   1  23
ATOM     23  C   UNL     1      -0.971  -2.745  -4.737  1.00  0.00     0.042 C 
BRANCH  23  24
ATOM     24  C   UNL     1      -1.837  -3.995  -4.874  1.00  0.00     0.118 C 
BRANCH  24  25
ATOM     25  N   UNL     1      -1.183  -5.209  -4.434  1.00  0.00    -0.352 N 
ATOM     26  C   UNL     1      -1.607  -6.159  -3.535  1.00  0.00     0.251 C 
ATOM     27  H   UNL     1      -0.302  -5.380  -4.840  1.00  0.00     0.163 HD
ATOM     28  O   UNL     1      -0.849  -7.077  -3.234  1.00  0.00    -0.269 OA
BRANCH  26  29
ATOM     29  C   UNL     1      -2.944  -6.089  -2.885  1.00  0.00     0.039 A 
ATOM     30  C   UNL     1      -3.013  -6.331  -1.508  1.00  0.00     0.014 A 
ATOM     31  C   UNL     1      -4.127  -5.883  -3.602  1.00  0.00     0.014 A 
ATOM     32  C   UNL     1      -4.248  -6.340  -0.850  1.00  0.00     0.010 A 
ATOM     33  C   UNL     1      -5.362  -5.848  -2.933  1.00  0.00     0.010 A 
ATOM     34  C   UNL     1      -5.439  -6.088  -1.550  1.00  0.00    -0.014 A 
BRANCH  34  35
ATOM     35  C   UNL     1      -6.747  -6.095  -0.828  1.00  0.00     0.031 A 
ATOM     36  C   UNL     1      -7.775  -7.167  -1.098  1.00  0.00     0.074 A 
ATOM     37  C   UNL     1      -7.018  -5.140   0.086  1.00  0.00     0.049 A 
ATOM     38  N   UNL     1      -8.947  -7.351  -0.539  1.00  0.00    -0.248 NA
ATOM     39  C   UNL     1      -7.451  -8.153  -2.139  1.00  0.00     0.031 C 
ATOM     40  C   UNL     1      -6.133  -4.026   0.427  1.00  0.00     0.029 A 
ATOM     41  N   UNL     1      -8.113  -4.950   0.897  1.00  0.00    -0.354 N 
ATOM     42  C   UNL     1      -9.502  -8.460  -1.166  1.00  0.00     0.074 A 
ATOM     43  C   UNL     1      -8.555  -8.888  -2.174  1.00  0.00     0.031 C 
ATOM     44  C   UNL     1      -6.709  -3.282   1.386  1.00  0.00     0.029 A 
ATOM     45  C   UNL     1      -8.018  -3.844   1.708  1.00  0.00     0.049 A 
ATOM     46  H   UNL     1      -8.893  -5.551   0.897  1.00  0.00     0.167 HD
ATOM     47  C   UNL     1     -10.684  -9.076  -0.915  1.00  0.00     0.037 A 
ATOM     48  C   UNL     1      -8.887  -3.333   2.605  1.00  0.00     0.037 A 
ATOM     49  C   UNL     1     -11.615  -8.676   0.109  1.00  0.00     0.049 A 
ATOM     50  C   UNL     1     -10.196  -4.038   2.855  1.00  0.00     0.074 A 
ATOM     51  C   UNL     1     -12.795  -9.294   0.488  1.00  0.00     0.029 A 
ATOM     52  N   UNL     1     -11.480  -7.552   0.909  1.00  0.00    -0.354 N 
ATOM     53  N   UNL     1     -10.658  -5.143   2.323  1.00  0.00    -0.248 NA
ATOM     54  C   UNL     1     -11.102  -3.429   3.841  1.00  0.00     0.031 C 
ATOM     55  C   UNL     1     -13.407  -8.509   1.470  1.00  0.00     0.029 A 
ATOM     56  C   UNL     1     -12.575  -7.439   1.752  1.00  0.00     0.049 A 
ATOM     57  H   UNL     1     -10.719  -6.928   0.883  1.00  0.00     0.167 HD
ATOM     58  C   UNL     1     -11.884  -5.378   2.932  1.00  0.00     0.074 A 
ATOM     59  C   UNL     1     -12.088  -4.313   3.889  1.00  0.00     0.031 C 
ATOM     60  C   UNL     1     -12.765  -6.386   2.715  1.00  0.00     0.037 A 
BRANCH  47  61
ATOM     61  C   UNL     1     -11.063 -10.258  -1.764  1.00  0.00     0.064 A 
ATOM     62  C   UNL     1     -10.418 -11.497  -1.637  1.00  0.00     0.173 A 
ATOM     63  C   UNL     1     -12.152 -10.173  -2.646  1.00  0.00     0.173 A 
ATOM     64  F   UNL     1      -9.370 -11.632  -0.811  1.00  0.00    -0.203 F 
ATOM     65  C   UNL     1     -10.839 -12.602  -2.374  1.00  0.00     0.198 A 
ATOM     66  C   UNL     1     -12.588 -11.287  -3.358  1.00  0.00     0.198 A 
ATOM     67  F   UNL     1     -12.812  -9.015  -2.796  1.00  0.00    -0.203 F 
ATOM     68  F   UNL     1     -10.188 -13.768  -2.260  1.00  0.00    -0.200 F 
ATOM     69  C   UNL     1     -11.929 -12.499  -3.225  1.00  0.00     0.200 A 
ATOM     70  F   UNL     1     -13.654 -11.190  -4.166  1.00  0.00    -0.200 F 
ATOM     71  F   UNL     1     -12.345 -13.569  -3.917  1.00  0.00    -0.200 F 
ENDBRANCH  47  61
BRANCH  48  72
ATOM     72  C   UNL     1      -8.563  -2.078   3.340  1.00  0.00     0.064 A 
ATOM     73  C   UNL     1      -8.389  -2.073   4.732  1.00  0.00     0.173 A 
ATOM     74  C   UNL     1      -8.481  -0.846   2.672  1.00  0.00     0.173 A 
ATOM     75  F   UNL     1      -8.479  -3.219   5.422  1.00  0.00    -0.203 F 
ATOM     76  C   UNL     1      -8.187  -0.883   5.430  1.00  0.00     0.198 A 
ATOM     77  C   UNL     1      -8.243   0.338   3.367  1.00  0.00     0.198 A 
ATOM     78  F   UNL     1      -8.636  -0.792   1.341  1.00  0.00    -0.203 F 
ATOM     79  F   UNL     1      -8.097  -0.901   6.767  1.00  0.00    -0.200 F 
ATOM     80  C   UNL     1      -8.111   0.321   4.747  1.00  0.00     0.200 A 
ATOM     81  F   UNL     1      -8.154   1.496   2.700  1.00  0.00    -0.200 F 
ATOM     82  F   UNL     1      -7.925   1.465   5.419  1.00  0.00    -0.200 F 
ENDBRANCH  48  72
BRANCH  60  83
ATOM     83  C   UNL     1     -14.009  -6.417   3.557  1.00  0.00     0.064 A 
ATOM     84  C   UNL     1     -15.033  -5.470   3.402  1.00  0.00     0.173 A 
ATOM     85  C   UNL     1     -14.197  -7.434   4.507  1.00  0.00     0.173 A 
ATOM     86  F   UNL     1     -14.899  -4.470   2.518  1.00  0.00    -0.203 F 
ATOM     87  C   UNL     1     -16.183  -5.522   4.187  1.00  0.00     0.198 A 
ATOM     88  C   UNL     1     -15.364  -7.503   5.265  1.00  0.00     0.198 A 
ATOM     89  F   UNL     1     -13.255  -8.370   4.692  1.00  0.00    -0.203 F 
ATOM     90  F   UNL     1     -17.123  -4.575   4.058  1.00  0.00    -0.200 F 
ATOM     91  C   UNL     1     -16.351  -6.543   5.111  1.00  0.00     0.200 A 
ATOM     92  F   UNL     1     -15.531  -8.500   6.144  1.00  0.00    -0.200 F 
ATOM     93  F   UNL     1     -17.462  -6.596   5.858  1.00  0.00    -0.200 F 
ENDBRANCH  60  83
ENDBRANCH  34  35
ENDBRANCH  26  29
ENDBRANCH  24  25
ENDBRANCH  23  24
ENDBRANCH   1  23
TORSDOF 15
