REMARK SMILES C[C@@H]([NH3+])CCC(=O)N[C@H]1C=C[C@@H](C(=O)NCCCNC(=O)c2ccc(-c3c4nc(c(-c5c(F)c(F)c(F)c(F)c5F)c5ccc([nH]5)c(-c5c(F)c(F)c(F)c(F)c5F)c5nc(c(-c6c(F)c(F)c(F)c(F)c6F)c6ccc3[nH]6)C=C5)C=C4)cc2)C1
REMARK SMILES IDX 13 1 14 2 15 3 12 5 9 6 10 7 85 8 11 9 8 10 6 11 7 12 5 14
REMARK SMILES IDX 4 15 2 16 1 17 3 18 16 22 17 23 18 24 19 25 20 26 21 28
REMARK SMILES IDX 22 29 23 30 84 31 24 32 83 33 25 34 26 35 27 36 77 37 28 38
REMARK SMILES IDX 82 39 76 40 78 41 29 42 81 43 75 44 74 45 30 47 62 48 42 49
REMARK SMILES IDX 61 50 43 51 46 52 60 53 79 54 44 55 45 56 59 58 80 59 47 60
REMARK SMILES IDX 31 61 32 62 40 63 33 64 34 65 38 66 41 67 35 68 36 69 39 70
REMARK SMILES IDX 37 71 63 72 64 73 72 74 65 75 66 76 70 77 73 78 67 79 68 80
REMARK SMILES IDX 71 81 69 82 48 83 49 84 57 85 50 86 51 87 55 88 58 89 52 90
REMARK SMILES IDX 53 91 56 92 54 93
REMARK H PARENT 15 4 8 13 3 19 3 20 3 21 19 27 78 46 46 57
REMARK Flexibility Score: inf
ROOT
ATOM      1  C   UNL     1       0.674   0.206   1.777  1.00  0.00     0.227 C 
ATOM      2  O   UNL     1       1.171  -0.464   2.702  1.00  0.00    -0.274 OA
ATOM      3  N   UNL     1      -0.615   0.573   2.026  1.00  0.00    -0.356 N 
ATOM      4  H   UNL     1      -0.853   0.367   2.958  1.00  0.00     0.163 HD
ENDROOT
BRANCH   1   5
ATOM      5  C   UNL     1       1.622   0.522   0.563  1.00  0.00     0.103 C 
ATOM      6  C   UNL     1       2.314  -0.613  -1.577  1.00  0.00     0.106 C 
ATOM      7  C   UNL     1       1.653   0.701  -1.808  1.00  0.00    -0.006 C 
ATOM      8  C   UNL     1       2.290  -0.772  -0.033  1.00  0.00     0.047 C 
ATOM      9  C   UNL     1       1.275   1.304  -0.666  1.00  0.00    -0.016 C 
BRANCH   6  10
ATOM     10  N   UNL     1       2.006  -1.674  -2.589  1.00  0.00    -0.350 N 
ATOM     11  C   UNL     1       1.144  -2.486  -3.244  1.00  0.00     0.220 C 
ATOM     12  O   UNL     1       1.695  -3.098  -4.179  1.00  0.00    -0.275 OA
ATOM     13  H   UNL     1       2.883  -1.894  -2.978  1.00  0.00     0.164 HD
BRANCH  11  14
ATOM     14  C   UNL     1      -0.363  -2.733  -3.108  1.00  0.00     0.106 C 
BRANCH  14  15
ATOM     15  C   UNL     1      -0.884  -3.325  -1.797  1.00  0.00     0.074 C 
BRANCH  15  16
ATOM     16  C   UNL     1      -0.496  -2.410  -0.670  1.00  0.00     0.178 C 
ATOM     17  C   UNL     1      -0.952  -1.015  -1.046  1.00  0.00     0.075 C 
BRANCH  16  18
ATOM     18  N   UNL     1      -0.979  -2.819   0.643  1.00  0.00    -0.355 N 
ATOM     19  H   UNL     1      -1.999  -2.819   0.645  1.00  0.00     0.344 HD
ATOM     20  H   UNL     1      -0.637  -2.167   1.349  1.00  0.00     0.344 HD
ATOM     21  H   UNL     1      -0.639  -3.758   0.853  1.00  0.00     0.344 HD
ENDBRANCH  16  18
ENDBRANCH  15  16
ENDBRANCH  14  15
ENDBRANCH  11  14
ENDBRANCH   6  10
ENDBRANCH   1   5
BRANCH   3  22
ATOM     22  C   UNL     1      -1.769   1.187   1.323  1.00  0.00     0.117 C 
BRANCH  22  23
ATOM     23  C   UNL     1      -2.849   0.144   0.904  1.00  0.00     0.042 C 
BRANCH  23  24
ATOM     24  C   UNL     1      -4.216   0.043   1.589  1.00  0.00     0.118 C 
BRANCH  24  25
ATOM     25  N   UNL     1      -5.284   0.595   0.755  1.00  0.00    -0.352 N 
ATOM     26  C   UNL     1      -6.232   0.085  -0.106  1.00  0.00     0.251 C 
ATOM     27  H   UNL     1      -5.339   1.575   0.827  1.00  0.00     0.163 HD
ATOM     28  O   UNL     1      -6.800   0.916  -0.821  1.00  0.00    -0.269 OA
BRANCH  26  29
ATOM     29  C   UNL     1      -6.656  -1.349  -0.247  1.00  0.00     0.039 A 
ATOM     30  C   UNL     1      -7.356  -1.700  -1.421  1.00  0.00     0.014 A 
ATOM     31  C   UNL     1      -6.550  -2.325   0.743  1.00  0.00     0.014 A 
ATOM     32  C   UNL     1      -7.933  -2.973  -1.597  1.00  0.00     0.010 A 
ATOM     33  C   UNL     1      -7.077  -3.622   0.543  1.00  0.00     0.010 A 
ATOM     34  C   UNL     1      -7.796  -3.962  -0.617  1.00  0.00    -0.014 A 
BRANCH  34  35
ATOM     35  C   UNL     1      -8.433  -5.315  -0.768  1.00  0.00     0.031 A 
ATOM     36  C   UNL     1      -9.494  -5.781   0.204  1.00  0.00     0.074 A 
ATOM     37  C   UNL     1      -8.058  -6.158  -1.754  1.00  0.00     0.049 A 
ATOM     38  N   UNL     1     -10.084  -6.950   0.305  1.00  0.00    -0.248 NA
ATOM     39  C   UNL     1      -9.936  -4.807   1.211  1.00  0.00     0.031 C 
ATOM     40  C   UNL     1      -7.051  -5.872  -2.773  1.00  0.00     0.029 A 
ATOM     41  N   UNL     1      -8.473  -7.439  -2.051  1.00  0.00    -0.354 N 
ATOM     42  C   UNL     1     -10.934  -6.861   1.403  1.00  0.00     0.074 A 
ATOM     43  C   UNL     1     -10.758  -5.533   1.954  1.00  0.00     0.031 C 
ATOM     44  C   UNL     1      -6.932  -6.935  -3.587  1.00  0.00     0.029 A 
ATOM     45  C   UNL     1      -7.824  -7.997  -3.127  1.00  0.00     0.049 A 
ATOM     46  H   UNL     1      -9.171  -7.910  -1.541  1.00  0.00     0.167 HD
ATOM     47  C   UNL     1     -11.793  -7.786   1.902  1.00  0.00     0.037 A 
ATOM     48  C   UNL     1      -7.917  -9.226  -3.677  1.00  0.00     0.037 A 
ATOM     49  C   UNL     1     -12.015  -9.094   1.338  1.00  0.00     0.049 A 
ATOM     50  C   UNL     1      -8.871 -10.241  -3.103  1.00  0.00     0.074 A 
ATOM     51  C   UNL     1     -12.912 -10.069   1.746  1.00  0.00     0.029 A 
ATOM     52  N   UNL     1     -11.340  -9.611   0.244  1.00  0.00    -0.354 N 
ATOM     53  N   UNL     1      -9.688 -10.127  -2.086  1.00  0.00    -0.248 NA
ATOM     54  C   UNL     1      -8.915 -11.559  -3.757  1.00  0.00     0.031 C 
ATOM     55  C   UNL     1     -12.750 -11.190   0.925  1.00  0.00     0.029 A 
ATOM     56  C   UNL     1     -11.786 -10.897  -0.025  1.00  0.00     0.049 A 
ATOM     57  H   UNL     1     -10.646  -9.135  -0.268  1.00  0.00     0.167 HD
ATOM     58  C   UNL     1     -10.359 -11.341  -1.995  1.00  0.00     0.074 A 
ATOM     59  C   UNL     1      -9.864 -12.175  -3.069  1.00  0.00     0.031 C 
ATOM     60  C   UNL     1     -11.300 -11.725  -1.099  1.00  0.00     0.037 A 
BRANCH  47  61
ATOM     61  C   UNL     1     -12.567  -7.420   3.138  1.00  0.00     0.064 A 
ATOM     62  C   UNL     1     -13.597  -6.467   3.111  1.00  0.00     0.173 A 
ATOM     63  C   UNL     1     -12.303  -8.062   4.359  1.00  0.00     0.173 A 
ATOM     64  F   UNL     1     -13.888  -5.822   1.971  1.00  0.00    -0.203 F 
ATOM     65  C   UNL     1     -14.305  -6.142   4.265  1.00  0.00     0.198 A 
ATOM     66  C   UNL     1     -13.035  -7.757   5.504  1.00  0.00     0.198 A 
ATOM     67  F   UNL     1     -11.340  -8.993   4.440  1.00  0.00    -0.203 F 
ATOM     68  F   UNL     1     -15.247  -5.189   4.225  1.00  0.00    -0.200 F 
ATOM     69  C   UNL     1     -14.028  -6.791   5.459  1.00  0.00     0.200 A 
ATOM     70  F   UNL     1     -12.777  -8.397   6.653  1.00  0.00    -0.200 F 
ATOM     71  F   UNL     1     -14.713  -6.479   6.568  1.00  0.00    -0.200 F 
ENDBRANCH  47  61
BRANCH  48  72
ATOM     72  C   UNL     1      -7.083  -9.572  -4.861  1.00  0.00     0.064 A 
ATOM     73  C   UNL     1      -7.666  -9.746  -6.124  1.00  0.00     0.173 A 
ATOM     74  C   UNL     1      -5.696  -9.749  -4.752  1.00  0.00     0.173 A 
ATOM     75  F   UNL     1      -8.993  -9.620  -6.272  1.00  0.00    -0.203 F 
ATOM     76  C   UNL     1      -6.895 -10.094  -7.232  1.00  0.00     0.198 A 
ATOM     77  C   UNL     1      -4.923 -10.071  -5.866  1.00  0.00     0.198 A 
ATOM     78  F   UNL     1      -5.091  -9.602  -3.565  1.00  0.00    -0.203 F 
ATOM     79  F   UNL     1      -7.484 -10.297  -8.418  1.00  0.00    -0.200 F 
ATOM     80  C   UNL     1      -5.523 -10.249  -7.103  1.00  0.00     0.200 A 
ATOM     81  F   UNL     1      -3.596 -10.212  -5.740  1.00  0.00    -0.200 F 
ATOM     82  F   UNL     1      -4.782 -10.579  -8.170  1.00  0.00    -0.200 F 
ENDBRANCH  48  72
BRANCH  60  83
ATOM     83  C   UNL     1     -11.889 -13.098  -1.255  1.00  0.00     0.064 A 
ATOM     84  C   UNL     1     -11.159 -14.254  -0.943  1.00  0.00     0.173 A 
ATOM     85  C   UNL     1     -13.216 -13.258  -1.685  1.00  0.00     0.173 A 
ATOM     86  F   UNL     1      -9.882 -14.157  -0.541  1.00  0.00    -0.203 F 
ATOM     87  C   UNL     1     -11.727 -15.519  -1.076  1.00  0.00     0.198 A 
ATOM     88  C   UNL     1     -13.789 -14.522  -1.792  1.00  0.00     0.198 A 
ATOM     89  F   UNL     1     -13.961 -12.185  -1.991  1.00  0.00    -0.203 F 
ATOM     90  F   UNL     1     -10.995 -16.611  -0.813  1.00  0.00    -0.200 F 
ATOM     91  C   UNL     1     -13.043 -15.652  -1.494  1.00  0.00     0.200 A 
ATOM     92  F   UNL     1     -15.065 -14.648  -2.184  1.00  0.00    -0.200 F 
ATOM     93  F   UNL     1     -13.589 -16.870  -1.615  1.00  0.00    -0.200 F 
ENDBRANCH  60  83
ENDBRANCH  34  35
ENDBRANCH  26  29
ENDBRANCH  24  25
ENDBRANCH  23  24
ENDBRANCH  22  23
ENDBRANCH   3  22
TORSDOF 15
