REMARK SMILES C[C@@H](C(=O)NCCCNC(=O)c1ccc(-c2c3nc(c(-c4c(F)c(F)c(F)c(F)c4F)c4ccc([nH]4)c(-c4c(F)c(F)c(F)c(F)c4F)c4nc(c(-c5c(F)c(F)c(F)c(F)c5F)c5ccc2[nH]5)C=C4)C=C3)cc1)c1ccc2c3cc(Cl)ccc3n(C(=O)c3cocn3)c2c1
REMARK SMILES IDX 6 1 5 2 3 3 4 4 2 6 1 7 75 8 76 9 95 10 77 11 94 12 78 13
REMARK SMILES IDX 86 14 79 15 85 16 80 17 84 18 81 19 83 20 82 21 87 22 88 23
REMARK SMILES IDX 89 24 90 25 93 26 91 27 92 28 7 29 8 30 9 31 10 32 11 34
REMARK SMILES IDX 12 35 13 36 74 37 14 38 73 39 15 40 16 41 17 42 67 43 18 44
REMARK SMILES IDX 72 45 66 46 68 47 19 48 71 49 65 50 64 51 20 53 52 54 32 55
REMARK SMILES IDX 51 56 33 57 36 58 50 59 69 60 34 61 35 62 49 64 70 65 37 66
REMARK SMILES IDX 21 67 22 68 30 69 23 70 24 71 28 72 31 73 25 74 26 75 29 76
REMARK SMILES IDX 27 77 53 78 54 79 62 80 55 81 56 82 60 83 63 84 57 85 58 86
REMARK SMILES IDX 61 87 59 88 38 89 39 90 47 91 40 92 41 93 45 94 48 95 42 96
REMARK SMILES IDX 43 97 46 98 44 99
REMARK H PARENT 5 5 9 33 68 52 36 63
REMARK Flexibility Score: inf
ROOT
ATOM      1  C   UNL     1       3.547  -1.944  -0.768  1.00  0.00     0.117 C 
ENDROOT
BRANCH   1   2
ATOM      2  N   UNL     1       2.475  -2.588  -0.035  1.00  0.00    -0.356 N 
ATOM      3  C   UNL     1       1.266  -2.081   0.344  1.00  0.00     0.227 C 
ATOM      4  O   UNL     1       0.747  -2.588   1.341  1.00  0.00    -0.274 OA
ATOM      5  H   UNL     1       2.643  -3.522   0.226  1.00  0.00     0.163 HD
BRANCH   3   6
ATOM      6  C   UNL     1       0.639  -0.919  -0.444  1.00  0.00     0.105 C 
ATOM      7  C   UNL     1       1.067   0.376   0.259  1.00  0.00     0.023 C 
BRANCH   6   8
ATOM      8  C   UNL     1      -0.886  -1.005  -0.625  1.00  0.00    -0.034 A 
ATOM      9  C   UNL     1      -1.613   0.116  -1.043  1.00  0.00     0.005 A 
ATOM     10  C   UNL     1      -1.587  -2.207  -0.420  1.00  0.00     0.032 A 
ATOM     11  C   UNL     1      -3.006   0.077  -1.180  1.00  0.00     0.011 A 
ATOM     12  C   UNL     1      -2.999  -2.232  -0.482  1.00  0.00     0.058 A 
ATOM     13  C   UNL     1      -3.710  -1.104  -0.876  1.00  0.00     0.008 A 
ATOM     14  N   UNL     1      -3.915  -3.264  -0.214  1.00  0.00    -0.274 N 
ATOM     15  C   UNL     1      -5.091  -1.433  -0.849  1.00  0.00     0.009 A 
ATOM     16  C   UNL     1      -5.213  -2.745  -0.373  1.00  0.00     0.057 A 
ATOM     17  C   UNL     1      -6.252  -0.681  -1.136  1.00  0.00     0.031 A 
ATOM     18  C   UNL     1      -6.487  -3.275  -0.078  1.00  0.00     0.029 A 
ATOM     19  C   UNL     1      -7.507  -1.236  -0.899  1.00  0.00     0.041 A 
ATOM     20  C   UNL     1      -7.625  -2.509  -0.363  1.00  0.00     0.023 A 
ATOM     21  Cl  UNL     1      -8.920  -0.312  -1.236  1.00  0.00    -0.084 Cl
BRANCH  14  22
ATOM     22  C   UNL     1      -3.553  -4.576   0.204  1.00  0.00     0.284 C 
ATOM     23  O   UNL     1      -2.454  -4.687   0.757  1.00  0.00    -0.266 OA
BRANCH  22  24
ATOM     24  C   UNL     1      -4.354  -5.777  -0.001  1.00  0.00     0.167 A 
ATOM     25  C   UNL     1      -5.232  -6.069  -1.023  1.00  0.00     0.231 A 
ATOM     26  N   UNL     1      -4.226  -6.905   0.799  1.00  0.00    -0.211 NA
ATOM     27  O   UNL     1      -5.676  -7.349  -0.862  1.00  0.00    -0.451 OA
ATOM     28  C   UNL     1      -5.016  -7.790   0.243  1.00  0.00     0.308 A 
ENDBRANCH  22  24
ENDBRANCH  14  22
ENDBRANCH   6   8
ENDBRANCH   3   6
ENDBRANCH   1   2
BRANCH   1  29
ATOM     29  C   UNL     1       4.539  -1.274   0.185  1.00  0.00     0.042 C 
BRANCH  29  30
ATOM     30  C   UNL     1       5.234  -2.233   1.147  1.00  0.00     0.118 C 
BRANCH  30  31
ATOM     31  N   UNL     1       6.176  -3.109   0.473  1.00  0.00    -0.352 N 
ATOM     32  C   UNL     1       7.512  -3.308   0.710  1.00  0.00     0.251 C 
ATOM     33  H   UNL     1       5.798  -3.640  -0.265  1.00  0.00     0.163 HD
ATOM     34  O   UNL     1       8.178  -3.951  -0.097  1.00  0.00    -0.269 OA
BRANCH  32  35
ATOM     35  C   UNL     1       8.168  -2.747   1.915  1.00  0.00     0.039 A 
ATOM     36  C   UNL     1       9.463  -2.235   1.789  1.00  0.00     0.014 A 
ATOM     37  C   UNL     1       7.553  -2.778   3.170  1.00  0.00     0.014 A 
ATOM     38  C   UNL     1      10.127  -1.729   2.909  1.00  0.00     0.010 A 
ATOM     39  C   UNL     1       8.188  -2.209   4.274  1.00  0.00     0.010 A 
ATOM     40  C   UNL     1       9.490  -1.698   4.159  1.00  0.00    -0.014 A 
BRANCH  40  41
ATOM     41  C   UNL     1      10.193  -1.177   5.359  1.00  0.00     0.031 A 
ATOM     42  C   UNL     1      10.546  -2.105   6.490  1.00  0.00     0.074 A 
ATOM     43  C   UNL     1      10.487   0.134   5.448  1.00  0.00     0.049 A 
ATOM     44  N   UNL     1      11.132  -1.837   7.631  1.00  0.00    -0.248 NA
ATOM     45  C   UNL     1      10.166  -3.517   6.329  1.00  0.00     0.031 C 
ATOM     46  C   UNL     1      10.158   1.144   4.443  1.00  0.00     0.029 A 
ATOM     47  N   UNL     1      11.126   0.842   6.436  1.00  0.00    -0.354 N 
ATOM     48  C   UNL     1      11.174  -3.039   8.325  1.00  0.00     0.074 A 
ATOM     49  C   UNL     1      10.512  -4.027   7.501  1.00  0.00     0.031 C 
ATOM     50  C   UNL     1      10.614   2.338   4.854  1.00  0.00     0.029 A 
ATOM     51  C   UNL     1      11.246   2.182   6.162  1.00  0.00     0.049 A 
ATOM     52  H   UNL     1      11.465   0.428   7.262  1.00  0.00     0.167 HD
ATOM     53  C   UNL     1      11.734  -3.302   9.530  1.00  0.00     0.037 A 
ATOM     54  C   UNL     1      11.805   3.172   6.883  1.00  0.00     0.037 A 
ATOM     55  C   UNL     1      12.422  -2.328  10.335  1.00  0.00     0.049 A 
ATOM     56  C   UNL     1      12.448   2.849   8.204  1.00  0.00     0.074 A 
ATOM     57  C   UNL     1      13.069  -2.507  11.545  1.00  0.00     0.029 A 
ATOM     58  N   UNL     1      12.556  -0.987  10.005  1.00  0.00    -0.354 N 
ATOM     59  N   UNL     1      12.536   1.696   8.822  1.00  0.00    -0.248 NA
ATOM     60  C   UNL     1      13.083   3.963   8.922  1.00  0.00     0.031 C 
ATOM     61  C   UNL     1      13.569  -1.268  11.963  1.00  0.00     0.029 A 
ATOM     62  C   UNL     1      13.268  -0.326  10.993  1.00  0.00     0.049 A 
ATOM     63  H   UNL     1      12.198  -0.568   9.189  1.00  0.00     0.167 HD
ATOM     64  C   UNL     1      13.256   1.939   9.983  1.00  0.00     0.074 A 
ATOM     65  C   UNL     1      13.594   3.348   9.978  1.00  0.00     0.031 C 
ATOM     66  C   UNL     1      13.605   1.074  10.966  1.00  0.00     0.037 A 
BRANCH  53  67
ATOM     67  C   UNL     1      11.632  -4.707  10.048  1.00  0.00     0.064 A 
ATOM     68  C   UNL     1      12.364  -5.756   9.472  1.00  0.00     0.173 A 
ATOM     69  C   UNL     1      10.817  -5.004  11.150  1.00  0.00     0.173 A 
ATOM     70  F   UNL     1      13.149  -5.527   8.408  1.00  0.00    -0.203 F 
ATOM     71  C   UNL     1      12.261  -7.056   9.961  1.00  0.00     0.198 A 
ATOM     72  C   UNL     1      10.737  -6.300  11.654  1.00  0.00     0.198 A 
ATOM     73  F   UNL     1      10.100  -4.037  11.742  1.00  0.00    -0.203 F 
ATOM     74  F   UNL     1      12.932  -8.050   9.363  1.00  0.00    -0.200 F 
ATOM     75  C   UNL     1      11.453  -7.325  11.055  1.00  0.00     0.200 A 
ATOM     76  F   UNL     1       9.965  -6.557  12.719  1.00  0.00    -0.200 F 
ATOM     77  F   UNL     1      11.358  -8.576  11.527  1.00  0.00    -0.200 F 
ENDBRANCH  53  67
BRANCH  54  78
ATOM     78  C   UNL     1      11.816   4.558   6.351  1.00  0.00     0.064 A 
ATOM     79  C   UNL     1      13.006   5.144   5.897  1.00  0.00     0.173 A 
ATOM     80  C   UNL     1      10.643   5.322   6.282  1.00  0.00     0.173 A 
ATOM     81  F   UNL     1      14.157   4.458   5.962  1.00  0.00    -0.203 F 
ATOM     82  C   UNL     1      13.026   6.449   5.412  1.00  0.00     0.198 A 
ATOM     83  C   UNL     1      10.659   6.619   5.774  1.00  0.00     0.198 A 
ATOM     84  F   UNL     1       9.479   4.805   6.699  1.00  0.00    -0.203 F 
ATOM     85  F   UNL     1      14.184   7.000   5.022  1.00  0.00    -0.200 F 
ATOM     86  C   UNL     1      11.852   7.184   5.346  1.00  0.00     0.200 A 
ATOM     87  F   UNL     1       9.521   7.322   5.699  1.00  0.00    -0.200 F 
ATOM     88  F   UNL     1      11.870   8.439   4.875  1.00  0.00    -0.200 F 
ENDBRANCH  54  78
BRANCH  66  89
ATOM     89  C   UNL     1      14.424   1.617  12.099  1.00  0.00     0.064 A 
ATOM     90  C   UNL     1      13.863   2.451  13.077  1.00  0.00     0.173 A 
ATOM     91  C   UNL     1      15.778   1.272  12.225  1.00  0.00     0.173 A 
ATOM     92  F   UNL     1      12.576   2.821  12.992  1.00  0.00    -0.203 F 
ATOM     93  C   UNL     1      14.636   2.941  14.127  1.00  0.00     0.198 A 
ATOM     94  C   UNL     1      16.541   1.742  13.290  1.00  0.00     0.198 A 
ATOM     95  F   UNL     1      16.359   0.473  11.317  1.00  0.00    -0.203 F 
ATOM     96  F   UNL     1      14.091   3.773  15.025  1.00  0.00    -0.200 F 
ATOM     97  C   UNL     1      15.971   2.581  14.236  1.00  0.00     0.200 A 
ATOM     98  F   UNL     1      17.828   1.386  13.399  1.00  0.00    -0.200 F 
ATOM     99  F   UNL     1      16.712   3.051  15.248  1.00  0.00    -0.200 F 
ENDBRANCH  66  89
ENDBRANCH  40  41
ENDBRANCH  32  35
ENDBRANCH  30  31
ENDBRANCH  29  30
ENDBRANCH   1  29
TORSDOF 13
