REMARK SMILES Cc1nc(NC(=O)[C@H]2[C@@H]3CC[C@@H](C3)[C@@H]2C(=O)NCCCNC(=O)c2ccc(-c3c4nc(c(-c5c(F)c(F)c(F)c(F)c5F)c5ccc([nH]5)c(-c5c(F)c(F)c(F)c(F)c5F)c5nc(c(-c6c(F)c(F)c(F)c(F)c6F)c6ccc3[nH]6)C=C5)C=C4)cc2)sc1-c1ccccc1
REMARK SMILES IDX 18 1 17 2 15 3 16 4 14 6 8 7 9 8 10 9 13 10 12 11 11 12 6 13
REMARK SMILES IDX 5 14 7 16 4 17 1 18 2 19 3 20 88 21 87 22 89 23 90 24 94 25
REMARK SMILES IDX 91 26 93 27 92 28 19 29 20 30 21 31 22 32 23 34 24 35 25 36
REMARK SMILES IDX 86 37 26 38 85 39 27 40 28 41 29 42 79 43 30 44 84 45 78 46
REMARK SMILES IDX 80 47 31 48 83 49 77 50 76 51 32 53 64 54 44 55 63 56 45 57
REMARK SMILES IDX 48 58 62 59 81 60 46 61 47 62 61 64 82 65 49 66 33 67 34 68
REMARK SMILES IDX 42 69 35 70 36 71 40 72 43 73 37 74 38 75 41 76 39 77 65 78
REMARK SMILES IDX 66 79 74 80 67 81 68 82 72 83 75 84 69 85 70 86 73 87 71 88
REMARK SMILES IDX 50 89 51 90 59 91 52 92 53 93 57 94 60 95 54 96 55 97 58 98
REMARK SMILES IDX 56 99
REMARK H PARENT 17 5 5 15 21 33 80 52 48 63
REMARK Flexibility Score: inf
ROOT
ATOM      1  C   UNL     1      -4.728   1.023  -0.624  1.00  0.00     0.117 C 
ENDROOT
BRANCH   1   2
ATOM      2  N   UNL     1      -3.899   1.445   0.488  1.00  0.00    -0.356 N 
ATOM      3  C   UNL     1      -2.760   2.182   0.591  1.00  0.00     0.224 C 
ATOM      4  O   UNL     1      -2.465   2.506   1.746  1.00  0.00    -0.275 OA
ATOM      5  H   UNL     1      -4.232   1.129   1.359  1.00  0.00     0.163 HD
BRANCH   3   6
ATOM      6  C   UNL     1      -1.878   2.563  -0.616  1.00  0.00     0.094 C 
ATOM      7  C   UNL     1      -0.779   3.606  -0.187  1.00  0.00     0.094 C 
ATOM      8  C   UNL     1      -1.183   4.834  -1.073  1.00  0.00     0.002 C 
ATOM      9  C   UNL     1      -2.556   5.394  -0.653  1.00  0.00     0.005 C 
ATOM     10  C   UNL     1      -1.506   4.140  -2.393  1.00  0.00     0.009 C 
ATOM     11  C   UNL     1      -2.611   3.289  -1.773  1.00  0.00     0.002 C 
ATOM     12  C   UNL     1      -3.544   4.378  -1.231  1.00  0.00     0.005 C 
BRANCH   7  13
ATOM     13  C   UNL     1       0.724   3.333  -0.449  1.00  0.00     0.230 C 
ATOM     14  N   UNL     1       1.365   2.150  -0.334  1.00  0.00    -0.302 N 
ATOM     15  H   UNL     1       2.303   2.146  -0.634  1.00  0.00     0.172 HD
ATOM     16  O   UNL     1       1.462   4.271  -0.793  1.00  0.00    -0.274 OA
BRANCH  14  17
ATOM     17  C   UNL     1       0.900   0.971   0.136  1.00  0.00     0.190 A 
ATOM     18  C   UNL     1      -1.636  -1.104   1.525  1.00  0.00     0.068 C 
ATOM     19  C   UNL     1      -0.380  -0.619   0.913  1.00  0.00     0.058 A 
ATOM     20  N   UNL     1      -0.186   0.741   0.815  1.00  0.00    -0.225 NA
ATOM     21  C   UNL     1       0.577  -1.395   0.280  1.00  0.00     0.059 A 
ATOM     22  S   UNL     1       1.835  -0.394  -0.300  1.00  0.00    -0.096 S 
BRANCH  21  23
ATOM     23  C   UNL     1       0.518  -2.828   0.041  1.00  0.00    -0.006 A 
ATOM     24  C   UNL     1       0.911  -3.728   1.036  1.00  0.00     0.009 A 
ATOM     25  C   UNL     1      -0.165  -3.301  -1.089  1.00  0.00     0.009 A 
ATOM     26  C   UNL     1       0.585  -5.081   0.921  1.00  0.00     0.001 A 
ATOM     27  C   UNL     1      -0.490  -4.653  -1.201  1.00  0.00     0.001 A 
ATOM     28  C   UNL     1      -0.128  -5.538  -0.188  1.00  0.00     0.000 A 
ENDBRANCH  21  23
ENDBRANCH  14  17
ENDBRANCH   7  13
ENDBRANCH   3   6
ENDBRANCH   1   2
BRANCH   1  29
ATOM     29  C   UNL     1      -4.628  -0.464  -0.934  1.00  0.00     0.042 C 
BRANCH  29  30
ATOM     30  C   UNL     1      -5.012  -1.383   0.225  1.00  0.00     0.118 C 
BRANCH  30  31
ATOM     31  N   UNL     1      -6.430  -1.366   0.532  1.00  0.00    -0.352 N 
ATOM     32  C   UNL     1      -7.348  -2.386   0.524  1.00  0.00     0.251 C 
ATOM     33  H   UNL     1      -6.790  -0.486   0.787  1.00  0.00     0.163 HD
ATOM     34  O   UNL     1      -8.535  -2.135   0.707  1.00  0.00    -0.269 OA
BRANCH  32  35
ATOM     35  C   UNL     1      -6.933  -3.785   0.270  1.00  0.00     0.039 A 
ATOM     36  C   UNL     1      -7.707  -4.553  -0.605  1.00  0.00     0.014 A 
ATOM     37  C   UNL     1      -5.840  -4.364   0.922  1.00  0.00     0.014 A 
ATOM     38  C   UNL     1      -7.366  -5.883  -0.857  1.00  0.00     0.010 A 
ATOM     39  C   UNL     1      -5.463  -5.675   0.625  1.00  0.00     0.010 A 
ATOM     40  C   UNL     1      -6.230  -6.451  -0.258  1.00  0.00    -0.014 A 
BRANCH  40  41
ATOM     41  C   UNL     1      -5.859  -7.865  -0.527  1.00  0.00     0.031 A 
ATOM     42  C   UNL     1      -5.956  -8.894   0.565  1.00  0.00     0.074 A 
ATOM     43  C   UNL     1      -5.412  -8.220  -1.746  1.00  0.00     0.049 A 
ATOM     44  N   UNL     1      -5.651 -10.168   0.533  1.00  0.00    -0.248 NA
ATOM     45  C   UNL     1      -6.442  -8.427   1.872  1.00  0.00     0.031 C 
ATOM     46  C   UNL     1      -5.245  -7.312  -2.881  1.00  0.00     0.029 A 
ATOM     47  N   UNL     1      -5.012  -9.439  -2.234  1.00  0.00    -0.354 N 
ATOM     48  C   UNL     1      -5.898 -10.648   1.813  1.00  0.00     0.074 A 
ATOM     49  C   UNL     1      -6.332  -9.521   2.610  1.00  0.00     0.031 C 
ATOM     50  C   UNL     1      -4.797  -8.008  -3.938  1.00  0.00     0.029 A 
ATOM     51  C   UNL     1      -4.616  -9.404  -3.548  1.00  0.00     0.049 A 
ATOM     52  H   UNL     1      -5.009 -10.261  -1.692  1.00  0.00     0.167 HD
ATOM     53  C   UNL     1      -5.793 -11.917   2.275  1.00  0.00     0.037 A 
ATOM     54  C   UNL     1      -4.157 -10.386  -4.348  1.00  0.00     0.037 A 
ATOM     55  C   UNL     1      -5.388 -13.043   1.476  1.00  0.00     0.049 A 
ATOM     56  C   UNL     1      -4.044 -11.786  -3.807  1.00  0.00     0.074 A 
ATOM     57  C   UNL     1      -5.299 -14.376   1.842  1.00  0.00     0.029 A 
ATOM     58  N   UNL     1      -5.003 -12.969   0.145  1.00  0.00    -0.354 N 
ATOM     59  N   UNL     1      -4.333 -12.238  -2.611  1.00  0.00    -0.248 NA
ATOM     60  C   UNL     1      -3.546 -12.815  -4.732  1.00  0.00     0.031 C 
ATOM     61  C   UNL     1      -4.823 -15.101   0.745  1.00  0.00     0.029 A 
ATOM     62  C   UNL     1      -4.657 -14.228  -0.318  1.00  0.00     0.049 A 
ATOM     63  H   UNL     1      -4.978 -12.143  -0.390  1.00  0.00     0.167 HD
ATOM     64  C   UNL     1      -4.082 -13.602  -2.647  1.00  0.00     0.074 A 
ATOM     65  C   UNL     1      -3.627 -13.909  -3.987  1.00  0.00     0.031 C 
ATOM     66  C   UNL     1      -4.215 -14.519  -1.658  1.00  0.00     0.037 A 
BRANCH  53  67
ATOM     67  C   UNL     1      -6.126 -12.158   3.719  1.00  0.00     0.064 A 
ATOM     68  C   UNL     1      -7.447 -12.095   4.189  1.00  0.00     0.173 A 
ATOM     69  C   UNL     1      -5.119 -12.495   4.636  1.00  0.00     0.173 A 
ATOM     70  F   UNL     1      -8.445 -11.766   3.354  1.00  0.00    -0.203 F 
ATOM     71  C   UNL     1      -7.743 -12.332   5.528  1.00  0.00     0.198 A 
ATOM     72  C   UNL     1      -5.423 -12.759   5.969  1.00  0.00     0.198 A 
ATOM     73  F   UNL     1      -3.841 -12.575   4.237  1.00  0.00    -0.203 F 
ATOM     74  F   UNL     1      -9.006 -12.220   5.963  1.00  0.00    -0.200 F 
ATOM     75  C   UNL     1      -6.733 -12.671   6.415  1.00  0.00     0.200 A 
ATOM     76  F   UNL     1      -4.447 -13.098   6.822  1.00  0.00    -0.200 F 
ATOM     77  F   UNL     1      -7.020 -12.905   7.703  1.00  0.00    -0.200 F 
ENDBRANCH  53  67
BRANCH  54  78
ATOM     78  C   UNL     1      -3.791 -10.085  -5.755  1.00  0.00     0.064 A 
ATOM     79  C   UNL     1      -4.570 -10.561  -6.819  1.00  0.00     0.173 A 
ATOM     80  C   UNL     1      -2.656  -9.322  -6.067  1.00  0.00     0.173 A 
ATOM     81  F   UNL     1      -5.652 -11.313  -6.571  1.00  0.00    -0.203 F 
ATOM     82  C   UNL     1      -4.218 -10.301  -8.142  1.00  0.00     0.198 A 
ATOM     83  C   UNL     1      -2.320  -9.040  -7.389  1.00  0.00     0.198 A 
ATOM     84  F   UNL     1      -1.881  -8.839  -5.084  1.00  0.00    -0.203 F 
ATOM     85  F   UNL     1      -4.956 -10.803  -9.140  1.00  0.00    -0.200 F 
ATOM     86  C   UNL     1      -3.096  -9.536  -8.425  1.00  0.00     0.200 A 
ATOM     87  F   UNL     1      -1.243  -8.289  -7.658  1.00  0.00    -0.200 F 
ATOM     88  F   UNL     1      -2.760  -9.282  -9.697  1.00  0.00    -0.200 F 
ENDBRANCH  54  78
BRANCH  66  89
ATOM     89  C   UNL     1      -3.898 -15.947  -1.995  1.00  0.00     0.064 A 
ATOM     90  C   UNL     1      -2.578 -16.383  -2.180  1.00  0.00     0.173 A 
ATOM     91  C   UNL     1      -4.926 -16.898  -2.094  1.00  0.00     0.173 A 
ATOM     92  F   UNL     1      -1.563 -15.508  -2.110  1.00  0.00    -0.203 F 
ATOM     93  C   UNL     1      -2.300 -17.715  -2.475  1.00  0.00     0.198 A 
ATOM     94  C   UNL     1      -4.641 -18.234  -2.362  1.00  0.00     0.198 A 
ATOM     95  F   UNL     1      -6.204 -16.532  -1.920  1.00  0.00    -0.203 F 
ATOM     96  F   UNL     1      -1.035 -18.101  -2.691  1.00  0.00    -0.200 F 
ATOM     97  C   UNL     1      -3.330 -18.640  -2.558  1.00  0.00     0.200 A 
ATOM     98  F   UNL     1      -5.637 -19.128  -2.431  1.00  0.00    -0.200 F 
ATOM     99  F   UNL     1      -3.059 -19.922  -2.836  1.00  0.00    -0.200 F 
ENDBRANCH  66  89
ENDBRANCH  40  41
ENDBRANCH  32  35
ENDBRANCH  30  31
ENDBRANCH  29  30
ENDBRANCH   1  29
TORSDOF 13
