REMARK SMILES C[C@@H](C(=O)NCCCNC(=O)c1ccc(-c2c3nc(c(-c4c(F)c(F)c(F)c(F)c4F)c4ccc([nH]4)c(-c4c(F)c(F)c(F)c(F)c4F)c4nc(c(-c5c(F)c(F)c(F)c(F)c5F)c5ccc2[nH]5)C=C4)C=C3)cc1)N1C(=O)/C(=C/c2ccc(-c3ccc([N+](=O)[O-])cc3Cl)o2)SC1=S
REMARK SMILES IDX 6 1 5 2 3 3 4 4 2 6 1 7 75 8 76 9 96 10 77 11 78 12 95 13
REMARK SMILES IDX 97 14 79 15 80 16 81 17 94 18 82 19 83 20 84 21 85 22 92 23
REMARK SMILES IDX 86 24 91 25 93 26 87 27 88 28 89 29 90 30 7 31 8 32 9 33
REMARK SMILES IDX 10 34 11 36 12 37 13 38 74 39 14 40 73 41 15 42 16 43 17 44
REMARK SMILES IDX 67 45 18 46 72 47 66 48 68 49 19 50 71 51 65 52 64 53 20 55
REMARK SMILES IDX 52 56 32 57 51 58 33 59 36 60 50 61 69 62 34 63 35 64 49 66
REMARK SMILES IDX 70 67 37 68 21 69 22 70 30 71 23 72 24 73 28 74 31 75 25 76
REMARK SMILES IDX 26 77 29 78 27 79 53 80 54 81 62 82 55 83 56 84 60 85 63 86
REMARK SMILES IDX 57 87 58 88 61 89 59 90 38 91 39 92 47 93 40 94 41 95 45 96
REMARK SMILES IDX 48 97 42 98 43 99 46 100 44 101
REMARK H PARENT 5 5 9 35 68 54 36 65
REMARK Flexibility Score: inf
ROOT
ATOM      1  C   UNL     1       3.453  -0.633   1.998  1.00  0.00     0.117 C 
ENDROOT
BRANCH   1   2
ATOM      2  N   UNL     1       2.386  -0.021   2.765  1.00  0.00    -0.354 N 
ATOM      3  C   UNL     1       1.046   0.040   2.524  1.00  0.00     0.242 C 
ATOM      4  O   UNL     1       0.345   0.505   3.427  1.00  0.00    -0.273 OA
ATOM      5  H   UNL     1       2.677   0.424   3.594  1.00  0.00     0.163 HD
BRANCH   3   6
ATOM      6  C   UNL     1       0.444  -0.514   1.215  1.00  0.00     0.178 C 
ATOM      7  C   UNL     1       0.984   0.062  -0.093  1.00  0.00     0.042 C 
BRANCH   6   8
ATOM      8  N   UNL     1      -1.032  -0.439   1.285  1.00  0.00    -0.281 N 
ATOM      9  C   UNL     1      -1.735  -1.623   1.451  1.00  0.00     0.267 C 
ATOM     10  C   UNL     1      -1.789   0.719   1.222  1.00  0.00     0.149 C 
ATOM     11  O   UNL     1      -1.250  -2.743   1.547  1.00  0.00    -0.268 OA
ATOM     12  C   UNL     1      -3.197  -1.371   1.414  1.00  0.00     0.084 C 
ATOM     13  S   UNL     1      -3.498   0.315   1.290  1.00  0.00    -0.054 SA
ATOM     14  S   UNL     1      -1.308   2.311   1.063  1.00  0.00    -0.052 S 
ATOM     15  C   UNL     1      -4.089  -2.371   1.438  1.00  0.00     0.068 C 
BRANCH  15  16
ATOM     16  C   UNL     1      -5.482  -2.150   1.271  1.00  0.00     0.128 A 
ATOM     17  C   UNL     1      -6.151  -1.560   0.204  1.00  0.00     0.051 A 
ATOM     18  O   UNL     1      -6.426  -2.519   2.202  1.00  0.00    -0.457 OA
ATOM     19  C   UNL     1      -7.524  -1.514   0.524  1.00  0.00     0.051 A 
ATOM     20  C   UNL     1      -7.642  -2.085   1.769  1.00  0.00     0.136 A 
BRANCH  20  21
ATOM     21  C   UNL     1      -8.779  -2.309   2.647  1.00  0.00     0.036 A 
ATOM     22  C   UNL     1      -9.918  -2.933   2.103  1.00  0.00     0.020 A 
ATOM     23  C   UNL     1      -8.826  -1.858   3.979  1.00  0.00     0.058 A 
ATOM     24  C   UNL     1     -11.083  -3.087   2.857  1.00  0.00     0.086 A 
ATOM     25  C   UNL     1      -9.991  -2.008   4.742  1.00  0.00     0.106 A 
ATOM     26  Cl  UNL     1      -7.501  -1.033   4.729  1.00  0.00    -0.083 Cl
ATOM     27  C   UNL     1     -11.118  -2.612   4.172  1.00  0.00     0.270 A 
BRANCH  27  28
ATOM     28  N   UNL     1     -12.357  -2.721   4.950  1.00  0.00     0.062 N 
ATOM     29  O   UNL     1     -13.338  -3.239   4.398  1.00  0.00    -0.258 OA
ATOM     30  O   UNL     1     -12.352  -2.281   6.108  1.00  0.00    -0.258 OA
ENDBRANCH  27  28
ENDBRANCH  20  21
ENDBRANCH  15  16
ENDBRANCH   6   8
ENDBRANCH   3   6
ENDBRANCH   1   2
BRANCH   1  31
ATOM     31  C   UNL     1       4.308   0.406   1.281  1.00  0.00     0.042 C 
BRANCH  31  32
ATOM     32  C   UNL     1       5.074   1.331   2.222  1.00  0.00     0.118 C 
BRANCH  32  33
ATOM     33  N   UNL     1       6.090   0.632   2.998  1.00  0.00    -0.352 N 
ATOM     34  C   UNL     1       7.444   0.850   3.067  1.00  0.00     0.251 C 
ATOM     35  H   UNL     1       5.756  -0.107   3.555  1.00  0.00     0.163 HD
ATOM     36  O   UNL     1       8.168   0.046   3.646  1.00  0.00    -0.269 OA
BRANCH  34  37
ATOM     37  C   UNL     1       8.035   2.043   2.427  1.00  0.00     0.039 A 
ATOM     38  C   UNL     1       9.202   1.903   1.669  1.00  0.00     0.014 A 
ATOM     39  C   UNL     1       7.442   3.298   2.578  1.00  0.00     0.014 A 
ATOM     40  C   UNL     1       9.733   3.010   1.002  1.00  0.00     0.010 A 
ATOM     41  C   UNL     1       7.925   4.380   1.853  1.00  0.00     0.010 A 
ATOM     42  C   UNL     1       9.077   4.248   1.059  1.00  0.00    -0.014 A 
BRANCH  42  43
ATOM     43  C   UNL     1       9.569   5.440   0.323  1.00  0.00     0.031 A 
ATOM     44  C   UNL     1       9.989   6.661   1.090  1.00  0.00     0.074 A 
ATOM     45  C   UNL     1       9.525   5.468  -1.022  1.00  0.00     0.049 A 
ATOM     46  N   UNL     1      10.261   7.864   0.655  1.00  0.00    -0.248 NA
ATOM     47  C   UNL     1      10.078   6.513   2.551  1.00  0.00     0.031 C 
ATOM     48  C   UNL     1       9.109   4.358  -1.878  1.00  0.00     0.029 A 
ATOM     49  N   UNL     1       9.802   6.484  -1.903  1.00  0.00    -0.354 N 
ATOM     50  C   UNL     1      10.520   8.623   1.789  1.00  0.00     0.074 A 
ATOM     51  C   UNL     1      10.325   7.756   2.932  1.00  0.00     0.031 C 
ATOM     52  C   UNL     1       9.155   4.752  -3.160  1.00  0.00     0.029 A 
ATOM     53  C   UNL     1       9.555   6.156  -3.213  1.00  0.00     0.049 A 
ATOM     54  H   UNL     1      10.145   7.363  -1.622  1.00  0.00     0.167 HD
ATOM     55  C   UNL     1      10.900   9.920   1.868  1.00  0.00     0.037 A 
ATOM     56  C   UNL     1       9.616   6.910  -4.328  1.00  0.00     0.037 A 
ATOM     57  C   UNL     1      11.111  10.768   0.724  1.00  0.00     0.049 A 
ATOM     58  C   UNL     1      10.028   8.353  -4.220  1.00  0.00     0.074 A 
ATOM     59  C   UNL     1      11.551  12.079   0.691  1.00  0.00     0.029 A 
ATOM     60  N   UNL     1      10.891  10.385  -0.592  1.00  0.00    -0.354 N 
ATOM     61  N   UNL     1      10.320   9.050  -3.150  1.00  0.00    -0.248 NA
ATOM     62  C   UNL     1      10.125   9.112  -5.474  1.00  0.00     0.031 C 
ATOM     63  C   UNL     1      11.545  12.507  -0.641  1.00  0.00     0.029 A 
ATOM     64  C   UNL     1      11.165  11.443  -1.444  1.00  0.00     0.049 A 
ATOM     65  H   UNL     1      10.585   9.494  -0.877  1.00  0.00     0.167 HD
ATOM     66  C   UNL     1      10.669  10.316  -3.600  1.00  0.00     0.074 A 
ATOM     67  C   UNL     1      10.550  10.292  -5.043  1.00  0.00     0.031 C 
ATOM     68  C   UNL     1      11.060  11.397  -2.881  1.00  0.00     0.037 A 
BRANCH  55  69
ATOM     69  C   UNL     1      11.093  10.500   3.241  1.00  0.00     0.064 A 
ATOM     70  C   UNL     1      12.128  10.071   4.088  1.00  0.00     0.173 A 
ATOM     71  C   UNL     1      10.229  11.497   3.719  1.00  0.00     0.173 A 
ATOM     72  F   UNL     1      12.977   9.114   3.685  1.00  0.00    -0.203 F 
ATOM     73  C   UNL     1      12.258  10.581   5.377  1.00  0.00     0.198 A 
ATOM     74  C   UNL     1      10.386  12.032   4.995  1.00  0.00     0.198 A 
ATOM     75  F   UNL     1       9.228  11.951   2.951  1.00  0.00    -0.203 F 
ATOM     76  F   UNL     1      13.209  10.102   6.191  1.00  0.00    -0.200 F 
ATOM     77  C   UNL     1      11.391  11.564   5.828  1.00  0.00     0.200 A 
ATOM     78  F   UNL     1       9.556  12.993   5.424  1.00  0.00    -0.200 F 
ATOM     79  F   UNL     1      11.516  12.052   7.070  1.00  0.00    -0.200 F 
ENDBRANCH  55  69
BRANCH  56  80
ATOM     80  C   UNL     1       9.288   6.298  -5.642  1.00  0.00     0.064 A 
ATOM     81  C   UNL     1      10.292   6.043  -6.586  1.00  0.00     0.173 A 
ATOM     82  C   UNL     1       7.976   5.925  -5.967  1.00  0.00     0.173 A 
ATOM     83  F   UNL     1      11.559   6.399  -6.328  1.00  0.00    -0.203 F 
ATOM     84  C   UNL     1       9.994   5.446  -7.809  1.00  0.00     0.198 A 
ATOM     85  C   UNL     1       7.684   5.302  -7.179  1.00  0.00     0.198 A 
ATOM     86  F   UNL     1       6.980   6.139  -5.095  1.00  0.00    -0.203 F 
ATOM     87  F   UNL     1      10.968   5.241  -8.707  1.00  0.00    -0.200 F 
ATOM     88  C   UNL     1       8.692   5.068  -8.101  1.00  0.00     0.200 A 
ATOM     89  F   UNL     1       6.428   4.922  -7.449  1.00  0.00    -0.200 F 
ATOM     90  F   UNL     1       8.410   4.478  -9.271  1.00  0.00    -0.200 F 
ENDBRANCH  56  80
BRANCH  68  91
ATOM     91  C   UNL     1      11.450  12.634  -3.637  1.00  0.00     0.064 A 
ATOM     92  C   UNL     1      10.498  13.455  -4.258  1.00  0.00     0.173 A 
ATOM     93  C   UNL     1      12.793  13.044  -3.668  1.00  0.00     0.173 A 
ATOM     94  F   UNL     1       9.205  13.101  -4.270  1.00  0.00    -0.203 F 
ATOM     95  C   UNL     1      10.879  14.637  -4.891  1.00  0.00     0.198 A 
ATOM     96  C   UNL     1      13.165  14.239  -4.275  1.00  0.00     0.198 A 
ATOM     97  F   UNL     1      13.741  12.296  -3.083  1.00  0.00    -0.203 F 
ATOM     98  F   UNL     1       9.957  15.391  -5.506  1.00  0.00    -0.200 F 
ATOM     99  C   UNL     1      12.208  15.033  -4.889  1.00  0.00     0.200 A 
ATOM    100  F   UNL     1      14.447  14.627  -4.258  1.00  0.00    -0.200 F 
ATOM    101  F   UNL     1      12.568  16.180  -5.481  1.00  0.00    -0.200 F 
ENDBRANCH  68  91
ENDBRANCH  42  43
ENDBRANCH  34  37
ENDBRANCH  32  33
ENDBRANCH  31  32
ENDBRANCH   1  31
TORSDOF 14
