REMARK SMILES CC[C@](C)(NS(=O)(=O)c1ccc(C(C)C)cc1)C(=O)NCCCNC(=O)c1ccc(-c2c3nc(c(-c4c(F)c(F)c(F)c(F)c4F)c4ccc([nH]4)c(-c4c(F)c(F)c(F)c(F)c4F)c4nc(c(-c5c(F)c(F)c(F)c(F)c5F)c5ccc2[nH]5)C=C4)C=C3)cc1
REMARK SMILES IDX 21 1 20 2 18 3 19 4 3 6 4 7 2 8 1 9 5 10 6 12 7 13 8 14 9 15
REMARK SMILES IDX 10 16 17 17 11 18 16 19 12 20 13 21 14 22 15 23 22 24 23 25
REMARK SMILES IDX 24 26 25 27 26 29 27 30 28 31 89 32 29 33 88 34 30 35 31 36
REMARK SMILES IDX 32 37 82 38 33 39 87 40 81 41 83 42 34 43 86 44 80 45 79 46
REMARK SMILES IDX 35 48 67 49 47 50 66 51 48 52 51 53 65 54 84 55 49 56 50 57
REMARK SMILES IDX 64 59 85 60 52 61 36 62 37 63 45 64 38 65 39 66 43 67 46 68
REMARK SMILES IDX 40 69 41 70 44 71 42 72 68 73 69 74 77 75 70 76 71 77 75 78
REMARK SMILES IDX 78 79 72 80 73 81 76 82 74 83 53 84 54 85 62 86 55 87 56 88
REMARK SMILES IDX 60 89 63 90 57 91 58 92 61 93 59 94
REMARK H PARENT 20 5 5 11 24 28 83 47 51 58
REMARK Flexibility Score: inf
ROOT
ATOM      1  C   UNL     1       1.614   3.980   3.951  1.00  0.00     0.117 C 
ENDROOT
BRANCH   1   2
ATOM      2  N   UNL     1       2.366   3.034   3.124  1.00  0.00    -0.354 N 
ATOM      3  C   UNL     1       2.164   1.875   2.426  1.00  0.00     0.241 C 
ATOM      4  O   UNL     1       3.138   1.566   1.717  1.00  0.00    -0.273 OA
ATOM      5  H   UNL     1       3.305   3.321   3.046  1.00  0.00     0.163 HD
BRANCH   3   6
ATOM      6  C   UNL     1       0.937   0.919   2.474  1.00  0.00     0.108 C 
ATOM      7  C   UNL     1       1.110  -0.129   1.315  1.00  0.00     0.040 C 
BRANCH   6   8
ATOM      8  C   UNL     1      -0.403   1.683   2.253  1.00  0.00     0.030 C 
ATOM      9  C   UNL     1      -0.958   1.729   0.824  1.00  0.00     0.006 C 
ENDBRANCH   6   8
BRANCH   6  10
ATOM     10  N   UNL     1       0.830   0.001   3.639  1.00  0.00    -0.196 NA
ATOM     11  H   UNL     1       1.036  -0.915   3.239  1.00  0.00     0.142 HD
BRANCH  10  12
ATOM     12  S   UNL     1       1.598  -0.036   5.106  1.00  0.00     0.241 S 
ATOM     13  O   UNL     1       1.256   1.193   5.795  1.00  0.00    -0.207 OA
ATOM     14  O   UNL     1       1.218  -1.305   5.678  1.00  0.00    -0.207 OA
BRANCH  12  15
ATOM     15  C   UNL     1       3.365  -0.066   4.897  1.00  0.00     0.082 A 
ATOM     16  C   UNL     1       4.159  -1.180   5.148  1.00  0.00     0.022 A 
ATOM     17  C   UNL     1       4.006   1.151   4.747  1.00  0.00     0.022 A 
ATOM     18  C   UNL     1       5.567  -1.034   5.208  1.00  0.00     0.005 A 
ATOM     19  C   UNL     1       5.378   1.307   4.742  1.00  0.00     0.005 A 
ATOM     20  C   UNL     1       6.187   0.217   5.015  1.00  0.00    -0.045 A 
BRANCH  20  21
ATOM     21  C   UNL     1       7.676   0.487   5.103  1.00  0.00     0.013 C 
ATOM     22  C   UNL     1       8.320  -0.092   6.359  1.00  0.00     0.012 C 
ATOM     23  C   UNL     1       8.382   0.053   3.824  1.00  0.00     0.012 C 
ENDBRANCH  20  21
ENDBRANCH  12  15
ENDBRANCH  10  12
ENDBRANCH   6  10
ENDBRANCH   3   6
ENDBRANCH   1   2
BRANCH   1  24
ATOM     24  C   UNL     1       1.803   4.148   5.487  1.00  0.00     0.042 C 
BRANCH  24  25
ATOM     25  C   UNL     1       3.092   4.002   6.322  1.00  0.00     0.118 C 
BRANCH  25  26
ATOM     26  N   UNL     1       4.228   4.803   5.921  1.00  0.00    -0.352 N 
ATOM     27  C   UNL     1       5.358   5.104   6.658  1.00  0.00     0.251 C 
ATOM     28  H   UNL     1       4.192   5.181   5.012  1.00  0.00     0.163 HD
ATOM     29  O   UNL     1       6.151   5.939   6.228  1.00  0.00    -0.269 OA
BRANCH  27  30
ATOM     30  C   UNL     1       5.644   4.472   7.976  1.00  0.00     0.039 A 
ATOM     31  C   UNL     1       5.827   5.300   9.090  1.00  0.00     0.014 A 
ATOM     32  C   UNL     1       5.904   3.104   8.103  1.00  0.00     0.014 A 
ATOM     33  C   UNL     1       6.235   4.760  10.322  1.00  0.00     0.010 A 
ATOM     34  C   UNL     1       6.301   2.561   9.342  1.00  0.00     0.010 A 
ATOM     35  C   UNL     1       6.472   3.382  10.468  1.00  0.00    -0.014 A 
BRANCH  35  36
ATOM     36  C   UNL     1       6.830   2.827  11.811  1.00  0.00     0.031 A 
ATOM     37  C   UNL     1       8.218   2.337  12.137  1.00  0.00     0.074 A 
ATOM     38  C   UNL     1       5.885   2.781  12.772  1.00  0.00     0.049 A 
ATOM     39  N   UNL     1       8.714   1.956  13.292  1.00  0.00    -0.248 NA
ATOM     40  C   UNL     1       9.170   2.248  11.022  1.00  0.00     0.031 C 
ATOM     41  C   UNL     1       4.486   3.166  12.586  1.00  0.00     0.029 A 
ATOM     42  N   UNL     1       5.953   2.404  14.093  1.00  0.00    -0.354 N 
ATOM     43  C   UNL     1      10.035   1.601  13.049  1.00  0.00     0.074 A 
ATOM     44  C   UNL     1      10.248   1.761  11.624  1.00  0.00     0.031 C 
ATOM     45  C   UNL     1       3.836   3.038  13.753  1.00  0.00     0.029 A 
ATOM     46  C   UNL     1       4.765   2.546  14.768  1.00  0.00     0.049 A 
ATOM     47  H   UNL     1       6.775   2.064  14.514  1.00  0.00     0.167 HD
ATOM     48  C   UNL     1      10.987   1.197  13.930  1.00  0.00     0.037 A 
ATOM     49  C   UNL     1       4.454   2.322  16.061  1.00  0.00     0.037 A 
ATOM     50  C   UNL     1      10.775   1.024  15.349  1.00  0.00     0.049 A 
ATOM     51  C   UNL     1       5.526   1.874  17.018  1.00  0.00     0.074 A 
ATOM     52  C   UNL     1      11.694   0.672  16.325  1.00  0.00     0.029 A 
ATOM     53  N   UNL     1       9.556   1.174  15.993  1.00  0.00    -0.354 N 
ATOM     54  N   UNL     1       6.797   1.648  16.793  1.00  0.00    -0.248 NA
ATOM     55  C   UNL     1       5.121   1.670  18.416  1.00  0.00     0.031 C 
ATOM     56  C   UNL     1      11.021   0.554  17.547  1.00  0.00     0.029 A 
ATOM     57  C   UNL     1       9.693   0.893  17.346  1.00  0.00     0.049 A 
ATOM     58  H   UNL     1       8.715   1.440  15.555  1.00  0.00     0.167 HD
ATOM     59  C   UNL     1       7.348   1.304  18.020  1.00  0.00     0.074 A 
ATOM     60  C   UNL     1       6.277   1.373  18.992  1.00  0.00     0.031 C 
ATOM     61  C   UNL     1       8.626   0.960  18.313  1.00  0.00     0.037 A 
BRANCH  48  62
ATOM     62  C   UNL     1      12.365   0.913  13.393  1.00  0.00     0.064 A 
ATOM     63  C   UNL     1      13.197   1.943  12.928  1.00  0.00     0.173 A 
ATOM     64  C   UNL     1      12.887  -0.390  13.406  1.00  0.00     0.173 A 
ATOM     65  F   UNL     1      12.752   3.208  12.897  1.00  0.00    -0.203 F 
ATOM     66  C   UNL     1      14.485   1.675  12.468  1.00  0.00     0.198 A 
ATOM     67  C   UNL     1      14.186  -0.650  12.974  1.00  0.00     0.198 A 
ATOM     68  F   UNL     1      12.144  -1.413  13.858  1.00  0.00    -0.203 F 
ATOM     69  F   UNL     1      15.244   2.671  11.989  1.00  0.00    -0.200 F 
ATOM     70  C   UNL     1      14.981   0.381  12.497  1.00  0.00     0.200 A 
ATOM     71  F   UNL     1      14.670  -1.899  13.022  1.00  0.00    -0.200 F 
ATOM     72  F   UNL     1      16.223   0.127  12.063  1.00  0.00    -0.200 F 
ENDBRANCH  48  62
BRANCH  49  73
ATOM     73  C   UNL     1       3.066   2.561  16.539  1.00  0.00     0.064 A 
ATOM     74  C   UNL     1       2.775   3.615  17.417  1.00  0.00     0.173 A 
ATOM     75  C   UNL     1       2.005   1.738  16.135  1.00  0.00     0.173 A 
ATOM     76  F   UNL     1       3.759   4.417  17.851  1.00  0.00    -0.203 F 
ATOM     77  C   UNL     1       1.480   3.824  17.888  1.00  0.00     0.198 A 
ATOM     78  C   UNL     1       0.705   1.967  16.581  1.00  0.00     0.198 A 
ATOM     79  F   UNL     1       2.229   0.718  15.295  1.00  0.00    -0.203 F 
ATOM     80  F   UNL     1       1.239   4.808  18.765  1.00  0.00    -0.200 F 
ATOM     81  C   UNL     1       0.445   3.004  17.465  1.00  0.00     0.200 A 
ATOM     82  F   UNL     1      -0.295   1.182  16.158  1.00  0.00    -0.200 F 
ATOM     83  F   UNL     1      -0.801   3.209  17.914  1.00  0.00    -0.200 F 
ENDBRANCH  49  73
BRANCH  61  84
ATOM     84  C   UNL     1       8.946   0.659  19.752  1.00  0.00     0.064 A 
ATOM     85  C   UNL     1       8.455  -0.488  20.395  1.00  0.00     0.173 A 
ATOM     86  C   UNL     1       9.764   1.525  20.495  1.00  0.00     0.173 A 
ATOM     87  F   UNL     1       7.657  -1.342  19.737  1.00  0.00    -0.203 F 
ATOM     88  C   UNL     1       8.738  -0.735  21.737  1.00  0.00     0.198 A 
ATOM     89  C   UNL     1      10.072   1.256  21.827  1.00  0.00     0.198 A 
ATOM     90  F   UNL     1      10.267   2.632  19.930  1.00  0.00    -0.203 F 
ATOM     91  F   UNL     1       8.205  -1.804  22.346  1.00  0.00    -0.200 F 
ATOM     92  C   UNL     1       9.550   0.133  22.450  1.00  0.00     0.200 A 
ATOM     93  F   UNL     1      10.868   2.090  22.510  1.00  0.00    -0.200 F 
ATOM     94  F   UNL     1       9.820  -0.106  23.740  1.00  0.00    -0.200 F 
ENDBRANCH  61  84
ENDBRANCH  35  36
ENDBRANCH  27  30
ENDBRANCH  25  26
ENDBRANCH  24  25
ENDBRANCH   1  24
TORSDOF 15
