REMARK SMILES O=C(/C=C/c1c(Cl)cccc1Cl)NCC(=O)NCCCNC(=O)c1ccc(-c2c3nc(c(-c4c(F)c(F)c(F)c(F)c4F)c4ccc([nH]4)c(-c4c(F)c(F)c(F)c(F)c4F)c4nc(c(-c5c(F)c(F)c(F)c(F)c5F)c5ccc2[nH]5)C=C4)C=C3)cc1
REMARK SMILES IDX 18 1 17 2 15 3 16 4 14 6 13 7 1 8 2 9 3 11 4 12 5 13 6 14
REMARK SMILES IDX 11 15 7 16 8 17 10 18 12 19 9 20 19 21 20 22 21 23 22 24
REMARK SMILES IDX 23 26 24 27 25 28 86 29 26 30 85 31 27 32 28 33 29 34 79 35
REMARK SMILES IDX 30 36 84 37 78 38 80 39 31 40 83 41 77 42 76 43 32 45 64 46
REMARK SMILES IDX 44 47 63 48 45 49 48 50 62 51 81 52 46 53 47 54 61 56 82 57
REMARK SMILES IDX 49 58 33 59 34 60 42 61 35 62 36 63 40 64 43 65 37 66 38 67
REMARK SMILES IDX 41 68 39 69 65 70 66 71 74 72 67 73 68 74 72 75 75 76 69 77
REMARK SMILES IDX 70 78 73 79 71 80 50 81 51 82 59 83 52 84 53 85 57 86 60 87
REMARK SMILES IDX 54 88 55 89 58 90 56 91
REMARK H PARENT 17 5 13 10 21 25 80 44 48 55
REMARK Flexibility Score: inf
ROOT
ATOM      1  C   UNL     1       1.424   3.334  -0.070  1.00  0.00     0.117 C 
ENDROOT
BRANCH   1   2
ATOM      2  N   UNL     1       2.208   3.651  -1.249  1.00  0.00    -0.355 N 
ATOM      3  C   UNL     1       2.673   2.807  -2.218  1.00  0.00     0.239 C 
ATOM      4  O   UNL     1       3.347   3.283  -3.134  1.00  0.00    -0.273 OA
ATOM      5  H   UNL     1       2.436   4.601  -1.367  1.00  0.00     0.163 HD
BRANCH   3   6
ATOM      6  C   UNL     1       2.350   1.314  -2.158  1.00  0.00     0.216 C 
BRANCH   6   7
ATOM      7  N   UNL     1       3.017   0.666  -1.041  1.00  0.00    -0.343 N 
ATOM      8  O   UNL     1       1.107  -0.224  -0.142  1.00  0.00    -0.270 OA
ATOM      9  C   UNL     1       2.327  -0.069  -0.121  1.00  0.00     0.244 C 
ATOM     10  H   UNL     1       3.993   0.759  -0.946  1.00  0.00     0.164 HD
BRANCH   9  11
ATOM     11  C   UNL     1       3.103  -0.626   1.011  1.00  0.00     0.072 C 
ATOM     12  C   UNL     1       4.424  -0.864   1.026  1.00  0.00     0.017 C 
BRANCH  12  13
ATOM     13  C   UNL     1       5.090  -1.444   2.210  1.00  0.00     0.012 A 
ATOM     14  C   UNL     1       4.830  -2.759   2.647  1.00  0.00     0.049 A 
ATOM     15  C   UNL     1       6.030  -0.685   2.936  1.00  0.00     0.049 A 
ATOM     16  Cl  UNL     1       3.738  -3.812   1.811  1.00  0.00    -0.084 Cl
ATOM     17  C   UNL     1       5.470  -3.282   3.777  1.00  0.00     0.021 A 
ATOM     18  C   UNL     1       6.674  -1.216   4.060  1.00  0.00     0.021 A 
ATOM     19  Cl  UNL     1       6.429   0.943   2.490  1.00  0.00    -0.084 Cl
ATOM     20  C   UNL     1       6.391  -2.513   4.483  1.00  0.00     0.003 A 
ENDBRANCH  12  13
ENDBRANCH   9  11
ENDBRANCH   6   7
ENDBRANCH   3   6
ENDBRANCH   1   2
BRANCH   1  21
ATOM     21  C   UNL     1       2.280   3.297   1.195  1.00  0.00     0.042 C 
BRANCH  21  22
ATOM     22  C   UNL     1       2.832   4.658   1.616  1.00  0.00     0.118 C 
BRANCH  22  23
ATOM     23  N   UNL     1       1.788   5.593   2.009  1.00  0.00    -0.352 N 
ATOM     24  C   UNL     1       1.635   6.327   3.156  1.00  0.00     0.251 C 
ATOM     25  H   UNL     1       1.075   5.719   1.341  1.00  0.00     0.163 HD
ATOM     26  O   UNL     1       0.582   6.937   3.347  1.00  0.00    -0.269 OA
BRANCH  24  27
ATOM     27  C   UNL     1       2.702   6.387   4.179  1.00  0.00     0.039 A 
ATOM     28  C   UNL     1       2.336   6.346   5.529  1.00  0.00     0.014 A 
ATOM     29  C   UNL     1       4.046   6.538   3.828  1.00  0.00     0.014 A 
ATOM     30  C   UNL     1       3.317   6.397   6.522  1.00  0.00     0.010 A 
ATOM     31  C   UNL     1       5.030   6.527   4.817  1.00  0.00     0.010 A 
ATOM     32  C   UNL     1       4.675   6.457   6.174  1.00  0.00    -0.014 A 
BRANCH  32  33
ATOM     33  C   UNL     1       5.736   6.438   7.213  1.00  0.00     0.031 A 
ATOM     34  C   UNL     1       6.626   7.632   7.415  1.00  0.00     0.074 A 
ATOM     35  C   UNL     1       5.944   5.315   7.928  1.00  0.00     0.049 A 
ATOM     36  N   UNL     1       7.657   7.772   8.211  1.00  0.00    -0.248 NA
ATOM     37  C   UNL     1       6.336   8.819   6.595  1.00  0.00     0.031 C 
ATOM     38  C   UNL     1       5.178   4.075   7.793  1.00  0.00     0.029 A 
ATOM     39  N   UNL     1       6.872   5.028   8.898  1.00  0.00    -0.354 N 
ATOM     40  C   UNL     1       8.150   9.048   7.971  1.00  0.00     0.074 A 
ATOM     41  C   UNL     1       7.329   9.630   6.931  1.00  0.00     0.031 C 
ATOM     42  C   UNL     1       5.661   3.164   8.654  1.00  0.00     0.029 A 
ATOM     43  C   UNL     1       6.791   3.743   9.375  1.00  0.00     0.049 A 
ATOM     44  H   UNL     1       7.534   5.682   9.220  1.00  0.00     0.167 HD
ATOM     45  C   UNL     1       9.184   9.681   8.576  1.00  0.00     0.037 A 
ATOM     46  C   UNL     1       7.550   3.099  10.282  1.00  0.00     0.037 A 
ATOM     47  C   UNL     1       9.974   9.114   9.638  1.00  0.00     0.049 A 
ATOM     48  C   UNL     1       8.680   3.833  10.951  1.00  0.00     0.074 A 
ATOM     49  C   UNL     1      10.988   9.709  10.370  1.00  0.00     0.029 A 
ATOM     50  N   UNL     1       9.839   7.821  10.119  1.00  0.00    -0.354 N 
ATOM     51  N   UNL     1       9.089   5.064  10.769  1.00  0.00    -0.248 NA
ATOM     52  C   UNL     1       9.452   3.088  11.956  1.00  0.00     0.031 C 
ATOM     53  C   UNL     1      11.495   8.761  11.265  1.00  0.00     0.029 A 
ATOM     54  C   UNL     1      10.768   7.591  11.122  1.00  0.00     0.049 A 
ATOM     55  H   UNL     1       9.182   7.163   9.796  1.00  0.00     0.167 HD
ATOM     56  C   UNL     1      10.143   5.251  11.653  1.00  0.00     0.074 A 
ATOM     57  C   UNL     1      10.304   4.010  12.380  1.00  0.00     0.031 C 
ATOM     58  C   UNL     1      10.910   6.352  11.843  1.00  0.00     0.037 A 
BRANCH  45  59
ATOM     59  C   UNL     1       9.527  11.064   8.106  1.00  0.00     0.064 A 
ATOM     60  C   UNL     1       8.705  12.164   8.391  1.00  0.00     0.173 A 
ATOM     61  C   UNL     1      10.721  11.300   7.408  1.00  0.00     0.173 A 
ATOM     62  F   UNL     1       7.548  11.989   9.048  1.00  0.00    -0.203 F 
ATOM     63  C   UNL     1       9.054  13.446   7.975  1.00  0.00     0.198 A 
ATOM     64  C   UNL     1      11.080  12.588   7.017  1.00  0.00     0.198 A 
ATOM     65  F   UNL     1      11.547  10.284   7.116  1.00  0.00    -0.203 F 
ATOM     66  F   UNL     1       8.233  14.476   8.224  1.00  0.00    -0.200 F 
ATOM     67  C   UNL     1      10.244  13.658   7.295  1.00  0.00     0.200 A 
ATOM     68  F   UNL     1      12.237  12.792   6.372  1.00  0.00    -0.200 F 
ATOM     69  F   UNL     1      10.583  14.894   6.904  1.00  0.00    -0.200 F 
ENDBRANCH  45  59
BRANCH  46  70
ATOM     70  C   UNL     1       7.256   1.683  10.623  1.00  0.00     0.064 A 
ATOM     71  C   UNL     1       6.735   1.339  11.878  1.00  0.00     0.173 A 
ATOM     72  C   UNL     1       7.496   0.648   9.708  1.00  0.00     0.173 A 
ATOM     73  F   UNL     1       6.508   2.292  12.793  1.00  0.00    -0.203 F 
ATOM     74  C   UNL     1       6.487   0.009  12.214  1.00  0.00     0.198 A 
ATOM     75  C   UNL     1       7.221  -0.678  10.035  1.00  0.00     0.198 A 
ATOM     76  F   UNL     1       7.988   0.924   8.491  1.00  0.00    -0.203 F 
ATOM     77  F   UNL     1       6.034  -0.297  13.437  1.00  0.00    -0.200 F 
ATOM     78  C   UNL     1       6.726  -0.998  11.290  1.00  0.00     0.200 A 
ATOM     79  F   UNL     1       7.438  -1.647   9.134  1.00  0.00    -0.200 F 
ATOM     80  F   UNL     1       6.486  -2.276  11.612  1.00  0.00    -0.200 F 
ENDBRANCH  46  70
BRANCH  58  81
ATOM     81  C   UNL     1      11.971   6.276  12.900  1.00  0.00     0.064 A 
ATOM     82  C   UNL     1      13.143   5.529  12.713  1.00  0.00     0.173 A 
ATOM     83  C   UNL     1      11.832   6.992  14.099  1.00  0.00     0.173 A 
ATOM     84  F   UNL     1      13.315   4.814  11.590  1.00  0.00    -0.203 F 
ATOM     85  C   UNL     1      14.126   5.482  13.697  1.00  0.00     0.198 A 
ATOM     86  C   UNL     1      12.829   6.964  15.070  1.00  0.00     0.198 A 
ATOM     87  F   UNL     1      10.732   7.726  14.324  1.00  0.00    -0.203 F 
ATOM     88  F   UNL     1      15.217   4.725  13.516  1.00  0.00    -0.200 F 
ATOM     89  C   UNL     1      13.972   6.205  14.871  1.00  0.00     0.200 A 
ATOM     90  F   UNL     1      12.683   7.672  16.198  1.00  0.00    -0.200 F 
ATOM     91  F   UNL     1      14.922   6.163  15.815  1.00  0.00    -0.200 F 
ENDBRANCH  58  81
ENDBRANCH  32  33
ENDBRANCH  24  27
ENDBRANCH  22  23
ENDBRANCH  21  22
ENDBRANCH   1  21
TORSDOF 13
