REMARK SMILES C[C@H](NC(=O)CCN1C(=O)/C(=C/c2ccc([N+](=O)[O-])cc2)SC1=S)C(=O)NCCCNC(=O)c1ccc(-c2c3nc(c(-c4c(F)c(F)c(F)c(F)c4F)c4ccc([nH]4)c(-c4c(F)c(F)c(F)c(F)c4F)c4nc(c(-c5c(F)c(F)c(F)c(F)c5F)c5ccc2[nH]5)C=C4)C=C3)cc1
REMARK SMILES IDX 25 1 26 2 27 3 2 5 1 6 3 7 4 8 5 10 6 11 7 12 8 13 9 14
REMARK SMILES IDX 23 15 10 16 11 17 22 18 24 19 12 20 13 21 14 22 21 23 15 24
REMARK SMILES IDX 20 25 16 26 17 27 18 28 19 29 28 30 29 31 30 32 31 33 32 34
REMARK SMILES IDX 33 36 34 37 35 38 96 39 36 40 95 41 37 42 38 43 39 44 89 45
REMARK SMILES IDX 40 46 94 47 88 48 90 49 41 50 93 51 87 52 86 53 42 55 74 56
REMARK SMILES IDX 54 57 73 58 55 59 58 60 72 61 91 62 56 63 57 64 71 66 92 67
REMARK SMILES IDX 59 68 43 69 44 70 52 71 45 72 46 73 50 74 53 75 47 76 48 77
REMARK SMILES IDX 51 78 49 79 75 80 76 81 84 82 77 83 78 84 82 85 85 86 79 87
REMARK SMILES IDX 80 88 83 89 81 90 60 91 61 92 69 93 62 94 63 95 67 96 70 97
REMARK SMILES IDX 64 98 65 99 68 100 66 101
REMARK H PARENT 27 4 3 9 31 35 90 54 58 65
REMARK Flexibility Score: inf
ROOT
ATOM      1  C   UNL     1      -0.910   0.603  -1.025  1.00  0.00     0.242 C 
ATOM      2  O   UNL     1      -1.297   1.254  -2.000  1.00  0.00    -0.273 OA
ATOM      3  N   UNL     1      -1.744   0.571   0.067  1.00  0.00    -0.354 N 
ATOM      4  H   UNL     1      -1.697   1.304   0.722  1.00  0.00     0.163 HD
ENDROOT
BRANCH   1   5
ATOM      5  C   UNL     1       0.598   0.190  -0.857  1.00  0.00     0.168 C 
ATOM      6  C   UNL     1       1.263   0.035  -2.214  1.00  0.00     0.041 C 
BRANCH   5   7
ATOM      7  N   UNL     1       0.930  -0.823   0.157  1.00  0.00    -0.345 N 
ATOM      8  C   UNL     1       1.997  -1.656   0.312  1.00  0.00     0.222 C 
ATOM      9  H   UNL     1       0.248  -0.916   0.861  1.00  0.00     0.164 HD
ATOM     10  O   UNL     1       2.490  -1.701   1.446  1.00  0.00    -0.275 OA
BRANCH   8  11
ATOM     11  C   UNL     1       2.586  -2.542  -0.784  1.00  0.00     0.122 C 
BRANCH  11  12
ATOM     12  C   UNL     1       1.722  -3.712  -1.293  1.00  0.00     0.137 C 
BRANCH  12  13
ATOM     13  N   UNL     1       0.579  -3.335  -2.138  1.00  0.00    -0.292 N 
ATOM     14  C   UNL     1       0.743  -3.140  -3.498  1.00  0.00     0.266 C 
ATOM     15  C   UNL     1      -0.720  -3.269  -1.706  1.00  0.00     0.148 C 
ATOM     16  O   UNL     1       1.724  -3.447  -4.152  1.00  0.00    -0.268 OA
ATOM     17  C   UNL     1      -0.450  -2.429  -4.059  1.00  0.00     0.081 C 
ATOM     18  S   UNL     1      -1.715  -2.441  -2.913  1.00  0.00    -0.054 SA
ATOM     19  S   UNL     1      -1.318  -3.902  -0.292  1.00  0.00    -0.052 S 
ATOM     20  C   UNL     1      -0.327  -1.760  -5.214  1.00  0.00     0.029 C 
BRANCH  20  21
ATOM     21  C   UNL     1      -1.135  -0.671  -5.790  1.00  0.00    -0.024 A 
ATOM     22  C   UNL     1      -2.077  -0.881  -6.799  1.00  0.00     0.015 A 
ATOM     23  C   UNL     1      -0.765   0.649  -5.482  1.00  0.00     0.015 A 
ATOM     24  C   UNL     1      -2.589   0.210  -7.525  1.00  0.00     0.086 A 
ATOM     25  C   UNL     1      -1.277   1.742  -6.180  1.00  0.00     0.086 A 
ATOM     26  C   UNL     1      -2.166   1.516  -7.227  1.00  0.00     0.269 A 
BRANCH  26  27
ATOM     27  N   UNL     1      -2.590   2.648  -8.061  1.00  0.00     0.062 N 
ATOM     28  O   UNL     1      -3.353   2.412  -9.008  1.00  0.00    -0.258 OA
ATOM     29  O   UNL     1      -2.142   3.771  -7.782  1.00  0.00    -0.258 OA
ENDBRANCH  26  27
ENDBRANCH  20  21
ENDBRANCH  12  13
ENDBRANCH  11  12
ENDBRANCH   8  11
ENDBRANCH   5   7
ENDBRANCH   1   5
BRANCH   3  30
ATOM     30  C   UNL     1      -2.700  -0.516   0.292  1.00  0.00     0.117 C 
BRANCH  30  31
ATOM     31  C   UNL     1      -2.632  -1.016   1.725  1.00  0.00     0.042 C 
BRANCH  31  32
ATOM     32  C   UNL     1      -3.796  -1.904   2.158  1.00  0.00     0.118 C 
BRANCH  32  33
ATOM     33  N   UNL     1      -3.831  -3.276   1.667  1.00  0.00    -0.352 N 
ATOM     34  C   UNL     1      -4.292  -4.423   2.297  1.00  0.00     0.251 C 
ATOM     35  H   UNL     1      -3.477  -3.408   0.758  1.00  0.00     0.163 HD
ATOM     36  O   UNL     1      -4.224  -5.516   1.744  1.00  0.00    -0.269 OA
BRANCH  34  37
ATOM     37  C   UNL     1      -4.809  -4.339   3.684  1.00  0.00     0.039 A 
ATOM     38  C   UNL     1      -4.445  -5.303   4.630  1.00  0.00     0.014 A 
ATOM     39  C   UNL     1      -5.567  -3.242   4.076  1.00  0.00     0.014 A 
ATOM     40  C   UNL     1      -4.745  -5.093   5.982  1.00  0.00     0.010 A 
ATOM     41  C   UNL     1      -5.698  -2.950   5.422  1.00  0.00     0.010 A 
ATOM     42  C   UNL     1      -5.318  -3.880   6.398  1.00  0.00    -0.014 A 
BRANCH  42  43
ATOM     43  C   UNL     1      -5.577  -3.557   7.828  1.00  0.00     0.031 A 
ATOM     44  C   UNL     1      -6.966  -3.140   8.255  1.00  0.00     0.074 A 
ATOM     45  C   UNL     1      -4.563  -3.528   8.716  1.00  0.00     0.049 A 
ATOM     46  N   UNL     1      -7.382  -2.690   9.412  1.00  0.00    -0.248 NA
ATOM     47  C   UNL     1      -8.016  -3.167   7.221  1.00  0.00     0.031 C 
ATOM     48  C   UNL     1      -3.158  -3.809   8.416  1.00  0.00     0.029 A 
ATOM     49  N   UNL     1      -4.559  -3.240  10.059  1.00  0.00    -0.354 N 
ATOM     50  C   UNL     1      -8.715  -2.344   9.222  1.00  0.00     0.074 A 
ATOM     51  C   UNL     1      -9.010  -2.536   7.823  1.00  0.00     0.031 C 
ATOM     52  C   UNL     1      -2.439  -3.734   9.549  1.00  0.00     0.029 A 
ATOM     53  C   UNL     1      -3.323  -3.362  10.648  1.00  0.00     0.049 A 
ATOM     54  H   UNL     1      -5.367  -2.971  10.554  1.00  0.00     0.167 HD
ATOM     55  C   UNL     1      -9.632  -1.956  10.139  1.00  0.00     0.037 A 
ATOM     56  C   UNL     1      -2.952  -3.201  11.933  1.00  0.00     0.037 A 
ATOM     57  C   UNL     1      -9.353  -1.847  11.544  1.00  0.00     0.049 A 
ATOM     58  C   UNL     1      -4.001  -2.834  12.950  1.00  0.00     0.074 A 
ATOM     59  C   UNL     1     -10.222  -1.553  12.578  1.00  0.00     0.029 A 
ATOM     60  N   UNL     1      -8.102  -2.046  12.111  1.00  0.00    -0.354 N 
ATOM     61  N   UNL     1      -5.279  -2.596  12.774  1.00  0.00    -0.248 NA
ATOM     62  C   UNL     1      -3.559  -2.728  14.347  1.00  0.00     0.031 C 
ATOM     63  C   UNL     1      -9.489  -1.536  13.769  1.00  0.00     0.029 A 
ATOM     64  C   UNL     1      -8.174  -1.870  13.482  1.00  0.00     0.049 A 
ATOM     65  H   UNL     1      -7.286  -2.279  11.613  1.00  0.00     0.167 HD
ATOM     66  C   UNL     1      -5.798  -2.342  14.036  1.00  0.00     0.074 A 
ATOM     67  C   UNL     1      -4.701  -2.475  14.971  1.00  0.00     0.031 C 
ATOM     68  C   UNL     1      -7.068  -2.023  14.391  1.00  0.00     0.037 A 
BRANCH  55  69
ATOM     69  C   UNL     1     -11.023  -1.662   9.651  1.00  0.00     0.064 A 
ATOM     70  C   UNL     1     -11.850  -2.669   9.126  1.00  0.00     0.173 A 
ATOM     71  C   UNL     1     -11.541  -0.360   9.713  1.00  0.00     0.173 A 
ATOM     72  F   UNL     1     -11.401  -3.930   9.029  1.00  0.00    -0.203 F 
ATOM     73  C   UNL     1     -13.121  -2.376   8.640  1.00  0.00     0.198 A 
ATOM     74  C   UNL     1     -12.829  -0.078   9.262  1.00  0.00     0.198 A 
ATOM     75  F   UNL     1     -10.799   0.642  10.208  1.00  0.00    -0.203 F 
ATOM     76  F   UNL     1     -13.860  -3.342   8.078  1.00  0.00    -0.200 F 
ATOM     77  C   UNL     1     -13.613  -1.083   8.715  1.00  0.00     0.200 A 
ATOM     78  F   UNL     1     -13.309   1.171   9.347  1.00  0.00    -0.200 F 
ATOM     79  F   UNL     1     -14.838  -0.802   8.251  1.00  0.00    -0.200 F 
ENDBRANCH  55  69
BRANCH  56  80
ATOM     80  C   UNL     1      -1.543  -3.450  12.344  1.00  0.00     0.064 A 
ATOM     81  C   UNL     1      -1.213  -4.558  13.139  1.00  0.00     0.173 A 
ATOM     82  C   UNL     1      -0.501  -2.594  11.961  1.00  0.00     0.173 A 
ATOM     83  F   UNL     1      -2.176  -5.398  13.548  1.00  0.00    -0.203 F 
ATOM     84  C   UNL     1       0.097  -4.785  13.556  1.00  0.00     0.198 A 
ATOM     85  C   UNL     1       0.814  -2.838  12.353  1.00  0.00     0.198 A 
ATOM     86  F   UNL     1      -0.759  -1.523  11.195  1.00  0.00    -0.203 F 
ATOM     87  F   UNL     1       0.373  -5.823  14.357  1.00  0.00    -0.200 F 
ATOM     88  C   UNL     1       1.111  -3.928  13.158  1.00  0.00     0.200 A 
ATOM     89  F   UNL     1       1.794  -2.015  11.955  1.00  0.00    -0.200 F 
ATOM     90  F   UNL     1       2.372  -4.147  13.557  1.00  0.00    -0.200 F 
ENDBRANCH  56  80
BRANCH  68  91
ATOM     91  C   UNL     1      -7.344  -1.835  15.854  1.00  0.00     0.064 A 
ATOM     92  C   UNL     1      -6.864  -0.721  16.557  1.00  0.00     0.173 A 
ATOM     93  C   UNL     1      -8.134  -2.763  16.549  1.00  0.00     0.173 A 
ATOM     94  F   UNL     1      -6.095   0.188  15.938  1.00  0.00    -0.203 F 
ATOM     95  C   UNL     1      -7.139  -0.558  17.911  1.00  0.00     0.198 A 
ATOM     96  C   UNL     1      -8.436  -2.580  17.895  1.00  0.00     0.198 A 
ATOM     97  F   UNL     1      -8.627  -3.840  15.919  1.00  0.00    -0.203 F 
ATOM     98  F   UNL     1      -6.627   0.486  18.576  1.00  0.00    -0.200 F 
ATOM     99  C   UNL     1      -7.931  -1.483  18.577  1.00  0.00     0.200 A 
ATOM    100  F   UNL     1      -9.215  -3.464  18.532  1.00  0.00    -0.200 F 
ATOM    101  F   UNL     1      -8.201  -1.321  19.879  1.00  0.00    -0.200 F 
ENDBRANCH  68  91
ENDBRANCH  42  43
ENDBRANCH  34  37
ENDBRANCH  32  33
ENDBRANCH  31  32
ENDBRANCH  30  31
ENDBRANCH   3  30
TORSDOF 16
