REMARK SMILES CC1([C@@]2(C)C[C@@H]2C(=O)NCCCNC(=O)c2ccc(-c3c4nc(c(-c5c(F)c(F)c(F)c(F)c5F)c5ccc([nH]5)c(-c5c(F)c(F)c(F)c(F)c5F)c5nc(c(-c6c(F)c(F)c(F)c(F)c6F)c6ccc3[nH]6)C=C5)C=C4)cc2)CC1
REMARK SMILES IDX 11 1 10 2 9 3 7 4 8 5 6 7 3 8 4 9 5 10 2 11 1 12 79 13 80 14
REMARK SMILES IDX 12 15 13 16 14 17 15 19 16 20 17 21 78 22 18 23 77 24 19 25
REMARK SMILES IDX 20 26 21 27 71 28 22 29 76 30 70 31 72 32 23 33 75 34 69 35
REMARK SMILES IDX 68 36 24 38 56 39 36 40 55 41 37 42 40 43 54 44 73 45 38 46
REMARK SMILES IDX 39 47 53 49 74 50 41 51 25 52 26 53 34 54 27 55 28 56 32 57
REMARK SMILES IDX 35 58 29 59 30 60 33 61 31 62 57 63 58 64 66 65 59 66 60 67
REMARK SMILES IDX 64 68 67 69 61 70 62 71 65 72 63 73 42 74 43 75 51 76 44 77
REMARK SMILES IDX 45 78 49 79 52 80 46 81 47 82 50 83 48 84
REMARK H PARENT 9 6 13 18 72 37 40 48
REMARK Flexibility Score: inf
ROOT
ATOM      1  C   UNL     1      -0.954  -5.113  -3.460  1.00  0.00     0.042 C 
ENDROOT
BRANCH   1   2
ATOM      2  C   UNL     1      -1.781  -3.848  -3.238  1.00  0.00     0.117 C 
BRANCH   2   3
ATOM      3  N   UNL     1      -2.012  -3.596  -1.830  1.00  0.00    -0.356 N 
ATOM      4  C   UNL     1      -1.462  -2.634  -1.027  1.00  0.00     0.223 C 
ATOM      5  O   UNL     1      -1.655  -2.667   0.182  1.00  0.00    -0.275 OA
ATOM      6  H   UNL     1      -2.652  -4.200  -1.390  1.00  0.00     0.163 HD
BRANCH   4   7
ATOM      7  C   UNL     1      -0.622  -1.583  -1.653  1.00  0.00     0.085 C 
ATOM      8  C   UNL     1      -0.594  -0.137  -1.119  1.00  0.00    -0.015 C 
ATOM      9  C   UNL     1      -1.540   0.247   0.002  1.00  0.00     0.013 C 
ATOM     10  C   UNL     1      -1.252  -0.468  -2.444  1.00  0.00     0.022 C 
BRANCH   8  11
ATOM     11  C   UNL     1       0.789   0.588  -1.027  1.00  0.00    -0.026 C 
ATOM     12  C   UNL     1       1.705   0.026   0.042  1.00  0.00     0.012 C 
ATOM     13  C   UNL     1       0.838   2.100  -1.205  1.00  0.00     0.008 C 
ATOM     14  C   UNL     1       1.467   1.219  -2.235  1.00  0.00     0.008 C 
ENDBRANCH   8  11
ENDBRANCH   4   7
ENDBRANCH   2   3
ENDBRANCH   1   2
BRANCH   1  15
ATOM     15  C   UNL     1      -1.595  -6.398  -2.935  1.00  0.00     0.118 C 
BRANCH  15  16
ATOM     16  N   UNL     1      -2.831  -6.747  -3.621  1.00  0.00    -0.352 N 
ATOM     17  C   UNL     1      -3.202  -7.904  -4.261  1.00  0.00     0.251 C 
ATOM     18  H   UNL     1      -3.513  -6.037  -3.626  1.00  0.00     0.163 HD
ATOM     19  O   UNL     1      -4.254  -7.930  -4.896  1.00  0.00    -0.269 OA
BRANCH  17  20
ATOM     20  C   UNL     1      -2.344  -9.112  -4.227  1.00  0.00     0.039 A 
ATOM     21  C   UNL     1      -2.212  -9.869  -5.396  1.00  0.00     0.014 A 
ATOM     22  C   UNL     1      -1.702  -9.528  -3.059  1.00  0.00     0.014 A 
ATOM     23  C   UNL     1      -1.386 -10.997  -5.411  1.00  0.00     0.010 A 
ATOM     24  C   UNL     1      -0.818 -10.607  -3.094  1.00  0.00     0.010 A 
ATOM     25  C   UNL     1      -0.648 -11.354  -4.271  1.00  0.00    -0.014 A 
BRANCH  25  26
ATOM     26  C   UNL     1       0.308 -12.495  -4.299  1.00  0.00     0.031 A 
ATOM     27  C   UNL     1       0.093 -13.696  -3.418  1.00  0.00     0.074 A 
ATOM     28  C   UNL     1       1.402 -12.428  -5.083  1.00  0.00     0.049 A 
ATOM     29  N   UNL     1       0.847 -14.757  -3.264  1.00  0.00    -0.248 NA
ATOM     30  C   UNL     1      -1.117 -13.695  -2.583  1.00  0.00     0.031 C 
ATOM     31  C   UNL     1       1.749 -11.307  -5.957  1.00  0.00     0.029 A 
ATOM     32  N   UNL     1       2.432 -13.320  -5.266  1.00  0.00    -0.354 N 
ATOM     33  C   UNL     1       0.208 -15.541  -2.313  1.00  0.00     0.074 A 
ATOM     34  C   UNL     1      -0.963 -14.809  -1.881  1.00  0.00     0.031 C 
ATOM     35  C   UNL     1       2.893 -11.587  -6.601  1.00  0.00     0.029 A 
ATOM     36  C   UNL     1       3.387 -12.885  -6.153  1.00  0.00     0.049 A 
ATOM     37  H   UNL     1       2.480 -14.188  -4.805  1.00  0.00     0.167 HD
ATOM     38  C   UNL     1       0.551 -16.771  -1.857  1.00  0.00     0.037 A 
ATOM     39  C   UNL     1       4.538 -13.461  -6.552  1.00  0.00     0.037 A 
ATOM     40  C   UNL     1       1.713 -17.504  -2.294  1.00  0.00     0.049 A 
ATOM     41  C   UNL     1       4.915 -14.811  -6.003  1.00  0.00     0.074 A 
ATOM     42  C   UNL     1       2.122 -18.773  -1.923  1.00  0.00     0.029 A 
ATOM     43  N   UNL     1       2.656 -17.029  -3.194  1.00  0.00    -0.354 N 
ATOM     44  N   UNL     1       4.268 -15.571  -5.153  1.00  0.00    -0.248 NA
ATOM     45  C   UNL     1       6.181 -15.388  -6.476  1.00  0.00     0.031 C 
ATOM     46  C   UNL     1       3.341 -19.043  -2.552  1.00  0.00     0.029 A 
ATOM     47  C   UNL     1       3.659 -17.971  -3.369  1.00  0.00     0.049 A 
ATOM     48  H   UNL     1       2.619 -16.154  -3.642  1.00  0.00     0.167 HD
ATOM     49  C   UNL     1       5.027 -16.726  -5.018  1.00  0.00     0.074 A 
ATOM     50  C   UNL     1       6.176 -16.574  -5.886  1.00  0.00     0.031 C 
ATOM     51  C   UNL     1       4.793 -17.816  -4.245  1.00  0.00     0.037 A 
BRANCH  38  52
ATOM     52  C   UNL     1      -0.342 -17.407  -0.828  1.00  0.00     0.064 A 
ATOM     53  C   UNL     1      -1.641 -17.834  -1.143  1.00  0.00     0.173 A 
ATOM     54  C   UNL     1       0.120 -17.630   0.478  1.00  0.00     0.173 A 
ATOM     55  F   UNL     1      -2.137 -17.638  -2.374  1.00  0.00    -0.203 F 
ATOM     56  C   UNL     1      -2.455 -18.428  -0.182  1.00  0.00     0.198 A 
ATOM     57  C   UNL     1      -0.683 -18.257   1.427  1.00  0.00     0.198 A 
ATOM     58  F   UNL     1       1.358 -17.252   0.833  1.00  0.00    -0.203 F 
ATOM     59  F   UNL     1      -3.711 -18.777  -0.493  1.00  0.00    -0.200 F 
ATOM     60  C   UNL     1      -1.973 -18.647   1.100  1.00  0.00     0.200 A 
ATOM     61  F   UNL     1      -0.209 -18.484   2.660  1.00  0.00    -0.200 F 
ATOM     62  F   UNL     1      -2.754 -19.227   2.021  1.00  0.00    -0.200 F 
ENDBRANCH  38  52
BRANCH  39  63
ATOM     63  C   UNL     1       5.415 -12.773  -7.537  1.00  0.00     0.064 A 
ATOM     64  C   UNL     1       5.604 -13.297  -8.824  1.00  0.00     0.173 A 
ATOM     65  C   UNL     1       6.098 -11.592  -7.209  1.00  0.00     0.173 A 
ATOM     66  F   UNL     1       4.990 -14.436  -9.180  1.00  0.00    -0.203 F 
ATOM     67  C   UNL     1       6.465 -12.685  -9.733  1.00  0.00     0.198 A 
ATOM     68  C   UNL     1       6.932 -10.962  -8.131  1.00  0.00     0.198 A 
ATOM     69  F   UNL     1       5.950 -11.045  -5.994  1.00  0.00    -0.203 F 
ATOM     70  F   UNL     1       6.671 -13.241 -10.935  1.00  0.00    -0.200 F 
ATOM     71  C   UNL     1       7.123 -11.515  -9.388  1.00  0.00     0.200 A 
ATOM     72  F   UNL     1       7.553  -9.822  -7.800  1.00  0.00    -0.200 F 
ATOM     73  F   UNL     1       7.950 -10.926 -10.263  1.00  0.00    -0.200 F 
ENDBRANCH  39  63
BRANCH  51  74
ATOM     74  C   UNL     1       5.770 -18.954  -4.340  1.00  0.00     0.064 A 
ATOM     75  C   UNL     1       7.077 -18.855  -3.841  1.00  0.00     0.173 A 
ATOM     76  C   UNL     1       5.378 -20.176  -4.911  1.00  0.00     0.173 A 
ATOM     77  F   UNL     1       7.507 -17.706  -3.298  1.00  0.00    -0.203 F 
ATOM     78  C   UNL     1       7.965 -19.924  -3.940  1.00  0.00     0.198 A 
ATOM     79  C   UNL     1       6.257 -21.253  -4.976  1.00  0.00     0.198 A 
ATOM     80  F   UNL     1       4.138 -20.329  -5.398  1.00  0.00    -0.203 F 
ATOM     81  F   UNL     1       9.226 -19.786  -3.509  1.00  0.00    -0.200 F 
ATOM     82  C   UNL     1       7.552 -21.124  -4.499  1.00  0.00     0.200 A 
ATOM     83  F   UNL     1       5.850 -22.417  -5.501  1.00  0.00    -0.200 F 
ATOM     84  F   UNL     1       8.406 -22.153  -4.587  1.00  0.00    -0.200 F 
ENDBRANCH  51  74
ENDBRANCH  25  26
ENDBRANCH  17  20
ENDBRANCH  15  16
ENDBRANCH   1  15
TORSDOF 11
