REMARK SMILES O=C(NCCCNC(=O)[C@H]1[C@H]2CC[C@H](C2)[C@@H]1C(=O)N[C@H]1CCCc2ccccc21)c1ccc(-c2c3nc(c(-c4c(F)c(F)c(F)c(F)c4F)c4ccc([nH]4)c(-c4c(F)c(F)c(F)c(F)c4F)c4nc(c(-c5c(F)c(F)c(F)c(F)c5F)c5ccc2[nH]5)C=C4)C=C3)cc1
REMARK SMILES IDX 5 1 4 2 3 3 1 4 2 5 30 7 31 8 92 9 32 10 91 11 33 12 34 13
REMARK SMILES IDX 35 14 85 15 36 16 90 17 84 18 86 19 37 20 89 21 83 22 82 23
REMARK SMILES IDX 38 25 70 26 50 27 69 28 51 29 54 30 68 31 87 32 52 33 53 34
REMARK SMILES IDX 67 36 88 37 55 38 39 39 40 40 48 41 41 42 42 43 46 44 49 45
REMARK SMILES IDX 43 46 44 47 47 48 45 49 71 50 72 51 80 52 73 53 74 54 78 55
REMARK SMILES IDX 81 56 75 57 76 58 79 59 77 60 56 61 57 62 65 63 58 64 59 65
REMARK SMILES IDX 63 66 66 67 60 68 61 69 64 70 62 71 6 72 7 73 8 74 9 76
REMARK SMILES IDX 10 77 11 78 16 79 12 80 15 81 14 82 13 83 17 84 18 85 19 86
REMARK SMILES IDX 20 88 21 89 29 90 22 91 24 92 28 93 23 94 25 95 27 96 26 97
REMARK H PARENT 3 6 86 24 54 35 7 75 19 87
REMARK Flexibility Score: inf
ROOT
ATOM      1  C   UNL     1       5.666   1.425   5.853  1.00  0.00     0.042 C 
ENDROOT
BRANCH   1   2
ATOM      2  C   UNL     1       5.023   2.770   6.159  1.00  0.00     0.118 C 
BRANCH   2   3
ATOM      3  N   UNL     1       3.833   2.654   7.005  1.00  0.00    -0.352 N 
ATOM      4  O   UNL     1       2.576   2.701   8.877  1.00  0.00    -0.269 OA
ATOM      5  C   UNL     1       3.590   3.094   8.276  1.00  0.00     0.251 C 
ATOM      6  H   UNL     1       3.079   2.177   6.587  1.00  0.00     0.163 HD
BRANCH   5   7
ATOM      7  C   UNL     1       4.513   4.023   8.948  1.00  0.00     0.039 A 
ATOM      8  C   UNL     1       5.122   5.052   8.227  1.00  0.00     0.014 A 
ATOM      9  C   UNL     1       4.748   3.894  10.320  1.00  0.00     0.014 A 
ATOM     10  C   UNL     1       6.093   5.838   8.828  1.00  0.00     0.010 A 
ATOM     11  C   UNL     1       5.636   4.764  10.952  1.00  0.00     0.010 A 
ATOM     12  C   UNL     1       6.335   5.724  10.203  1.00  0.00    -0.014 A 
BRANCH  12  13
ATOM     13  C   UNL     1       7.265   6.667  10.863  1.00  0.00     0.031 A 
ATOM     14  C   UNL     1       8.492   6.167  11.561  1.00  0.00     0.074 A 
ATOM     15  C   UNL     1       6.968   7.980  10.850  1.00  0.00     0.049 A 
ATOM     16  N   UNL     1       9.352   6.826  12.293  1.00  0.00    -0.248 NA
ATOM     17  C   UNL     1       8.782   4.732  11.433  1.00  0.00     0.031 C 
ATOM     18  C   UNL     1       5.803   8.571  10.188  1.00  0.00     0.029 A 
ATOM     19  N   UNL     1       7.606   9.050  11.419  1.00  0.00    -0.354 N 
ATOM     20  C   UNL     1      10.268   5.884  12.739  1.00  0.00     0.074 A 
ATOM     21  C   UNL     1       9.839   4.602  12.220  1.00  0.00     0.031 C 
ATOM     22  C   UNL     1       5.815   9.896  10.376  1.00  0.00     0.029 A 
ATOM     23  C   UNL     1       6.934  10.235  11.245  1.00  0.00     0.049 A 
ATOM     24  H   UNL     1       8.460   8.978  11.903  1.00  0.00     0.167 HD
ATOM     25  C   UNL     1      11.362   6.081  13.513  1.00  0.00     0.037 A 
ATOM     26  C   UNL     1       7.159  11.451  11.773  1.00  0.00     0.037 A 
ATOM     27  C   UNL     1      11.756   7.369  14.026  1.00  0.00     0.049 A 
ATOM     28  C   UNL     1       8.337  11.634  12.684  1.00  0.00     0.074 A 
ATOM     29  C   UNL     1      12.860   7.691  14.793  1.00  0.00     0.029 A 
ATOM     30  N   UNL     1      11.041   8.546  13.840  1.00  0.00    -0.354 N 
ATOM     31  N   UNL     1       9.213  10.746  13.084  1.00  0.00    -0.248 NA
ATOM     32  C   UNL     1       8.559  12.983  13.215  1.00  0.00     0.031 C 
ATOM     33  C   UNL     1      12.768   9.041  15.143  1.00  0.00     0.029 A 
ATOM     34  C   UNL     1      11.661   9.588  14.512  1.00  0.00     0.049 A 
ATOM     35  H   UNL     1      10.216   8.628  13.309  1.00  0.00     0.167 HD
ATOM     36  C   UNL     1      10.113  11.432  13.886  1.00  0.00     0.074 A 
ATOM     37  C   UNL     1       9.671  12.812  13.918  1.00  0.00     0.031 C 
ATOM     38  C   UNL     1      11.213  10.960  14.524  1.00  0.00     0.037 A 
BRANCH  25  39
ATOM     39  C   UNL     1      12.166   4.869  13.899  1.00  0.00     0.064 A 
ATOM     40  C   UNL     1      12.861   4.098  12.953  1.00  0.00     0.173 A 
ATOM     41  C   UNL     1      12.231   4.463  15.242  1.00  0.00     0.173 A 
ATOM     42  F   UNL     1      12.831   4.434  11.654  1.00  0.00    -0.203 F 
ATOM     43  C   UNL     1      13.536   2.938  13.326  1.00  0.00     0.198 A 
ATOM     44  C   UNL     1      12.944   3.327  15.618  1.00  0.00     0.198 A 
ATOM     45  F   UNL     1      11.598   5.164  16.194  1.00  0.00    -0.203 F 
ATOM     46  F   UNL     1      14.118   2.174  12.392  1.00  0.00    -0.200 F 
ATOM     47  C   UNL     1      13.580   2.556  14.658  1.00  0.00     0.200 A 
ATOM     48  F   UNL     1      13.002   2.972  16.909  1.00  0.00    -0.200 F 
ATOM     49  F   UNL     1      14.223   1.436  15.015  1.00  0.00    -0.200 F 
ENDBRANCH  25  39
BRANCH  26  50
ATOM     50  C   UNL     1       6.226  12.560  11.455  1.00  0.00     0.064 A 
ATOM     51  C   UNL     1       6.622  13.626  10.639  1.00  0.00     0.173 A 
ATOM     52  C   UNL     1       4.896  12.540  11.907  1.00  0.00     0.173 A 
ATOM     53  F   UNL     1       7.884  13.693  10.190  1.00  0.00    -0.203 F 
ATOM     54  C   UNL     1       5.726  14.636  10.293  1.00  0.00     0.198 A 
ATOM     55  C   UNL     1       3.993  13.532  11.533  1.00  0.00     0.198 A 
ATOM     56  F   UNL     1       4.463  11.530  12.676  1.00  0.00    -0.203 F 
ATOM     57  F   UNL     1       6.138  15.661   9.535  1.00  0.00    -0.200 F 
ATOM     58  C   UNL     1       4.411  14.582  10.731  1.00  0.00     0.200 A 
ATOM     59  F   UNL     1       2.717  13.460  11.935  1.00  0.00    -0.200 F 
ATOM     60  F   UNL     1       3.546  15.543  10.379  1.00  0.00    -0.200 F 
ENDBRANCH  26  50
BRANCH  38  61
ATOM     61  C   UNL     1      12.067  11.951  15.260  1.00  0.00     0.064 A 
ATOM     62  C   UNL     1      11.658  12.543  16.463  1.00  0.00     0.173 A 
ATOM     63  C   UNL     1      13.359  12.239  14.791  1.00  0.00     0.173 A 
ATOM     64  F   UNL     1      10.427  12.315  16.945  1.00  0.00    -0.203 F 
ATOM     65  C   UNL     1      12.509  13.393  17.166  1.00  0.00     0.198 A 
ATOM     66  C   UNL     1      14.219  13.059  15.515  1.00  0.00     0.198 A 
ATOM     67  F   UNL     1      13.800  11.696  13.646  1.00  0.00    -0.203 F 
ATOM     68  F   UNL     1      12.087  13.975  18.296  1.00  0.00    -0.200 F 
ATOM     69  C   UNL     1      13.793  13.637  16.700  1.00  0.00     0.200 A 
ATOM     70  F   UNL     1      15.465  13.276  15.072  1.00  0.00    -0.200 F 
ATOM     71  F   UNL     1      14.619  14.432  17.393  1.00  0.00    -0.200 F 
ENDBRANCH  38  61
ENDBRANCH  12  13
ENDBRANCH   5   7
ENDBRANCH   2   3
ENDBRANCH   1   2
BRANCH   1  72
ATOM     72  C   UNL     1       4.756   0.457   5.118  1.00  0.00     0.117 C 
BRANCH  72  73
ATOM     73  N   UNL     1       4.795   0.551   3.672  1.00  0.00    -0.356 N 
ATOM     74  C   UNL     1       4.789  -0.450   2.737  1.00  0.00     0.224 C 
ATOM     75  H   UNL     1       4.830   1.466   3.310  1.00  0.00     0.163 HD
ATOM     76  O   UNL     1       4.449  -0.138   1.594  1.00  0.00    -0.275 OA
BRANCH  74  77
ATOM     77  C   UNL     1       5.327  -1.848   3.076  1.00  0.00     0.094 C 
ATOM     78  C   UNL     1       4.751  -2.630   4.258  1.00  0.00     0.002 C 
ATOM     79  C   UNL     1       5.109  -2.878   1.966  1.00  0.00     0.094 C 
ATOM     80  C   UNL     1       3.235  -2.485   4.276  1.00  0.00     0.005 C 
ATOM     81  C   UNL     1       4.893  -4.131   3.911  1.00  0.00     0.009 C 
ATOM     82  C   UNL     1       4.171  -3.991   2.614  1.00  0.00     0.002 C 
ATOM     83  C   UNL     1       2.827  -3.539   3.245  1.00  0.00     0.005 C 
BRANCH  79  84
ATOM     84  C   UNL     1       6.495  -3.337   1.375  1.00  0.00     0.224 C 
ATOM     85  O   UNL     1       6.483  -3.928   0.283  1.00  0.00    -0.275 OA
ATOM     86  N   UNL     1       7.749  -2.938   1.805  1.00  0.00    -0.349 N 
ATOM     87  H   UNL     1       8.141  -2.299   1.167  1.00  0.00     0.164 HD
BRANCH  86  88
ATOM     88  C   UNL     1       8.719  -3.186   2.973  1.00  0.00     0.112 C 
ATOM     89  C   UNL     1      10.053  -2.426   2.697  1.00  0.00     0.030 C 
ATOM     90  C   UNL     1       8.296  -2.966   4.423  1.00  0.00    -0.022 A 
ATOM     91  C   UNL     1      10.912  -2.270   3.959  1.00  0.00     0.007 C 
ATOM     92  C   UNL     1       8.851  -2.020   5.302  1.00  0.00    -0.043 A 
ATOM     93  C   UNL     1       7.521  -3.931   5.044  1.00  0.00     0.006 A 
ATOM     94  C   UNL     1      10.184  -1.395   4.981  1.00  0.00     0.036 C 
ATOM     95  C   UNL     1       8.293  -1.809   6.583  1.00  0.00     0.004 A 
ATOM     96  C   UNL     1       6.917  -3.722   6.286  1.00  0.00     0.000 A 
ATOM     97  C   UNL     1       7.248  -2.606   7.031  1.00  0.00     0.000 A 
ENDBRANCH  86  88
ENDBRANCH  79  84
ENDBRANCH  74  77
ENDBRANCH  72  73
ENDBRANCH   1  72
TORSDOF 12
