REMARK SMILES CC(C)[C@@H]1C(=O)Nc2ccccc2N1C(=O)N[C@H](Cc1ccccc1)C(=O)NCCCNC(=O)c1ccc(-c2c3nc(c(-c4c(F)c(F)c(F)c(F)c4F)c4ccc([nH]4)c(-c4c(F)c(F)c(F)c(F)c4F)c4nc(c(-c5c(F)c(F)c(F)c(F)c5F)c5ccc2[nH]5)C=C4)C=C3)cc1
REMARK SMILES IDX 29 1 28 2 26 3 27 4 18 6 17 7 15 8 16 9 14 11 4 12 5 13 6 14
REMARK SMILES IDX 7 15 13 16 8 17 12 19 9 20 11 21 10 22 2 23 1 24 3 25 19 26
REMARK SMILES IDX 20 27 21 28 25 29 22 30 24 31 23 32 30 33 31 34 32 35 33 36
REMARK SMILES IDX 34 38 35 39 36 40 97 41 37 42 96 43 38 44 39 45 40 46 90 47
REMARK SMILES IDX 41 48 95 49 89 50 91 51 42 52 94 53 88 54 87 55 43 57 75 58
REMARK SMILES IDX 55 59 74 60 56 61 59 62 73 63 92 64 57 65 58 66 72 68 93 69
REMARK SMILES IDX 60 70 44 71 45 72 53 73 46 74 47 75 51 76 54 77 48 78 49 79
REMARK SMILES IDX 52 80 50 81 76 82 77 83 85 84 78 85 79 86 83 87 86 88 80 89
REMARK SMILES IDX 81 90 84 91 82 92 61 93 62 94 70 95 63 96 64 97 68 98 71 99
REMARK SMILES IDX 65 100 66 101 69 102 67 103
REMARK H PARENT 28 5 17 10 7 18 32 37 91 56 59 67
REMARK Flexibility Score: inf
ROOT
ATOM      1  C   UNL     1       4.745   0.573   0.240  1.00  0.00     0.117 C 
ENDROOT
BRANCH   1   2
ATOM      2  N   UNL     1       3.274   0.515   0.177  1.00  0.00    -0.354 N 
ATOM      3  C   UNL     1       2.505  -0.624  -0.091  1.00  0.00     0.242 C 
ATOM      4  O   UNL     1       2.015  -1.170   0.909  1.00  0.00    -0.273 OA
ATOM      5  H   UNL     1       2.787   1.355   0.339  1.00  0.00     0.163 HD
BRANCH   3   6
ATOM      6  C   UNL     1       2.021  -1.103  -1.552  1.00  0.00     0.177 C 
BRANCH   6   7
ATOM      7  N   UNL     1       3.209  -1.003  -2.349  1.00  0.00    -0.326 N 
ATOM      8  C   UNL     1       3.498   0.041  -3.145  1.00  0.00     0.323 C 
ATOM      9  O   UNL     1       3.982  -0.306  -4.231  1.00  0.00    -0.248 OA
ATOM     10  H   UNL     1       3.853  -1.747  -2.312  1.00  0.00     0.166 HD
BRANCH   8  11
ATOM     11  N   UNL     1       3.461   1.347  -2.713  1.00  0.00    -0.280 N 
ATOM     12  C   UNL     1       2.483   2.353  -1.957  1.00  0.00     0.184 C 
ATOM     13  C   UNL     1       2.308   3.509  -3.005  1.00  0.00     0.247 C 
ATOM     14  O   UNL     1       1.241   4.039  -3.303  1.00  0.00    -0.272 OA
ATOM     15  N   UNL     1       3.469   4.077  -3.456  1.00  0.00    -0.322 N 
ATOM     16  C   UNL     1       4.692   2.035  -3.146  1.00  0.00     0.070 A 
ATOM     17  C   UNL     1       4.681   3.401  -3.423  1.00  0.00     0.065 A 
ATOM     18  H   UNL     1       3.444   4.994  -3.814  1.00  0.00     0.170 HD
ATOM     19  C   UNL     1       5.932   1.355  -3.211  1.00  0.00     0.028 A 
ATOM     20  C   UNL     1       5.858   4.076  -3.750  1.00  0.00     0.028 A 
ATOM     21  C   UNL     1       7.114   2.031  -3.502  1.00  0.00     0.002 A 
ATOM     22  C   UNL     1       7.077   3.394  -3.764  1.00  0.00     0.002 A 
BRANCH  12  23
ATOM     23  C   UNL     1       1.029   2.305  -1.191  1.00  0.00     0.015 C 
ATOM     24  C   UNL     1       0.475   1.332  -0.129  1.00  0.00     0.010 C 
ATOM     25  C   UNL     1       0.888   3.644  -0.385  1.00  0.00     0.010 C 
ENDBRANCH  12  23
ENDBRANCH   8  11
ENDBRANCH   6   7
BRANCH   6  26
ATOM     26  C   UNL     1       0.893  -0.607  -2.559  1.00  0.00     0.070 C 
BRANCH  26  27
ATOM     27  C   UNL     1      -0.619  -0.688  -2.570  1.00  0.00    -0.045 A 
ATOM     28  C   UNL     1      -1.333   0.416  -3.104  1.00  0.00     0.004 A 
ATOM     29  C   UNL     1      -1.327  -1.864  -2.340  1.00  0.00     0.004 A 
ATOM     30  C   UNL     1      -2.706   0.374  -3.337  1.00  0.00     0.000 A 
ATOM     31  C   UNL     1      -2.705  -1.918  -2.610  1.00  0.00     0.000 A 
ATOM     32  C   UNL     1      -3.394  -0.802  -3.094  1.00  0.00     0.000 A 
ENDBRANCH  26  27
ENDBRANCH   6  26
ENDBRANCH   3   6
ENDBRANCH   1   2
BRANCH   1  33
ATOM     33  C   UNL     1       5.467   1.940   0.028  1.00  0.00     0.042 C 
BRANCH  33  34
ATOM     34  C   UNL     1       5.329   3.158   0.960  1.00  0.00     0.118 C 
BRANCH  34  35
ATOM     35  N   UNL     1       6.601   3.913   0.972  1.00  0.00    -0.352 N 
ATOM     36  C   UNL     1       7.173   4.801   0.085  1.00  0.00     0.251 C 
ATOM     37  H   UNL     1       7.148   3.748   1.773  1.00  0.00     0.163 HD
ATOM     38  O   UNL     1       8.382   4.665  -0.125  1.00  0.00    -0.269 OA
BRANCH  36  39
ATOM     39  C   UNL     1       6.500   5.998  -0.511  1.00  0.00     0.039 A 
ATOM     40  C   UNL     1       7.177   6.678  -1.547  1.00  0.00     0.014 A 
ATOM     41  C   UNL     1       5.385   6.618   0.052  1.00  0.00     0.014 A 
ATOM     42  C   UNL     1       6.784   7.958  -1.980  1.00  0.00     0.010 A 
ATOM     43  C   UNL     1       4.976   7.896  -0.397  1.00  0.00     0.010 A 
ATOM     44  C   UNL     1       5.690   8.598  -1.389  1.00  0.00    -0.014 A 
BRANCH  44  45
ATOM     45  C   UNL     1       5.366  10.029  -1.705  1.00  0.00     0.031 A 
ATOM     46  C   UNL     1       5.617  11.104  -0.673  1.00  0.00     0.074 A 
ATOM     47  C   UNL     1       4.843  10.392  -2.894  1.00  0.00     0.049 A 
ATOM     48  N   UNL     1       5.303  12.378  -0.692  1.00  0.00    -0.248 NA
ATOM     49  C   UNL     1       6.308  10.679   0.553  1.00  0.00     0.031 C 
ATOM     50  C   UNL     1       4.573   9.487  -4.008  1.00  0.00     0.029 A 
ATOM     51  N   UNL     1       4.427  11.622  -3.355  1.00  0.00    -0.354 N 
ATOM     52  C   UNL     1       5.726  12.896   0.528  1.00  0.00     0.074 A 
ATOM     53  C   UNL     1       6.299  11.793   1.271  1.00  0.00     0.031 C 
ATOM     54  C   UNL     1       4.023  10.185  -5.016  1.00  0.00     0.029 A 
ATOM     55  C   UNL     1       3.868  11.582  -4.611  1.00  0.00     0.049 A 
ATOM     56  H   UNL     1       4.521  12.452  -2.834  1.00  0.00     0.167 HD
ATOM     57  C   UNL     1       5.653  14.171   0.989  1.00  0.00     0.037 A 
ATOM     58  C   UNL     1       3.277  12.548  -5.345  1.00  0.00     0.037 A 
ATOM     59  C   UNL     1       5.118  15.284   0.246  1.00  0.00     0.049 A 
ATOM     60  C   UNL     1       3.177  13.952  -4.804  1.00  0.00     0.074 A 
ATOM     61  C   UNL     1       5.048  16.617   0.616  1.00  0.00     0.029 A 
ATOM     62  N   UNL     1       4.560  15.195  -1.020  1.00  0.00    -0.354 N 
ATOM     63  N   UNL     1       3.594  14.429  -3.657  1.00  0.00    -0.248 NA
ATOM     64  C   UNL     1       2.525  14.953  -5.664  1.00  0.00     0.031 C 
ATOM     65  C   UNL     1       4.407  17.326  -0.407  1.00  0.00     0.029 A 
ATOM     66  C   UNL     1       4.122  16.444  -1.436  1.00  0.00     0.049 A 
ATOM     67  H   UNL     1       4.485  14.367  -1.548  1.00  0.00     0.167 HD
ATOM     68  C   UNL     1       3.278  15.783  -3.666  1.00  0.00     0.074 A 
ATOM     69  C   UNL     1       2.645  16.057  -4.939  1.00  0.00     0.031 C 
ATOM     70  C   UNL     1       3.495  16.713  -2.705  1.00  0.00     0.037 A 
BRANCH  57  71
ATOM     71  C   UNL     1       6.147  14.433   2.385  1.00  0.00     0.064 A 
ATOM     72  C   UNL     1       7.511  14.389   2.710  1.00  0.00     0.173 A 
ATOM     73  C   UNL     1       5.242  14.759   3.408  1.00  0.00     0.173 A 
ATOM     74  F   UNL     1       8.418  14.076   1.772  1.00  0.00    -0.203 F 
ATOM     75  C   UNL     1       7.946  14.621   4.013  1.00  0.00     0.198 A 
ATOM     76  C   UNL     1       5.683  15.022   4.702  1.00  0.00     0.198 A 
ATOM     77  F   UNL     1       3.927  14.830   3.151  1.00  0.00    -0.203 F 
ATOM     78  F   UNL     1       9.249  14.516   4.311  1.00  0.00    -0.200 F 
ATOM     79  C   UNL     1       7.033  14.942   5.006  1.00  0.00     0.200 A 
ATOM     80  F   UNL     1       4.801  15.347   5.657  1.00  0.00    -0.200 F 
ATOM     81  F   UNL     1       7.454  15.165   6.259  1.00  0.00    -0.200 F 
ENDBRANCH  57  71
BRANCH  58  82
ATOM     82  C   UNL     1       2.722  12.219  -6.686  1.00  0.00     0.064 A 
ATOM     83  C   UNL     1       3.330  12.694  -7.856  1.00  0.00     0.173 A 
ATOM     84  C   UNL     1       1.574  11.425  -6.824  1.00  0.00     0.173 A 
ATOM     85  F   UNL     1       4.410  13.485  -7.775  1.00  0.00    -0.203 F 
ATOM     86  C   UNL     1       2.810  12.390  -9.113  1.00  0.00     0.198 A 
ATOM     87  C   UNL     1       1.070  11.100  -8.082  1.00  0.00     0.198 A 
ATOM     88  F   UNL     1       0.950  10.953  -5.735  1.00  0.00    -0.203 F 
ATOM     89  F   UNL     1       3.390  12.886 -10.214  1.00  0.00    -0.200 F 
ATOM     90  C   UNL     1       1.686  11.585  -9.225  1.00  0.00     0.200 A 
ATOM     91  F   UNL     1      -0.011  10.315  -8.186  1.00  0.00    -0.200 F 
ATOM     92  F   UNL     1       1.193  11.284 -10.434  1.00  0.00    -0.200 F 
ENDBRANCH  58  82
BRANCH  70  93
ATOM     93  C   UNL     1       3.076  18.126  -2.996  1.00  0.00     0.064 A 
ATOM     94  C   UNL     1       1.725  18.506  -3.012  1.00  0.00     0.173 A 
ATOM     95  C   UNL     1       4.039  19.123  -3.221  1.00  0.00     0.173 A 
ATOM     96  F   UNL     1       0.765  17.590  -2.817  1.00  0.00    -0.203 F 
ATOM     97  C   UNL     1       1.354  19.825  -3.263  1.00  0.00     0.198 A 
ATOM     98  C   UNL     1       3.665  20.445  -3.445  1.00  0.00     0.198 A 
ATOM     99  F   UNL     1       5.345  18.815  -3.211  1.00  0.00    -0.203 F 
ATOM    100  F   UNL     1       0.057  20.156  -3.314  1.00  0.00    -0.200 F 
ATOM    101  C   UNL     1       2.324  20.794  -3.472  1.00  0.00     0.200 A 
ATOM    102  F   UNL     1       4.604  21.383  -3.635  1.00  0.00    -0.200 F 
ATOM    103  F   UNL     1       1.965  22.064  -3.707  1.00  0.00    -0.200 F 
ENDBRANCH  70  93
ENDBRANCH  44  45
ENDBRANCH  36  39
ENDBRANCH  34  35
ENDBRANCH  33  34
ENDBRANCH   1  33
TORSDOF 15
