REMARK SMILES COc1cc(OC)cc(-c2ccc(C(=O)NCCCNC(=O)c3ccc(-c4c5nc(c(-c6c(F)c(F)c(F)c(F)c6F)c6ccc([nH]6)c(-c6c(F)c(F)c(F)c(F)c6F)c6nc(c(-c7c(F)c(F)c(F)c(F)c7F)c7ccc4[nH]7)C=C6)C=C5)cc3)o2)c1
REMARK SMILES IDX 18 1 17 2 16 3 14 4 15 5 13 7 10 8 11 9 86 10 12 11 9 12
REMARK SMILES IDX 3 13 4 14 87 15 5 16 8 17 2 18 1 19 6 20 7 21 19 22 20 23
REMARK SMILES IDX 21 24 22 26 23 27 24 28 85 29 25 30 84 31 26 32 27 33 28 34
REMARK SMILES IDX 78 35 29 36 83 37 77 38 79 39 30 40 82 41 76 42 75 43 31 45
REMARK SMILES IDX 63 46 43 47 62 48 44 49 47 50 61 51 80 52 45 53 46 54 60 56
REMARK SMILES IDX 81 57 48 58 32 59 33 60 41 61 34 62 35 63 39 64 42 65 36 66
REMARK SMILES IDX 37 67 40 68 38 69 64 70 65 71 73 72 66 73 67 74 71 75 74 76
REMARK SMILES IDX 68 77 69 78 72 79 70 80 49 81 50 82 58 83 51 84 52 85 56 86
REMARK SMILES IDX 59 87 53 88 54 89 57 90 55 91
REMARK H PARENT 16 6 20 25 79 44 47 55
REMARK Flexibility Score: inf
ROOT
ATOM      1  C   UNL     1       9.659   4.857  -2.173  1.00  0.00     0.042 C 
ENDROOT
BRANCH   1   2
ATOM      2  C   UNL     1       8.986   4.426  -0.873  1.00  0.00     0.118 C 
BRANCH   2   3
ATOM      3  N   UNL     1       8.103   5.459  -0.369  1.00  0.00    -0.349 N 
ATOM      4  C   UNL     1       6.736   5.602  -0.461  1.00  0.00     0.287 C 
ATOM      5  O   UNL     1       6.258   6.560   0.148  1.00  0.00    -0.266 OA
ATOM      6  H   UNL     1       8.557   6.181   0.123  1.00  0.00     0.163 HD
BRANCH   4   7
ATOM      7  C   UNL     1       5.934   4.659  -1.220  1.00  0.00     0.192 A 
ATOM      8  C   UNL     1       4.034   3.655  -1.724  1.00  0.00     0.135 A 
ATOM      9  C   UNL     1       4.994   3.064  -2.508  1.00  0.00     0.052 A 
ATOM     10  O   UNL     1       4.582   4.627  -0.950  1.00  0.00    -0.451 OA
ATOM     11  C   UNL     1       6.199   3.741  -2.225  1.00  0.00     0.057 A 
BRANCH   8  12
ATOM     12  C   UNL     1       2.603   3.454  -1.635  1.00  0.00     0.025 A 
ATOM     13  C   UNL     1       0.741   1.950  -1.280  1.00  0.00     0.123 A 
ATOM     14  C   UNL     1      -0.104   2.884  -1.884  1.00  0.00     0.092 A 
ATOM     15  C   UNL     1       2.100   2.234  -1.165  1.00  0.00     0.058 A 
ATOM     16  C   UNL     1       0.386   4.112  -2.340  1.00  0.00     0.123 A 
ATOM     17  C   UNL     1       1.738   4.408  -2.184  1.00  0.00     0.058 A 
BRANCH  13  18
ATOM     18  O   UNL     1       0.147   0.772  -0.918  1.00  0.00    -0.497 OA
ATOM     19  C   UNL     1       0.808   0.018   0.092  1.00  0.00     0.278 C 
ENDBRANCH  13  18
BRANCH  16  20
ATOM     20  O   UNL     1      -0.541   4.919  -2.942  1.00  0.00    -0.497 OA
ATOM     21  C   UNL     1      -0.033   6.029  -3.674  1.00  0.00     0.278 C 
ENDBRANCH  16  20
ENDBRANCH   8  12
ENDBRANCH   4   7
ENDBRANCH   2   3
ENDBRANCH   1   2
BRANCH   1  22
ATOM     22  C   UNL     1      10.819   5.820  -1.938  1.00  0.00     0.118 C 
BRANCH  22  23
ATOM     23  N   UNL     1      11.938   5.167  -1.265  1.00  0.00    -0.352 N 
ATOM     24  C   UNL     1      13.231   4.984  -1.686  1.00  0.00     0.251 C 
ATOM     25  H   UNL     1      11.733   4.803  -0.373  1.00  0.00     0.163 HD
ATOM     26  O   UNL     1      13.969   4.206  -1.090  1.00  0.00    -0.269 OA
BRANCH  24  27
ATOM     27  C   UNL     1      13.729   5.718  -2.865  1.00  0.00     0.039 A 
ATOM     28  C   UNL     1      14.494   5.044  -3.819  1.00  0.00     0.014 A 
ATOM     29  C   UNL     1      13.441   7.076  -3.019  1.00  0.00     0.014 A 
ATOM     30  C   UNL     1      14.909   5.715  -4.971  1.00  0.00     0.010 A 
ATOM     31  C   UNL     1      13.786   7.720  -4.199  1.00  0.00     0.010 A 
ATOM     32  C   UNL     1      14.522   7.047  -5.186  1.00  0.00    -0.014 A 
BRANCH  32  33
ATOM     33  C   UNL     1      14.864   7.775  -6.433  1.00  0.00     0.031 A 
ATOM     34  C   UNL     1      15.713   9.012  -6.360  1.00  0.00     0.074 A 
ATOM     35  C   UNL     1      14.309   7.398  -7.599  1.00  0.00     0.049 A 
ATOM     36  N   UNL     1      15.973   9.896  -7.288  1.00  0.00    -0.248 NA
ATOM     37  C   UNL     1      16.318   9.315  -5.053  1.00  0.00     0.031 C 
ATOM     38  C   UNL     1      13.436   6.238  -7.784  1.00  0.00     0.029 A 
ATOM     39  N   UNL     1      14.367   7.974  -8.845  1.00  0.00    -0.354 N 
ATOM     40  C   UNL     1      16.740  10.874  -6.670  1.00  0.00     0.074 A 
ATOM     41  C   UNL     1      16.866  10.498  -5.279  1.00  0.00     0.031 C 
ATOM     42  C   UNL     1      13.039   6.188  -9.065  1.00  0.00     0.029 A 
ATOM     43  C   UNL     1      13.585   7.339  -9.778  1.00  0.00     0.049 A 
ATOM     44  H   UNL     1      14.916   8.765  -9.048  1.00  0.00     0.167 HD
ATOM     45  C   UNL     1      17.298  11.979  -7.220  1.00  0.00     0.037 A 
ATOM     46  C   UNL     1      13.313   7.665 -11.056  1.00  0.00     0.037 A 
ATOM     47  C   UNL     1      17.186  12.325  -8.613  1.00  0.00     0.049 A 
ATOM     48  C   UNL     1      13.941   8.898 -11.648  1.00  0.00     0.074 A 
ATOM     49  C   UNL     1      17.778  13.377  -9.289  1.00  0.00     0.029 A 
ATOM     50  N   UNL     1      16.420  11.632  -9.540  1.00  0.00    -0.354 N 
ATOM     51  N   UNL     1      14.723   9.781 -11.075  1.00  0.00    -0.248 NA
ATOM     52  C   UNL     1      13.652   9.180 -13.060  1.00  0.00     0.031 C 
ATOM     53  C   UNL     1      17.319  13.358 -10.609  1.00  0.00     0.029 A 
ATOM     54  C   UNL     1      16.498  12.253 -10.775  1.00  0.00     0.049 A 
ATOM     55  H   UNL     1      15.898  10.820  -9.348  1.00  0.00     0.167 HD
ATOM     56  C   UNL     1      15.047  10.702 -12.062  1.00  0.00     0.074 A 
ATOM     57  C   UNL     1      14.378  10.270 -13.271  1.00  0.00     0.031 C 
ATOM     58  C   UNL     1      15.835  11.802 -11.974  1.00  0.00     0.037 A 
BRANCH  45  59
ATOM     59  C   UNL     1      18.060  12.900  -6.311  1.00  0.00     0.064 A 
ATOM     60  C   UNL     1      19.267  12.519  -5.706  1.00  0.00     0.173 A 
ATOM     61  C   UNL     1      17.581  14.195  -6.054  1.00  0.00     0.173 A 
ATOM     62  F   UNL     1      19.767  11.290  -5.910  1.00  0.00    -0.203 F 
ATOM     63  C   UNL     1      19.943  13.381  -4.845  1.00  0.00     0.198 A 
ATOM     64  C   UNL     1      18.279  15.067  -5.223  1.00  0.00     0.198 A 
ATOM     65  F   UNL     1      16.436  14.617  -6.611  1.00  0.00    -0.203 F 
ATOM     66  F   UNL     1      21.058  12.969  -4.228  1.00  0.00    -0.200 F 
ATOM     67  C   UNL     1      19.452  14.655  -4.609  1.00  0.00     0.200 A 
ATOM     68  F   UNL     1      17.811  16.305  -5.010  1.00  0.00    -0.200 F 
ATOM     69  F   UNL     1      20.104  15.485  -3.783  1.00  0.00    -0.200 F 
ENDBRANCH  45  59
BRANCH  46  70
ATOM     70  C   UNL     1      12.406   6.801 -11.857  1.00  0.00     0.064 A 
ATOM     71  C   UNL     1      12.900   6.013 -12.905  1.00  0.00     0.173 A 
ATOM     72  C   UNL     1      11.035   6.721 -11.570  1.00  0.00     0.173 A 
ATOM     73  F   UNL     1      14.201   6.068 -13.227  1.00  0.00    -0.203 F 
ATOM     74  C   UNL     1      12.056   5.188 -13.644  1.00  0.00     0.198 A 
ATOM     75  C   UNL     1      10.197   5.873 -12.291  1.00  0.00     0.198 A 
ATOM     76  F   UNL     1      10.514   7.447 -10.571  1.00  0.00    -0.203 F 
ATOM     77  F   UNL     1      12.548   4.471 -14.664  1.00  0.00    -0.200 F 
ATOM     78  C   UNL     1      10.707   5.111 -13.332  1.00  0.00     0.200 A 
ATOM     79  F   UNL     1       8.898   5.788 -11.972  1.00  0.00    -0.200 F 
ATOM     80  F   UNL     1       9.898   4.306 -14.033  1.00  0.00    -0.200 F 
ENDBRANCH  46  70
BRANCH  58  81
ATOM     81  C   UNL     1      16.067  12.598 -13.226  1.00  0.00     0.064 A 
ATOM     82  C   UNL     1      15.069  13.409 -13.784  1.00  0.00     0.173 A 
ATOM     83  C   UNL     1      17.337  12.612 -13.824  1.00  0.00     0.173 A 
ATOM     84  F   UNL     1      13.835  13.419 -13.258  1.00  0.00    -0.203 F 
ATOM     85  C   UNL     1      15.332  14.199 -14.900  1.00  0.00     0.198 A 
ATOM     86  C   UNL     1      17.605  13.426 -14.920  1.00  0.00     0.198 A 
ATOM     87  F   UNL     1      18.328  11.858 -13.325  1.00  0.00    -0.203 F 
ATOM     88  F   UNL     1      14.355  14.943 -15.437  1.00  0.00    -0.200 F 
ATOM     89  C   UNL     1      16.602  14.217 -15.459  1.00  0.00     0.200 A 
ATOM     90  F   UNL     1      18.837  13.455 -15.447  1.00  0.00    -0.200 F 
ATOM     91  F   UNL     1      16.858  14.995 -16.519  1.00  0.00    -0.200 F 
ENDBRANCH  58  81
ENDBRANCH  32  33
ENDBRANCH  24  27
ENDBRANCH  22  23
ENDBRANCH   1  22
TORSDOF 13
