REMARK SMILES CC(C)OC(=O)c1c(NC(=O)[C@H]2[C@@H](C(=O)NCCCNC(=O)c3ccc(-c4c5nc(c(-c6c(F)c(F)c(F)c(F)c6F)c6ccc([nH]6)c(-c6c(F)c(F)c(F)c(F)c6F)c6nc(c(-c7c(F)c(F)c(F)c(F)c7F)c7ccc4[nH]7)C=C6)C=C5)cc3)[C@@H]3C=C[C@H]2CC3)sc2c1CCC2
REMARK SMILES IDX 14 1 15 2 16 3 13 5 12 6 89 7 86 8 88 9 90 10 87 11 91 12
REMARK SMILES IDX 10 13 9 14 11 16 8 17 7 18 94 19 92 20 93 21 95 22 97 23
REMARK SMILES IDX 96 24 5 25 6 26 4 27 2 28 1 29 3 30 17 31 18 32 19 33 20 34
REMARK SMILES IDX 21 35 22 37 23 38 24 39 85 40 25 41 84 42 26 43 27 44 28 45
REMARK SMILES IDX 78 46 29 47 83 48 77 49 79 50 30 51 82 52 76 53 75 54 31 56
REMARK SMILES IDX 63 57 43 58 62 59 44 60 47 61 61 62 80 63 45 64 46 65 60 67
REMARK SMILES IDX 81 68 48 69 32 70 33 71 41 72 34 73 35 74 39 75 42 76 36 77
REMARK SMILES IDX 37 78 40 79 38 80 64 81 65 82 73 83 66 84 67 85 71 86 74 87
REMARK SMILES IDX 68 88 69 89 72 90 70 91 49 92 50 93 58 94 51 95 52 96 56 97
REMARK SMILES IDX 59 98 53 99 54 100 57 101 55 102
REMARK H PARENT 16 4 9 15 20 36 79 55 47 66
REMARK Flexibility Score: inf
ROOT
ATOM      1  C   UNL     1      -6.797  -0.226  -2.221  1.00  0.00     0.224 C 
ATOM      2  O   UNL     1      -6.216  -0.294  -3.314  1.00  0.00    -0.275 OA
ATOM      3  N   UNL     1      -7.750   0.735  -2.139  1.00  0.00    -0.356 N 
ATOM      4  H   UNL     1      -8.004   1.084  -3.024  1.00  0.00     0.163 HD
ENDROOT
BRANCH   1   5
ATOM      5  C   UNL     1      -6.311  -1.111  -1.071  1.00  0.00     0.098 C 
ATOM      6  C   UNL     1      -6.154  -2.655  -1.395  1.00  0.00     0.099 C 
ATOM      7  C   UNL     1      -6.790  -3.483  -0.225  1.00  0.00     0.025 C 
ATOM      8  C   UNL     1      -6.939  -0.968   0.335  1.00  0.00     0.025 C 
ATOM      9  C   UNL     1      -6.042  -3.092   1.031  1.00  0.00    -0.027 C 
ATOM     10  C   UNL     1      -8.262  -3.089  -0.033  1.00  0.00     0.009 C 
ATOM     11  C   UNL     1      -6.101  -1.782   1.310  1.00  0.00    -0.027 C 
ATOM     12  C   UNL     1      -8.351  -1.607   0.333  1.00  0.00     0.009 C 
BRANCH   6  13
ATOM     13  C   UNL     1      -6.635  -3.221  -2.732  1.00  0.00     0.229 C 
ATOM     14  N   UNL     1      -6.176  -4.427  -3.225  1.00  0.00    -0.317 N 
ATOM     15  H   UNL     1      -6.298  -4.561  -4.192  1.00  0.00     0.170 HD
ATOM     16  O   UNL     1      -7.556  -2.684  -3.357  1.00  0.00    -0.274 OA
BRANCH  14  17
ATOM     17  C   UNL     1      -5.568  -5.479  -2.551  1.00  0.00     0.110 A 
ATOM     18  C   UNL     1      -5.842  -6.842  -2.719  1.00  0.00     0.098 A 
ATOM     19  C   UNL     1      -5.396  -7.532  -1.550  1.00  0.00    -0.017 A 
ATOM     20  S   UNL     1      -4.324  -5.239  -1.393  1.00  0.00    -0.122 S 
ATOM     21  C   UNL     1      -4.672  -6.722  -0.720  1.00  0.00     0.011 A 
ATOM     22  C   UNL     1      -5.526  -8.888  -0.956  1.00  0.00     0.038 C 
ATOM     23  C   UNL     1      -4.307  -7.315   0.582  1.00  0.00     0.047 C 
ATOM     24  C   UNL     1      -5.121  -8.643   0.537  1.00  0.00     0.010 C 
BRANCH  18  25
ATOM     25  C   UNL     1      -6.593  -7.353  -3.857  1.00  0.00     0.341 C 
ATOM     26  O   UNL     1      -6.668  -6.722  -4.913  1.00  0.00    -0.246 OA
BRANCH  25  27
ATOM     27  O   UNL     1      -7.170  -8.562  -3.635  1.00  0.00    -0.459 OA
BRANCH  27  28
ATOM     28  C   UNL     1      -7.812  -9.259  -4.729  1.00  0.00     0.170 C 
ATOM     29  C   UNL     1      -8.881  -8.451  -5.464  1.00  0.00     0.052 C 
ATOM     30  C   UNL     1      -6.761  -9.839  -5.668  1.00  0.00     0.052 C 
ENDBRANCH  27  28
ENDBRANCH  25  27
ENDBRANCH  18  25
ENDBRANCH  14  17
ENDBRANCH   6  13
ENDBRANCH   1   5
BRANCH   3  31
ATOM     31  C   UNL     1      -8.489   1.375  -1.061  1.00  0.00     0.117 C 
BRANCH  31  32
ATOM     32  C   UNL     1      -7.872   2.707  -0.635  1.00  0.00     0.042 C 
BRANCH  32  33
ATOM     33  C   UNL     1      -8.558   3.868  -1.330  1.00  0.00     0.118 C 
BRANCH  33  34
ATOM     34  N   UNL     1      -9.960   3.992  -0.916  1.00  0.00    -0.352 N 
ATOM     35  C   UNL     1     -10.973   4.719  -1.498  1.00  0.00     0.251 C 
ATOM     36  H   UNL     1     -10.210   3.485  -0.110  1.00  0.00     0.163 HD
ATOM     37  O   UNL     1     -12.018   4.946  -0.903  1.00  0.00    -0.269 OA
BRANCH  35  38
ATOM     38  C   UNL     1     -10.755   5.247  -2.850  1.00  0.00     0.039 A 
ATOM     39  C   UNL     1     -10.970   6.600  -3.116  1.00  0.00     0.014 A 
ATOM     40  C   UNL     1     -10.220   4.394  -3.810  1.00  0.00     0.014 A 
ATOM     41  C   UNL     1     -10.537   7.118  -4.331  1.00  0.00     0.010 A 
ATOM     42  C   UNL     1      -9.666   4.934  -4.946  1.00  0.00     0.010 A 
ATOM     43  C   UNL     1      -9.850   6.287  -5.229  1.00  0.00    -0.014 A 
BRANCH  43  44
ATOM     44  C   UNL     1      -9.232   6.859  -6.422  1.00  0.00     0.031 A 
ATOM     45  C   UNL     1      -8.295   8.002  -6.197  1.00  0.00     0.074 A 
ATOM     46  C   UNL     1      -9.313   6.268  -7.633  1.00  0.00     0.049 A 
ATOM     47  N   UNL     1      -8.375   9.200  -6.678  1.00  0.00    -0.248 NA
ATOM     48  C   UNL     1      -7.170   7.814  -5.266  1.00  0.00     0.031 C 
ATOM     49  C   UNL     1      -9.906   4.973  -7.981  1.00  0.00     0.029 A 
ATOM     50  N   UNL     1      -8.746   6.661  -8.804  1.00  0.00    -0.354 N 
ATOM     51  C   UNL     1      -7.243   9.886  -6.234  1.00  0.00     0.074 A 
ATOM     52  C   UNL     1      -6.603   9.024  -5.274  1.00  0.00     0.031 C 
ATOM     53  C   UNL     1      -9.443   4.578  -9.185  1.00  0.00     0.029 A 
ATOM     54  C   UNL     1      -8.668   5.662  -9.761  1.00  0.00     0.049 A 
ATOM     55  H   UNL     1      -8.420   7.577  -8.959  1.00  0.00     0.167 HD
ATOM     56  C   UNL     1      -6.829  11.042  -6.828  1.00  0.00     0.037 A 
ATOM     57  C   UNL     1      -7.971   5.705 -10.921  1.00  0.00     0.037 A 
ATOM     58  C   UNL     1      -7.868  11.609  -7.648  1.00  0.00     0.049 A 
ATOM     59  C   UNL     1      -7.699   7.134 -11.223  1.00  0.00     0.074 A 
ATOM     60  C   UNL     1      -9.153  12.054  -7.402  1.00  0.00     0.029 A 
ATOM     61  N   UNL     1      -7.790  11.443  -9.009  1.00  0.00    -0.354 N 
ATOM     62  N   UNL     1      -8.621   7.995 -11.558  1.00  0.00    -0.248 NA
ATOM     63  C   UNL     1      -6.468   7.712 -10.703  1.00  0.00     0.031 C 
ATOM     64  C   UNL     1      -9.908  11.619  -8.531  1.00  0.00     0.029 A 
ATOM     65  C   UNL     1      -9.024  11.007  -9.420  1.00  0.00     0.049 A 
ATOM     66  H   UNL     1      -7.003  11.605  -9.578  1.00  0.00     0.167 HD
ATOM     67  C   UNL     1      -8.273   9.160 -10.891  1.00  0.00     0.074 A 
ATOM     68  C   UNL     1      -6.891   8.956 -10.462  1.00  0.00     0.031 C 
ATOM     69  C   UNL     1      -9.219  10.060 -10.491  1.00  0.00     0.037 A 
BRANCH  56  70
ATOM     70  C   UNL     1      -5.399  11.514  -6.929  1.00  0.00     0.064 A 
ATOM     71  C   UNL     1      -5.128  12.807  -7.426  1.00  0.00     0.173 A 
ATOM     72  C   UNL     1      -4.286  10.652  -6.845  1.00  0.00     0.173 A 
ATOM     73  F   UNL     1      -6.113  13.708  -7.563  1.00  0.00    -0.203 F 
ATOM     74  C   UNL     1      -3.859  13.176  -7.881  1.00  0.00     0.198 A 
ATOM     75  C   UNL     1      -3.009  11.042  -7.249  1.00  0.00     0.198 A 
ATOM     76  F   UNL     1      -4.408   9.371  -6.477  1.00  0.00    -0.203 F 
ATOM     77  F   UNL     1      -3.681  14.369  -8.465  1.00  0.00    -0.200 F 
ATOM     78  C   UNL     1      -2.802  12.290  -7.799  1.00  0.00     0.200 A 
ATOM     79  F   UNL     1      -1.999  10.164  -7.176  1.00  0.00    -0.200 F 
ATOM     80  F   UNL     1      -1.600  12.617  -8.291  1.00  0.00    -0.200 F 
ENDBRANCH  56  70
BRANCH  57  81
ATOM     81  C   UNL     1      -7.311   4.585 -11.629  1.00  0.00     0.064 A 
ATOM     82  C   UNL     1      -6.920   4.707 -12.971  1.00  0.00     0.173 A 
ATOM     83  C   UNL     1      -6.824   3.459 -10.935  1.00  0.00     0.173 A 
ATOM     84  F   UNL     1      -7.302   5.772 -13.690  1.00  0.00    -0.203 F 
ATOM     85  C   UNL     1      -6.077   3.769 -13.576  1.00  0.00     0.198 A 
ATOM     86  C   UNL     1      -5.994   2.517 -11.543  1.00  0.00     0.198 A 
ATOM     87  F   UNL     1      -7.069   3.296  -9.627  1.00  0.00    -0.203 F 
ATOM     88  F   UNL     1      -5.676   3.951 -14.842  1.00  0.00    -0.200 F 
ATOM     89  C   UNL     1      -5.609   2.679 -12.859  1.00  0.00     0.200 A 
ATOM     90  F   UNL     1      -5.521   1.487 -10.827  1.00  0.00    -0.200 F 
ATOM     91  F   UNL     1      -4.756   1.812 -13.423  1.00  0.00    -0.200 F 
ENDBRANCH  57  81
BRANCH  69  92
ATOM     92  C   UNL     1     -10.625   9.902 -11.000  1.00  0.00     0.064 A 
ATOM     93  C   UNL     1     -11.423   8.766 -10.775  1.00  0.00     0.173 A 
ATOM     94  C   UNL     1     -11.243  11.011 -11.595  1.00  0.00     0.173 A 
ATOM     95  F   UNL     1     -10.949   7.705 -10.113  1.00  0.00    -0.203 F 
ATOM     96  C   UNL     1     -12.759   8.729 -11.171  1.00  0.00     0.198 A 
ATOM     97  C   UNL     1     -12.588  10.986 -11.952  1.00  0.00     0.198 A 
ATOM     98  F   UNL     1     -10.551  12.146 -11.782  1.00  0.00    -0.203 F 
ATOM     99  F   UNL     1     -13.494   7.628 -10.955  1.00  0.00    -0.200 F 
ATOM    100  C   UNL     1     -13.343   9.842 -11.751  1.00  0.00     0.200 A 
ATOM    101  F   UNL     1     -13.162  12.085 -12.463  1.00  0.00    -0.200 F 
ATOM    102  F   UNL     1     -14.639   9.823 -12.091  1.00  0.00    -0.200 F 
ENDBRANCH  69  92
ENDBRANCH  43  44
ENDBRANCH  35  38
ENDBRANCH  33  34
ENDBRANCH  32  33
ENDBRANCH  31  32
ENDBRANCH   3  31
TORSDOF 15
