REMARK SMILES C[C@H]([NH3+])C(=O)N1CCC[C@H]1C(=O)NCCCNC(=O)c1ccc(-c2c3nc(c(-c4c(F)c(F)c(F)c(F)c4F)c4ccc([nH]4)c(-c4c(F)c(F)c(F)c(F)c4F)c4nc(c(-c5c(F)c(F)c(F)c(F)c5F)c5ccc2[nH]5)C=C4)C=C3)cc1
REMARK SMILES IDX 14 1 13 2 11 3 12 4 10 6 6 7 7 8 8 9 9 10 4 11 5 12 2 13
REMARK SMILES IDX 1 14 3 15 15 19 16 20 17 21 18 22 19 24 20 25 21 26 82 27
REMARK SMILES IDX 22 28 81 29 23 30 24 31 25 32 75 33 26 34 80 35 74 36 76 37
REMARK SMILES IDX 27 38 79 39 73 40 72 41 28 43 60 44 40 45 59 46 41 47 44 48
REMARK SMILES IDX 58 49 77 50 42 51 43 52 57 54 78 55 45 56 29 57 30 58 38 59
REMARK SMILES IDX 31 60 32 61 36 62 39 63 33 64 34 65 37 66 35 67 61 68 62 69
REMARK SMILES IDX 70 70 63 71 64 72 68 73 71 74 65 75 66 76 69 77 67 78 46 79
REMARK SMILES IDX 47 80 55 81 48 82 49 83 53 84 56 85 50 86 51 87 54 88 52 89
REMARK H PARENT 13 5 3 16 3 17 3 18 17 23 76 42 44 53
REMARK Flexibility Score: inf
ROOT
ATOM      1  C   UNL     1      -4.631  -0.943   3.865  1.00  0.00     0.117 C 
ENDROOT
BRANCH   1   2
ATOM      2  N   UNL     1      -4.776  -0.746   2.434  1.00  0.00    -0.354 N 
ATOM      3  C   UNL     1      -3.999  -0.016   1.578  1.00  0.00     0.242 C 
ATOM      4  O   UNL     1      -4.286  -0.033   0.378  1.00  0.00    -0.273 OA
ATOM      5  H   UNL     1      -5.543  -1.204   2.021  1.00  0.00     0.163 HD
BRANCH   3   6
ATOM      6  C   UNL     1      -2.854   0.849   2.139  1.00  0.00     0.174 C 
ATOM      7  N   UNL     1      -1.589   0.668   1.423  1.00  0.00    -0.326 N 
ATOM      8  C   UNL     1      -1.193   1.892   0.755  1.00  0.00     0.120 C 
ATOM      9  C   UNL     1      -1.885   2.978   1.561  1.00  0.00     0.024 C 
ATOM     10  C   UNL     1      -3.203   2.332   1.962  1.00  0.00     0.037 C 
BRANCH   7  11
ATOM     11  C   UNL     1      -0.913  -0.525   1.548  1.00  0.00     0.281 C 
ATOM     12  O   UNL     1      -1.455  -1.481   2.123  1.00  0.00    -0.268 OA
BRANCH  11  13
ATOM     13  C   UNL     1       0.579  -0.645   1.177  1.00  0.00     0.268 C 
ATOM     14  C   UNL     1       1.415  -0.009   2.284  1.00  0.00     0.086 C 
BRANCH  13  15
ATOM     15  N   UNL     1       0.929  -0.126  -0.157  1.00  0.00    -0.348 N 
ATOM     16  H   UNL     1       0.749   0.878  -0.189  1.00  0.00     0.345 HD
ATOM     17  H   UNL     1       0.364  -0.596  -0.864  1.00  0.00     0.345 HD
ATOM     18  H   UNL     1       1.918  -0.299  -0.341  1.00  0.00     0.345 HD
ENDBRANCH  13  15
ENDBRANCH  11  13
ENDBRANCH   7  11
ENDBRANCH   3   6
ENDBRANCH   1   2
BRANCH   1  19
ATOM     19  C   UNL     1      -5.569  -0.043   4.666  1.00  0.00     0.042 C 
BRANCH  19  20
ATOM     20  C   UNL     1      -7.051  -0.366   4.483  1.00  0.00     0.118 C 
BRANCH  20  21
ATOM     21  N   UNL     1      -7.388  -1.719   4.906  1.00  0.00    -0.352 N 
ATOM     22  C   UNL     1      -8.336  -2.184   5.776  1.00  0.00     0.251 C 
ATOM     23  H   UNL     1      -6.838  -2.422   4.492  1.00  0.00     0.163 HD
ATOM     24  O   UNL     1      -8.314  -3.373   6.098  1.00  0.00    -0.269 OA
BRANCH  22  25
ATOM     25  C   UNL     1      -9.376  -1.301   6.348  1.00  0.00     0.039 A 
ATOM     26  C   UNL     1      -9.792  -1.539   7.664  1.00  0.00     0.014 A 
ATOM     27  C   UNL     1     -10.002  -0.303   5.596  1.00  0.00     0.014 A 
ATOM     28  C   UNL     1     -10.798  -0.757   8.234  1.00  0.00     0.010 A 
ATOM     29  C   UNL     1     -10.959   0.523   6.188  1.00  0.00     0.010 A 
ATOM     30  C   UNL     1     -11.375   0.296   7.507  1.00  0.00    -0.014 A 
BRANCH  30  31
ATOM     31  C   UNL     1     -12.418   1.152   8.126  1.00  0.00     0.031 A 
ATOM     32  C   UNL     1     -13.830   1.133   7.613  1.00  0.00     0.074 A 
ATOM     33  C   UNL     1     -12.082   1.977   9.136  1.00  0.00     0.049 A 
ATOM     34  N   UNL     1     -14.875   1.799   8.039  1.00  0.00    -0.248 NA
ATOM     35  C   UNL     1     -14.102   0.272   6.452  1.00  0.00     0.031 C 
ATOM     36  C   UNL     1     -10.732   2.137   9.678  1.00  0.00     0.029 A 
ATOM     37  N   UNL     1     -12.847   2.836   9.883  1.00  0.00    -0.354 N 
ATOM     38  C   UNL     1     -15.919   1.446   7.196  1.00  0.00     0.074 A 
ATOM     39  C   UNL     1     -15.372   0.549   6.200  1.00  0.00     0.031 C 
ATOM     40  C   UNL     1     -10.768   3.021  10.687  1.00  0.00     0.029 A 
ATOM     41  C   UNL     1     -12.138   3.502  10.851  1.00  0.00     0.049 A 
ATOM     42  H   UNL     1     -13.813   2.963   9.739  1.00  0.00     0.167 HD
ATOM     43  C   UNL     1     -17.221   1.816   7.260  1.00  0.00     0.037 A 
ATOM     44  C   UNL     1     -12.546   4.391  11.774  1.00  0.00     0.037 A 
ATOM     45  C   UNL     1     -17.769   2.690   8.264  1.00  0.00     0.049 A 
ATOM     46  C   UNL     1     -14.003   4.749  11.859  1.00  0.00     0.074 A 
ATOM     47  C   UNL     1     -19.084   3.082   8.447  1.00  0.00     0.029 A 
ATOM     48  N   UNL     1     -17.026   3.309   9.259  1.00  0.00    -0.354 N 
ATOM     49  N   UNL     1     -14.997   4.349  11.104  1.00  0.00    -0.248 NA
ATOM     50  C   UNL     1     -14.399   5.667  12.936  1.00  0.00     0.031 C 
ATOM     51  C   UNL     1     -19.132   3.962   9.534  1.00  0.00     0.029 A 
ATOM     52  C   UNL     1     -17.853   4.088  10.053  1.00  0.00     0.049 A 
ATOM     53  H   UNL     1     -16.055   3.209   9.383  1.00  0.00     0.167 HD
ATOM     54  C   UNL     1     -16.136   4.946  11.624  1.00  0.00     0.074 A 
ATOM     55  C   UNL     1     -15.713   5.726  12.769  1.00  0.00     0.031 C 
ATOM     56  C   UNL     1     -17.417   4.856  11.191  1.00  0.00     0.037 A 
BRANCH  43  57
ATOM     57  C   UNL     1     -18.144   1.265   6.212  1.00  0.00     0.064 A 
ATOM     58  C   UNL     1     -18.509  -0.090   6.196  1.00  0.00     0.173 A 
ATOM     59  C   UNL     1     -18.682   2.101   5.222  1.00  0.00     0.173 A 
ATOM     60  F   UNL     1     -18.013  -0.933   7.114  1.00  0.00    -0.203 F 
ATOM     61  C   UNL     1     -19.350  -0.595   5.208  1.00  0.00     0.198 A 
ATOM     62  C   UNL     1     -19.546   1.598   4.252  1.00  0.00     0.198 A 
ATOM     63  F   UNL     1     -18.371   3.405   5.195  1.00  0.00    -0.203 F 
ATOM     64  F   UNL     1     -19.641  -1.903   5.183  1.00  0.00    -0.200 F 
ATOM     65  C   UNL     1     -19.872   0.250   4.240  1.00  0.00     0.200 A 
ATOM     66  F   UNL     1     -20.058   2.417   3.323  1.00  0.00    -0.200 F 
ATOM     67  F   UNL     1     -20.681  -0.237   3.290  1.00  0.00    -0.200 F 
ENDBRANCH  43  57
BRANCH  44  68
ATOM     68  C   UNL     1     -11.559   4.958  12.726  1.00  0.00     0.064 A 
ATOM     69  C   UNL     1     -11.528   4.541  14.063  1.00  0.00     0.173 A 
ATOM     70  C   UNL     1     -10.604   5.896  12.310  1.00  0.00     0.173 A 
ATOM     71  F   UNL     1     -12.433   3.657  14.509  1.00  0.00    -0.203 F 
ATOM     72  C   UNL     1     -10.584   5.048  14.952  1.00  0.00     0.198 A 
ATOM     73  C   UNL     1      -9.646   6.386  13.194  1.00  0.00     0.198 A 
ATOM     74  F   UNL     1     -10.588   6.319  11.037  1.00  0.00    -0.203 F 
ATOM     75  F   UNL     1     -10.592   4.653  16.233  1.00  0.00    -0.200 F 
ATOM     76  C   UNL     1      -9.639   5.964  14.516  1.00  0.00     0.200 A 
ATOM     77  F   UNL     1      -8.725   7.260  12.765  1.00  0.00    -0.200 F 
ATOM     78  F   UNL     1      -8.722   6.442  15.368  1.00  0.00    -0.200 F 
ENDBRANCH  44  68
BRANCH  56  79
ATOM     79  C   UNL     1     -18.458   5.601  11.971  1.00  0.00     0.064 A 
ATOM     80  C   UNL     1     -18.574   6.996  11.894  1.00  0.00     0.173 A 
ATOM     81  C   UNL     1     -19.374   4.907  12.777  1.00  0.00     0.173 A 
ATOM     82  F   UNL     1     -17.712   7.705  11.149  1.00  0.00    -0.203 F 
ATOM     83  C   UNL     1     -19.555   7.672  12.614  1.00  0.00     0.198 A 
ATOM     84  C   UNL     1     -20.369   5.584  13.476  1.00  0.00     0.198 A 
ATOM     85  F   UNL     1     -19.307   3.571  12.879  1.00  0.00    -0.203 F 
ATOM     86  F   UNL     1     -19.622   9.010  12.558  1.00  0.00    -0.200 F 
ATOM     87  C   UNL     1     -20.455   6.966  13.398  1.00  0.00     0.200 A 
ATOM     88  F   UNL     1     -21.243   4.899  14.226  1.00  0.00    -0.200 F 
ATOM     89  F   UNL     1     -21.401   7.618  14.087  1.00  0.00    -0.200 F 
ENDBRANCH  56  79
ENDBRANCH  30  31
ENDBRANCH  22  25
ENDBRANCH  20  21
ENDBRANCH  19  20
ENDBRANCH   1  19
TORSDOF 13
