REMARK SMILES O=C(CC[C@@H]1COc2ccc(Br)cc2C1=O)NCCCNC(=O)c1ccc(-c2c3nc(c(-c4c(F)c(F)c(F)c(F)c4F)c4ccc([nH]4)c(-c4c(F)c(F)c(F)c(F)c4F)c4nc(c(-c5c(F)c(F)c(F)c(F)c5F)c5ccc2[nH]5)C=C4)C=C3)cc1
REMARK SMILES IDX 19 1 18 2 17 3 1 4 2 5 3 7 4 8 5 9 6 10 15 11 7 12 14 13
REMARK SMILES IDX 16 14 8 15 13 16 9 17 11 18 10 19 12 20 20 21 21 22 22 23
REMARK SMILES IDX 23 25 24 26 25 27 86 28 26 29 85 30 27 31 28 32 29 33 79 34
REMARK SMILES IDX 30 35 84 36 78 37 80 38 31 39 83 40 77 41 76 42 32 44 64 45
REMARK SMILES IDX 44 46 63 47 45 48 48 49 62 50 81 51 46 52 47 53 61 55 82 56
REMARK SMILES IDX 49 57 33 58 34 59 42 60 35 61 36 62 40 63 43 64 37 65 38 66
REMARK SMILES IDX 41 67 39 68 65 69 66 70 74 71 67 72 68 73 72 74 75 75 69 76
REMARK SMILES IDX 70 77 73 78 71 79 50 80 51 81 59 82 52 83 53 84 57 85 60 86
REMARK SMILES IDX 54 87 55 88 58 89 56 90
REMARK H PARENT 17 6 21 24 80 43 48 54
REMARK Flexibility Score: inf
ROOT
ATOM      1  C   UNL     1       2.158  -0.533   3.759  1.00  0.00     0.042 C 
ENDROOT
BRANCH   1   2
ATOM      2  C   UNL     1       1.825   0.327   2.547  1.00  0.00     0.117 C 
BRANCH   2   3
ATOM      3  N   UNL     1       2.350  -0.206   1.307  1.00  0.00    -0.356 N 
ATOM      4  O   UNL     1       1.529   1.516   0.041  1.00  0.00    -0.275 OA
ATOM      5  C   UNL     1       2.204   0.499   0.132  1.00  0.00     0.220 C 
ATOM      6  H   UNL     1       2.812  -1.075   1.304  1.00  0.00     0.163 HD
BRANCH   5   7
ATOM      7  C   UNL     1       2.994  -0.068  -1.029  1.00  0.00     0.101 C 
BRANCH   7   8
ATOM      8  C   UNL     1       4.023   0.928  -1.579  1.00  0.00     0.025 C 
BRANCH   8   9
ATOM      9  C   UNL     1       5.214   1.317  -0.671  1.00  0.00     0.099 C 
ATOM     10  C   UNL     1       5.626   0.254   0.338  1.00  0.00     0.241 C 
ATOM     11  C   UNL     1       5.000   2.630   0.064  1.00  0.00     0.173 C 
ATOM     12  O   UNL     1       6.789   0.626   1.081  1.00  0.00    -0.492 OA
ATOM     13  C   UNL     1       5.763   2.821   1.315  1.00  0.00     0.061 A 
ATOM     14  O   UNL     1       4.317   3.547  -0.377  1.00  0.00    -0.294 OA
ATOM     15  C   UNL     1       6.614   1.805   1.755  1.00  0.00     0.130 A 
ATOM     16  C   UNL     1       5.667   4.022   2.026  1.00  0.00     0.031 A 
ATOM     17  C   UNL     1       7.368   1.983   2.913  1.00  0.00     0.048 A 
ATOM     18  C   UNL     1       6.420   4.189   3.186  1.00  0.00     0.018 A 
ATOM     19  C   UNL     1       7.264   3.173   3.636  1.00  0.00     0.019 A 
ATOM     20  Br  UNL     1       6.311   5.811   4.151  1.00  0.00    -0.051 Br
ENDBRANCH   8   9
ENDBRANCH   7   8
ENDBRANCH   5   7
ENDBRANCH   2   3
ENDBRANCH   1   2
BRANCH   1  21
ATOM     21  C   UNL     1       3.647  -0.677   4.062  1.00  0.00     0.118 C 
BRANCH  21  22
ATOM     22  N   UNL     1       4.272   0.529   4.582  1.00  0.00    -0.352 N 
ATOM     23  C   UNL     1       5.082   0.695   5.687  1.00  0.00     0.251 C 
ATOM     24  H   UNL     1       4.091   1.350   4.069  1.00  0.00     0.163 HD
ATOM     25  O   UNL     1       5.446   1.814   6.021  1.00  0.00    -0.269 OA
BRANCH  23  26
ATOM     26  C   UNL     1       5.474  -0.473   6.512  1.00  0.00     0.039 A 
ATOM     27  C   UNL     1       5.898  -1.671   5.935  1.00  0.00     0.014 A 
ATOM     28  C   UNL     1       5.392  -0.363   7.905  1.00  0.00     0.014 A 
ATOM     29  C   UNL     1       6.051  -2.805   6.730  1.00  0.00     0.010 A 
ATOM     30  C   UNL     1       5.622  -1.484   8.709  1.00  0.00     0.010 A 
ATOM     31  C   UNL     1       5.888  -2.731   8.123  1.00  0.00    -0.014 A 
BRANCH  31  32
ATOM     32  C   UNL     1       5.942  -3.971   8.945  1.00  0.00     0.031 A 
ATOM     33  C   UNL     1       4.709  -4.468   9.655  1.00  0.00     0.074 A 
ATOM     34  C   UNL     1       7.083  -4.684   9.011  1.00  0.00     0.049 A 
ATOM     35  N   UNL     1       4.558  -5.533  10.405  1.00  0.00    -0.248 NA
ATOM     36  C   UNL     1       3.484  -3.666   9.508  1.00  0.00     0.031 C 
ATOM     37  C   UNL     1       8.341  -4.322   8.360  1.00  0.00     0.029 A 
ATOM     38  N   UNL     1       7.363  -5.871   9.642  1.00  0.00    -0.354 N 
ATOM     39  C   UNL     1       3.234  -5.518  10.826  1.00  0.00     0.074 A 
ATOM     40  C   UNL     1       2.630  -4.323  10.279  1.00  0.00     0.031 C 
ATOM     41  C   UNL     1       9.245  -5.286   8.587  1.00  0.00     0.029 A 
ATOM     42  C   UNL     1       8.649  -6.308   9.443  1.00  0.00     0.049 A 
ATOM     43  H   UNL     1       6.705  -6.361  10.186  1.00  0.00     0.167 HD
ATOM     44  C   UNL     1       2.575  -6.427  11.585  1.00  0.00     0.037 A 
ATOM     45  C   UNL     1       9.282  -7.404   9.904  1.00  0.00     0.037 A 
ATOM     46  C   UNL     1       3.164  -7.630  12.110  1.00  0.00     0.049 A 
ATOM     47  C   UNL     1       8.541  -8.372  10.785  1.00  0.00     0.074 A 
ATOM     48  C   UNL     1       2.565  -8.623  12.867  1.00  0.00     0.029 A 
ATOM     49  N   UNL     1       4.486  -8.007  11.932  1.00  0.00    -0.354 N 
ATOM     50  N   UNL     1       7.288  -8.350  11.164  1.00  0.00    -0.248 NA
ATOM     51  C   UNL     1       9.308  -9.512  11.308  1.00  0.00     0.031 C 
ATOM     52  C   UNL     1       3.535  -9.580  13.180  1.00  0.00     0.029 A 
ATOM     53  C   UNL     1       4.727  -9.207  12.582  1.00  0.00     0.049 A 
ATOM     54  H   UNL     1       5.155  -7.497  11.419  1.00  0.00     0.167 HD
ATOM     55  C   UNL     1       7.111  -9.474  11.959  1.00  0.00     0.074 A 
ATOM     56  C   UNL     1       8.380 -10.169  11.991  1.00  0.00     0.031 C 
ATOM     57  C   UNL     1       5.995  -9.889  12.607  1.00  0.00     0.037 A 
BRANCH  44  58
ATOM     58  C   UNL     1       1.131  -6.164  11.897  1.00  0.00     0.064 A 
ATOM     59  C   UNL     1       0.132  -6.313  10.924  1.00  0.00     0.173 A 
ATOM     60  C   UNL     1       0.733  -5.831  13.201  1.00  0.00     0.173 A 
ATOM     61  F   UNL     1       0.462  -6.619   9.660  1.00  0.00    -0.203 F 
ATOM     62  C   UNL     1      -1.211  -6.125  11.242  1.00  0.00     0.198 A 
ATOM     63  C   UNL     1      -0.612  -5.668  13.521  1.00  0.00     0.198 A 
ATOM     64  F   UNL     1       1.649  -5.684  14.171  1.00  0.00    -0.203 F 
ATOM     65  F   UNL     1      -2.146  -6.242  10.288  1.00  0.00    -0.200 F 
ATOM     66  C   UNL     1      -1.583  -5.812  12.541  1.00  0.00     0.200 A 
ATOM     67  F   UNL     1      -0.971  -5.380  14.780  1.00  0.00    -0.200 F 
ATOM     68  F   UNL     1      -2.877  -5.647  12.848  1.00  0.00    -0.200 F 
ENDBRANCH  44  58
BRANCH  45  69
ATOM     69  C   UNL     1      10.697  -7.646   9.526  1.00  0.00     0.064 A 
ATOM     70  C   UNL     1      11.039  -8.684   8.649  1.00  0.00     0.173 A 
ATOM     71  C   UNL     1      11.731  -6.833  10.012  1.00  0.00     0.173 A 
ATOM     72  F   UNL     1      10.087  -9.502   8.176  1.00  0.00    -0.203 F 
ATOM     73  C   UNL     1      12.363  -8.903   8.276  1.00  0.00     0.198 A 
ATOM     74  C   UNL     1      13.052  -7.035   9.617  1.00  0.00     0.198 A 
ATOM     75  F   UNL     1      11.454  -5.826  10.853  1.00  0.00    -0.203 F 
ATOM     76  F   UNL     1      12.668  -9.920   7.458  1.00  0.00    -0.200 F 
ATOM     77  C   UNL     1      13.367  -8.072   8.753  1.00  0.00     0.200 A 
ATOM     78  F   UNL     1      14.016  -6.222  10.069  1.00  0.00    -0.200 F 
ATOM     79  F   UNL     1      14.639  -8.274   8.381  1.00  0.00    -0.200 F 
ENDBRANCH  45  69
BRANCH  57  80
ATOM     80  C   UNL     1       6.085 -11.158  13.402  1.00  0.00     0.064 A 
ATOM     81  C   UNL     1       6.754 -11.201  14.633  1.00  0.00     0.173 A 
ATOM     82  C   UNL     1       5.436 -12.321  12.963  1.00  0.00     0.173 A 
ATOM     83  F   UNL     1       7.401 -10.118  15.088  1.00  0.00    -0.203 F 
ATOM     84  C   UNL     1       6.781 -12.369  15.391  1.00  0.00     0.198 A 
ATOM     85  C   UNL     1       5.443 -13.479  13.735  1.00  0.00     0.198 A 
ATOM     86  F   UNL     1       4.776 -12.328  11.795  1.00  0.00    -0.203 F 
ATOM     87  F   UNL     1       7.452 -12.397  16.550  1.00  0.00    -0.200 F 
ATOM     88  C   UNL     1       6.118 -13.503  14.946  1.00  0.00     0.200 A 
ATOM     89  F   UNL     1       4.791 -14.570  13.310  1.00  0.00    -0.200 F 
ATOM     90  F   UNL     1       6.132 -14.622  15.684  1.00  0.00    -0.200 F 
ENDBRANCH  57  80
ENDBRANCH  31  32
ENDBRANCH  23  26
ENDBRANCH  21  22
ENDBRANCH   1  21
TORSDOF 12
