REMARK SMILES O=C(NCCCNC(=O)c1cc2c(cc1NS(=O)(=O)c1cc(Cl)ccc1Cl)OCCCO2)c1ccc(-c2c3nc(c(-c4c(F)c(F)c(F)c(F)c4F)c4ccc([nH]4)c(-c4c(F)c(F)c(F)c(F)c4F)c4nc(c(-c5c(F)c(F)c(F)c(F)c5F)c5ccc2[nH]5)C=C4)C=C3)cc1
REMARK SMILES IDX 5 1 4 2 3 3 1 4 2 5 33 7 34 8 95 9 35 10 94 11 36 12 37 13
REMARK SMILES IDX 38 14 88 15 39 16 93 17 87 18 89 19 40 20 92 21 86 22 85 23
REMARK SMILES IDX 41 25 73 26 53 27 72 28 54 29 57 30 71 31 90 32 55 33 56 34
REMARK SMILES IDX 70 36 91 37 58 38 42 39 43 40 51 41 44 42 45 43 49 44 52 45
REMARK SMILES IDX 46 46 47 47 50 48 48 49 74 50 75 51 83 52 76 53 77 54 81 55
REMARK SMILES IDX 84 56 78 57 79 58 82 59 80 60 59 61 60 62 68 63 61 64 62 65
REMARK SMILES IDX 66 66 69 67 63 68 64 69 67 70 65 71 6 72 7 73 8 74 9 76
REMARK SMILES IDX 10 77 11 78 15 79 12 80 14 81 13 82 16 83 17 85 18 86 19 87
REMARK SMILES IDX 20 88 21 89 26 90 22 91 25 92 27 93 23 94 24 95 32 96 31 97
REMARK SMILES IDX 28 99 29 100 30 101
REMARK H PARENT 3 6 89 24 57 35 7 75 16 84
REMARK Flexibility Score: 100.00
ROOT
ATOM      1  C   UNL     1       4.586  -0.880  -2.794  1.00  0.00     0.042 C 
ENDROOT
BRANCH   1   2
ATOM      2  C   UNL     1       4.130  -0.205  -1.504  1.00  0.00     0.118 C 
BRANCH   2   3
ATOM      3  N   UNL     1       2.702  -0.115  -1.278  1.00  0.00    -0.352 N 
ATOM      4  O   UNL     1       0.820  -0.147  -0.007  1.00  0.00    -0.269 OA
ATOM      5  C   UNL     1       2.018  -0.388  -0.115  1.00  0.00     0.251 C 
ATOM      6  H   UNL     1       2.158   0.174  -2.045  1.00  0.00     0.163 HD
BRANCH   5   7
ATOM      7  C   UNL     1       2.727  -1.061   0.994  1.00  0.00     0.039 A 
ATOM      8  C   UNL     1       2.246  -2.302   1.410  1.00  0.00     0.014 A 
ATOM      9  C   UNL     1       3.884  -0.523   1.567  1.00  0.00     0.014 A 
ATOM     10  C   UNL     1       2.958  -3.033   2.360  1.00  0.00     0.010 A 
ATOM     11  C   UNL     1       4.645  -1.300   2.442  1.00  0.00     0.010 A 
ATOM     12  C   UNL     1       4.183  -2.558   2.860  1.00  0.00    -0.014 A 
BRANCH  12  13
ATOM     13  C   UNL     1       4.940  -3.368   3.854  1.00  0.00     0.031 A 
ATOM     14  C   UNL     1       5.162  -2.838   5.246  1.00  0.00     0.074 A 
ATOM     15  C   UNL     1       5.393  -4.595   3.522  1.00  0.00     0.049 A 
ATOM     16  N   UNL     1       5.724  -3.426   6.272  1.00  0.00    -0.248 NA
ATOM     17  C   UNL     1       4.712  -1.463   5.522  1.00  0.00     0.031 C 
ATOM     18  C   UNL     1       5.283  -5.204   2.195  1.00  0.00     0.029 A 
ATOM     19  N   UNL     1       6.013  -5.562   4.277  1.00  0.00    -0.354 N 
ATOM     20  C   UNL     1       5.691  -2.497   7.304  1.00  0.00     0.074 A 
ATOM     21  C   UNL     1       5.124  -1.282   6.768  1.00  0.00     0.031 C 
ATOM     22  C   UNL     1       5.761  -6.458   2.244  1.00  0.00     0.029 A 
ATOM     23  C   UNL     1       6.244  -6.734   3.594  1.00  0.00     0.049 A 
ATOM     24  H   UNL     1       6.268  -5.428   5.218  1.00  0.00     0.167 HD
ATOM     25  C   UNL     1       6.058  -2.657   8.596  1.00  0.00     0.037 A 
ATOM     26  C   UNL     1       6.771  -7.902   4.013  1.00  0.00     0.037 A 
ATOM     27  C   UNL     1       6.577  -3.880   9.142  1.00  0.00     0.049 A 
ATOM     28  C   UNL     1       7.185  -8.047   5.455  1.00  0.00     0.074 A 
ATOM     29  C   UNL     1       6.928  -4.152  10.452  1.00  0.00     0.029 A 
ATOM     30  N   UNL     1       6.812  -5.034   8.412  1.00  0.00    -0.354 N 
ATOM     31  N   UNL     1       7.079  -7.183   6.434  1.00  0.00    -0.248 NA
ATOM     32  C   UNL     1       7.789  -9.329   5.853  1.00  0.00     0.031 C 
ATOM     33  C   UNL     1       7.420  -5.457  10.508  1.00  0.00     0.029 A 
ATOM     34  C   UNL     1       7.325  -6.015   9.242  1.00  0.00     0.049 A 
ATOM     35  H   UNL     1       6.640  -5.140   7.449  1.00  0.00     0.167 HD
ATOM     36  C   UNL     1       7.572  -7.822   7.564  1.00  0.00     0.074 A 
ATOM     37  C   UNL     1       7.969  -9.152   7.155  1.00  0.00     0.031 C 
ATOM     38  C   UNL     1       7.687  -7.344   8.826  1.00  0.00     0.037 A 
BRANCH  25  39
ATOM     39  C   UNL     1       5.877  -1.498   9.530  1.00  0.00     0.064 A 
ATOM     40  C   UNL     1       4.602  -1.097   9.955  1.00  0.00     0.173 A 
ATOM     41  C   UNL     1       6.990  -0.848  10.085  1.00  0.00     0.173 A 
ATOM     42  F   UNL     1       3.506  -1.681   9.447  1.00  0.00    -0.203 F 
ATOM     43  C   UNL     1       4.447  -0.084  10.896  1.00  0.00     0.198 A 
ATOM     44  C   UNL     1       6.832   0.145  11.047  1.00  0.00     0.198 A 
ATOM     45  F   UNL     1       8.232  -1.200   9.717  1.00  0.00    -0.203 F 
ATOM     46  F   UNL     1       3.218   0.299  11.269  1.00  0.00    -0.200 F 
ATOM     47  C   UNL     1       5.561   0.527  11.451  1.00  0.00     0.200 A 
ATOM     48  F   UNL     1       7.910   0.722  11.596  1.00  0.00    -0.200 F 
ATOM     49  F   UNL     1       5.411   1.483  12.378  1.00  0.00    -0.200 F 
ENDBRANCH  25  39
BRANCH  26  50
ATOM     50  C   UNL     1       6.901  -9.044   3.066  1.00  0.00     0.064 A 
ATOM     51  C   UNL     1       6.130 -10.205   3.224  1.00  0.00     0.173 A 
ATOM     52  C   UNL     1       7.796  -9.002   1.988  1.00  0.00     0.173 A 
ATOM     53  F   UNL     1       5.273 -10.306   4.252  1.00  0.00    -0.203 F 
ATOM     54  C   UNL     1       6.261 -11.284   2.351  1.00  0.00     0.198 A 
ATOM     55  C   UNL     1       7.906 -10.069   1.098  1.00  0.00     0.198 A 
ATOM     56  F   UNL     1       8.557  -7.916   1.788  1.00  0.00    -0.203 F 
ATOM     57  F   UNL     1       5.544 -12.398   2.552  1.00  0.00    -0.200 F 
ATOM     58  C   UNL     1       7.144 -11.212   1.284  1.00  0.00     0.200 A 
ATOM     59  F   UNL     1       8.749  -9.989   0.060  1.00  0.00    -0.200 F 
ATOM     60  F   UNL     1       7.266 -12.247   0.441  1.00  0.00    -0.200 F 
ENDBRANCH  26  50
BRANCH  38  61
ATOM     61  C   UNL     1       8.236  -8.255   9.883  1.00  0.00     0.064 A 
ATOM     62  C   UNL     1       9.606  -8.542   9.957  1.00  0.00     0.173 A 
ATOM     63  C   UNL     1       7.406  -8.721  10.915  1.00  0.00     0.173 A 
ATOM     64  F   UNL     1      10.436  -8.125   8.990  1.00  0.00    -0.203 F 
ATOM     65  C   UNL     1      10.127  -9.258  11.031  1.00  0.00     0.198 A 
ATOM     66  C   UNL     1       7.934  -9.413  12.000  1.00  0.00     0.198 A 
ATOM     67  F   UNL     1       6.090  -8.459  10.894  1.00  0.00    -0.203 F 
ATOM     68  F   UNL     1      11.438  -9.531  11.079  1.00  0.00    -0.200 F 
ATOM     69  C   UNL     1       9.294  -9.679  12.058  1.00  0.00     0.200 A 
ATOM     70  F   UNL     1       7.133  -9.799  13.002  1.00  0.00    -0.200 F 
ATOM     71  F   UNL     1       9.804 -10.336  13.109  1.00  0.00    -0.200 F 
ENDBRANCH  38  61
ENDBRANCH  12  13
ENDBRANCH   5   7
ENDBRANCH   2   3
ENDBRANCH   1   2
BRANCH   1  72
ATOM     72  C   UNL     1       5.035   0.095  -3.888  1.00  0.00     0.118 C 
BRANCH  72  73
ATOM     73  N   UNL     1       6.090   0.989  -3.417  1.00  0.00    -0.352 N 
ATOM     74  C   UNL     1       6.796   1.978  -4.034  1.00  0.00     0.253 C 
ATOM     75  H   UNL     1       6.337   0.851  -2.475  1.00  0.00     0.163 HD
ATOM     76  O   UNL     1       7.727   2.527  -3.448  1.00  0.00    -0.269 OA
BRANCH  74  77
ATOM     77  C   UNL     1       6.538   2.354  -5.419  1.00  0.00     0.067 A 
ATOM     78  C   UNL     1       7.683   2.261  -6.235  1.00  0.00     0.066 A 
ATOM     79  C   UNL     1       5.322   2.761  -5.960  1.00  0.00     0.066 A 
ATOM     80  C   UNL     1       7.598   2.425  -7.609  1.00  0.00     0.162 A 
ATOM     81  C   UNL     1       5.226   2.735  -7.375  1.00  0.00     0.078 A 
ATOM     82  C   UNL     1       6.350   2.554  -8.199  1.00  0.00     0.163 A 
BRANCH  79  83
ATOM     83  N   UNL     1       4.100   3.128  -5.297  1.00  0.00    -0.279 N 
ATOM     84  H   UNL     1       3.297   3.009  -5.854  1.00  0.00     0.180 HD
BRANCH  83  85
ATOM     85  S   UNL     1       3.771   3.724  -3.750  1.00  0.00     0.263 S 
ATOM     86  O   UNL     1       2.682   4.667  -3.974  1.00  0.00    -0.201 OA
ATOM     87  O   UNL     1       3.493   2.580  -2.925  1.00  0.00    -0.201 OA
BRANCH  85  88
ATOM     88  C   UNL     1       5.102   4.687  -3.076  1.00  0.00     0.107 A 
ATOM     89  C   UNL     1       5.203   6.020  -3.513  1.00  0.00     0.044 A 
ATOM     90  C   UNL     1       5.893   4.302  -1.982  1.00  0.00     0.061 A 
ATOM     91  C   UNL     1       6.150   6.883  -2.952  1.00  0.00     0.042 A 
ATOM     92  C   UNL     1       6.934   5.129  -1.533  1.00  0.00     0.023 A 
ATOM     93  Cl  UNL     1       5.638   2.952  -0.949  1.00  0.00    -0.083 Cl
ATOM     94  Cl  UNL     1       6.148   8.550  -3.370  1.00  0.00    -0.084 Cl
ATOM     95  C   UNL     1       7.063   6.423  -2.013  1.00  0.00     0.022 A 
ENDBRANCH  85  88
ENDBRANCH  83  85
ENDBRANCH  79  83
BRANCH  80  96
ATOM     96  O   UNL     1       8.774   2.380  -8.297  1.00  0.00    -0.490 OA
BRANCH  96  97
ATOM     97  C   UNL     1       8.902   3.519  -9.151  1.00  0.00     0.233 CG0
ATOM     98  G   UNL     1       8.284   3.212 -10.499  1.00  0.00     0.000 G0
ENDBRANCH  96  97
ENDBRANCH  80  96
BRANCH  82  99
ATOM     99  O   UNL     1       6.145   2.317  -9.531  1.00  0.00    -0.489 OA
BRANCH  99 100
ATOM    100  C   UNL     1       6.760   3.232 -10.440  1.00  0.00     0.233 C 
BRANCH 100 101
ATOM    101  C   UNL     1       8.284   3.212 -10.499  1.00  0.00     0.083 CG0
ATOM    102  G   UNL     1       8.902   3.519  -9.151  1.00  0.00     0.000 G0
ENDBRANCH 100 101
ENDBRANCH  99 100
ENDBRANCH  82  99
ENDBRANCH  74  77
ENDBRANCH  72  73
ENDBRANCH   1  72
TORSDOF 13
