REMARK SMILES CC(C)(C)c1ccc(N2C(=O)/C(=C\c3ccc(OCC(=O)NCCCNC(=O)c4ccc(-c5c6nc(c(-c7c(F)c(F)c(F)c(F)c7F)c7ccc([nH]7)c(-c7c(F)c(F)c(F)c(F)c7F)c7nc(c(-c8c(F)c(F)c(F)c(F)c8F)c8ccc5[nH]8)C=C7)C=C6)cc4)c(Br)c3)C(=O)[NH+]=C2O)cc1
REMARK SMILES IDX 20 1 21 2 22 3 19 5 18 6 17 7 14 8 15 9 94 10 16 11 92 12
REMARK SMILES IDX 93 13 13 14 9 15 10 16 98 17 11 18 12 19 97 20 95 21 96 23
REMARK SMILES IDX 8 24 5 25 6 26 101 27 7 28 100 29 2 30 1 31 3 32 4 33 99 34
REMARK SMILES IDX 23 36 24 37 25 38 26 39 27 40 28 42 29 43 30 44 91 45 31 46
REMARK SMILES IDX 90 47 32 48 33 49 34 50 84 51 35 52 89 53 83 54 85 55 36 56
REMARK SMILES IDX 88 57 82 58 81 59 37 61 69 62 49 63 68 64 50 65 53 66 67 67
REMARK SMILES IDX 86 68 51 69 52 70 66 72 87 73 54 74 38 75 39 76 47 77 40 78
REMARK SMILES IDX 41 79 45 80 48 81 42 82 43 83 46 84 44 85 70 86 71 87 79 88
REMARK SMILES IDX 72 89 73 90 77 91 80 92 74 93 75 94 78 95 76 96 55 97 56 98
REMARK SMILES IDX 64 99 57 100 58 101 62 102 65 103 59 104 60 105 63 106
REMARK SMILES IDX 61 107
REMARK H PARENT 22 4 97 22 99 35 26 41 85 60 53 71
REMARK Flexibility Score: inf
ROOT
ATOM      1  C   UNL     1      -4.328   1.967   7.452  1.00  0.00     0.257 C 
ATOM      2  O   UNL     1      -4.555   1.270   6.462  1.00  0.00    -0.271 OA
ATOM      3  N   UNL     1      -3.666   3.145   7.264  1.00  0.00    -0.353 N 
ATOM      4  H   UNL     1      -3.367   3.320   6.342  1.00  0.00     0.163 HD
ENDROOT
BRANCH   1   5
ATOM      5  C   UNL     1      -4.825   1.588   8.854  1.00  0.00     0.329 C 
BRANCH   5   6
ATOM      6  O   UNL     1      -3.883   1.340   9.879  1.00  0.00    -0.483 OA
BRANCH   6   7
ATOM      7  C   UNL     1      -2.907   0.397   9.723  1.00  0.00     0.134 A 
ATOM      8  C   UNL     1      -0.622  -1.273   9.699  1.00  0.00    -0.023 A 
ATOM      9  C   UNL     1      -0.615  -0.102  10.448  1.00  0.00     0.012 A 
ATOM     10  C   UNL     1      -1.783  -1.630   9.005  1.00  0.00     0.027 A 
ATOM     11  C   UNL     1      -1.747   0.720  10.454  1.00  0.00     0.048 A 
ATOM     12  C   UNL     1      -2.930  -0.818   9.030  1.00  0.00     0.060 A 
ATOM     13  Br  UNL     1      -4.450  -1.599   8.200  1.00  0.00    -0.047 Br
BRANCH   8  14
ATOM     14  C   UNL     1       0.553  -2.148   9.624  1.00  0.00     0.032 C 
ATOM     15  N   UNL     1       1.847  -1.920   6.212  1.00  0.00    -0.124 N 
ATOM     16  C   UNL     1       1.289  -1.384   7.365  1.00  0.00     0.357 C 
ATOM     17  C   UNL     1       2.628  -3.048   6.315  1.00  0.00     0.462 C 
ATOM     18  O   UNL     1       0.752  -0.280   7.449  1.00  0.00    -0.240 OA
ATOM     19  C   UNL     1       1.375  -2.262   8.559  1.00  0.00     0.155 C 
ATOM     20  N   UNL     1       2.894  -3.719   7.373  1.00  0.00    -0.172 N 
ATOM     21  C   UNL     1       2.357  -3.369   8.576  1.00  0.00     0.349 C 
ATOM     22  H   UNL     1       3.496  -4.497   7.317  1.00  0.00     0.319 HD
ATOM     23  O   UNL     1       2.634  -3.965   9.611  1.00  0.00    -0.240 OA
BRANCH  15  24
ATOM     24  C   UNL     1       1.607  -1.272   4.951  1.00  0.00     0.140 A 
ATOM     25  C   UNL     1       0.928   0.030   2.494  1.00  0.00    -0.042 A 
ATOM     26  C   UNL     1       0.930  -1.371   2.610  1.00  0.00     0.008 A 
ATOM     27  C   UNL     1       1.286   0.760   3.635  1.00  0.00     0.008 A 
ATOM     28  C   UNL     1       1.275  -2.010   3.810  1.00  0.00     0.053 A 
ATOM     29  C   UNL     1       1.617   0.123   4.837  1.00  0.00     0.053 A 
BRANCH  25  30
ATOM     30  C   UNL     1       0.472   0.722   1.197  1.00  0.00    -0.013 C 
ATOM     31  C   UNL     1       1.004  -0.005  -0.058  1.00  0.00     0.016 C 
ATOM     32  C   UNL     1       0.946   2.190   1.091  1.00  0.00     0.016 C 
ATOM     33  C   UNL     1      -1.069   0.714   1.165  1.00  0.00     0.016 C 
ENDBRANCH  25  30
ENDBRANCH  15  24
BRANCH  17  34
ATOM     34  O   UNL     1       3.242  -3.482   5.200  1.00  0.00    -0.446 OA
ATOM     35  H   UNL     1       3.098  -3.043   4.385  1.00  0.00     0.301 HD
ENDBRANCH  17  34
ENDBRANCH   8  14
ENDBRANCH   6   7
ENDBRANCH   5   6
ENDBRANCH   1   5
BRANCH   3  36
ATOM     36  C   UNL     1      -3.340   4.174   8.230  1.00  0.00     0.117 C 
BRANCH  36  37
ATOM     37  C   UNL     1      -1.840   4.300   8.463  1.00  0.00     0.042 C 
BRANCH  37  38
ATOM     38  C   UNL     1      -1.020   4.601   7.211  1.00  0.00     0.118 C 
BRANCH  38  39
ATOM     39  N   UNL     1      -1.384   5.859   6.572  1.00  0.00    -0.352 N 
ATOM     40  C   UNL     1      -0.629   6.971   6.292  1.00  0.00     0.251 C 
ATOM     41  H   UNL     1      -2.326   5.921   6.295  1.00  0.00     0.163 HD
ATOM     42  O   UNL     1      -1.177   7.984   5.867  1.00  0.00    -0.269 OA
BRANCH  40  43
ATOM     43  C   UNL     1       0.833   6.975   6.521  1.00  0.00     0.039 A 
ATOM     44  C   UNL     1       1.418   8.112   7.089  1.00  0.00     0.014 A 
ATOM     45  C   UNL     1       1.633   5.888   6.163  1.00  0.00     0.014 A 
ATOM     46  C   UNL     1       2.787   8.127   7.368  1.00  0.00     0.010 A 
ATOM     47  C   UNL     1       2.982   5.873   6.511  1.00  0.00     0.010 A 
ATOM     48  C   UNL     1       3.573   6.990   7.121  1.00  0.00    -0.014 A 
BRANCH  48  49
ATOM     49  C   UNL     1       5.008   6.946   7.504  1.00  0.00     0.031 A 
ATOM     50  C   UNL     1       6.072   6.800   6.452  1.00  0.00     0.074 A 
ATOM     51  C   UNL     1       5.350   6.970   8.808  1.00  0.00     0.049 A 
ATOM     52  N   UNL     1       7.366   6.656   6.595  1.00  0.00    -0.248 NA
ATOM     53  C   UNL     1       5.620   6.790   5.052  1.00  0.00     0.031 C 
ATOM     54  C   UNL     1       4.412   7.069   9.927  1.00  0.00     0.029 A 
ATOM     55  N   UNL     1       6.581   6.899   9.414  1.00  0.00    -0.354 N 
ATOM     56  C   UNL     1       7.877   6.526   5.311  1.00  0.00     0.074 A 
ATOM     57  C   UNL     1       6.751   6.556   4.403  1.00  0.00     0.031 C 
ATOM     58  C   UNL     1       5.100   7.073  11.080  1.00  0.00     0.029 A 
ATOM     59  C   UNL     1       6.522   6.934  10.786  1.00  0.00     0.049 A 
ATOM     60  H   UNL     1       7.425   6.830   8.912  1.00  0.00     0.167 HD
ATOM     61  C   UNL     1       9.170   6.415   4.922  1.00  0.00     0.037 A 
ATOM     62  C   UNL     1       7.504   6.851  11.704  1.00  0.00     0.037 A 
ATOM     63  C   UNL     1      10.291   6.407   5.825  1.00  0.00     0.049 A 
ATOM     64  C   UNL     1       8.931   6.708  11.245  1.00  0.00     0.074 A 
ATOM     65  C   UNL     1      11.641   6.348   5.525  1.00  0.00     0.029 A 
ATOM     66  N   UNL     1      10.193   6.459   7.208  1.00  0.00    -0.354 N 
ATOM     67  N   UNL     1       9.406   6.647  10.025  1.00  0.00    -0.248 NA
ATOM     68  C   UNL     1       9.958   6.628  12.292  1.00  0.00     0.031 C 
ATOM     69  C   UNL     1      12.357   6.319   6.726  1.00  0.00     0.029 A 
ATOM     70  C   UNL     1      11.457   6.413   7.774  1.00  0.00     0.049 A 
ATOM     71  H   UNL     1       9.349   6.519   7.712  1.00  0.00     0.167 HD
ATOM     72  C   UNL     1      10.785   6.554  10.156  1.00  0.00     0.074 A 
ATOM     73  C   UNL     1      11.072   6.581  11.575  1.00  0.00     0.031 C 
ATOM     74  C   UNL     1      11.728   6.455   9.188  1.00  0.00     0.037 A 
BRANCH  61  75
ATOM     75  C   UNL     1       9.447   6.298   3.451  1.00  0.00     0.064 A 
ATOM     76  C   UNL     1       9.260   7.383   2.581  1.00  0.00     0.173 A 
ATOM     77  C   UNL     1       9.950   5.105   2.912  1.00  0.00     0.173 A 
ATOM     78  F   UNL     1       8.771   8.544   3.044  1.00  0.00    -0.203 F 
ATOM     79  C   UNL     1       9.541   7.269   1.222  1.00  0.00     0.198 A 
ATOM     80  C   UNL     1      10.259   5.004   1.557  1.00  0.00     0.198 A 
ATOM     81  F   UNL     1      10.155   4.039   3.700  1.00  0.00    -0.203 F 
ATOM     82  F   UNL     1       9.310   8.305   0.403  1.00  0.00    -0.200 F 
ATOM     83  C   UNL     1      10.048   6.083   0.713  1.00  0.00     0.200 A 
ATOM     84  F   UNL     1      10.762   3.862   1.069  1.00  0.00    -0.200 F 
ATOM     85  F   UNL     1      10.327   5.979  -0.594  1.00  0.00    -0.200 F 
ENDBRANCH  61  75
BRANCH  62  86
ATOM     86  C   UNL     1       7.178   6.917  13.153  1.00  0.00     0.064 A 
ATOM     87  C   UNL     1       7.566   8.020  13.927  1.00  0.00     0.173 A 
ATOM     88  C   UNL     1       6.493   5.877  13.797  1.00  0.00     0.173 A 
ATOM     89  F   UNL     1       8.243   9.030  13.360  1.00  0.00    -0.203 F 
ATOM     90  C   UNL     1       7.303   8.069  15.294  1.00  0.00     0.198 A 
ATOM     91  C   UNL     1       6.204   5.941  15.159  1.00  0.00     0.198 A 
ATOM     92  F   UNL     1       6.096   4.801  13.102  1.00  0.00    -0.203 F 
ATOM     93  F   UNL     1       7.732   9.111  16.019  1.00  0.00    -0.200 F 
ATOM     94  C   UNL     1       6.618   7.032  15.908  1.00  0.00     0.200 A 
ATOM     95  F   UNL     1       5.528   4.944  15.746  1.00  0.00    -0.200 F 
ATOM     96  F   UNL     1       6.365   7.080  17.223  1.00  0.00    -0.200 F 
ENDBRANCH  62  86
BRANCH  74  97
ATOM     97  C   UNL     1      13.164   6.413   9.627  1.00  0.00     0.064 A 
ATOM     98  C   UNL     1      13.709   5.286  10.259  1.00  0.00     0.173 A 
ATOM     99  C   UNL     1      14.014   7.501   9.374  1.00  0.00     0.173 A 
ATOM    100  F   UNL     1      12.934   4.226  10.536  1.00  0.00    -0.203 F 
ATOM    101  C   UNL     1      15.047   5.260  10.645  1.00  0.00     0.198 A 
ATOM    102  C   UNL     1      15.357   7.459   9.734  1.00  0.00     0.198 A 
ATOM    103  F   UNL     1      13.543   8.600   8.767  1.00  0.00    -0.203 F 
ATOM    104  F   UNL     1      15.535   4.192  11.291  1.00  0.00    -0.200 F 
ATOM    105  C   UNL     1      15.871   6.343  10.376  1.00  0.00     0.200 A 
ATOM    106  F   UNL     1      16.155   8.500   9.461  1.00  0.00    -0.200 F 
ATOM    107  F   UNL     1      17.160   6.312  10.742  1.00  0.00    -0.200 F 
ENDBRANCH  74  97
ENDBRANCH  48  49
ENDBRANCH  40  43
ENDBRANCH  38  39
ENDBRANCH  37  38
ENDBRANCH  36  37
ENDBRANCH   3  36
TORSDOF 16
