REMARK SMILES CN(C)c1nccnc1N1CCC(Oc2ccc3ccccc3c2)(C(=O)NCCCNC(=O)c2ccc(-c3c4nc(c(-c5c(F)c(F)c(F)c(F)c5F)c5ccc([nH]5)c(-c5c(F)c(F)c(F)c(F)c5F)c5nc(c(-c6c(F)c(F)c(F)c(F)c6F)c6ccc3[nH]6)C=C5)C=C4)cc2)CC1
REMARK SMILES IDX 29 1 28 2 27 3 25 4 26 5 13 7 10 8 11 9 98 10 12 11 97 12
REMARK SMILES IDX 9 13 4 14 5 15 6 16 8 17 7 18 2 19 1 20 3 21 14 22 15 23
REMARK SMILES IDX 16 24 24 25 17 26 23 27 18 28 22 29 19 30 21 31 20 32 30 33
REMARK SMILES IDX 31 34 32 35 33 37 34 38 35 39 96 40 36 41 95 42 37 43 38 44
REMARK SMILES IDX 39 45 89 46 40 47 94 48 88 49 90 50 41 51 93 52 87 53 86 54
REMARK SMILES IDX 42 56 74 57 54 58 73 59 55 60 58 61 72 62 91 63 56 64 57 65
REMARK SMILES IDX 71 67 92 68 59 69 43 70 44 71 52 72 45 73 46 74 50 75 53 76
REMARK SMILES IDX 47 77 48 78 51 79 49 80 75 81 76 82 84 83 77 84 78 85 82 86
REMARK SMILES IDX 85 87 79 88 80 89 83 90 81 91 60 92 61 93 69 94 62 95 63 96
REMARK SMILES IDX 67 97 70 98 64 99 65 100 68 101 66 102
REMARK H PARENT 27 6 31 36 90 55 58 66
REMARK Flexibility Score: inf
ROOT
ATOM      1  C   UNL     1      -5.740   4.948   3.841  1.00  0.00     0.042 C 
ENDROOT
BRANCH   1   2
ATOM      2  C   UNL     1      -6.271   3.527   3.689  1.00  0.00     0.118 C 
BRANCH   2   3
ATOM      3  N   UNL     1      -5.800   2.902   2.468  1.00  0.00    -0.353 N 
ATOM      4  C   UNL     1      -4.961   1.844   2.269  1.00  0.00     0.264 C 
ATOM      5  O   UNL     1      -4.853   1.474   1.095  1.00  0.00    -0.270 OA
ATOM      6  H   UNL     1      -6.144   3.310   1.641  1.00  0.00     0.163 HD
BRANCH   4   7
ATOM      7  C   UNL     1      -4.186   1.166   3.438  1.00  0.00     0.190 C 
ATOM      8  N   UNL     1      -1.456   1.453   2.590  1.00  0.00    -0.353 N 
ATOM      9  C   UNL     1      -2.132   2.607   3.139  1.00  0.00     0.123 C 
ATOM     10  C   UNL     1      -2.230   0.385   1.970  1.00  0.00     0.123 C 
ATOM     11  C   UNL     1      -3.212   2.155   4.104  1.00  0.00     0.080 C 
ATOM     12  C   UNL     1      -3.390  -0.038   2.881  1.00  0.00     0.080 C 
BRANCH   8  13
ATOM     13  C   UNL     1      -0.153   1.173   2.975  1.00  0.00     0.171 A 
ATOM     14  C   UNL     1       0.833   0.717   2.034  1.00  0.00     0.171 A 
ATOM     15  N   UNL     1       2.059   0.312   2.462  1.00  0.00    -0.234 NA
ATOM     16  C   UNL     1       2.302   0.413   3.784  1.00  0.00     0.134 A 
ATOM     17  N   UNL     1       0.138   1.301   4.296  1.00  0.00    -0.234 NA
ATOM     18  C   UNL     1       1.370   0.905   4.676  1.00  0.00     0.134 A 
BRANCH  14  19
ATOM     19  N   UNL     1       0.597   0.726   0.646  1.00  0.00    -0.360 N 
ATOM     20  C   UNL     1       1.455  -0.135  -0.147  1.00  0.00     0.145 C 
ATOM     21  C   UNL     1       0.275   2.036   0.092  1.00  0.00     0.145 C 
ENDBRANCH  14  19
ENDBRANCH   8  13
BRANCH   7  22
ATOM     22  O   UNL     1      -5.280   0.733   4.295  1.00  0.00    -0.477 OA
BRANCH  22  23
ATOM     23  C   UNL     1      -4.956   0.056   5.433  1.00  0.00     0.121 A 
ATOM     24  C   UNL     1      -4.472   0.716   6.558  1.00  0.00     0.047 A 
ATOM     25  C   UNL     1      -5.231  -1.308   5.486  1.00  0.00     0.055 A 
ATOM     26  C   UNL     1      -4.119  -0.012   7.693  1.00  0.00     0.012 A 
ATOM     27  C   UNL     1      -4.912  -2.051   6.632  1.00  0.00    -0.015 A 
ATOM     28  C   UNL     1      -4.316  -1.399   7.737  1.00  0.00    -0.018 A 
ATOM     29  C   UNL     1      -5.161  -3.430   6.705  1.00  0.00     0.009 A 
ATOM     30  C   UNL     1      -3.944  -2.148   8.863  1.00  0.00     0.009 A 
ATOM     31  C   UNL     1      -4.798  -4.160   7.838  1.00  0.00     0.001 A 
ATOM     32  C   UNL     1      -4.179  -3.522   8.910  1.00  0.00     0.001 A 
ENDBRANCH  22  23
ENDBRANCH   7  22
ENDBRANCH   4   7
ENDBRANCH   2   3
ENDBRANCH   1   2
BRANCH   1  33
ATOM     33  C   UNL     1      -6.211   5.909   2.755  1.00  0.00     0.118 C 
BRANCH  33  34
ATOM     34  N   UNL     1      -7.645   6.151   2.802  1.00  0.00    -0.352 N 
ATOM     35  C   UNL     1      -8.341   7.307   3.044  1.00  0.00     0.251 C 
ATOM     36  H   UNL     1      -8.205   5.359   2.634  1.00  0.00     0.163 HD
ATOM     37  O   UNL     1      -9.559   7.255   3.226  1.00  0.00    -0.269 OA
BRANCH  35  38
ATOM     38  C   UNL     1      -7.652   8.613   3.110  1.00  0.00     0.039 A 
ATOM     39  C   UNL     1      -8.040   9.528   4.093  1.00  0.00     0.014 A 
ATOM     40  C   UNL     1      -6.658   8.961   2.191  1.00  0.00     0.014 A 
ATOM     41  C   UNL     1      -7.390  10.761   4.195  1.00  0.00     0.010 A 
ATOM     42  C   UNL     1      -5.960  10.157   2.339  1.00  0.00     0.010 A 
ATOM     43  C   UNL     1      -6.321  11.072   3.340  1.00  0.00    -0.014 A 
BRANCH  43  44
ATOM     44  C   UNL     1      -5.574  12.349   3.474  1.00  0.00     0.031 A 
ATOM     45  C   UNL     1      -5.602  13.362   2.363  1.00  0.00     0.074 A 
ATOM     46  C   UNL     1      -4.822  12.569   4.570  1.00  0.00     0.049 A 
ATOM     47  N   UNL     1      -4.949  14.493   2.257  1.00  0.00    -0.248 NA
ATOM     48  C   UNL     1      -6.459  13.054   1.208  1.00  0.00     0.031 C 
ATOM     49  C   UNL     1      -4.680  11.648   5.699  1.00  0.00     0.029 A 
ATOM     50  N   UNL     1      -4.023  13.634   4.909  1.00  0.00    -0.354 N 
ATOM     51  C   UNL     1      -5.306  15.021   1.023  1.00  0.00     0.074 A 
ATOM     52  C   UNL     1      -6.193  14.066   0.394  1.00  0.00     0.031 C 
ATOM     53  C   UNL     1      -3.861  12.194   6.612  1.00  0.00     0.029 A 
ATOM     54  C   UNL     1      -3.389  13.483   6.118  1.00  0.00     0.049 A 
ATOM     55  H   UNL     1      -3.916  14.430   4.339  1.00  0.00     0.167 HD
ATOM     56  C   UNL     1      -4.944  16.205   0.474  1.00  0.00     0.037 A 
ATOM     57  C   UNL     1      -2.516  14.290   6.751  1.00  0.00     0.037 A 
ATOM     58  C   UNL     1      -4.084  17.167   1.112  1.00  0.00     0.049 A 
ATOM     59  C   UNL     1      -2.125  15.596   6.113  1.00  0.00     0.074 A 
ATOM     60  C   UNL     1      -3.698  18.416   0.656  1.00  0.00     0.029 A 
ATOM     61  N   UNL     1      -3.478  16.988   2.346  1.00  0.00    -0.354 N 
ATOM     62  N   UNL     1      -2.513  16.108   4.971  1.00  0.00    -0.248 NA
ATOM     63  C   UNL     1      -1.178  16.439   6.856  1.00  0.00     0.031 C 
ATOM     64  C   UNL     1      -2.829  18.977   1.597  1.00  0.00     0.029 A 
ATOM     65  C   UNL     1      -2.709  18.097   2.660  1.00  0.00     0.049 A 
ATOM     66  H   UNL     1      -3.580  16.190   2.915  1.00  0.00     0.167 HD
ATOM     67  C   UNL     1      -1.884  17.342   4.873  1.00  0.00     0.074 A 
ATOM     68  C   UNL     1      -1.101  17.509   6.078  1.00  0.00     0.031 C 
ATOM     69  C   UNL     1      -1.948  18.254   3.872  1.00  0.00     0.037 A 
BRANCH  56  70
ATOM     70  C   UNL     1      -5.488  16.538  -0.884  1.00  0.00     0.064 A 
ATOM     71  C   UNL     1      -6.839  16.868  -1.071  1.00  0.00     0.173 A 
ATOM     72  C   UNL     1      -4.641  16.584  -2.001  1.00  0.00     0.173 A 
ATOM     73  F   UNL     1      -7.693  16.828  -0.037  1.00  0.00    -0.203 F 
ATOM     74  C   UNL     1      -7.326  17.211  -2.330  1.00  0.00     0.198 A 
ATOM     75  C   UNL     1      -5.125  16.955  -3.253  1.00  0.00     0.198 A 
ATOM     76  F   UNL     1      -3.339  16.284  -1.876  1.00  0.00    -0.203 F 
ATOM     77  F   UNL     1      -8.628  17.484  -2.491  1.00  0.00    -0.200 F 
ATOM     78  C   UNL     1      -6.467  17.262  -3.418  1.00  0.00     0.200 A 
ATOM     79  F   UNL     1      -4.292  17.017  -4.301  1.00  0.00    -0.200 F 
ATOM     80  F   UNL     1      -6.935  17.605  -4.626  1.00  0.00    -0.200 F 
ENDBRANCH  56  70
BRANCH  57  81
ATOM     81  C   UNL     1      -1.958  13.897   8.072  1.00  0.00     0.064 A 
ATOM     82  C   UNL     1      -2.309  14.595   9.236  1.00  0.00     0.173 A 
ATOM     83  C   UNL     1      -1.049  12.837   8.195  1.00  0.00     0.173 A 
ATOM     84  F   UNL     1      -3.158  15.631   9.165  1.00  0.00    -0.203 F 
ATOM     85  C   UNL     1      -1.750  14.266  10.469  1.00  0.00     0.198 A 
ATOM     86  C   UNL     1      -0.513  12.489   9.434  1.00  0.00     0.198 A 
ATOM     87  F   UNL     1      -0.684  12.135   7.113  1.00  0.00    -0.203 F 
ATOM     88  F   UNL     1      -2.061  14.984  11.556  1.00  0.00    -0.200 F 
ATOM     89  C   UNL     1      -0.856  13.210  10.567  1.00  0.00     0.200 A 
ATOM     90  F   UNL     1       0.340  11.461   9.527  1.00  0.00    -0.200 F 
ATOM     91  F   UNL     1      -0.317  12.895  11.753  1.00  0.00    -0.200 F 
ENDBRANCH  57  81
BRANCH  69  92
ATOM     92  C   UNL     1      -1.183  19.531   4.057  1.00  0.00     0.064 A 
ATOM     93  C   UNL     1       0.216  19.569   3.972  1.00  0.00     0.173 A 
ATOM     94  C   UNL     1      -1.862  20.738   4.284  1.00  0.00     0.173 A 
ATOM     95  F   UNL     1       0.911  18.439   3.772  1.00  0.00    -0.203 F 
ATOM     96  C   UNL     1       0.910  20.765   4.133  1.00  0.00     0.198 A 
ATOM     97  C   UNL     1      -1.167  21.936   4.415  1.00  0.00     0.198 A 
ATOM     98  F   UNL     1      -3.201  20.755   4.367  1.00  0.00    -0.203 F 
ATOM     99  F   UNL     1       2.249  20.771   4.095  1.00  0.00    -0.200 F 
ATOM    100  C   UNL     1       0.218  21.948   4.347  1.00  0.00     0.200 A 
ATOM    101  F   UNL     1      -1.838  23.080   4.610  1.00  0.00    -0.200 F 
ATOM    102  F   UNL     1       0.887  23.100   4.495  1.00  0.00    -0.200 F 
ENDBRANCH  69  92
ENDBRANCH  43  44
ENDBRANCH  35  38
ENDBRANCH  33  34
ENDBRANCH   1  33
TORSDOF 14
