REMARK SMILES O=C(NCCCNC(=O)[C@]1(CCc2cccnc2)C[C@H]2CC[C@@H]1O2)c1ccc(-c2c3nc(c(-c4c(F)c(F)c(F)c(F)c4F)c4ccc([nH]4)c(-c4c(F)c(F)c(F)c(F)c4F)c4nc(c(-c5c(F)c(F)c(F)c(F)c5F)c5ccc2[nH]5)C=C4)C=C3)cc1
REMARK SMILES IDX 5 1 4 2 3 3 1 4 2 5 25 7 26 8 87 9 27 10 86 11 28 12 29 13
REMARK SMILES IDX 30 14 80 15 31 16 85 17 79 18 81 19 32 20 84 21 78 22 77 23
REMARK SMILES IDX 33 25 65 26 45 27 64 28 46 29 49 30 63 31 82 32 47 33 48 34
REMARK SMILES IDX 62 36 83 37 50 38 34 39 35 40 43 41 36 42 37 43 41 44 44 45
REMARK SMILES IDX 38 46 39 47 42 48 40 49 66 50 67 51 75 52 68 53 69 54 73 55
REMARK SMILES IDX 76 56 70 57 71 58 74 59 72 60 51 61 52 62 60 63 53 64 54 65
REMARK SMILES IDX 58 66 61 67 55 68 56 69 59 70 57 71 6 72 7 73 8 74 9 76
REMARK SMILES IDX 10 77 19 78 23 79 20 80 22 81 24 82 21 83 11 84 12 85 13 86
REMARK SMILES IDX 14 87 18 88 15 89 17 90 16 91
REMARK H PARENT 3 6 81 24 49 35 7 75
REMARK Flexibility Score: inf
ROOT
ATOM      1  C   UNL     1       4.951   0.162   2.174  1.00  0.00     0.042 C 
ENDROOT
BRANCH   1   2
ATOM      2  C   UNL     1       4.566  -0.773   1.042  1.00  0.00     0.118 C 
BRANCH   2   3
ATOM      3  N   UNL     1       3.121  -0.828   0.847  1.00  0.00    -0.352 N 
ATOM      4  O   UNL     1       1.122  -0.146   0.045  1.00  0.00    -0.269 OA
ATOM      5  C   UNL     1       2.342  -0.201  -0.092  1.00  0.00     0.251 C 
ATOM      6  H   UNL     1       2.633  -1.399   1.483  1.00  0.00     0.163 HD
BRANCH   5   7
ATOM      7  C   UNL     1       2.979   0.424  -1.268  1.00  0.00     0.039 A 
ATOM      8  C   UNL     1       4.030  -0.222  -1.921  1.00  0.00     0.014 A 
ATOM      9  C   UNL     1       2.514   1.656  -1.735  1.00  0.00     0.014 A 
ATOM     10  C   UNL     1       4.733   0.434  -2.918  1.00  0.00     0.010 A 
ATOM     11  C   UNL     1       3.142   2.259  -2.826  1.00  0.00     0.010 A 
ATOM     12  C   UNL     1       4.273   1.664  -3.408  1.00  0.00    -0.014 A 
BRANCH  12  13
ATOM     13  C   UNL     1       4.933   2.262  -4.592  1.00  0.00     0.031 A 
ATOM     14  C   UNL     1       5.590   3.606  -4.516  1.00  0.00     0.074 A 
ATOM     15  C   UNL     1       4.913   1.573  -5.749  1.00  0.00     0.049 A 
ATOM     16  N   UNL     1       6.143   4.309  -5.472  1.00  0.00    -0.248 NA
ATOM     17  C   UNL     1       5.622   4.254  -3.197  1.00  0.00     0.031 C 
ATOM     18  C   UNL     1       4.295   0.258  -5.934  1.00  0.00     0.029 A 
ATOM     19  N   UNL     1       5.417   1.879  -6.986  1.00  0.00    -0.354 N 
ATOM     20  C   UNL     1       6.560   5.492  -4.879  1.00  0.00     0.074 A 
ATOM     21  C   UNL     1       6.176   5.423  -3.485  1.00  0.00     0.031 C 
ATOM     22  C   UNL     1       4.471  -0.139  -7.200  1.00  0.00     0.029 A 
ATOM     23  C   UNL     1       5.139   0.927  -7.935  1.00  0.00     0.049 A 
ATOM     24  H   UNL     1       5.927   2.700  -7.175  1.00  0.00     0.167 HD
ATOM     25  C   UNL     1       7.206   6.536  -5.454  1.00  0.00     0.037 A 
ATOM     26  C   UNL     1       5.352   0.929  -9.263  1.00  0.00     0.037 A 
ATOM     27  C   UNL     1       7.584   6.579  -6.844  1.00  0.00     0.049 A 
ATOM     28  C   UNL     1       6.032   2.111  -9.884  1.00  0.00     0.074 A 
ATOM     29  C   UNL     1       8.284   7.565  -7.518  1.00  0.00     0.029 A 
ATOM     30  N   UNL     1       7.278   5.598  -7.779  1.00  0.00    -0.354 N 
ATOM     31  N   UNL     1       6.459   3.210  -9.310  1.00  0.00    -0.248 NA
ATOM     32  C   UNL     1       6.260   2.059 -11.332  1.00  0.00     0.031 C 
ATOM     33  C   UNL     1       8.341   7.213  -8.870  1.00  0.00     0.029 A 
ATOM     34  C   UNL     1       7.742   5.973  -9.031  1.00  0.00     0.049 A 
ATOM     35  H   UNL     1       6.802   4.759  -7.582  1.00  0.00     0.167 HD
ATOM     36  C   UNL     1       7.024   3.973 -10.320  1.00  0.00     0.074 A 
ATOM     37  C   UNL     1       6.893   3.205 -11.543  1.00  0.00     0.031 C 
ATOM     38  C   UNL     1       7.603   5.196 -10.238  1.00  0.00     0.037 A 
BRANCH  25  39
ATOM     39  C   UNL     1       7.500   7.731  -4.592  1.00  0.00     0.064 A 
ATOM     40  C   UNL     1       8.424   7.682  -3.536  1.00  0.00     0.173 A 
ATOM     41  C   UNL     1       6.854   8.954  -4.835  1.00  0.00     0.173 A 
ATOM     42  F   UNL     1       9.067   6.539  -3.254  1.00  0.00    -0.203 F 
ATOM     43  C   UNL     1       8.653   8.795  -2.729  1.00  0.00     0.198 A 
ATOM     44  C   UNL     1       7.112  10.074  -4.049  1.00  0.00     0.198 A 
ATOM     45  F   UNL     1       5.969   9.065  -5.837  1.00  0.00    -0.203 F 
ATOM     46  F   UNL     1       9.489   8.703  -1.686  1.00  0.00    -0.200 F 
ATOM     47  C   UNL     1       8.000   9.990  -2.989  1.00  0.00     0.200 A 
ATOM     48  F   UNL     1       6.492  11.233  -4.313  1.00  0.00    -0.200 F 
ATOM     49  F   UNL     1       8.220  11.059  -2.210  1.00  0.00    -0.200 F 
ENDBRANCH  25  39
BRANCH  26  50
ATOM     50  C   UNL     1       4.880  -0.225 -10.069  1.00  0.00     0.064 A 
ATOM     51  C   UNL     1       5.783  -1.130 -10.638  1.00  0.00     0.173 A 
ATOM     52  C   UNL     1       3.508  -0.481 -10.227  1.00  0.00     0.173 A 
ATOM     53  F   UNL     1       7.102  -0.921 -10.523  1.00  0.00    -0.203 F 
ATOM     54  C   UNL     1       5.332  -2.248 -11.338  1.00  0.00     0.198 A 
ATOM     55  C   UNL     1       3.059  -1.614 -10.900  1.00  0.00     0.198 A 
ATOM     56  F   UNL     1       2.603   0.350  -9.689  1.00  0.00    -0.203 F 
ATOM     57  F   UNL     1       6.216  -3.087 -11.894  1.00  0.00    -0.200 F 
ATOM     58  C   UNL     1       3.972  -2.495 -11.459  1.00  0.00     0.200 A 
ATOM     59  F   UNL     1       1.746  -1.861 -10.991  1.00  0.00    -0.200 F 
ATOM     60  F   UNL     1       3.542  -3.582 -12.113  1.00  0.00    -0.200 F 
ENDBRANCH  26  50
BRANCH  38  61
ATOM     61  C   UNL     1       8.175   5.772 -11.500  1.00  0.00     0.064 A 
ATOM     62  C   UNL     1       7.355   6.261 -12.527  1.00  0.00     0.173 A 
ATOM     63  C   UNL     1       9.565   5.897 -11.650  1.00  0.00     0.173 A 
ATOM     64  F   UNL     1       6.021   6.147 -12.439  1.00  0.00    -0.203 F 
ATOM     65  C   UNL     1       7.907   6.846 -13.664  1.00  0.00     0.198 A 
ATOM     66  C   UNL     1      10.111   6.510 -12.773  1.00  0.00     0.198 A 
ATOM     67  F   UNL     1      10.392   5.446 -10.695  1.00  0.00    -0.203 F 
ATOM     68  F   UNL     1       7.107   7.275 -14.650  1.00  0.00    -0.200 F 
ATOM     69  C   UNL     1       9.283   6.981 -13.780  1.00  0.00     0.200 A 
ATOM     70  F   UNL     1      11.440   6.653 -12.876  1.00  0.00    -0.200 F 
ATOM     71  F   UNL     1       9.811   7.563 -14.866  1.00  0.00    -0.200 F 
ENDBRANCH  38  61
ENDBRANCH  12  13
ENDBRANCH   5   7
ENDBRANCH   2   3
ENDBRANCH   1   2
BRANCH   1  72
ATOM     72  C   UNL     1       4.548  -0.379   3.532  1.00  0.00     0.117 C 
BRANCH  72  73
ATOM     73  N   UNL     1       5.320  -1.557   3.877  1.00  0.00    -0.355 N 
ATOM     74  C   UNL     1       6.144  -1.875   4.897  1.00  0.00     0.228 C 
ATOM     75  H   UNL     1       5.221  -2.285   3.223  1.00  0.00     0.163 HD
ATOM     76  O   UNL     1       6.857  -2.871   4.704  1.00  0.00    -0.274 OA
BRANCH  74  77
ATOM     77  C   UNL     1       6.277  -1.095   6.218  1.00  0.00     0.078 C 
ATOM     78  C   UNL     1       5.274   0.013   6.582  1.00  0.00     0.051 C 
ATOM     79  C   UNL     1       7.553  -0.253   5.987  1.00  0.00     0.134 C 
ATOM     80  C   UNL     1       6.046   1.295   6.226  1.00  0.00     0.120 C 
ATOM     81  C   UNL     1       8.054   0.520   7.210  1.00  0.00     0.036 C 
ATOM     82  O   UNL     1       6.978   0.848   5.219  1.00  0.00    -0.374 OA
ATOM     83  C   UNL     1       7.022   1.643   7.341  1.00  0.00     0.035 C 
BRANCH  77  84
ATOM     84  C   UNL     1       6.339  -2.147   7.362  1.00  0.00     0.024 C 
BRANCH  84  85
ATOM     85  C   UNL     1       4.998  -2.874   7.657  1.00  0.00     0.038 C 
BRANCH  85  86
ATOM     86  C   UNL     1       4.552  -3.863   6.612  1.00  0.00    -0.030 A 
ATOM     87  C   UNL     1       5.148  -5.122   6.508  1.00  0.00     0.007 A 
ATOM     88  C   UNL     1       3.581  -3.542   5.666  1.00  0.00     0.114 A 
ATOM     89  C   UNL     1       4.800  -5.966   5.458  1.00  0.00     0.020 A 
ATOM     90  N   UNL     1       3.230  -4.333   4.626  1.00  0.00    -0.264 NA
ATOM     91  C   UNL     1       3.860  -5.524   4.541  1.00  0.00     0.111 A 
ENDBRANCH  85  86
ENDBRANCH  84  85
ENDBRANCH  77  84
ENDBRANCH  74  77
ENDBRANCH  72  73
ENDBRANCH   1  72
TORSDOF 13
