REMARK SMILES Nc1c(CC(=O)NCCCNC(=O)c2ccc(-c3c4nc(c(-c5c(F)c(F)c(F)c(F)c5F)c5ccc([nH]5)c(-c5c(F)c(F)c(F)c(F)c5F)c5nc(c(-c6c(F)c(F)c(F)c(F)c6F)c6ccc3[nH]6)C=C5)C=C4)cc2)cccc1C(=O)c1ccc(Br)cc1
REMARK SMILES IDX 8 1 7 2 5 3 6 4 4 6 3 7 2 8 80 9 77 10 79 11 78 12 1 13
REMARK SMILES IDX 81 16 82 17 83 18 84 19 89 20 85 21 88 22 86 23 87 24 9 25
REMARK SMILES IDX 10 26 11 27 12 28 13 30 14 31 15 32 76 33 16 34 75 35 17 36
REMARK SMILES IDX 18 37 19 38 69 39 20 40 74 41 68 42 70 43 21 44 73 45 67 46
REMARK SMILES IDX 66 47 22 49 54 50 34 51 53 52 35 53 38 54 52 55 71 56 36 57
REMARK SMILES IDX 37 58 51 60 72 61 39 62 23 63 24 64 32 65 25 66 26 67 30 68
REMARK SMILES IDX 33 69 27 70 28 71 31 72 29 73 55 74 56 75 64 76 57 77 58 78
REMARK SMILES IDX 62 79 65 80 59 81 60 82 63 83 61 84 40 85 41 86 49 87 42 88
REMARK SMILES IDX 43 89 47 90 50 91 44 92 45 93 48 94 46 95
REMARK H PARENT 7 5 1 14 1 15 11 29 70 48 38 59
REMARK Flexibility Score: inf
ROOT
ATOM      1  C   UNL     1       1.769  -1.997   2.832  1.00  0.00     0.117 C 
ENDROOT
BRANCH   1   2
ATOM      2  N   UNL     1       0.898  -3.091   2.450  1.00  0.00    -0.356 N 
ATOM      3  C   UNL     1       0.399  -3.402   1.218  1.00  0.00     0.224 C 
ATOM      4  O   UNL     1      -0.387  -4.348   1.131  1.00  0.00    -0.275 OA
ATOM      5  H   UNL     1       0.630  -3.694   3.181  1.00  0.00     0.163 HD
BRANCH   3   6
ATOM      6  C   UNL     1       0.841  -2.628  -0.013  1.00  0.00     0.137 C 
BRANCH   6   7
ATOM      7  C   UNL     1       0.242  -1.235  -0.121  1.00  0.00    -0.015 A 
ATOM      8  C   UNL     1       1.032  -0.052  -0.112  1.00  0.00     0.046 A 
ATOM      9  C   UNL     1       0.374   1.205  -0.136  1.00  0.00     0.046 A 
ATOM     10  C   UNL     1      -1.161  -1.146  -0.182  1.00  0.00     0.006 A 
ATOM     11  C   UNL     1      -1.034   1.250  -0.181  1.00  0.00     0.014 A 
ATOM     12  C   UNL     1      -1.796   0.088  -0.208  1.00  0.00     0.001 A 
BRANCH   8  13
ATOM     13  N   UNL     1       2.414  -0.187  -0.032  1.00  0.00    -0.398 N 
ATOM     14  H   UNL     1       2.821  -1.083  -0.018  1.00  0.00     0.156 HD
ATOM     15  H   UNL     1       2.985   0.614   0.011  1.00  0.00     0.156 HD
ENDBRANCH   8  13
BRANCH   9  16
ATOM     16  C   UNL     1       1.035   2.553  -0.069  1.00  0.00     0.195 C 
ATOM     17  O   UNL     1       0.378   3.553   0.219  1.00  0.00    -0.289 OA
BRANCH  16  18
ATOM     18  C   UNL     1       2.480   2.761  -0.268  1.00  0.00     0.023 A 
ATOM     19  C   UNL     1       3.206   3.333   0.784  1.00  0.00     0.013 A 
ATOM     20  C   UNL     1       3.125   2.368  -1.445  1.00  0.00     0.013 A 
ATOM     21  C   UNL     1       4.592   3.450   0.688  1.00  0.00     0.016 A 
ATOM     22  C   UNL     1       4.515   2.481  -1.535  1.00  0.00     0.016 A 
ATOM     23  C   UNL     1       5.242   3.010  -0.465  1.00  0.00     0.018 A 
ATOM     24  Br  UNL     1       7.126   3.111  -0.571  1.00  0.00    -0.051 Br
ENDBRANCH  16  18
ENDBRANCH   9  16
ENDBRANCH   6   7
ENDBRANCH   3   6
ENDBRANCH   1   2
BRANCH   1  25
ATOM     25  C   UNL     1       0.993  -0.816   3.412  1.00  0.00     0.042 C 
BRANCH  25  26
ATOM     26  C   UNL     1       0.417  -1.081   4.801  1.00  0.00     0.118 C 
BRANCH  26  27
ATOM     27  N   UNL     1       1.455  -1.273   5.806  1.00  0.00    -0.352 N 
ATOM     28  C   UNL     1       1.633  -0.682   7.027  1.00  0.00     0.251 C 
ATOM     29  H   UNL     1       2.142  -1.937   5.567  1.00  0.00     0.163 HD
ATOM     30  O   UNL     1       2.689  -0.868   7.634  1.00  0.00    -0.269 OA
BRANCH  28  31
ATOM     31  C   UNL     1       0.594   0.184   7.624  1.00  0.00     0.039 A 
ATOM     32  C   UNL     1       1.003   1.319   8.336  1.00  0.00     0.014 A 
ATOM     33  C   UNL     1      -0.766  -0.133   7.544  1.00  0.00     0.014 A 
ATOM     34  C   UNL     1       0.052   2.158   8.918  1.00  0.00     0.010 A 
ATOM     35  C   UNL     1      -1.717   0.742   8.069  1.00  0.00     0.010 A 
ATOM     36  C   UNL     1      -1.317   1.892   8.764  1.00  0.00    -0.014 A 
BRANCH  36  37
ATOM     37  C   UNL     1      -2.336   2.824   9.307  1.00  0.00     0.031 A 
ATOM     38  C   UNL     1      -3.260   2.395  10.410  1.00  0.00     0.074 A 
ATOM     39  C   UNL     1      -2.473   4.043   8.753  1.00  0.00     0.049 A 
ATOM     40  N   UNL     1      -4.231   3.062  10.985  1.00  0.00    -0.248 NA
ATOM     41  C   UNL     1      -3.091   1.025  10.916  1.00  0.00     0.031 C 
ATOM     42  C   UNL     1      -1.685   4.549   7.628  1.00  0.00     0.029 A 
ATOM     43  N   UNL     1      -3.333   5.071   9.048  1.00  0.00    -0.354 N 
ATOM     44  C   UNL     1      -4.796   2.190  11.904  1.00  0.00     0.074 A 
ATOM     45  C   UNL     1      -4.093   0.931  11.778  1.00  0.00     0.031 C 
ATOM     46  C   UNL     1      -2.090   5.794   7.335  1.00  0.00     0.029 A 
ATOM     47  C   UNL     1      -3.181   6.163   8.232  1.00  0.00     0.049 A 
ATOM     48  H   UNL     1      -3.995   5.028   9.776  1.00  0.00     0.167 HD
ATOM     49  C   UNL     1      -5.798   2.424  12.786  1.00  0.00     0.037 A 
ATOM     50  C   UNL     1      -3.849   7.332   8.205  1.00  0.00     0.037 A 
ATOM     51  C   UNL     1      -6.481   3.686  12.923  1.00  0.00     0.049 A 
ATOM     52  C   UNL     1      -4.933   7.583   9.214  1.00  0.00     0.074 A 
ATOM     53  C   UNL     1      -7.444   4.052  13.846  1.00  0.00     0.029 A 
ATOM     54  N   UNL     1      -6.277   4.786  12.101  1.00  0.00    -0.354 N 
ATOM     55  N   UNL     1      -5.396   6.785  10.145  1.00  0.00    -0.248 NA
ATOM     56  C   UNL     1      -5.577   8.903   9.177  1.00  0.00     0.031 C 
ATOM     57  C   UNL     1      -7.857   5.358  13.554  1.00  0.00     0.029 A 
ATOM     58  C   UNL     1      -7.118   5.822  12.478  1.00  0.00     0.049 A 
ATOM     59  H   UNL     1      -5.630   4.825  11.360  1.00  0.00     0.167 HD
ATOM     60  C   UNL     1      -6.379   7.505  10.810  1.00  0.00     0.074 A 
ATOM     61  C   UNL     1      -6.428   8.814  10.191  1.00  0.00     0.031 C 
ATOM     62  C   UNL     1      -7.170   7.114  11.839  1.00  0.00     0.037 A 
BRANCH  49  63
ATOM     63  C   UNL     1      -6.218   1.284  13.669  1.00  0.00     0.064 A 
ATOM     64  C   UNL     1      -5.386   0.793  14.687  1.00  0.00     0.173 A 
ATOM     65  C   UNL     1      -7.473   0.678  13.501  1.00  0.00     0.173 A 
ATOM     66  F   UNL     1      -4.172   1.330  14.884  1.00  0.00    -0.203 F 
ATOM     67  C   UNL     1      -5.775  -0.288  15.474  1.00  0.00     0.198 A 
ATOM     68  C   UNL     1      -7.872  -0.382  14.311  1.00  0.00     0.198 A 
ATOM     69  F   UNL     1      -8.312   1.113  12.549  1.00  0.00    -0.203 F 
ATOM     70  F   UNL     1      -4.937  -0.778  16.398  1.00  0.00    -0.200 F 
ATOM     71  C   UNL     1      -7.019  -0.872  15.288  1.00  0.00     0.200 A 
ATOM     72  F   UNL     1      -9.079  -0.938  14.138  1.00  0.00    -0.200 F 
ATOM     73  F   UNL     1      -7.391  -1.914  16.044  1.00  0.00    -0.200 F 
ENDBRANCH  49  63
BRANCH  50  74
ATOM     74  C   UNL     1      -3.479   8.355   7.197  1.00  0.00     0.064 A 
ATOM     75  C   UNL     1      -2.768   9.505   7.565  1.00  0.00     0.173 A 
ATOM     76  C   UNL     1      -3.785   8.180   5.840  1.00  0.00     0.173 A 
ATOM     77  F   UNL     1      -2.470   9.722   8.854  1.00  0.00    -0.203 F 
ATOM     78  C   UNL     1      -2.382  10.445   6.613  1.00  0.00     0.198 A 
ATOM     79  C   UNL     1      -3.378   9.109   4.886  1.00  0.00     0.198 A 
ATOM     80  F   UNL     1      -4.458   7.091   5.439  1.00  0.00    -0.203 F 
ATOM     81  F   UNL     1      -1.725  11.549   6.994  1.00  0.00    -0.200 F 
ATOM     82  C   UNL     1      -2.679  10.243   5.274  1.00  0.00     0.200 A 
ATOM     83  F   UNL     1      -3.656   8.904   3.591  1.00  0.00    -0.200 F 
ATOM     84  F   UNL     1      -2.294  11.141   4.357  1.00  0.00    -0.200 F 
ENDBRANCH  50  74
BRANCH  62  85
ATOM     85  C   UNL     1      -8.158   8.117  12.358  1.00  0.00     0.064 A 
ATOM     86  C   UNL     1      -9.301   8.467  11.623  1.00  0.00     0.173 A 
ATOM     87  C   UNL     1      -7.975   8.717  13.613  1.00  0.00     0.173 A 
ATOM     88  F   UNL     1      -9.513   7.933  10.411  1.00  0.00    -0.203 F 
ATOM     89  C   UNL     1     -10.210   9.400  12.114  1.00  0.00     0.198 A 
ATOM     90  C   UNL     1      -8.901   9.628  14.113  1.00  0.00     0.198 A 
ATOM     91  F   UNL     1      -6.901   8.413  14.358  1.00  0.00    -0.203 F 
ATOM     92  F   UNL     1     -11.270   9.755  11.374  1.00  0.00    -0.200 F 
ATOM     93  C   UNL     1     -10.013   9.975  13.361  1.00  0.00     0.200 A 
ATOM     94  F   UNL     1      -8.714  10.175  15.323  1.00  0.00    -0.200 F 
ATOM     95  F   UNL     1     -10.891  10.871  13.833  1.00  0.00    -0.200 F 
ENDBRANCH  62  85
ENDBRANCH  36  37
ENDBRANCH  28  31
ENDBRANCH  26  27
ENDBRANCH  25  26
ENDBRANCH   1  25
TORSDOF 14
