REMARK SMILES CC(C)(C)CN1C(=O)CC[C@@H](C(=O)NCCCNC(=O)c2ccc(-c3c4nc(c(-c5c(F)c(F)c(F)c(F)c5F)c5ccc([nH]5)c(-c5c(F)c(F)c(F)c(F)c5F)c5nc(c(-c6c(F)c(F)c(F)c(F)c6F)c6ccc3[nH]6)C=C5)C=C4)cc2)[C@H]1c1cccc2c1OCO2
REMARK SMILES IDX 16 1 15 2 14 3 12 4 13 5 11 7 6 8 7 9 84 10 8 11 9 12 10 13
REMARK SMILES IDX 5 14 2 15 1 16 3 17 4 18 85 19 86 20 90 21 87 22 89 23 91 24
REMARK SMILES IDX 88 25 93 26 92 27 17 28 18 29 19 30 20 32 21 33 22 34 83 35
REMARK SMILES IDX 23 36 82 37 24 38 25 39 26 40 76 41 27 42 81 43 75 44 77 45
REMARK SMILES IDX 28 46 80 47 74 48 73 49 29 51 61 52 41 53 60 54 42 55 45 56
REMARK SMILES IDX 59 57 78 58 43 59 44 60 58 62 79 63 46 64 30 65 31 66 39 67
REMARK SMILES IDX 32 68 33 69 37 70 40 71 34 72 35 73 38 74 36 75 62 76 63 77
REMARK SMILES IDX 71 78 64 79 65 80 69 81 72 82 66 83 67 84 70 85 68 86 47 87
REMARK SMILES IDX 48 88 56 89 49 90 50 91 54 92 57 93 51 94 52 95 55 96 53 97
REMARK H PARENT 14 6 18 31 77 50 45 61
REMARK Flexibility Score: inf
ROOT
ATOM      1  C   UNL     1       4.192  -7.332   0.937  1.00  0.00     0.042 C 
ENDROOT
BRANCH   1   2
ATOM      2  C   UNL     1       3.974  -5.901   1.398  1.00  0.00     0.117 C 
BRANCH   2   3
ATOM      3  N   UNL     1       3.193  -5.183   0.411  1.00  0.00    -0.356 N 
ATOM      4  C   UNL     1       1.954  -4.636   0.485  1.00  0.00     0.225 C 
ATOM      5  O   UNL     1       1.481  -4.202  -0.564  1.00  0.00    -0.275 OA
ATOM      6  H   UNL     1       3.637  -5.074  -0.462  1.00  0.00     0.163 HD
BRANCH   4   7
ATOM      7  C   UNL     1       1.260  -4.500   1.834  1.00  0.00     0.106 C 
ATOM      8  N   UNL     1       0.536  -2.048   1.793  1.00  0.00    -0.334 N 
ATOM      9  C   UNL     1      -0.614  -2.405   1.088  1.00  0.00     0.223 C 
ATOM     10  C   UNL     1       1.411  -3.077   2.414  1.00  0.00     0.132 C 
ATOM     11  O   UNL     1      -1.380  -1.593   0.571  1.00  0.00    -0.275 OA
ATOM     12  C   UNL     1      -0.977  -3.863   0.904  1.00  0.00     0.101 C 
ATOM     13  C   UNL     1      -0.211  -4.861   1.734  1.00  0.00     0.026 C 
BRANCH   8  14
ATOM     14  C   UNL     1       0.655  -0.673   2.349  1.00  0.00     0.126 C 
BRANCH  14  15
ATOM     15  C   UNL     1       0.427   0.589   1.462  1.00  0.00    -0.021 C 
ATOM     16  C   UNL     1       0.933   0.405   0.020  1.00  0.00     0.012 C 
ATOM     17  C   UNL     1       1.249   1.758   2.068  1.00  0.00     0.012 C 
ATOM     18  C   UNL     1      -1.046   1.058   1.521  1.00  0.00     0.012 C 
ENDBRANCH  14  15
ENDBRANCH   8  14
BRANCH  10  19
ATOM     19  C   UNL     1       2.885  -2.684   2.494  1.00  0.00     0.021 A 
ATOM     20  C   UNL     1       3.588  -2.203   1.370  1.00  0.00     0.010 A 
ATOM     21  C   UNL     1       3.626  -2.834   3.659  1.00  0.00     0.171 A 
ATOM     22  C   UNL     1       4.971  -1.951   1.418  1.00  0.00     0.004 A 
ATOM     23  C   UNL     1       4.978  -2.562   3.707  1.00  0.00     0.166 A 
ATOM     24  O   UNL     1       3.157  -3.263   4.865  1.00  0.00    -0.453 OA
ATOM     25  C   UNL     1       5.682  -2.137   2.602  1.00  0.00     0.050 A 
ATOM     26  O   UNL     1       5.513  -2.771   4.940  1.00  0.00    -0.454 OA
ATOM     27  C   UNL     1       4.334  -3.115   5.691  1.00  0.00     0.468 C 
ENDBRANCH  10  19
ENDBRANCH   4   7
ENDBRANCH   2   3
ENDBRANCH   1   2
BRANCH   1  28
ATOM     28  C   UNL     1       4.982  -7.419  -0.363  1.00  0.00     0.118 C 
BRANCH  28  29
ATOM     29  N   UNL     1       6.333  -6.893  -0.225  1.00  0.00    -0.352 N 
ATOM     30  C   UNL     1       7.533  -7.528  -0.425  1.00  0.00     0.251 C 
ATOM     31  H   UNL     1       6.394  -5.949   0.051  1.00  0.00     0.163 HD
ATOM     32  O   UNL     1       8.580  -7.011  -0.059  1.00  0.00    -0.269 OA
BRANCH  30  33
ATOM     33  C   UNL     1       7.542  -8.856  -1.068  1.00  0.00     0.039 A 
ATOM     34  C   UNL     1       8.319  -9.873  -0.513  1.00  0.00     0.014 A 
ATOM     35  C   UNL     1       6.762  -9.097  -2.202  1.00  0.00     0.014 A 
ATOM     36  C   UNL     1       8.262 -11.155  -1.060  1.00  0.00     0.010 A 
ATOM     37  C   UNL     1       6.634 -10.392  -2.687  1.00  0.00     0.010 A 
ATOM     38  C   UNL     1       7.390 -11.432  -2.127  1.00  0.00    -0.014 A 
BRANCH  38  39
ATOM     39  C   UNL     1       7.262 -12.802  -2.679  1.00  0.00     0.031 A 
ATOM     40  C   UNL     1       7.644 -13.074  -4.107  1.00  0.00     0.074 A 
ATOM     41  C   UNL     1       6.747 -13.784  -1.915  1.00  0.00     0.049 A 
ATOM     42  N   UNL     1       7.551 -14.186  -4.792  1.00  0.00    -0.248 NA
ATOM     43  C   UNL     1       8.174 -11.938  -4.877  1.00  0.00     0.031 C 
ATOM     44  C   UNL     1       6.300 -13.631  -0.529  1.00  0.00     0.029 A 
ATOM     45  N   UNL     1       6.508 -15.104  -2.197  1.00  0.00    -0.354 N 
ATOM     46  C   UNL     1       8.003 -13.879  -6.069  1.00  0.00     0.074 A 
ATOM     47  C   UNL     1       8.301 -12.464  -6.085  1.00  0.00     0.031 C 
ATOM     48  C   UNL     1       5.875 -14.819  -0.072  1.00  0.00     0.029 A 
ATOM     49  C   UNL     1       5.976 -15.805  -1.143  1.00  0.00     0.049 A 
ATOM     50  H   UNL     1       6.699 -15.511  -3.073  1.00  0.00     0.167 HD
ATOM     51  C   UNL     1       8.182 -14.708  -7.125  1.00  0.00     0.037 A 
ATOM     52  C   UNL     1       5.608 -17.097  -1.055  1.00  0.00     0.037 A 
ATOM     53  C   UNL     1       7.892 -16.118  -7.099  1.00  0.00     0.049 A 
ATOM     54  C   UNL     1       5.779 -17.990  -2.255  1.00  0.00     0.074 A 
ATOM     55  C   UNL     1       8.077 -17.055  -8.099  1.00  0.00     0.029 A 
ATOM     56  N   UNL     1       7.348 -16.791  -6.015  1.00  0.00    -0.354 N 
ATOM     57  N   UNL     1       6.271 -17.706  -3.436  1.00  0.00    -0.248 NA
ATOM     58  C   UNL     1       5.348 -19.386  -2.104  1.00  0.00     0.031 C 
ATOM     59  C   UNL     1       7.594 -18.285  -7.639  1.00  0.00     0.029 A 
ATOM     60  C   UNL     1       7.166 -18.128  -6.331  1.00  0.00     0.049 A 
ATOM     61  H   UNL     1       7.125 -16.380  -5.148  1.00  0.00     0.167 HD
ATOM     62  C   UNL     1       6.240 -18.891  -4.158  1.00  0.00     0.074 A 
ATOM     63  C   UNL     1       5.694 -19.901  -3.275  1.00  0.00     0.031 C 
ATOM     64  C   UNL     1       6.629 -19.123  -5.436  1.00  0.00     0.037 A 
BRANCH  51  65
ATOM     65  C   UNL     1       8.716 -14.104  -8.393  1.00  0.00     0.064 A 
ATOM     66  C   UNL     1      10.025 -13.603  -8.476  1.00  0.00     0.173 A 
ATOM     67  C   UNL     1       7.916 -14.035  -9.543  1.00  0.00     0.173 A 
ATOM     68  F   UNL     1      10.829 -13.633  -7.402  1.00  0.00    -0.203 F 
ATOM     69  C   UNL     1      10.498 -13.019  -9.648  1.00  0.00     0.198 A 
ATOM     70  C   UNL     1       8.405 -13.484 -10.725  1.00  0.00     0.198 A 
ATOM     71  F   UNL     1       6.659 -14.504  -9.524  1.00  0.00    -0.203 F 
ATOM     72  F   UNL     1      11.729 -12.490  -9.681  1.00  0.00    -0.200 F 
ATOM     73  C   UNL     1       9.690 -12.966 -10.773  1.00  0.00     0.200 A 
ATOM     74  F   UNL     1       7.628 -13.446 -11.817  1.00  0.00    -0.200 F 
ATOM     75  F   UNL     1      10.147 -12.406 -11.902  1.00  0.00    -0.200 F 
ENDBRANCH  51  65
BRANCH  52  76
ATOM     76  C   UNL     1       5.073 -17.634   0.224  1.00  0.00     0.064 A 
ATOM     77  C   UNL     1       5.808 -18.562   0.975  1.00  0.00     0.173 A 
ATOM     78  C   UNL     1       3.823 -17.238   0.721  1.00  0.00     0.173 A 
ATOM     79  F   UNL     1       7.001 -18.986   0.532  1.00  0.00    -0.203 F 
ATOM     80  C   UNL     1       5.304 -19.092   2.160  1.00  0.00     0.198 A 
ATOM     81  C   UNL     1       3.333 -17.745   1.923  1.00  0.00     0.198 A 
ATOM     82  F   UNL     1       3.082 -16.347   0.046  1.00  0.00    -0.203 F 
ATOM     83  F   UNL     1       6.007 -20.014   2.832  1.00  0.00    -0.200 F 
ATOM     84  C   UNL     1       4.069 -18.679   2.637  1.00  0.00     0.200 A 
ATOM     85  F   UNL     1       2.147 -17.331   2.389  1.00  0.00    -0.200 F 
ATOM     86  F   UNL     1       3.586 -19.185   3.780  1.00  0.00    -0.200 F 
ENDBRANCH  52  76
BRANCH  64  87
ATOM     87  C   UNL     1       6.520 -20.533  -5.944  1.00  0.00     0.064 A 
ATOM     88  C   UNL     1       5.279 -21.133  -6.201  1.00  0.00     0.173 A 
ATOM     89  C   UNL     1       7.678 -21.280  -6.210  1.00  0.00     0.173 A 
ATOM     90  F   UNL     1       4.142 -20.468  -5.949  1.00  0.00    -0.203 F 
ATOM     91  C   UNL     1       5.201 -22.439  -6.678  1.00  0.00     0.198 A 
ATOM     92  C   UNL     1       7.597 -22.573  -6.720  1.00  0.00     0.198 A 
ATOM     93  F   UNL     1       8.891 -20.752  -5.987  1.00  0.00    -0.203 F 
ATOM     94  F   UNL     1       4.003 -23.011  -6.865  1.00  0.00    -0.200 F 
ATOM     95  C   UNL     1       6.359 -23.154  -6.945  1.00  0.00     0.200 A 
ATOM     96  F   UNL     1       8.718 -23.256  -6.992  1.00  0.00    -0.200 F 
ATOM     97  F   UNL     1       6.282 -24.408  -7.412  1.00  0.00    -0.200 F 
ENDBRANCH  64  87
ENDBRANCH  38  39
ENDBRANCH  30  33
ENDBRANCH  28  29
ENDBRANCH   1  28
TORSDOF 13
