REMARK SMILES O=C(CN1C(=O)N/C(=C/c2cc3c(cc2Cl)OCO3)C1=O)NCCCNC(=O)c1ccc(-c2c3nc(c(-c4c(F)c(F)c(F)c(F)c4F)c4ccc([nH]4)c(-c4c(F)c(F)c(F)c(F)c4F)c4nc(c(-c5c(F)c(F)c(F)c(F)c5F)c5ccc2[nH]5)C=C4)C=C3)cc1
REMARK SMILES IDX 24 1 23 2 22 3 1 4 2 5 3 7 4 8 5 9 20 10 6 11 7 12 8 13
REMARK SMILES IDX 21 14 9 16 10 17 11 18 15 19 12 20 14 21 16 22 13 23 19 24
REMARK SMILES IDX 17 25 18 26 25 27 26 28 27 29 28 31 29 32 30 33 91 34 31 35
REMARK SMILES IDX 90 36 32 37 33 38 34 39 84 40 35 41 89 42 83 43 85 44 36 45
REMARK SMILES IDX 88 46 82 47 81 48 37 50 69 51 49 52 68 53 50 54 53 55 67 56
REMARK SMILES IDX 86 57 51 58 52 59 66 61 87 62 54 63 38 64 39 65 47 66 40 67
REMARK SMILES IDX 41 68 45 69 48 70 42 71 43 72 46 73 44 74 70 75 71 76 79 77
REMARK SMILES IDX 72 78 73 79 77 80 80 81 74 82 75 83 78 84 76 85 55 86 56 87
REMARK SMILES IDX 64 88 57 89 58 90 62 91 65 92 59 93 60 94 63 95 61 96
REMARK H PARENT 22 6 7 15 26 30 85 49 53 60
REMARK Flexibility Score: inf
ROOT
ATOM      1  C   UNL     1       2.400   3.486  -0.657  1.00  0.00     0.042 C 
ENDROOT
BRANCH   1   2
ATOM      2  C   UNL     1       2.010   2.142  -1.266  1.00  0.00     0.117 C 
BRANCH   2   3
ATOM      3  N   UNL     1       2.671   1.035  -0.610  1.00  0.00    -0.354 N 
ATOM      4  O   UNL     1       0.807  -0.079   0.131  1.00  0.00    -0.273 OA
ATOM      5  C   UNL     1       2.026  -0.021   0.002  1.00  0.00     0.240 C 
ATOM      6  H   UNL     1       3.655   1.036  -0.599  1.00  0.00     0.163 HD
BRANCH   5   7
ATOM      7  C   UNL     1       2.972  -1.058   0.626  1.00  0.00     0.230 C 
BRANCH   7   8
ATOM      8  N   UNL     1       3.806  -1.707  -0.368  1.00  0.00    -0.249 N 
ATOM      9  C   UNL     1       3.788  -3.053  -0.658  1.00  0.00     0.329 C 
ATOM     10  C   UNL     1       4.802  -1.078  -1.062  1.00  0.00     0.278 C 
ATOM     11  O   UNL     1       3.069  -3.909  -0.174  1.00  0.00    -0.248 OA
ATOM     12  N   UNL     1       4.778  -3.296  -1.603  1.00  0.00    -0.303 N 
ATOM     13  C   UNL     1       5.420  -2.136  -1.922  1.00  0.00     0.109 C 
ATOM     14  O   UNL     1       5.100   0.105  -1.001  1.00  0.00    -0.267 OA
ATOM     15  H   UNL     1       4.986  -4.179  -1.986  1.00  0.00     0.172 HD
ATOM     16  C   UNL     1       6.373  -1.998  -2.852  1.00  0.00     0.042 C 
BRANCH  16  17
ATOM     17  C   UNL     1       6.899  -0.680  -3.243  1.00  0.00    -0.001 A 
ATOM     18  C   UNL     1       6.454  -0.164  -4.472  1.00  0.00     0.060 A 
ATOM     19  C   UNL     1       7.719   0.121  -2.406  1.00  0.00     0.052 A 
ATOM     20  C   UNL     1       6.784   1.136  -4.788  1.00  0.00     0.166 A 
ATOM     21  C   UNL     1       8.020   1.444  -2.749  1.00  0.00     0.071 A 
ATOM     22  Cl  UNL     1       8.364  -0.489  -0.919  1.00  0.00    -0.084 Cl
ATOM     23  C   UNL     1       7.527   1.924  -3.943  1.00  0.00     0.167 A 
ATOM     24  O   UNL     1       6.411   1.792  -5.918  1.00  0.00    -0.454 OA
ATOM     25  O   UNL     1       7.701   3.181  -4.427  1.00  0.00    -0.454 OA
ATOM     26  C   UNL     1       6.960   3.105  -5.665  1.00  0.00     0.468 C 
ENDBRANCH  16  17
ENDBRANCH   7   8
ENDBRANCH   5   7
ENDBRANCH   2   3
ENDBRANCH   1   2
BRANCH   1  27
ATOM     27  C   UNL     1       3.893   3.813  -0.704  1.00  0.00     0.118 C 
BRANCH  27  28
ATOM     28  N   UNL     1       4.396   3.996  -2.056  1.00  0.00    -0.352 N 
ATOM     29  C   UNL     1       4.990   5.079  -2.653  1.00  0.00     0.251 C 
ATOM     30  H   UNL     1       4.291   3.212  -2.642  1.00  0.00     0.163 HD
ATOM     31  O   UNL     1       5.111   5.092  -3.876  1.00  0.00    -0.269 OA
BRANCH  29  32
ATOM     32  C   UNL     1       5.472   6.246  -1.873  1.00  0.00     0.039 A 
ATOM     33  C   UNL     1       5.439   7.504  -2.486  1.00  0.00     0.014 A 
ATOM     34  C   UNL     1       6.013   6.128  -0.591  1.00  0.00     0.014 A 
ATOM     35  C   UNL     1       5.896   8.634  -1.804  1.00  0.00     0.010 A 
ATOM     36  C   UNL     1       6.383   7.269   0.126  1.00  0.00     0.010 A 
ATOM     37  C   UNL     1       6.344   8.535  -0.478  1.00  0.00    -0.014 A 
BRANCH  37  38
ATOM     38  C   UNL     1       6.789   9.747   0.263  1.00  0.00     0.031 A 
ATOM     39  C   UNL     1       8.212   9.876   0.737  1.00  0.00     0.074 A 
ATOM     40  C   UNL     1       5.906  10.732   0.522  1.00  0.00     0.049 A 
ATOM     41  N   UNL     1       8.785  10.862   1.384  1.00  0.00    -0.248 NA
ATOM     42  C   UNL     1       9.107   8.739   0.472  1.00  0.00     0.031 C 
ATOM     43  C   UNL     1       4.488  10.711   0.159  1.00  0.00     0.029 A 
ATOM     44  N   UNL     1       6.070  11.944   1.146  1.00  0.00    -0.354 N 
ATOM     45  C   UNL     1      10.096  10.460   1.607  1.00  0.00     0.074 A 
ATOM     46  C   UNL     1      10.218   9.116   1.086  1.00  0.00     0.031 C 
ATOM     47  C   UNL     1       3.921  11.869   0.532  1.00  0.00     0.029 A 
ATOM     48  C   UNL     1       4.922  12.699   1.195  1.00  0.00     0.049 A 
ATOM     49  H   UNL     1       6.928  12.244   1.524  1.00  0.00     0.167 HD
ATOM     50  C   UNL     1      11.114  11.156   2.168  1.00  0.00     0.037 A 
ATOM     51  C   UNL     1       4.702  13.922   1.714  1.00  0.00     0.037 A 
ATOM     52  C   UNL     1      10.995  12.500   2.674  1.00  0.00     0.049 A 
ATOM     53  C   UNL     1       5.848  14.671   2.339  1.00  0.00     0.074 A 
ATOM     54  C   UNL     1      11.977  13.307   3.223  1.00  0.00     0.029 A 
ATOM     55  N   UNL     1       9.817  13.234   2.698  1.00  0.00    -0.354 N 
ATOM     56  N   UNL     1       7.100  14.307   2.480  1.00  0.00    -0.248 NA
ATOM     57  C   UNL     1       5.552  16.011   2.864  1.00  0.00     0.031 C 
ATOM     58  C   UNL     1      11.382  14.506   3.631  1.00  0.00     0.029 A 
ATOM     59  C   UNL     1      10.045  14.476   3.271  1.00  0.00     0.049 A 
ATOM     60  H   UNL     1       8.948  12.919   2.359  1.00  0.00     0.167 HD
ATOM     61  C   UNL     1       7.748  15.385   3.070  1.00  0.00     0.074 A 
ATOM     62  C   UNL     1       6.752  16.422   3.247  1.00  0.00     0.031 C 
ATOM     63  C   UNL     1       9.050  15.507   3.429  1.00  0.00     0.037 A 
BRANCH  50  64
ATOM     64  C   UNL     1      12.451  10.474   2.268  1.00  0.00     0.064 A 
ATOM     65  C   UNL     1      13.213  10.172   1.129  1.00  0.00     0.173 A 
ATOM     66  C   UNL     1      12.992  10.146   3.521  1.00  0.00     0.173 A 
ATOM     67  F   UNL     1      12.740  10.454  -0.095  1.00  0.00    -0.203 F 
ATOM     68  C   UNL     1      14.447   9.537   1.237  1.00  0.00     0.198 A 
ATOM     69  C   UNL     1      14.243   9.544   3.627  1.00  0.00     0.198 A 
ATOM     70  F   UNL     1      12.312  10.418   4.645  1.00  0.00    -0.203 F 
ATOM     71  F   UNL     1      15.129   9.206   0.131  1.00  0.00    -0.200 F 
ATOM     72  C   UNL     1      14.965   9.230   2.486  1.00  0.00     0.200 A 
ATOM     73  F   UNL     1      14.749   9.264   4.837  1.00  0.00    -0.200 F 
ATOM     74  F   UNL     1      16.156   8.625   2.590  1.00  0.00    -0.200 F 
ENDBRANCH  50  64
BRANCH  51  75
ATOM     75  C   UNL     1       3.347  14.532   1.637  1.00  0.00     0.064 A 
ATOM     76  C   UNL     1       3.107  15.662   0.841  1.00  0.00     0.173 A 
ATOM     77  C   UNL     1       2.271  14.012   2.369  1.00  0.00     0.173 A 
ATOM     78  F   UNL     1       4.108  16.210   0.136  1.00  0.00    -0.203 F 
ATOM     79  C   UNL     1       1.851  16.265   0.806  1.00  0.00     0.198 A 
ATOM     80  C   UNL     1       1.007  14.596   2.306  1.00  0.00     0.198 A 
ATOM     81  F   UNL     1       2.444  12.929   3.141  1.00  0.00    -0.203 F 
ATOM     82  F   UNL     1       1.666  17.378   0.083  1.00  0.00    -0.200 F 
ATOM     83  C   UNL     1       0.801  15.729   1.534  1.00  0.00     0.200 A 
ATOM     84  F   UNL     1      -0.010  14.064   2.999  1.00  0.00    -0.200 F 
ATOM     85  F   UNL     1      -0.407  16.308   1.499  1.00  0.00    -0.200 F 
ENDBRANCH  51  75
BRANCH  63  86
ATOM     86  C   UNL     1       9.490  16.830   3.991  1.00  0.00     0.064 A 
ATOM     87  C   UNL     1       9.062  17.287   5.247  1.00  0.00     0.173 A 
ATOM     88  C   UNL     1      10.370  17.647   3.264  1.00  0.00     0.173 A 
ATOM     89  F   UNL     1       8.212  16.552   5.980  1.00  0.00    -0.203 F 
ATOM     90  C   UNL     1       9.463  18.530   5.732  1.00  0.00     0.198 A 
ATOM     91  C   UNL     1      10.800  18.870   3.769  1.00  0.00     0.198 A 
ATOM     92  F   UNL     1      10.820  17.255   2.062  1.00  0.00    -0.203 F 
ATOM     93  F   UNL     1       8.986  18.975   6.903  1.00  0.00    -0.200 F 
ATOM     94  C   UNL     1      10.336  19.317   4.996  1.00  0.00     0.200 A 
ATOM     95  F   UNL     1      11.658  19.620   3.064  1.00  0.00    -0.200 F 
ATOM     96  F   UNL     1      10.722  20.511   5.466  1.00  0.00    -0.200 F 
ENDBRANCH  63  86
ENDBRANCH  37  38
ENDBRANCH  29  32
ENDBRANCH  27  28
ENDBRANCH   1  27
TORSDOF 12
