REMARK SMILES O=C(NCCCNC(=O)c1cc(Cl)ncc1-c1cccc(C(F)(F)F)c1)c1ccc(-c2c3nc(c(-c4c(F)c(F)c(F)c(F)c4F)c4ccc([nH]4)c(-c4c(F)c(F)c(F)c(F)c4F)c4nc(c(-c5c(F)c(F)c(F)c(F)c5F)c5ccc2[nH]5)C=C4)C=C3)cc1
REMARK SMILES IDX 5 1 4 2 3 3 1 4 2 5 27 7 28 8 89 9 29 10 88 11 30 12 31 13
REMARK SMILES IDX 32 14 82 15 33 16 87 17 81 18 83 19 34 20 86 21 80 22 79 23
REMARK SMILES IDX 35 25 67 26 47 27 66 28 48 29 51 30 65 31 84 32 49 33 50 34
REMARK SMILES IDX 64 36 85 37 52 38 36 39 37 40 45 41 38 42 39 43 43 44 46 45
REMARK SMILES IDX 40 46 41 47 44 48 42 49 68 50 69 51 77 52 70 53 71 54 75 55
REMARK SMILES IDX 78 56 72 57 73 58 76 59 74 60 53 61 54 62 62 63 55 64 56 65
REMARK SMILES IDX 60 66 63 67 57 68 58 69 61 70 59 71 6 72 7 73 8 74 9 76
REMARK SMILES IDX 10 77 11 78 16 79 12 80 15 81 13 82 14 83 17 84 18 85 26 86
REMARK SMILES IDX 19 87 21 88 20 89 22 90 23 91 24 92 25 93
REMARK H PARENT 3 6 83 24 51 35 7 75
REMARK Flexibility Score: inf
ROOT
ATOM      1  C   UNL     1       4.894  -2.092   1.337  1.00  0.00     0.042 C 
ENDROOT
BRANCH   1   2
ATOM      2  C   UNL     1       4.501  -1.467   0.007  1.00  0.00     0.118 C 
BRANCH   2   3
ATOM      3  N   UNL     1       3.067  -1.230  -0.109  1.00  0.00    -0.352 N 
ATOM      4  O   UNL     1       1.128  -0.089  -0.071  1.00  0.00    -0.269 OA
ATOM      5  C   UNL     1       2.353  -0.057  -0.142  1.00  0.00     0.251 C 
ATOM      6  H   UNL     1       2.520  -2.046  -0.174  1.00  0.00     0.163 HD
BRANCH   5   7
ATOM      7  C   UNL     1       3.047   1.245  -0.241  1.00  0.00     0.039 A 
ATOM      8  C   UNL     1       4.150   1.407  -1.079  1.00  0.00     0.014 A 
ATOM      9  C   UNL     1       2.568   2.334   0.495  1.00  0.00     0.014 A 
ATOM     10  C   UNL     1       4.877   2.590  -1.048  1.00  0.00     0.010 A 
ATOM     11  C   UNL     1       3.235   3.562   0.438  1.00  0.00     0.010 A 
ATOM     12  C   UNL     1       4.416   3.690  -0.308  1.00  0.00    -0.014 A 
BRANCH  12  13
ATOM     13  C   UNL     1       5.151   4.977  -0.395  1.00  0.00     0.031 A 
ATOM     14  C   UNL     1       5.804   5.588   0.812  1.00  0.00     0.074 A 
ATOM     15  C   UNL     1       5.251   5.578  -1.597  1.00  0.00     0.049 A 
ATOM     16  N   UNL     1       6.498   6.696   0.901  1.00  0.00    -0.248 NA
ATOM     17  C   UNL     1       5.656   4.870   2.087  1.00  0.00     0.031 C 
ATOM     18  C   UNL     1       4.649   5.083  -2.837  1.00  0.00     0.029 A 
ATOM     19  N   UNL     1       5.907   6.720  -1.982  1.00  0.00    -0.354 N 
ATOM     20  C   UNL     1       6.854   6.817   2.238  1.00  0.00     0.074 A 
ATOM     21  C   UNL     1       6.275   5.685   2.931  1.00  0.00     0.031 C 
ATOM     22  C   UNL     1       5.002   5.885  -3.851  1.00  0.00     0.029 A 
ATOM     23  C   UNL     1       5.793   6.990  -3.323  1.00  0.00     0.049 A 
ATOM     24  H   UNL     1       6.410   7.290  -1.357  1.00  0.00     0.167 HD
ATOM     25  C   UNL     1       7.602   7.781   2.827  1.00  0.00     0.037 A 
ATOM     26  C   UNL     1       6.253   8.025  -4.048  1.00  0.00     0.037 A 
ATOM     27  C   UNL     1       8.183   8.899   2.126  1.00  0.00     0.049 A 
ATOM     28  C   UNL     1       7.048   9.096  -3.360  1.00  0.00     0.074 A 
ATOM     29  C   UNL     1       8.987   9.909   2.627  1.00  0.00     0.029 A 
ATOM     30  N   UNL     1       8.016   9.159   0.773  1.00  0.00    -0.354 N 
ATOM     31  N   UNL     1       7.410   9.179  -2.103  1.00  0.00    -0.248 NA
ATOM     32  C   UNL     1       7.497  10.220  -4.191  1.00  0.00     0.031 C 
ATOM     33  C   UNL     1       9.259  10.808   1.591  1.00  0.00     0.029 A 
ATOM     34  C   UNL     1       8.677  10.328   0.429  1.00  0.00     0.049 A 
ATOM     35  H   UNL     1       7.503   8.595   0.149  1.00  0.00     0.167 HD
ATOM     36  C   UNL     1       8.143  10.351  -1.994  1.00  0.00     0.074 A 
ATOM     37  C   UNL     1       8.195  10.934  -3.319  1.00  0.00     0.031 C 
ATOM     38  C   UNL     1       8.718  10.897  -0.895  1.00  0.00     0.037 A 
BRANCH  25  39
ATOM     39  C   UNL     1       7.823   7.688   4.311  1.00  0.00     0.064 A 
ATOM     40  C   UNL     1       8.644   6.701   4.877  1.00  0.00     0.173 A 
ATOM     41  C   UNL     1       7.245   8.631   5.175  1.00  0.00     0.173 A 
ATOM     42  F   UNL     1       9.213   5.768   4.098  1.00  0.00    -0.203 F 
ATOM     43  C   UNL     1       8.859   6.647   6.252  1.00  0.00     0.198 A 
ATOM     44  C   UNL     1       7.486   8.593   6.547  1.00  0.00     0.198 A 
ATOM     45  F   UNL     1       6.458   9.602   4.688  1.00  0.00    -0.203 F 
ATOM     46  F   UNL     1       9.612   5.669   6.774  1.00  0.00    -0.200 F 
ATOM     47  C   UNL     1       8.287   7.598   7.085  1.00  0.00     0.200 A 
ATOM     48  F   UNL     1       6.944   9.521   7.347  1.00  0.00    -0.200 F 
ATOM     49  F   UNL     1       8.502   7.550   8.407  1.00  0.00    -0.200 F 
ENDBRANCH  25  39
BRANCH  26  50
ATOM     50  C   UNL     1       5.959   8.096  -5.503  1.00  0.00     0.064 A 
ATOM     51  C   UNL     1       6.979   7.965  -6.454  1.00  0.00     0.173 A 
ATOM     52  C   UNL     1       4.650   8.285  -5.971  1.00  0.00     0.173 A 
ATOM     53  F   UNL     1       8.249   7.800  -6.057  1.00  0.00    -0.203 F 
ATOM     54  C   UNL     1       6.703   8.039  -7.818  1.00  0.00     0.198 A 
ATOM     55  C   UNL     1       4.370   8.325  -7.334  1.00  0.00     0.198 A 
ATOM     56  F   UNL     1       3.636   8.409  -5.100  1.00  0.00    -0.203 F 
ATOM     57  F   UNL     1       7.702   7.956  -8.707  1.00  0.00    -0.200 F 
ATOM     58  C   UNL     1       5.398   8.211  -8.257  1.00  0.00     0.200 A 
ATOM     59  F   UNL     1       3.106   8.471  -7.752  1.00  0.00    -0.200 F 
ATOM     60  F   UNL     1       5.133   8.273  -9.568  1.00  0.00    -0.200 F 
ENDBRANCH  26  50
BRANCH  38  61
ATOM     61  C   UNL     1       9.480  12.176  -1.088  1.00  0.00     0.064 A 
ATOM     62  C   UNL     1       8.828  13.388  -1.361  1.00  0.00     0.173 A 
ATOM     63  C   UNL     1      10.878  12.193  -0.976  1.00  0.00     0.173 A 
ATOM     64  F   UNL     1       7.494  13.421  -1.496  1.00  0.00    -0.203 F 
ATOM     65  C   UNL     1       9.551  14.564  -1.544  1.00  0.00     0.198 A 
ATOM     66  C   UNL     1      11.595  13.377  -1.126  1.00  0.00     0.198 A 
ATOM     67  F   UNL     1      11.550  11.062  -0.711  1.00  0.00    -0.203 F 
ATOM     68  F   UNL     1       8.911  15.699  -1.859  1.00  0.00    -0.200 F 
ATOM     69  C   UNL     1      10.932  14.559  -1.419  1.00  0.00     0.200 A 
ATOM     70  F   UNL     1      12.928  13.372  -0.992  1.00  0.00    -0.200 F 
ATOM     71  F   UNL     1      11.626  15.692  -1.590  1.00  0.00    -0.200 F 
ENDBRANCH  38  61
ENDBRANCH  12  13
ENDBRANCH   5   7
ENDBRANCH   2   3
ENDBRANCH   1   2
BRANCH   1  72
ATOM     72  C   UNL     1       4.326  -3.485   1.555  1.00  0.00     0.118 C 
BRANCH  72  73
ATOM     73  N   UNL     1       4.805  -4.449   0.572  1.00  0.00    -0.352 N 
ATOM     74  C   UNL     1       5.637  -5.531   0.717  1.00  0.00     0.252 C 
ATOM     75  H   UNL     1       4.479  -4.299  -0.344  1.00  0.00     0.163 HD
ATOM     76  O   UNL     1       5.966  -6.186  -0.268  1.00  0.00    -0.269 OA
BRANCH  74  77
ATOM     77  C   UNL     1       6.114  -5.913   2.061  1.00  0.00     0.052 A 
ATOM     78  C   UNL     1       5.145  -6.158   3.041  1.00  0.00     0.055 A 
ATOM     79  C   UNL     1       7.481  -6.078   2.344  1.00  0.00     0.013 A 
ATOM     80  C   UNL     1       5.578  -6.448   4.313  1.00  0.00     0.129 A 
ATOM     81  C   UNL     1       7.780  -6.388   3.673  1.00  0.00     0.122 A 
ATOM     82  Cl  UNL     1       4.461  -6.655   5.595  1.00  0.00    -0.062 Cl
ATOM     83  N   UNL     1       6.870  -6.553   4.663  1.00  0.00    -0.244 NA
BRANCH  79  84
ATOM     84  C   UNL     1       8.571  -5.974   1.360  1.00  0.00    -0.015 A 
ATOM     85  C   UNL     1       9.398  -7.085   1.111  1.00  0.00     0.009 A 
ATOM     86  C   UNL     1       8.838  -4.784   0.662  1.00  0.00     0.021 A 
ATOM     87  C   UNL     1      10.456  -7.013   0.204  1.00  0.00     0.001 A 
ATOM     88  C   UNL     1       9.896  -4.701  -0.263  1.00  0.00     0.056 A 
ATOM     89  C   UNL     1      10.706  -5.827  -0.478  1.00  0.00     0.013 A 
BRANCH  88  90
ATOM     90  C   UNL     1      10.176  -3.427  -1.020  1.00  0.00     0.416 C 
ATOM     91  F   UNL     1      11.396  -2.901  -0.716  1.00  0.00    -0.166 F 
ATOM     92  F   UNL     1      10.172  -3.604  -2.370  1.00  0.00    -0.166 F 
ATOM     93  F   UNL     1       9.273  -2.436  -0.771  1.00  0.00    -0.166 F 
ENDBRANCH  88  90
ENDBRANCH  79  84
ENDBRANCH  74  77
ENDBRANCH  72  73
ENDBRANCH   1  72
TORSDOF 12
