REMARK SMILES C[C@@H](C(=O)NCCCNC(=O)c1ccc(-c2c3nc(c(-c4c(F)c(F)c(F)c(F)c4F)c4ccc([nH]4)c(-c4c(F)c(F)c(F)c(F)c4F)c4nc(c(-c5c(F)c(F)c(F)c(F)c5F)c5ccc2[nH]5)C=C4)C=C3)cc1)n1ccc(C(=O)N2CC[NH+](Cc3cccc(F)c3)CC2)n1
REMARK SMILES IDX 6 1 5 2 3 3 4 4 2 6 1 7 75 8 76 9 95 10 77 11 78 12 79 13
REMARK SMILES IDX 80 14 81 15 82 16 94 17 83 18 93 19 84 20 85 22 86 23 87 24
REMARK SMILES IDX 92 25 88 26 90 27 89 28 91 29 7 30 8 31 9 32 10 33 11 35
REMARK SMILES IDX 12 36 13 37 74 38 14 39 73 40 15 41 16 42 17 43 67 44 18 45
REMARK SMILES IDX 72 46 66 47 68 48 19 49 71 50 65 51 64 52 20 54 52 55 32 56
REMARK SMILES IDX 51 57 33 58 36 59 50 60 69 61 34 62 35 63 49 65 70 66 37 67
REMARK SMILES IDX 21 68 22 69 30 70 23 71 24 72 28 73 31 74 25 75 26 76 29 77
REMARK SMILES IDX 27 78 53 79 54 80 62 81 55 82 56 83 60 84 63 85 57 86 58 87
REMARK SMILES IDX 61 88 59 89 38 90 39 91 47 92 40 93 41 94 45 95 48 96 42 97
REMARK SMILES IDX 43 98 46 99 44 100
REMARK H PARENT 5 5 84 21 9 34 68 53 36 64
REMARK Flexibility Score: inf
ROOT
ATOM      1  C   UNL     1       3.367   0.913  -1.975  1.00  0.00     0.117 C 
ENDROOT
BRANCH   1   2
ATOM      2  N   UNL     1       2.353   0.213  -2.743  1.00  0.00    -0.354 N 
ATOM      3  C   UNL     1       1.043  -0.055  -2.448  1.00  0.00     0.244 C 
ATOM      4  O   UNL     1       0.426  -0.740  -3.266  1.00  0.00    -0.273 OA
ATOM      5  H   UNL     1       2.656  -0.124  -3.617  1.00  0.00     0.163 HD
BRANCH   3   6
ATOM      6  C   UNL     1       0.433   0.467  -1.153  1.00  0.00     0.193 C 
ATOM      7  C   UNL     1       0.825  -0.386   0.051  1.00  0.00     0.044 C 
BRANCH   6   8
ATOM      8  N   UNL     1      -1.025   0.585  -1.237  1.00  0.00    -0.260 N 
ATOM      9  C   UNL     1      -1.940  -0.414  -1.403  1.00  0.00     0.110 A 
ATOM     10  N   UNL     1      -1.587   1.768  -0.916  1.00  0.00    -0.167 NA
ATOM     11  C   UNL     1      -3.168   0.150  -1.160  1.00  0.00     0.056 A 
ATOM     12  C   UNL     1      -2.909   1.515  -0.863  1.00  0.00     0.150 A 
BRANCH  12  13
ATOM     13  C   UNL     1      -3.902   2.510  -0.424  1.00  0.00     0.274 C 
ATOM     14  O   UNL     1      -4.876   2.153   0.243  1.00  0.00    -0.267 OA
ATOM     15  N   UNL     1      -3.709   3.857  -0.768  1.00  0.00    -0.326 N 
ATOM     16  C   UNL     1      -4.636   4.813  -0.178  1.00  0.00     0.181 C 
ATOM     17  C   UNL     1      -3.067   4.255  -2.024  1.00  0.00     0.181 C 
ATOM     18  C   UNL     1      -4.183   6.278  -0.282  1.00  0.00     0.284 C 
ATOM     19  C   UNL     1      -2.665   5.740  -2.085  1.00  0.00     0.284 C 
ATOM     20  N   UNL     1      -3.649   6.701  -1.581  1.00  0.00    -0.328 N 
ATOM     21  H   UNL     1      -3.133   7.564  -1.407  1.00  0.00     0.348 HD
BRANCH  20  22
ATOM     22  C   UNL     1      -4.620   7.216  -2.549  1.00  0.00     0.299 C 
BRANCH  22  23
ATOM     23  C   UNL     1      -5.598   6.241  -3.159  1.00  0.00     0.009 A 
ATOM     24  C   UNL     1      -5.300   5.584  -4.365  1.00  0.00     0.010 A 
ATOM     25  C   UNL     1      -6.827   5.976  -2.539  1.00  0.00     0.048 A 
ATOM     26  C   UNL     1      -6.180   4.640  -4.903  1.00  0.00     0.004 A 
ATOM     27  C   UNL     1      -7.692   5.029  -3.078  1.00  0.00     0.123 A 
ATOM     28  C   UNL     1      -7.376   4.353  -4.249  1.00  0.00     0.039 A 
ATOM     29  F   UNL     1      -8.844   4.758  -2.450  1.00  0.00    -0.207 F 
ENDBRANCH  22  23
ENDBRANCH  20  22
ENDBRANCH  12  13
ENDBRANCH   6   8
ENDBRANCH   3   6
ENDBRANCH   1   2
BRANCH   1  30
ATOM     30  C   UNL     1       4.351  -0.045  -1.307  1.00  0.00     0.042 C 
BRANCH  30  31
ATOM     31  C   UNL     1       5.111  -0.958  -2.265  1.00  0.00     0.118 C 
BRANCH  31  32
ATOM     32  N   UNL     1       5.998  -0.234  -3.158  1.00  0.00    -0.352 N 
ATOM     33  C   UNL     1       7.320  -0.451  -3.455  1.00  0.00     0.251 C 
ATOM     34  H   UNL     1       5.588   0.530  -3.623  1.00  0.00     0.163 HD
ATOM     35  O   UNL     1       7.924   0.368  -4.143  1.00  0.00    -0.269 OA
BRANCH  33  36
ATOM     36  C   UNL     1       8.039  -1.638  -2.937  1.00  0.00     0.039 A 
ATOM     37  C   UNL     1       9.346  -1.466  -2.467  1.00  0.00     0.014 A 
ATOM     38  C   UNL     1       7.469  -2.915  -2.951  1.00  0.00     0.014 A 
ATOM     39  C   UNL     1      10.058  -2.557  -1.963  1.00  0.00     0.010 A 
ATOM     40  C   UNL     1       8.161  -3.996  -2.400  1.00  0.00     0.010 A 
ATOM     41  C   UNL     1       9.461  -3.826  -1.901  1.00  0.00    -0.014 A 
BRANCH  41  42
ATOM     42  C   UNL     1      10.190  -4.974  -1.308  1.00  0.00     0.031 A 
ATOM     43  C   UNL     1      10.664  -6.108  -2.172  1.00  0.00     0.074 A 
ATOM     44  C   UNL     1      10.394  -5.013   0.022  1.00  0.00     0.049 A 
ATOM     45  N   UNL     1      11.290  -7.205  -1.825  1.00  0.00    -0.248 NA
ATOM     46  C   UNL     1      10.381  -6.006  -3.611  1.00  0.00     0.031 C 
ATOM     47  C   UNL     1       9.943  -3.998   0.975  1.00  0.00     0.029 A 
ATOM     48  N   UNL     1      11.028  -5.946   0.803  1.00  0.00    -0.354 N 
ATOM     49  C   UNL     1      11.466  -7.927  -2.998  1.00  0.00     0.074 A 
ATOM     50  C   UNL     1      10.851  -7.161  -4.062  1.00  0.00     0.031 C 
ATOM     51  C   UNL     1      10.326  -4.356   2.211  1.00  0.00     0.029 A 
ATOM     52  C   UNL     1      11.032  -5.632   2.140  1.00  0.00     0.049 A 
ATOM     53  H   UNL     1      11.440  -6.763   0.440  1.00  0.00     0.167 HD
ATOM     54  C   UNL     1      12.098  -9.112  -3.174  1.00  0.00     0.037 A 
ATOM     55  C   UNL     1      11.549  -6.298   3.189  1.00  0.00     0.037 A 
ATOM     56  C   UNL     1      12.734  -9.864  -2.124  1.00  0.00     0.049 A 
ATOM     57  C   UNL     1      12.276  -7.592   2.961  1.00  0.00     0.074 A 
ATOM     58  C   UNL     1      13.437 -11.053  -2.217  1.00  0.00     0.029 A 
ATOM     59  N   UNL     1      12.748  -9.495  -0.788  1.00  0.00    -0.354 N 
ATOM     60  N   UNL     1      12.476  -8.240   1.840  1.00  0.00    -0.248 NA
ATOM     61  C   UNL     1      12.857  -8.243   4.144  1.00  0.00     0.031 C 
ATOM     62  C   UNL     1      13.859 -11.415  -0.932  1.00  0.00     0.029 A 
ATOM     63  C   UNL     1      13.441 -10.437  -0.045  1.00  0.00     0.049 A 
ATOM     64  H   UNL     1      12.328  -8.684  -0.422  1.00  0.00     0.167 HD
ATOM     65  C   UNL     1      13.214  -9.365   2.178  1.00  0.00     0.074 A 
ATOM     66  C   UNL     1      13.443  -9.304   3.607  1.00  0.00     0.031 C 
ATOM     67  C   UNL     1      13.658 -10.362   1.375  1.00  0.00     0.037 A 
BRANCH  54  68
ATOM     68  C   UNL     1      12.143  -9.668  -4.564  1.00  0.00     0.064 A 
ATOM     69  C   UNL     1      13.004  -9.135  -5.535  1.00  0.00     0.173 A 
ATOM     70  C   UNL     1      11.352 -10.771  -4.918  1.00  0.00     0.173 A 
ATOM     71  F   UNL     1      13.770  -8.072  -5.246  1.00  0.00    -0.203 F 
ATOM     72  C   UNL     1      13.057  -9.675  -6.816  1.00  0.00     0.198 A 
ATOM     73  C   UNL     1      11.423 -11.321  -6.194  1.00  0.00     0.198 A 
ATOM     74  F   UNL     1      10.515 -11.318  -4.023  1.00  0.00    -0.203 F 
ATOM     75  F   UNL     1      13.862  -9.129  -7.738  1.00  0.00    -0.200 F 
ATOM     76  C   UNL     1      12.272 -10.771  -7.143  1.00  0.00     0.200 A 
ATOM     77  F   UNL     1      10.669 -12.384  -6.508  1.00  0.00    -0.200 F 
ATOM     78  F   UNL     1      12.329 -11.293  -8.376  1.00  0.00    -0.200 F 
ENDBRANCH  54  68
BRANCH  55  79
ATOM     79  C   UNL     1      11.418  -5.732   4.554  1.00  0.00     0.064 A 
ATOM     80  C   UNL     1      12.517  -5.145   5.195  1.00  0.00     0.173 A 
ATOM     81  C   UNL     1      10.196  -5.762   5.238  1.00  0.00     0.173 A 
ATOM     82  F   UNL     1      13.710  -5.114   4.584  1.00  0.00    -0.203 F 
ATOM     83  C   UNL     1      12.401  -4.619   6.479  1.00  0.00     0.198 A 
ATOM     84  C   UNL     1      10.076  -5.218   6.515  1.00  0.00     0.198 A 
ATOM     85  F   UNL     1       9.116  -6.310   4.662  1.00  0.00    -0.203 F 
ATOM     86  F   UNL     1      13.473  -4.091   7.084  1.00  0.00    -0.200 F 
ATOM     87  C   UNL     1      11.179  -4.651   7.136  1.00  0.00     0.200 A 
ATOM     88  F   UNL     1       8.893  -5.242   7.143  1.00  0.00    -0.200 F 
ATOM     89  F   UNL     1      11.067  -4.142   8.370  1.00  0.00    -0.200 F 
ENDBRANCH  55  79
BRANCH  67  90
ATOM     90  C   UNL     1      14.444 -11.459   2.025  1.00  0.00     0.064 A 
ATOM     91  C   UNL     1      13.812 -12.455   2.784  1.00  0.00     0.173 A 
ATOM     92  C   UNL     1      15.835 -11.530   1.868  1.00  0.00     0.173 A 
ATOM     93  F   UNL     1      12.485 -12.418   2.974  1.00  0.00    -0.203 F 
ATOM     94  C   UNL     1      14.550 -13.474   3.379  1.00  0.00     0.198 A 
ATOM     95  C   UNL     1      16.568 -12.561   2.449  1.00  0.00     0.198 A 
ATOM     96  F   UNL     1      16.482 -10.600   1.150  1.00  0.00    -0.203 F 
ATOM     97  F   UNL     1      13.932 -14.395   4.131  1.00  0.00    -0.200 F 
ATOM     98  C   UNL     1      15.926 -13.529   3.208  1.00  0.00     0.200 A 
ATOM     99  F   UNL     1      17.896 -12.615   2.281  1.00  0.00    -0.200 F 
ATOM    100  F   UNL     1      16.635 -14.510   3.783  1.00  0.00    -0.200 F 
ENDBRANCH  67  90
ENDBRANCH  41  42
ENDBRANCH  33  36
ENDBRANCH  31  32
ENDBRANCH  30  31
ENDBRANCH   1  30
TORSDOF 14
