REMARK SMILES Cc1cccc(-c2c(C(=O)NCCCNC(=O)c3ccc(-c4c5nc(c(-c6c(F)c(F)c(F)c(F)c6F)c6ccc([nH]6)c(-c6c(F)c(F)c(F)c(F)c6F)c6nc(c(-c7c(F)c(F)c(F)c(F)c7F)c7ccc4[nH]7)C=C6)C=C5)cc3)nnn2Cc2cc(F)cc(F)c2)c1
REMARK SMILES IDX 13 1 12 2 11 3 9 4 10 5 8 7 7 8 83 9 81 10 82 11 6 12 1 13
REMARK SMILES IDX 2 14 3 15 93 16 4 17 5 18 84 19 85 20 86 21 92 22 87 23
REMARK SMILES IDX 90 24 88 25 89 26 91 27 14 28 15 29 16 30 17 32 18 33 19 34
REMARK SMILES IDX 80 35 20 36 79 37 21 38 22 39 23 40 73 41 24 42 78 43 72 44
REMARK SMILES IDX 74 45 25 46 77 47 71 48 70 49 26 51 58 52 38 53 57 54 39 55
REMARK SMILES IDX 42 56 56 57 75 58 40 59 41 60 55 62 76 63 43 64 27 65 28 66
REMARK SMILES IDX 36 67 29 68 30 69 34 70 37 71 31 72 32 73 35 74 33 75 59 76
REMARK SMILES IDX 60 77 68 78 61 79 62 80 66 81 69 82 63 83 64 84 67 85 65 86
REMARK SMILES IDX 44 87 45 88 53 89 46 90 47 91 51 92 54 93 48 94 49 95 52 96
REMARK SMILES IDX 50 97
REMARK H PARENT 11 6 15 31 74 50 42 61
REMARK Flexibility Score: inf
ROOT
ATOM      1  C   UNL     1      -1.240   0.348   2.747  1.00  0.00     0.042 C 
ENDROOT
BRANCH   1   2
ATOM      2  C   UNL     1      -2.727   0.368   2.442  1.00  0.00     0.118 C 
BRANCH   2   3
ATOM      3  N   UNL     1      -3.282   1.668   2.725  1.00  0.00    -0.351 N 
ATOM      4  C   UNL     1      -3.281   2.881   2.094  1.00  0.00     0.274 C 
ATOM      5  O   UNL     1      -3.849   3.760   2.757  1.00  0.00    -0.267 OA
ATOM      6  H   UNL     1      -3.780   1.687   3.575  1.00  0.00     0.163 HD
BRANCH   4   7
ATOM      7  C   UNL     1      -2.726   3.205   0.772  1.00  0.00     0.178 A 
ATOM      8  C   UNL     1      -1.871   2.631  -0.178  1.00  0.00     0.102 A 
ATOM      9  N   UNL     1      -1.855   3.575  -1.197  1.00  0.00    -0.239 N 
ATOM     10  N   UNL     1      -3.106   4.454   0.287  1.00  0.00    -0.124 NA
ATOM     11  N   UNL     1      -2.570   4.659  -0.894  1.00  0.00    -0.066 NA
BRANCH   8  12
ATOM     12  C   UNL     1      -1.099   1.399  -0.319  1.00  0.00     0.003 A 
ATOM     13  C   UNL     1       2.529   0.214  -0.065  1.00  0.00     0.044 C 
ATOM     14  C   UNL     1       1.049   0.233  -0.319  1.00  0.00    -0.050 A 
ATOM     15  C   UNL     1       0.394  -0.957  -0.661  1.00  0.00     0.003 A 
ATOM     16  C   UNL     1       0.297   1.409  -0.153  1.00  0.00     0.013 A 
ATOM     17  C   UNL     1      -0.985  -0.968  -0.866  1.00  0.00     0.001 A 
ATOM     18  C   UNL     1      -1.723   0.206  -0.710  1.00  0.00     0.010 A 
ENDBRANCH   8  12
BRANCH   9  19
ATOM     19  C   UNL     1      -1.175   3.543  -2.489  1.00  0.00     0.182 C 
BRANCH  19  20
ATOM     20  C   UNL     1      -1.593   2.399  -3.385  1.00  0.00    -0.021 A 
ATOM     21  C   UNL     1      -0.674   1.902  -4.322  1.00  0.00     0.045 A 
ATOM     22  C   UNL     1      -2.867   1.810  -3.329  1.00  0.00     0.045 A 
ATOM     23  C   UNL     1      -1.002   0.803  -5.114  1.00  0.00     0.126 A 
ATOM     24  C   UNL     1      -3.157   0.689  -4.104  1.00  0.00     0.126 A 
ATOM     25  F   UNL     1      -0.104   0.339  -5.993  1.00  0.00    -0.207 F 
ATOM     26  C   UNL     1      -2.231   0.173  -4.997  1.00  0.00     0.078 A 
ATOM     27  F   UNL     1      -4.341   0.082  -3.957  1.00  0.00    -0.207 F 
ENDBRANCH  19  20
ENDBRANCH   9  19
ENDBRANCH   4   7
ENDBRANCH   2   3
ENDBRANCH   1   2
BRANCH   1  28
ATOM     28  C   UNL     1      -0.800  -0.762   3.671  1.00  0.00     0.118 C 
BRANCH  28  29
ATOM     29  N   UNL     1      -0.437  -2.011   3.007  1.00  0.00    -0.352 N 
ATOM     30  C   UNL     1      -0.021  -3.209   3.583  1.00  0.00     0.251 C 
ATOM     31  H   UNL     1      -0.494  -2.006   2.024  1.00  0.00     0.163 HD
ATOM     32  O   UNL     1       0.273  -4.167   2.900  1.00  0.00    -0.269 OA
BRANCH  30  33
ATOM     33  C   UNL     1      -0.087  -3.324   5.064  1.00  0.00     0.039 A 
ATOM     34  C   UNL     1      -0.890  -4.339   5.593  1.00  0.00     0.014 A 
ATOM     35  C   UNL     1       0.304  -2.249   5.850  1.00  0.00     0.014 A 
ATOM     36  C   UNL     1      -1.555  -4.107   6.793  1.00  0.00     0.010 A 
ATOM     37  C   UNL     1      -0.477  -1.946   6.943  1.00  0.00     0.010 A 
ATOM     38  C   UNL     1      -1.464  -2.845   7.371  1.00  0.00    -0.014 A 
BRANCH  38  39
ATOM     39  C   UNL     1      -2.438  -2.315   8.321  1.00  0.00     0.031 A 
ATOM     40  C   UNL     1      -2.000  -1.910   9.675  1.00  0.00     0.074 A 
ATOM     41  C   UNL     1      -3.698  -2.043   7.905  1.00  0.00     0.049 A 
ATOM     42  N   UNL     1      -2.800  -1.631  10.646  1.00  0.00    -0.248 NA
ATOM     43  C   UNL     1      -0.596  -1.860  10.070  1.00  0.00     0.031 C 
ATOM     44  C   UNL     1      -4.678  -1.173   8.556  1.00  0.00     0.029 A 
ATOM     45  N   UNL     1      -4.426  -2.667   6.874  1.00  0.00    -0.354 N 
ATOM     46  C   UNL     1      -2.056  -1.082  11.665  1.00  0.00     0.074 A 
ATOM     47  C   UNL     1      -0.691  -1.361  11.304  1.00  0.00     0.031 C 
ATOM     48  C   UNL     1      -5.908  -1.514   8.142  1.00  0.00     0.029 A 
ATOM     49  C   UNL     1      -5.765  -2.712   7.337  1.00  0.00     0.049 A 
ATOM     50  H   UNL     1      -4.079  -3.002   6.016  1.00  0.00     0.167 HD
ATOM     51  C   UNL     1      -2.703  -0.342  12.611  1.00  0.00     0.037 A 
ATOM     52  C   UNL     1      -6.400  -3.893   7.590  1.00  0.00     0.037 A 
ATOM     53  C   UNL     1      -4.151  -0.566  12.527  1.00  0.00     0.049 A 
ATOM     54  C   UNL     1      -6.884  -4.041   9.015  1.00  0.00     0.074 A 
ATOM     55  C   UNL     1      -5.212   0.187  12.052  1.00  0.00     0.029 A 
ATOM     56  N   UNL     1      -4.644  -1.856  12.720  1.00  0.00    -0.354 N 
ATOM     57  N   UNL     1      -6.436  -3.330  10.011  1.00  0.00    -0.248 NA
ATOM     58  C   UNL     1      -7.880  -5.023   9.434  1.00  0.00     0.031 C 
ATOM     59  C   UNL     1      -6.329  -0.677  11.898  1.00  0.00     0.029 A 
ATOM     60  C   UNL     1      -5.956  -1.947  12.304  1.00  0.00     0.049 A 
ATOM     61  H   UNL     1      -4.125  -2.601  13.102  1.00  0.00     0.167 HD
ATOM     62  C   UNL     1      -7.022  -3.751  11.177  1.00  0.00     0.074 A 
ATOM     63  C   UNL     1      -7.936  -4.797  10.759  1.00  0.00     0.031 C 
ATOM     64  C   UNL     1      -6.682  -3.209  12.385  1.00  0.00     0.037 A 
BRANCH  51  65
ATOM     65  C   UNL     1      -2.080   0.769  13.450  1.00  0.00     0.064 A 
ATOM     66  C   UNL     1      -2.909   1.672  14.159  1.00  0.00     0.173 A 
ATOM     67  C   UNL     1      -0.707   1.090  13.518  1.00  0.00     0.173 A 
ATOM     68  F   UNL     1      -4.232   1.484  14.248  1.00  0.00    -0.203 F 
ATOM     69  C   UNL     1      -2.417   2.819  14.797  1.00  0.00     0.198 A 
ATOM     70  C   UNL     1      -0.215   2.231  14.161  1.00  0.00     0.198 A 
ATOM     71  F   UNL     1       0.239   0.327  12.972  1.00  0.00    -0.203 F 
ATOM     72  F   UNL     1      -3.267   3.655  15.410  1.00  0.00    -0.200 F 
ATOM     73  C   UNL     1      -1.070   3.106  14.786  1.00  0.00     0.200 A 
ATOM     74  F   UNL     1       1.104   2.475  14.150  1.00  0.00    -0.200 F 
ATOM     75  F   UNL     1      -0.597   4.211  15.377  1.00  0.00    -0.200 F 
ENDBRANCH  51  65
BRANCH  52  76
ATOM     76  C   UNL     1      -5.921  -5.007   6.731  1.00  0.00     0.064 A 
ATOM     77  C   UNL     1      -6.117  -4.903   5.339  1.00  0.00     0.173 A 
ATOM     78  C   UNL     1      -4.960  -5.917   7.184  1.00  0.00     0.173 A 
ATOM     79  F   UNL     1      -7.027  -4.043   4.854  1.00  0.00    -0.203 F 
ATOM     80  C   UNL     1      -5.296  -5.579   4.440  1.00  0.00     0.198 A 
ATOM     81  C   UNL     1      -4.150  -6.607   6.278  1.00  0.00     0.198 A 
ATOM     82  F   UNL     1      -4.711  -6.045   8.495  1.00  0.00    -0.203 F 
ATOM     83  F   UNL     1      -5.423  -5.359   3.124  1.00  0.00    -0.200 F 
ATOM     84  C   UNL     1      -4.292  -6.406   4.912  1.00  0.00     0.200 A 
ATOM     85  F   UNL     1      -3.153  -7.379   6.731  1.00  0.00    -0.200 F 
ATOM     86  F   UNL     1      -3.428  -6.970   4.055  1.00  0.00    -0.200 F 
ENDBRANCH  52  76
BRANCH  64  87
ATOM     87  C   UNL     1      -7.051  -3.754  13.749  1.00  0.00     0.064 A 
ATOM     88  C   UNL     1      -7.347  -5.102  14.010  1.00  0.00     0.173 A 
ATOM     89  C   UNL     1      -6.969  -2.923  14.895  1.00  0.00     0.173 A 
ATOM     90  F   UNL     1      -7.333  -6.023  13.037  1.00  0.00    -0.203 F 
ATOM     91  C   UNL     1      -7.606  -5.570  15.303  1.00  0.00     0.198 A 
ATOM     92  C   UNL     1      -7.166  -3.405  16.189  1.00  0.00     0.198 A 
ATOM     93  F   UNL     1      -6.662  -1.621  14.798  1.00  0.00    -0.203 F 
ATOM     94  F   UNL     1      -7.926  -6.858  15.490  1.00  0.00    -0.200 F 
ATOM     95  C   UNL     1      -7.503  -4.726  16.392  1.00  0.00     0.200 A 
ATOM     96  F   UNL     1      -7.005  -2.585  17.237  1.00  0.00    -0.200 F 
ATOM     97  F   UNL     1      -7.703  -5.189  17.633  1.00  0.00    -0.200 F 
ENDBRANCH  64  87
ENDBRANCH  38  39
ENDBRANCH  30  33
ENDBRANCH  28  29
ENDBRANCH   1  28
TORSDOF 13
