REMARK SMILES O=C(NCCCNC(=O)[C@H]1[C@@H](C(=O)NNC(=O)c2ccccc2Cl)[C@H]2C=C[C@@H]1C2)c1ccc(-c2c3nc(c(-c4c(F)c(F)c(F)c(F)c4F)c4ccc([nH]4)c(-c4c(F)c(F)c(F)c(F)c4F)c4nc(c(-c5c(F)c(F)c(F)c(F)c5F)c5ccc2[nH]5)C=C4)C=C3)cc1
REMARK SMILES IDX 5 1 4 2 3 3 1 4 2 5 30 7 31 8 92 9 32 10 91 11 33 12 34 13
REMARK SMILES IDX 35 14 85 15 36 16 90 17 84 18 86 19 37 20 89 21 83 22 82 23
REMARK SMILES IDX 38 25 70 26 50 27 69 28 51 29 54 30 68 31 87 32 52 33 53 34
REMARK SMILES IDX 67 36 88 37 55 38 39 39 40 40 48 41 41 42 42 43 46 44 49 45
REMARK SMILES IDX 43 46 44 47 47 48 45 49 71 50 72 51 80 52 73 53 74 54 78 55
REMARK SMILES IDX 81 56 75 57 76 58 79 59 77 60 56 61 57 62 65 63 58 64 59 65
REMARK SMILES IDX 63 66 66 67 60 68 61 69 64 70 62 71 6 72 7 73 8 74 9 76
REMARK SMILES IDX 10 77 11 78 28 79 25 80 27 81 29 82 26 83 12 84 13 85 14 86
REMARK SMILES IDX 15 88 16 89 17 91 18 92 19 93 23 94 20 95 22 96 24 97 21 98
REMARK H PARENT 3 6 86 24 54 35 7 75 14 87 15 90
REMARK Flexibility Score: inf
ROOT
ATOM      1  C   UNL     1       9.723  -0.374  -5.033  1.00  0.00     0.042 C 
ENDROOT
BRANCH   1   2
ATOM      2  C   UNL     1      10.712  -0.241  -6.188  1.00  0.00     0.118 C 
BRANCH   2   3
ATOM      3  N   UNL     1      11.016   1.134  -6.547  1.00  0.00    -0.352 N 
ATOM      4  O   UNL     1      12.243   2.992  -6.864  1.00  0.00    -0.269 OA
ATOM      5  C   UNL     1      12.219   1.793  -6.618  1.00  0.00     0.251 C 
ATOM      6  H   UNL     1      10.232   1.683  -6.777  1.00  0.00     0.163 HD
BRANCH   5   7
ATOM      7  C   UNL     1      13.487   1.075  -6.362  1.00  0.00     0.039 A 
ATOM      8  C   UNL     1      13.752  -0.171  -6.935  1.00  0.00     0.014 A 
ATOM      9  C   UNL     1      14.448   1.691  -5.554  1.00  0.00     0.014 A 
ATOM     10  C   UNL     1      14.916  -0.857  -6.594  1.00  0.00     0.010 A 
ATOM     11  C   UNL     1      15.647   1.034  -5.270  1.00  0.00     0.010 A 
ATOM     12  C   UNL     1      15.877  -0.260  -5.761  1.00  0.00    -0.014 A 
BRANCH  12  13
ATOM     13  C   UNL     1      17.138  -0.980  -5.454  1.00  0.00     0.031 A 
ATOM     14  C   UNL     1      17.449  -1.435  -4.056  1.00  0.00     0.074 A 
ATOM     15  C   UNL     1      18.008  -1.223  -6.452  1.00  0.00     0.049 A 
ATOM     16  N   UNL     1      18.503  -2.074  -3.611  1.00  0.00    -0.248 NA
ATOM     17  C   UNL     1      16.454  -1.128  -3.018  1.00  0.00     0.031 C 
ATOM     18  C   UNL     1      17.827  -0.808  -7.844  1.00  0.00     0.029 A 
ATOM     19  N   UNL     1      19.213  -1.879  -6.454  1.00  0.00    -0.354 N 
ATOM     20  C   UNL     1      18.308  -2.227  -2.245  1.00  0.00     0.074 A 
ATOM     21  C   UNL     1      17.045  -1.595  -1.927  1.00  0.00     0.031 C 
ATOM     22  C   UNL     1      18.866  -1.244  -8.571  1.00  0.00     0.029 A 
ATOM     23  C   UNL     1      19.808  -1.926  -7.690  1.00  0.00     0.049 A 
ATOM     24  H   UNL     1      19.611  -2.278  -5.647  1.00  0.00     0.167 HD
ATOM     25  C   UNL     1      19.107  -2.847  -1.343  1.00  0.00     0.037 A 
ATOM     26  C   UNL     1      20.988  -2.448  -8.070  1.00  0.00     0.037 A 
ATOM     27  C   UNL     1      20.354  -3.493  -1.668  1.00  0.00     0.049 A 
ATOM     28  C   UNL     1      21.855  -3.126  -7.049  1.00  0.00     0.074 A 
ATOM     29  C   UNL     1      21.206  -4.194  -0.832  1.00  0.00     0.029 A 
ATOM     30  N   UNL     1      20.929  -3.511  -2.930  1.00  0.00    -0.354 N 
ATOM     31  N   UNL     1      21.636  -3.306  -5.769  1.00  0.00    -0.248 NA
ATOM     32  C   UNL     1      23.132  -3.673  -7.524  1.00  0.00     0.031 C 
ATOM     33  C   UNL     1      22.317  -4.600  -1.579  1.00  0.00     0.029 A 
ATOM     34  C   UNL     1      22.136  -4.192  -2.890  1.00  0.00     0.049 A 
ATOM     35  H   UNL     1      20.537  -3.102  -3.735  1.00  0.00     0.167 HD
ATOM     36  C   UNL     1      22.738  -3.997  -5.288  1.00  0.00     0.074 A 
ATOM     37  C   UNL     1      23.616  -4.222  -6.418  1.00  0.00     0.031 C 
ATOM     38  C   UNL     1      23.000  -4.403  -4.022  1.00  0.00     0.037 A 
BRANCH  25  39
ATOM     39  C   UNL     1      18.669  -2.852   0.092  1.00  0.00     0.064 A 
ATOM     40  C   UNL     1      17.608  -3.655   0.536  1.00  0.00     0.173 A 
ATOM     41  C   UNL     1      19.357  -2.088   1.047  1.00  0.00     0.173 A 
ATOM     42  F   UNL     1      16.911  -4.396  -0.338  1.00  0.00    -0.203 F 
ATOM     43  C   UNL     1      17.242  -3.680   1.880  1.00  0.00     0.198 A 
ATOM     44  C   UNL     1      19.004  -2.134   2.393  1.00  0.00     0.198 A 
ATOM     45  F   UNL     1      20.384  -1.307   0.676  1.00  0.00    -0.203 F 
ATOM     46  F   UNL     1      16.203  -4.429   2.276  1.00  0.00    -0.200 F 
ATOM     47  C   UNL     1      17.944  -2.926   2.808  1.00  0.00     0.200 A 
ATOM     48  F   UNL     1      19.691  -1.413   3.291  1.00  0.00    -0.200 F 
ATOM     49  F   UNL     1      17.596  -2.959   4.102  1.00  0.00    -0.200 F 
ENDBRANCH  25  39
BRANCH  26  50
ATOM     50  C   UNL     1      21.408  -2.347  -9.491  1.00  0.00     0.064 A 
ATOM     51  C   UNL     1      21.436  -3.479 -10.316  1.00  0.00     0.173 A 
ATOM     52  C   UNL     1      21.763  -1.114 -10.056  1.00  0.00     0.173 A 
ATOM     53  F   UNL     1      21.123  -4.682  -9.813  1.00  0.00    -0.203 F 
ATOM     54  C   UNL     1      21.813  -3.382 -11.653  1.00  0.00     0.198 A 
ATOM     55  C   UNL     1      22.114  -1.014 -11.400  1.00  0.00     0.198 A 
ATOM     56  F   UNL     1      21.746  -0.002  -9.307  1.00  0.00    -0.203 F 
ATOM     57  F   UNL     1      21.863  -4.484 -12.414  1.00  0.00    -0.200 F 
ATOM     58  C   UNL     1      22.144  -2.149 -12.196  1.00  0.00     0.200 A 
ATOM     59  F   UNL     1      22.417   0.181 -11.924  1.00  0.00    -0.200 F 
ATOM     60  F   UNL     1      22.495  -2.055 -13.486  1.00  0.00    -0.200 F 
ENDBRANCH  26  50
BRANCH  38  61
ATOM     61  C   UNL     1      24.282  -5.149  -3.798  1.00  0.00     0.064 A 
ATOM     62  C   UNL     1      25.522  -4.494  -3.814  1.00  0.00     0.173 A 
ATOM     63  C   UNL     1      24.268  -6.527  -3.537  1.00  0.00     0.173 A 
ATOM     64  F   UNL     1      25.588  -3.179  -4.076  1.00  0.00    -0.203 F 
ATOM     65  C   UNL     1      26.705  -5.197  -3.600  1.00  0.00     0.198 A 
ATOM     66  C   UNL     1      25.450  -7.222  -3.298  1.00  0.00     0.198 A 
ATOM     67  F   UNL     1      23.107  -7.197  -3.507  1.00  0.00    -0.203 F 
ATOM     68  F   UNL     1      27.882  -4.560  -3.664  1.00  0.00    -0.200 F 
ATOM     69  C   UNL     1      26.667  -6.558  -3.336  1.00  0.00     0.200 A 
ATOM     70  F   UNL     1      25.412  -8.535  -3.034  1.00  0.00    -0.200 F 
ATOM     71  F   UNL     1      27.806  -7.233  -3.127  1.00  0.00    -0.200 F 
ENDBRANCH  38  61
ENDBRANCH  12  13
ENDBRANCH   5   7
ENDBRANCH   2   3
ENDBRANCH   1   2
BRANCH   1  72
ATOM     72  C   UNL     1       8.368   0.283  -5.259  1.00  0.00     0.117 C 
BRANCH  72  73
ATOM     73  N   UNL     1       7.686  -0.194  -6.441  1.00  0.00    -0.356 N 
ATOM     74  C   UNL     1       6.566  -0.936  -6.596  1.00  0.00     0.224 C 
ATOM     75  H   UNL     1       8.114   0.069  -7.288  1.00  0.00     0.163 HD
ATOM     76  O   UNL     1       5.975  -0.816  -7.671  1.00  0.00    -0.275 OA
BRANCH  74  77
ATOM     77  C   UNL     1       5.972  -1.790  -5.499  1.00  0.00     0.098 C 
ATOM     78  C   UNL     1       5.109  -3.007  -5.996  1.00  0.00     0.100 C 
ATOM     79  C   UNL     1       6.792  -2.428  -4.345  1.00  0.00     0.025 C 
ATOM     80  C   UNL     1       5.434  -4.107  -4.945  1.00  0.00     0.025 C 
ATOM     81  C   UNL     1       7.661  -3.578  -4.800  1.00  0.00    -0.027 C 
ATOM     82  C   UNL     1       5.679  -3.268  -3.687  1.00  0.00     0.017 C 
ATOM     83  C   UNL     1       6.848  -4.588  -5.142  1.00  0.00    -0.027 C 
BRANCH  78  84
ATOM     84  C   UNL     1       5.085  -3.606  -7.415  1.00  0.00     0.242 C 
ATOM     85  O   UNL     1       4.012  -4.074  -7.827  1.00  0.00    -0.273 OA
ATOM     86  N   UNL     1       6.179  -3.823  -8.210  1.00  0.00    -0.267 N 
ATOM     87  H   UNL     1       6.060  -4.429  -8.977  1.00  0.00     0.191 HD
BRANCH  86  88
ATOM     88  N   UNL     1       7.432  -3.272  -8.040  1.00  0.00    -0.263 N 
ATOM     89  C   UNL     1       8.220  -2.719  -9.026  1.00  0.00     0.271 C 
ATOM     90  H   UNL     1       7.798  -3.274  -7.126  1.00  0.00     0.191 HD
ATOM     91  O   UNL     1       9.203  -2.047  -8.708  1.00  0.00    -0.267 OA
BRANCH  89  92
ATOM     92  C   UNL     1       8.062  -3.077 -10.448  1.00  0.00     0.060 A 
ATOM     93  C   UNL     1       9.209  -3.652 -11.030  1.00  0.00     0.015 A 
ATOM     94  C   UNL     1       6.945  -2.826 -11.246  1.00  0.00     0.053 A 
ATOM     95  C   UNL     1       9.225  -4.015 -12.375  1.00  0.00     0.001 A 
ATOM     96  C   UNL     1       6.960  -3.212 -12.594  1.00  0.00     0.021 A 
ATOM     97  Cl  UNL     1       5.545  -1.990 -10.696  1.00  0.00    -0.083 Cl
ATOM     98  C   UNL     1       8.093  -3.808 -13.155  1.00  0.00     0.002 A 
ENDBRANCH  89  92
ENDBRANCH  86  88
ENDBRANCH  78  84
ENDBRANCH  74  77
ENDBRANCH  72  73
ENDBRANCH   1  72
TORSDOF 13
