REMARK SMILES C[N@H+]1Cc2ccccc2C[C@@H]1C(=O)NCCC(=O)NCC(=O)NCCCNC(=O)c1ccc(-c2c3nc(c(-c4c(F)c(F)c(F)c(F)c4F)c4ccc([nH]4)c(-c4c(F)c(F)c(F)c(F)c4F)c4nc(c(-c5c(F)c(F)c(F)c(F)c5F)c5ccc2[nH]5)C=C4)C=C3)cc1
REMARK SMILES IDX 21 1 22 2 23 3 20 5 19 6 17 7 18 8 16 10 15 11 14 12 12 13
REMARK SMILES IDX 13 14 11 16 1 17 2 18 3 19 4 21 10 22 5 23 9 24 6 25 8 26
REMARK SMILES IDX 7 27 24 28 25 29 26 30 27 31 28 32 29 34 30 35 31 36 92 37
REMARK SMILES IDX 32 38 91 39 33 40 34 41 35 42 85 43 36 44 90 45 84 46 86 47
REMARK SMILES IDX 37 48 89 49 83 50 82 51 38 53 70 54 50 55 69 56 51 57 54 58
REMARK SMILES IDX 68 59 87 60 52 61 53 62 67 64 88 65 55 66 39 67 40 68 48 69
REMARK SMILES IDX 41 70 42 71 46 72 49 73 43 74 44 75 47 76 45 77 71 78 72 79
REMARK SMILES IDX 80 80 73 81 74 82 78 83 81 84 75 85 76 86 79 87 77 88 56 89
REMARK SMILES IDX 57 90 65 91 58 92 59 93 63 94 66 95 60 96 61 97 64 98 62 99
REMARK H PARENT 23 4 19 9 14 15 2 20 27 33 86 52 54 63
REMARK Flexibility Score: inf
ROOT
ATOM      1  C   UNL     1      -6.315   3.773   0.257  1.00  0.00     0.239 C 
ATOM      2  O   UNL     1      -7.284   3.122  -0.149  1.00  0.00    -0.273 OA
ATOM      3  N   UNL     1      -5.842   3.441   1.491  1.00  0.00    -0.355 N 
ATOM      4  H   UNL     1      -6.367   2.733   1.930  1.00  0.00     0.163 HD
ENDROOT
BRANCH   1   5
ATOM      5  C   UNL     1      -5.605   4.759  -0.691  1.00  0.00     0.216 C 
BRANCH   5   6
ATOM      6  N   UNL     1      -4.917   5.878  -0.071  1.00  0.00    -0.347 N 
ATOM      7  C   UNL     1      -3.594   6.194  -0.039  1.00  0.00     0.222 C 
ATOM      8  O   UNL     1      -3.246   7.151   0.655  1.00  0.00    -0.275 OA
ATOM      9  H   UNL     1      -5.503   6.510   0.403  1.00  0.00     0.164 HD
BRANCH   7  10
ATOM     10  C   UNL     1      -2.570   5.366  -0.788  1.00  0.00     0.121 C 
BRANCH  10  11
ATOM     11  C   UNL     1      -1.976   4.233   0.056  1.00  0.00     0.126 C 
BRANCH  11  12
ATOM     12  N   UNL     1      -2.808   3.035   0.029  1.00  0.00    -0.350 N 
ATOM     13  C   UNL     1      -2.705   1.925  -0.746  1.00  0.00     0.278 C 
ATOM     14  O   UNL     1      -3.717   1.645  -1.402  1.00  0.00    -0.268 OA
ATOM     15  H   UNL     1      -3.557   3.031   0.668  1.00  0.00     0.163 HD
BRANCH  13  16
ATOM     16  C   UNL     1      -1.510   0.951  -0.671  1.00  0.00     0.278 C 
ATOM     17  C   UNL     1      -3.137  -0.811  -0.004  1.00  0.00     0.333 C 
ATOM     18  N   UNL     1      -1.808  -0.229   0.209  1.00  0.00    -0.323 N 
ATOM     19  C   UNL     1      -0.793  -1.277  -0.047  1.00  0.00     0.299 C 
ATOM     20  H   UNL     1      -1.783   0.110   1.171  1.00  0.00     0.348 HD
ATOM     21  C   UNL     1       0.634  -0.778   0.004  1.00  0.00     0.010 A 
ATOM     22  C   UNL     1      -0.206   1.587  -0.176  1.00  0.00     0.111 C 
ATOM     23  C   UNL     1       1.692  -1.695   0.058  1.00  0.00     0.010 A 
ATOM     24  C   UNL     1       0.921   0.593  -0.072  1.00  0.00    -0.033 A 
ATOM     25  C   UNL     1       3.014  -1.248   0.076  1.00  0.00     0.001 A 
ATOM     26  C   UNL     1       2.248   1.037  -0.021  1.00  0.00     0.004 A 
ATOM     27  C   UNL     1       3.291   0.116   0.048  1.00  0.00     0.000 A 
ENDBRANCH  13  16
ENDBRANCH  11  12
ENDBRANCH  10  11
ENDBRANCH   7  10
ENDBRANCH   5   6
ENDBRANCH   1   5
BRANCH   3  28
ATOM     28  C   UNL     1      -4.727   3.912   2.298  1.00  0.00     0.117 C 
BRANCH  28  29
ATOM     29  C   UNL     1      -5.161   4.584   3.584  1.00  0.00     0.042 C 
BRANCH  29  30
ATOM     30  C   UNL     1      -5.633   3.586   4.627  1.00  0.00     0.118 C 
BRANCH  30  31
ATOM     31  N   UNL     1      -4.548   2.769   5.167  1.00  0.00    -0.352 N 
ATOM     32  C   UNL     1      -3.945   2.774   6.402  1.00  0.00     0.251 C 
ATOM     33  H   UNL     1      -4.188   2.102   4.539  1.00  0.00     0.163 HD
ATOM     34  O   UNL     1      -2.930   2.108   6.590  1.00  0.00    -0.269 OA
BRANCH  32  35
ATOM     35  C   UNL     1      -4.487   3.603   7.499  1.00  0.00     0.039 A 
ATOM     36  C   UNL     1      -3.604   4.286   8.341  1.00  0.00     0.014 A 
ATOM     37  C   UNL     1      -5.862   3.719   7.695  1.00  0.00     0.014 A 
ATOM     38  C   UNL     1      -4.106   5.163   9.306  1.00  0.00     0.010 A 
ATOM     39  C   UNL     1      -6.356   4.681   8.565  1.00  0.00     0.010 A 
ATOM     40  C   UNL     1      -5.485   5.413   9.384  1.00  0.00    -0.014 A 
BRANCH  40  41
ATOM     41  C   UNL     1      -6.054   6.423  10.313  1.00  0.00     0.031 A 
ATOM     42  C   UNL     1      -7.078   6.006  11.335  1.00  0.00     0.074 A 
ATOM     43  C   UNL     1      -5.736   7.724  10.168  1.00  0.00     0.049 A 
ATOM     44  N   UNL     1      -7.814   6.748  12.123  1.00  0.00    -0.248 NA
ATOM     45  C   UNL     1      -7.345   4.563  11.451  1.00  0.00     0.031 C 
ATOM     46  C   UNL     1      -4.809   8.265   9.172  1.00  0.00     0.029 A 
ATOM     47  N   UNL     1      -6.175   8.833  10.848  1.00  0.00    -0.354 N 
ATOM     48  C   UNL     1      -8.649   5.867  12.797  1.00  0.00     0.074 A 
ATOM     49  C   UNL     1      -8.373   4.543  12.285  1.00  0.00     0.031 C 
ATOM     50  C   UNL     1      -4.731   9.597   9.321  1.00  0.00     0.029 A 
ATOM     51  C   UNL     1      -5.633  10.009  10.391  1.00  0.00     0.049 A 
ATOM     52  H   UNL     1      -6.818   8.789  11.592  1.00  0.00     0.167 HD
ATOM     53  C   UNL     1      -9.545   6.133  13.777  1.00  0.00     0.037 A 
ATOM     54  C   UNL     1      -5.848  11.279  10.784  1.00  0.00     0.037 A 
ATOM     55  C   UNL     1      -9.778   7.442  14.322  1.00  0.00     0.049 A 
ATOM     56  C   UNL     1      -6.818  11.544  11.903  1.00  0.00     0.074 A 
ATOM     57  C   UNL     1     -10.610   7.809  15.365  1.00  0.00     0.029 A 
ATOM     58  N   UNL     1      -9.163   8.602  13.873  1.00  0.00    -0.354 N 
ATOM     59  N   UNL     1      -7.560  10.696  12.572  1.00  0.00    -0.248 NA
ATOM     60  C   UNL     1      -6.975  12.943  12.325  1.00  0.00     0.031 C 
ATOM     61  C   UNL     1     -10.521   9.195  15.527  1.00  0.00     0.029 A 
ATOM     62  C   UNL     1      -9.604   9.687  14.612  1.00  0.00     0.049 A 
ATOM     63  H   UNL     1      -8.510   8.647  13.138  1.00  0.00     0.167 HD
ATOM     64  C   UNL     1      -8.255  11.451  13.506  1.00  0.00     0.074 A 
ATOM     65  C   UNL     1      -7.833  12.826  13.329  1.00  0.00     0.031 C 
ATOM     66  C   UNL     1      -9.163  11.045  14.426  1.00  0.00     0.037 A 
BRANCH  53  67
ATOM     67  C   UNL     1     -10.325   4.977  14.334  1.00  0.00     0.064 A 
ATOM     68  C   UNL     1      -9.712   3.989  15.120  1.00  0.00     0.173 A 
ATOM     69  C   UNL     1     -11.703   4.867  14.099  1.00  0.00     0.173 A 
ATOM     70  F   UNL     1      -8.394   4.041  15.362  1.00  0.00    -0.203 F 
ATOM     71  C   UNL     1     -10.444   2.917  15.622  1.00  0.00     0.198 A 
ATOM     72  C   UNL     1     -12.438   3.809  14.629  1.00  0.00     0.198 A 
ATOM     73  F   UNL     1     -12.340   5.786  13.357  1.00  0.00    -0.203 F 
ATOM     74  F   UNL     1      -9.826   1.956  16.324  1.00  0.00    -0.200 F 
ATOM     75  C   UNL     1     -11.807   2.831  15.382  1.00  0.00     0.200 A 
ATOM     76  F   UNL     1     -13.758   3.733  14.405  1.00  0.00    -0.200 F 
ATOM     77  F   UNL     1     -12.510   1.800  15.869  1.00  0.00    -0.200 F 
ENDBRANCH  53  67
BRANCH  54  78
ATOM     78  C   UNL     1      -5.111  12.392  10.133  1.00  0.00     0.064 A 
ATOM     79  C   UNL     1      -4.102  13.081  10.819  1.00  0.00     0.173 A 
ATOM     80  C   UNL     1      -5.394  12.788   8.818  1.00  0.00     0.173 A 
ATOM     81  F   UNL     1      -3.809  12.752  12.086  1.00  0.00    -0.203 F 
ATOM     82  C   UNL     1      -3.417  14.138  10.223  1.00  0.00     0.198 A 
ATOM     83  C   UNL     1      -4.691  13.827   8.213  1.00  0.00     0.198 A 
ATOM     84  F   UNL     1      -6.347  12.155   8.117  1.00  0.00    -0.203 F 
ATOM     85  F   UNL     1      -2.487  14.807  10.916  1.00  0.00    -0.200 F 
ATOM     86  C   UNL     1      -3.708  14.506   8.918  1.00  0.00     0.200 A 
ATOM     87  F   UNL     1      -4.966  14.172   6.948  1.00  0.00    -0.200 F 
ATOM     88  F   UNL     1      -3.047  15.520   8.343  1.00  0.00    -0.200 F 
ENDBRANCH  54  78
BRANCH  66  89
ATOM     89  C   UNL     1      -9.739  12.092  15.331  1.00  0.00     0.064 A 
ATOM     90  C   UNL     1     -10.683  13.020  14.870  1.00  0.00     0.173 A 
ATOM     91  C   UNL     1      -9.375  12.136  16.685  1.00  0.00     0.173 A 
ATOM     92  F   UNL     1     -11.050  13.026  13.580  1.00  0.00    -0.203 F 
ATOM     93  C   UNL     1     -11.229  13.969  15.730  1.00  0.00     0.198 A 
ATOM     94  C   UNL     1      -9.943  13.069  17.547  1.00  0.00     0.198 A 
ATOM     95  F   UNL     1      -8.480  11.265  17.174  1.00  0.00    -0.203 F 
ATOM     96  F   UNL     1     -12.100  14.873  15.261  1.00  0.00    -0.200 F 
ATOM     97  C   UNL     1     -10.864  13.988  17.068  1.00  0.00     0.200 A 
ATOM     98  F   UNL     1      -9.598  13.079  18.843  1.00  0.00    -0.200 F 
ATOM     99  F   UNL     1     -11.397  14.897  17.896  1.00  0.00    -0.200 F 
ENDBRANCH  66  89
ENDBRANCH  40  41
ENDBRANCH  32  35
ENDBRANCH  30  31
ENDBRANCH  29  30
ENDBRANCH  28  29
ENDBRANCH   3  28
TORSDOF 15
