REMARK SMILES Cc1ccc2nc(Cl)c([C@@H]3CC(c4cccs4)=NN3C(=O)CCCC(=O)NCCCNC(=O)c3ccc(-c4c5nc(c(-c6c(F)c(F)c(F)c(F)c6F)c6ccc([nH]6)c(-c6c(F)c(F)c(F)c(F)c6F)c6nc(c(-c7c(F)c(F)c(F)c(F)c7F)c7ccc4[nH]7)C=C6)C=C5)cc3)cc2c1
REMARK SMILES IDX 25 1 26 2 27 3 24 5 23 6 22 7 20 8 21 9 19 10 10 11 11 12
REMARK SMILES IDX 12 13 18 14 9 15 1 16 2 17 3 18 99 19 4 20 98 21 5 22 97 23
REMARK SMILES IDX 6 24 7 25 8 26 13 27 14 28 17 29 15 30 16 31 28 32 29 33
REMARK SMILES IDX 30 34 31 35 32 36 33 38 34 39 35 40 96 41 36 42 95 43 37 44
REMARK SMILES IDX 38 45 39 46 89 47 40 48 94 49 88 50 90 51 41 52 93 53 87 54
REMARK SMILES IDX 86 55 42 57 74 58 54 59 73 60 55 61 58 62 72 63 91 64 56 65
REMARK SMILES IDX 57 66 71 68 92 69 59 70 43 71 44 72 52 73 45 74 46 75 50 76
REMARK SMILES IDX 53 77 47 78 48 79 51 80 49 81 75 82 76 83 84 84 77 85 78 86
REMARK SMILES IDX 82 87 85 88 79 89 80 90 83 91 81 92 60 93 61 94 69 95 62 96
REMARK SMILES IDX 63 97 67 98 70 99 64 100 65 101 68 102 66 103
REMARK H PARENT 27 4 31 37 90 56 58 67
REMARK Flexibility Score: inf
ROOT
ATOM      1  C   UNL     1      -2.205  -0.399  -2.671  1.00  0.00     0.220 C 
ATOM      2  O   UNL     1      -1.835  -1.570  -2.798  1.00  0.00    -0.275 OA
ATOM      3  N   UNL     1      -3.510  -0.135  -2.928  1.00  0.00    -0.356 N 
ATOM      4  H   UNL     1      -3.947  -0.777  -3.533  1.00  0.00     0.163 HD
ENDROOT
BRANCH   1   5
ATOM      5  C   UNL     1      -1.236   0.649  -2.158  1.00  0.00     0.100 C 
BRANCH   5   6
ATOM      6  C   UNL     1      -0.955   1.863  -3.026  1.00  0.00     0.020 C 
BRANCH   6   7
ATOM      7  C   UNL     1      -1.896   3.057  -2.913  1.00  0.00     0.103 C 
BRANCH   7   8
ATOM      8  C   UNL     1      -1.754   3.967  -1.698  1.00  0.00     0.243 C 
ATOM      9  O   UNL     1      -0.953   4.907  -1.789  1.00  0.00    -0.273 OA
BRANCH   8  10
ATOM     10  N   UNL     1      -2.612   3.828  -0.586  1.00  0.00    -0.225 N 
ATOM     11  C   UNL     1      -2.466   2.807   0.507  1.00  0.00     0.150 C 
ATOM     12  C   UNL     1      -2.139   3.633   1.748  1.00  0.00     0.092 C 
ATOM     13  C   UNL     1      -2.546   4.989   1.269  1.00  0.00     0.081 C 
ATOM     14  N   UNL     1      -2.850   5.070   0.011  1.00  0.00    -0.173 NA
BRANCH  11  15
ATOM     15  C   UNL     1      -3.657   1.867   0.723  1.00  0.00     0.015 A 
ATOM     16  C   UNL     1      -5.368  -3.889  -0.831  1.00  0.00     0.044 C 
ATOM     17  C   UNL     1      -5.536  -2.543  -0.185  1.00  0.00    -0.050 A 
ATOM     18  C   UNL     1      -6.808  -2.009   0.023  1.00  0.00     0.005 A 
ATOM     19  C   UNL     1      -4.413  -1.768   0.145  1.00  0.00     0.013 A 
ATOM     20  C   UNL     1      -6.947  -0.702   0.498  1.00  0.00     0.029 A 
ATOM     21  C   UNL     1      -4.557  -0.426   0.562  1.00  0.00     0.001 A 
ATOM     22  C   UNL     1      -5.844   0.109   0.725  1.00  0.00     0.072 A 
ATOM     23  C   UNL     1      -3.465   0.468   0.653  1.00  0.00     0.019 A 
ATOM     24  N   UNL     1      -6.036   1.407   0.972  1.00  0.00    -0.236 NA
ATOM     25  C   UNL     1      -4.977   2.252   0.945  1.00  0.00     0.135 A 
ATOM     26  Cl  UNL     1      -5.520   3.862   1.160  1.00  0.00    -0.062 Cl
ENDBRANCH  11  15
BRANCH  13  27
ATOM     27  C   UNL     1      -2.491   6.138   2.128  1.00  0.00     0.050 A 
ATOM     28  C   UNL     1      -1.455   6.529   2.952  1.00  0.00     0.022 A 
ATOM     29  S   UNL     1      -3.786   7.250   2.160  1.00  0.00    -0.142 S 
ATOM     30  C   UNL     1      -1.713   7.785   3.576  1.00  0.00     0.012 A 
ATOM     31  C   UNL     1      -2.955   8.278   3.245  1.00  0.00     0.065 A 
ENDBRANCH  13  27
ENDBRANCH   8  10
ENDBRANCH   7   8
ENDBRANCH   6   7
ENDBRANCH   5   6
ENDBRANCH   1   5
BRANCH   3  32
ATOM     32  C   UNL     1      -4.367   0.933  -2.462  1.00  0.00     0.117 C 
BRANCH  32  33
ATOM     33  C   UNL     1      -5.233   1.558  -3.543  1.00  0.00     0.042 C 
BRANCH  33  34
ATOM     34  C   UNL     1      -6.705   1.341  -3.229  1.00  0.00     0.118 C 
BRANCH  34  35
ATOM     35  N   UNL     1      -7.214   2.129  -2.107  1.00  0.00    -0.352 N 
ATOM     36  C   UNL     1      -8.542   2.386  -1.836  1.00  0.00     0.251 C 
ATOM     37  H   UNL     1      -6.549   2.511  -1.490  1.00  0.00     0.163 HD
ATOM     38  O   UNL     1      -8.910   3.113  -0.921  1.00  0.00    -0.269 OA
BRANCH  36  39
ATOM     39  C   UNL     1      -9.527   1.776  -2.743  1.00  0.00     0.039 A 
ATOM     40  C   UNL     1     -10.259   2.601  -3.597  1.00  0.00     0.014 A 
ATOM     41  C   UNL     1      -9.514   0.389  -2.899  1.00  0.00     0.014 A 
ATOM     42  C   UNL     1     -10.896   2.034  -4.699  1.00  0.00     0.010 A 
ATOM     43  C   UNL     1     -10.067  -0.156  -4.045  1.00  0.00     0.010 A 
ATOM     44  C   UNL     1     -10.743   0.664  -4.965  1.00  0.00    -0.014 A 
BRANCH  44  45
ATOM     45  C   UNL     1     -11.247   0.047  -6.213  1.00  0.00     0.031 A 
ATOM     46  C   UNL     1     -12.258  -1.056  -6.124  1.00  0.00     0.074 A 
ATOM     47  C   UNL     1     -10.688   0.373  -7.395  1.00  0.00     0.049 A 
ATOM     48  N   UNL     1     -12.685  -1.868  -7.055  1.00  0.00    -0.248 NA
ATOM     49  C   UNL     1     -12.823  -1.316  -4.790  1.00  0.00     0.031 C 
ATOM     50  C   UNL     1      -9.640   1.378  -7.591  1.00  0.00     0.029 A 
ATOM     51  N   UNL     1     -10.901  -0.132  -8.653  1.00  0.00    -0.354 N 
ATOM     52  C   UNL     1     -13.527  -2.762  -6.410  1.00  0.00     0.074 A 
ATOM     53  C   UNL     1     -13.516  -2.423  -5.004  1.00  0.00     0.031 C 
ATOM     54  C   UNL     1      -9.311   1.423  -8.892  1.00  0.00     0.029 A 
ATOM     55  C   UNL     1     -10.094   0.427  -9.615  1.00  0.00     0.049 A 
ATOM     56  H   UNL     1     -11.569  -0.828  -8.848  1.00  0.00     0.167 HD
ATOM     57  C   UNL     1     -14.259  -3.764  -6.950  1.00  0.00     0.037 A 
ATOM     58  C   UNL     1      -9.992   0.153 -10.930  1.00  0.00     0.037 A 
ATOM     59  C   UNL     1     -14.309  -4.046  -8.358  1.00  0.00     0.049 A 
ATOM     60  C   UNL     1     -10.872  -0.915 -11.521  1.00  0.00     0.074 A 
ATOM     61  C   UNL     1     -15.095  -4.967  -9.026  1.00  0.00     0.029 A 
ATOM     62  N   UNL     1     -13.544  -3.397  -9.317  1.00  0.00    -0.354 N 
ATOM     63  N   UNL     1     -11.725  -1.706 -10.917  1.00  0.00    -0.248 NA
ATOM     64  C   UNL     1     -10.781  -1.125 -12.973  1.00  0.00     0.031 C 
ATOM     65  C   UNL     1     -14.783  -4.897 -10.387  1.00  0.00     0.029 A 
ATOM     66  C   UNL     1     -13.831  -3.906 -10.571  1.00  0.00     0.049 A 
ATOM     67  H   UNL     1     -12.893  -2.682  -9.132  1.00  0.00     0.167 HD
ATOM     68  C   UNL     1     -12.292  -2.488 -11.913  1.00  0.00     0.074 A 
ATOM     69  C   UNL     1     -11.689  -2.073 -13.164  1.00  0.00     0.031 C 
ATOM     70  C   UNL     1     -13.229  -3.460 -11.802  1.00  0.00     0.037 A 
BRANCH  57  71
ATOM     71  C   UNL     1     -15.061  -4.615  -6.011  1.00  0.00     0.064 A 
ATOM     72  C   UNL     1     -16.179  -4.111  -5.330  1.00  0.00     0.173 A 
ATOM     73  C   UNL     1     -14.704  -5.953  -5.789  1.00  0.00     0.173 A 
ATOM     74  F   UNL     1     -16.551  -2.833  -5.496  1.00  0.00    -0.203 F 
ATOM     75  C   UNL     1     -16.885  -4.903  -4.428  1.00  0.00     0.198 A 
ATOM     76  C   UNL     1     -15.433  -6.752  -4.911  1.00  0.00     0.198 A 
ATOM     77  F   UNL     1     -13.645  -6.486  -6.417  1.00  0.00    -0.203 F 
ATOM     78  F   UNL     1     -17.909  -4.380  -3.740  1.00  0.00    -0.200 F 
ATOM     79  C   UNL     1     -16.515  -6.223  -4.224  1.00  0.00     0.200 A 
ATOM     80  F   UNL     1     -15.080  -8.031  -4.721  1.00  0.00    -0.200 F 
ATOM     81  F   UNL     1     -17.194  -6.984  -3.354  1.00  0.00    -0.200 F 
ENDBRANCH  57  71
BRANCH  58  82
ATOM     82  C   UNL     1      -9.047   0.928 -11.774  1.00  0.00     0.064 A 
ATOM     83  C   UNL     1      -9.518   1.892 -12.676  1.00  0.00     0.173 A 
ATOM     84  C   UNL     1      -7.660   0.746 -11.678  1.00  0.00     0.173 A 
ATOM     85  F   UNL     1     -10.837   2.090 -12.816  1.00  0.00    -0.203 F 
ATOM     86  C   UNL     1      -8.637   2.636 -13.459  1.00  0.00     0.198 A 
ATOM     87  C   UNL     1      -6.780   1.506 -12.445  1.00  0.00     0.198 A 
ATOM     88  F   UNL     1      -7.160  -0.158 -10.822  1.00  0.00    -0.203 F 
ATOM     89  F   UNL     1      -9.115   3.530 -14.336  1.00  0.00    -0.200 F 
ATOM     90  C   UNL     1      -7.269   2.447 -13.338  1.00  0.00     0.200 A 
ATOM     91  F   UNL     1      -5.457   1.330 -12.316  1.00  0.00    -0.200 F 
ATOM     92  F   UNL     1      -6.422   3.170 -14.085  1.00  0.00    -0.200 F 
ENDBRANCH  58  82
BRANCH  70  93
ATOM     93  C   UNL     1     -13.695  -4.119 -13.064  1.00  0.00     0.064 A 
ATOM     94  C   UNL     1     -12.914  -5.082 -13.718  1.00  0.00     0.173 A 
ATOM     95  C   UNL     1     -14.974  -3.846 -13.572  1.00  0.00     0.173 A 
ATOM     96  F   UNL     1     -11.680  -5.364 -13.274  1.00  0.00    -0.203 F 
ATOM     97  C   UNL     1     -13.398  -5.748 -14.840  1.00  0.00     0.198 A 
ATOM     98  C   UNL     1     -15.462  -4.530 -14.681  1.00  0.00     0.198 A 
ATOM     99  F   UNL     1     -15.758  -2.936 -12.975  1.00  0.00    -0.203 F 
ATOM    100  F   UNL     1     -12.629  -6.651 -15.464  1.00  0.00    -0.200 F 
ATOM    101  C   UNL     1     -14.674  -5.479 -15.314  1.00  0.00     0.200 A 
ATOM    102  F   UNL     1     -16.700  -4.279 -15.129  1.00  0.00    -0.200 F 
ATOM    103  F   UNL     1     -15.145  -6.136 -16.383  1.00  0.00    -0.200 F 
ENDBRANCH  70  93
ENDBRANCH  44  45
ENDBRANCH  36  39
ENDBRANCH  34  35
ENDBRANCH  33  34
ENDBRANCH  32  33
ENDBRANCH   3  32
TORSDOF 16
