REMARK SMILES CCCc1nn2c(=O)cc(CSc3ccccc3C(=O)NCCCNC(=O)c3ccc(-c4c5nc(c(-c6c(F)c(F)c(F)c(F)c6F)c6ccc([nH]6)c(-c6c(F)c(F)c(F)c(F)c6F)c6nc(c(-c7c(F)c(F)c(F)c(F)c7F)c7ccc4[nH]7)C=C6)C=C5)cc3)nc2s1
REMARK SMILES IDX 19 1 20 2 21 3 18 5 13 6 14 7 15 8 17 9 16 10 12 11 11 12
REMARK SMILES IDX 10 13 4 14 5 15 93 16 6 17 92 18 7 19 91 20 8 21 9 22 3 23
REMARK SMILES IDX 2 24 1 25 22 26 23 27 24 28 25 29 26 30 27 32 28 33 29 34
REMARK SMILES IDX 90 35 30 36 89 37 31 38 32 39 33 40 83 41 34 42 88 43 82 44
REMARK SMILES IDX 84 45 35 46 87 47 81 48 80 49 36 51 68 52 48 53 67 54 49 55
REMARK SMILES IDX 52 56 66 57 85 58 50 59 51 60 65 62 86 63 53 64 37 65 38 66
REMARK SMILES IDX 46 67 39 68 40 69 44 70 47 71 41 72 42 73 45 74 43 75 69 76
REMARK SMILES IDX 70 77 78 78 71 79 72 80 76 81 79 82 73 83 74 84 77 85 75 86
REMARK SMILES IDX 54 87 55 88 63 89 56 90 57 91 61 92 64 93 58 94 59 95 62 96
REMARK SMILES IDX 60 97
REMARK H PARENT 21 4 25 31 84 50 52 61
REMARK Flexibility Score: inf
ROOT
ATOM      1  C   UNL     1      -2.925  -9.768  -4.742  1.00  0.00     0.252 C 
ATOM      2  O   UNL     1      -4.048 -10.293  -4.778  1.00  0.00    -0.269 OA
ATOM      3  N   UNL     1      -1.927 -10.660  -4.464  1.00  0.00    -0.352 N 
ATOM      4  H   UNL     1      -2.259 -11.587  -4.442  1.00  0.00     0.163 HD
ENDROOT
BRANCH   1   5
ATOM      5  C   UNL     1      -2.846  -8.297  -5.049  1.00  0.00     0.053 A 
ATOM      6  C   UNL     1      -1.961  -7.295  -4.609  1.00  0.00     0.020 A 
ATOM      7  C   UNL     1      -2.183  -5.949  -5.000  1.00  0.00     0.016 A 
ATOM      8  C   UNL     1      -3.271  -5.570  -5.779  1.00  0.00     0.001 A 
ATOM      9  C   UNL     1      -3.933  -7.873  -5.864  1.00  0.00     0.015 A 
ATOM     10  C   UNL     1      -4.150  -6.539  -6.218  1.00  0.00     0.001 A 
BRANCH   6  11
ATOM     11  S   UNL     1      -0.501  -7.470  -3.611  1.00  0.00    -0.119 SA
BRANCH  11  12
ATOM     12  C   UNL     1      -1.160  -7.153  -1.928  1.00  0.00     0.131 C 
BRANCH  12  13
ATOM     13  C   UNL     1      -1.149  -5.668  -1.674  1.00  0.00     0.060 A 
ATOM     14  C   UNL     1       0.400  -1.427  -2.187  1.00  0.00     0.117 A 
ATOM     15  N   UNL     1      -0.858  -1.641  -1.955  1.00  0.00    -0.156 NA
ATOM     16  S   UNL     1       1.462  -2.812  -2.205  1.00  0.00    -0.079 S 
ATOM     17  N   UNL     1      -1.045  -2.988  -1.772  1.00  0.00    -0.167 N 
ATOM     18  C   UNL     1       0.063  -3.778  -1.890  1.00  0.00     0.215 A 
ATOM     19  C   UNL     1      -2.276  -3.520  -1.447  1.00  0.00     0.275 A 
ATOM     20  N   UNL     1       0.084  -5.061  -1.799  1.00  0.00    -0.223 NA
ATOM     21  O   UNL     1      -3.304  -2.906  -1.203  1.00  0.00    -0.267 OA
ATOM     22  C   UNL     1      -2.292  -5.001  -1.448  1.00  0.00     0.098 A 
BRANCH  14  23
ATOM     23  C   UNL     1       0.983  -0.068  -2.412  1.00  0.00     0.069 C 
BRANCH  23  24
ATOM     24  C   UNL     1       0.637   0.869  -1.256  1.00  0.00     0.004 C 
ATOM     25  C   UNL     1       1.166   0.372   0.083  1.00  0.00     0.004 C 
ENDBRANCH  23  24
ENDBRANCH  14  23
ENDBRANCH  12  13
ENDBRANCH  11  12
ENDBRANCH   6  11
ENDBRANCH   1   5
BRANCH   3  26
ATOM     26  C   UNL     1      -0.506 -10.589  -4.193  1.00  0.00     0.118 C 
BRANCH  26  27
ATOM     27  C   UNL     1      -0.272 -10.465  -2.685  1.00  0.00     0.042 C 
BRANCH  27  28
ATOM     28  C   UNL     1      -0.151 -11.796  -1.960  1.00  0.00     0.118 C 
BRANCH  28  29
ATOM     29  N   UNL     1       1.193 -12.337  -2.085  1.00  0.00    -0.352 N 
ATOM     30  C   UNL     1       2.171 -12.502  -1.136  1.00  0.00     0.251 C 
ATOM     31  H   UNL     1       1.439 -12.630  -2.991  1.00  0.00     0.163 HD
ATOM     32  O   UNL     1       3.329 -12.693  -1.502  1.00  0.00    -0.269 OA
BRANCH  30  33
ATOM     33  C   UNL     1       1.864 -12.463   0.315  1.00  0.00     0.039 A 
ATOM     34  C   UNL     1       2.843 -11.986   1.196  1.00  0.00     0.014 A 
ATOM     35  C   UNL     1       0.669 -12.972   0.831  1.00  0.00     0.014 A 
ATOM     36  C   UNL     1       2.615 -11.997   2.575  1.00  0.00     0.010 A 
ATOM     37  C   UNL     1       0.406 -12.903   2.198  1.00  0.00     0.010 A 
ATOM     38  C   UNL     1       1.386 -12.441   3.088  1.00  0.00    -0.014 A 
BRANCH  38  39
ATOM     39  C   UNL     1       1.125 -12.480   4.551  1.00  0.00     0.031 A 
ATOM     40  C   UNL     1       0.884 -13.798   5.237  1.00  0.00     0.074 A 
ATOM     41  C   UNL     1       1.053 -11.333   5.252  1.00  0.00     0.049 A 
ATOM     42  N   UNL     1       0.552 -14.040   6.481  1.00  0.00    -0.248 NA
ATOM     43  C   UNL     1       1.002 -15.007   4.406  1.00  0.00     0.031 C 
ATOM     44  C   UNL     1       1.230  -9.991   4.697  1.00  0.00     0.029 A 
ATOM     45  N   UNL     1       0.799 -11.112   6.583  1.00  0.00    -0.354 N 
ATOM     46  C   UNL     1       0.403 -15.418   6.573  1.00  0.00     0.074 A 
ATOM     47  C   UNL     1       0.626 -15.956   5.249  1.00  0.00     0.031 C 
ATOM     48  C   UNL     1       1.103  -9.088   5.682  1.00  0.00     0.029 A 
ATOM     49  C   UNL     1       0.798  -9.783   6.929  1.00  0.00     0.049 A 
ATOM     50  H   UNL     1       0.635 -11.837   7.228  1.00  0.00     0.167 HD
ATOM     51  C   UNL     1       0.130 -16.170   7.666  1.00  0.00     0.037 A 
ATOM     52  C   UNL     1       0.570  -9.193   8.118  1.00  0.00     0.037 A 
ATOM     53  C   UNL     1      -0.059 -15.634   8.989  1.00  0.00     0.049 A 
ATOM     54  C   UNL     1       0.277 -10.049   9.320  1.00  0.00     0.074 A 
ATOM     55  C   UNL     1      -0.294 -16.314  10.171  1.00  0.00     0.029 A 
ATOM     56  N   UNL     1      -0.026 -14.283   9.303  1.00  0.00    -0.354 N 
ATOM     57  N   UNL     1       0.181 -11.354   9.402  1.00  0.00    -0.248 NA
ATOM     58  C   UNL     1       0.068  -9.350  10.595  1.00  0.00     0.031 C 
ATOM     59  C   UNL     1      -0.439 -15.372  11.196  1.00  0.00     0.029 A 
ATOM     60  C   UNL     1      -0.249 -14.108  10.660  1.00  0.00     0.049 A 
ATOM     61  H   UNL     1       0.131 -13.557   8.658  1.00  0.00     0.167 HD
ATOM     62  C   UNL     1      -0.073 -11.634  10.738  1.00  0.00     0.074 A 
ATOM     63  C   UNL     1      -0.102 -10.364  11.432  1.00  0.00     0.031 C 
ATOM     64  C   UNL     1      -0.267 -12.836  11.335  1.00  0.00     0.037 A 
BRANCH  51  65
ATOM     65  C   UNL     1       0.026 -17.656   7.478  1.00  0.00     0.064 A 
ATOM     66  C   UNL     1       1.154 -18.440   7.189  1.00  0.00     0.173 A 
ATOM     67  C   UNL     1      -1.207 -18.310   7.616  1.00  0.00     0.173 A 
ATOM     68  F   UNL     1       2.356 -17.863   7.034  1.00  0.00    -0.203 F 
ATOM     69  C   UNL     1       1.046 -19.817   7.013  1.00  0.00     0.198 A 
ATOM     70  C   UNL     1      -1.307 -19.692   7.470  1.00  0.00     0.198 A 
ATOM     71  F   UNL     1      -2.316 -17.611   7.898  1.00  0.00    -0.203 F 
ATOM     72  F   UNL     1       2.128 -20.537   6.686  1.00  0.00    -0.200 F 
ATOM     73  C   UNL     1      -0.183 -20.443   7.161  1.00  0.00     0.200 A 
ATOM     74  F   UNL     1      -2.493 -20.297   7.626  1.00  0.00    -0.200 F 
ATOM     75  F   UNL     1      -0.285 -21.769   6.997  1.00  0.00    -0.200 F 
ENDBRANCH  51  65
BRANCH  52  76
ATOM     76  C   UNL     1       0.642  -7.713   8.233  1.00  0.00     0.064 A 
ATOM     77  C   UNL     1       1.700  -7.098   8.918  1.00  0.00     0.173 A 
ATOM     78  C   UNL     1      -0.331  -6.886   7.654  1.00  0.00     0.173 A 
ATOM     79  F   UNL     1       2.643  -7.848   9.505  1.00  0.00    -0.203 F 
ATOM     80  C   UNL     1       1.773  -5.711   9.032  1.00  0.00     0.198 A 
ATOM     81  C   UNL     1      -0.242  -5.498   7.746  1.00  0.00     0.198 A 
ATOM     82  F   UNL     1      -1.359  -7.426   6.983  1.00  0.00    -0.203 F 
ATOM     83  F   UNL     1       2.773  -5.151   9.725  1.00  0.00    -0.200 F 
ATOM     84  C   UNL     1       0.806  -4.912   8.441  1.00  0.00     0.200 A 
ATOM     85  F   UNL     1      -1.170  -4.729   7.160  1.00  0.00    -0.200 F 
ATOM     86  F   UNL     1       0.881  -3.579   8.544  1.00  0.00    -0.200 F 
ENDBRANCH  52  76
BRANCH  64  87
ATOM     87  C   UNL     1      -0.494 -12.837  12.818  1.00  0.00     0.064 A 
ATOM     88  C   UNL     1      -1.700 -12.392  13.377  1.00  0.00     0.173 A 
ATOM     89  C   UNL     1       0.494 -13.327  13.686  1.00  0.00     0.173 A 
ATOM     90  F   UNL     1      -2.669 -11.901  12.589  1.00  0.00    -0.203 F 
ATOM     91  C   UNL     1      -1.900 -12.414  14.755  1.00  0.00     0.198 A 
ATOM     92  C   UNL     1       0.280 -13.374  15.060  1.00  0.00     0.198 A 
ATOM     93  F   UNL     1       1.663 -13.770  13.199  1.00  0.00    -0.203 F 
ATOM     94  F   UNL     1      -3.043 -11.942  15.271  1.00  0.00    -0.200 F 
ATOM     95  C   UNL     1      -0.914 -12.911  15.594  1.00  0.00     0.200 A 
ATOM     96  F   UNL     1       1.228 -13.866  15.868  1.00  0.00    -0.200 F 
ATOM     97  F   UNL     1      -1.111 -12.938  16.919  1.00  0.00    -0.200 F 
ENDBRANCH  64  87
ENDBRANCH  38  39
ENDBRANCH  30  33
ENDBRANCH  28  29
ENDBRANCH  27  28
ENDBRANCH  26  27
ENDBRANCH   3  26
TORSDOF 15
