REMARK SMILES CC[C@@](C)(NC(=O)NCCc1cscn1)C(=O)NCCCNC(=O)c1ccc(-c2c3nc(c(-c4c(F)c(F)c(F)c(F)c4F)c4ccc([nH]4)c(-c4c(F)c(F)c(F)c(F)c4F)c4nc(c(-c5c(F)c(F)c(F)c(F)c5F)c5ccc2[nH]5)C=C4)C=C3)cc1
REMARK SMILES IDX 19 1 18 2 16 3 17 4 3 6 4 7 2 8 1 9 5 10 6 11 7 13 8 14 9 16
REMARK SMILES IDX 10 17 11 18 12 19 15 20 13 21 14 22 20 23 21 24 22 25 23 26
REMARK SMILES IDX 24 28 25 29 26 30 87 31 27 32 86 33 28 34 29 35 30 36 80 37
REMARK SMILES IDX 31 38 85 39 79 40 81 41 32 42 84 43 78 44 77 45 33 47 65 48
REMARK SMILES IDX 45 49 64 50 46 51 49 52 63 53 82 54 47 55 48 56 62 58 83 59
REMARK SMILES IDX 50 60 34 61 35 62 43 63 36 64 37 65 41 66 44 67 38 68 39 69
REMARK SMILES IDX 42 70 40 71 66 72 67 73 75 74 68 75 69 76 73 77 76 78 70 79
REMARK SMILES IDX 71 80 74 81 72 82 51 83 52 84 60 85 53 86 54 87 58 88 61 89
REMARK SMILES IDX 55 90 56 91 59 92 57 93
REMARK H PARENT 18 5 5 12 8 15 22 27 81 46 49 57
REMARK Flexibility Score: inf
ROOT
ATOM      1  C   UNL     1       1.902   3.857  -3.638  1.00  0.00     0.117 C 
ENDROOT
BRANCH   1   2
ATOM      2  N   UNL     1       2.583   2.769  -2.950  1.00  0.00    -0.354 N 
ATOM      3  C   UNL     1       2.262   1.967  -1.884  1.00  0.00     0.245 C 
ATOM      4  O   UNL     1       2.991   0.980  -1.724  1.00  0.00    -0.272 OA
ATOM      5  H   UNL     1       3.467   2.566  -3.332  1.00  0.00     0.163 HD
BRANCH   3   6
ATOM      6  C   UNL     1       1.012   2.199  -0.987  1.00  0.00     0.117 C 
ATOM      7  C   UNL     1      -0.221   1.808  -1.846  1.00  0.00     0.045 C 
BRANCH   6   8
ATOM      8  C   UNL     1       0.906   1.365   0.325  1.00  0.00     0.035 C 
ATOM      9  C   UNL     1       1.013  -0.152   0.211  1.00  0.00     0.007 C 
ENDBRANCH   6   8
BRANCH   6  10
ATOM     10  N   UNL     1       0.928   3.628  -0.631  1.00  0.00    -0.324 N 
ATOM     11  C   UNL     1       1.726   4.524  -0.040  1.00  0.00     0.315 C 
ATOM     12  H   UNL     1       0.065   4.022  -0.896  1.00  0.00     0.166 HD
ATOM     13  O   UNL     1       1.227   5.633   0.180  1.00  0.00    -0.249 OA
ATOM     14  N   UNL     1       3.022   4.370   0.244  1.00  0.00    -0.338 N 
ATOM     15  H   UNL     1       3.466   5.240   0.364  1.00  0.00     0.165 HD
BRANCH  14  16
ATOM     16  C   UNL     1       3.963   3.268   0.426  1.00  0.00     0.124 C 
BRANCH  16  17
ATOM     17  C   UNL     1       5.032   3.111  -0.656  1.00  0.00     0.078 C 
BRANCH  17  18
ATOM     18  C   UNL     1       6.217   4.024  -0.595  1.00  0.00     0.053 A 
ATOM     19  C   UNL     1       7.492   3.681  -1.014  1.00  0.00     0.090 A 
ATOM     20  N   UNL     1       6.077   5.344  -0.192  1.00  0.00    -0.250 NA
ATOM     21  S   UNL     1       8.549   5.019  -0.872  1.00  0.00    -0.130 S 
ATOM     22  C   UNL     1       7.243   5.951  -0.270  1.00  0.00     0.175 A 
ENDBRANCH  17  18
ENDBRANCH  16  17
ENDBRANCH  14  16
ENDBRANCH   6  10
ENDBRANCH   3   6
ENDBRANCH   1   2
BRANCH   1  23
ATOM     23  C   UNL     1       2.302   5.296  -3.306  1.00  0.00     0.042 C 
BRANCH  23  24
ATOM     24  C   UNL     1       3.775   5.674  -3.328  1.00  0.00     0.118 C 
BRANCH  24  25
ATOM     25  N   UNL     1       4.438   5.415  -4.593  1.00  0.00    -0.352 N 
ATOM     26  C   UNL     1       5.288   6.211  -5.321  1.00  0.00     0.251 C 
ATOM     27  H   UNL     1       4.249   4.534  -4.989  1.00  0.00     0.163 HD
ATOM     28  O   UNL     1       5.689   5.818  -6.413  1.00  0.00    -0.269 OA
BRANCH  26  29
ATOM     29  C   UNL     1       5.708   7.548  -4.833  1.00  0.00     0.039 A 
ATOM     30  C   UNL     1       5.736   8.605  -5.749  1.00  0.00     0.014 A 
ATOM     31  C   UNL     1       6.127   7.767  -3.518  1.00  0.00     0.014 A 
ATOM     32  C   UNL     1       6.138   9.881  -5.340  1.00  0.00     0.010 A 
ATOM     33  C   UNL     1       6.479   9.054  -3.095  1.00  0.00     0.010 A 
ATOM     34  C   UNL     1       6.496  10.124  -4.003  1.00  0.00    -0.014 A 
BRANCH  34  35
ATOM     35  C   UNL     1       6.882  11.494  -3.565  1.00  0.00     0.031 A 
ATOM     36  C   UNL     1       8.291  11.800  -3.135  1.00  0.00     0.074 A 
ATOM     37  C   UNL     1       5.955  12.472  -3.540  1.00  0.00     0.049 A 
ATOM     38  N   UNL     1       8.815  12.943  -2.762  1.00  0.00    -0.248 NA
ATOM     39  C   UNL     1       9.233  10.672  -3.102  1.00  0.00     0.031 C 
ATOM     40  C   UNL     1       4.542  12.303  -3.881  1.00  0.00     0.029 A 
ATOM     41  N   UNL     1       6.060  13.803  -3.213  1.00  0.00    -0.354 N 
ATOM     42  C   UNL     1      10.141  12.671  -2.452  1.00  0.00     0.074 A 
ATOM     43  C   UNL     1      10.328  11.246  -2.625  1.00  0.00     0.031 C 
ATOM     44  C   UNL     1       3.919  13.487  -3.772  1.00  0.00     0.029 A 
ATOM     45  C   UNL     1       4.879  14.495  -3.329  1.00  0.00     0.049 A 
ATOM     46  H   UNL     1       6.903  14.221  -2.923  1.00  0.00     0.167 HD
ATOM     47  C   UNL     1      11.120  13.533  -2.083  1.00  0.00     0.037 A 
ATOM     48  C   UNL     1       4.599  15.794  -3.107  1.00  0.00     0.037 A 
ATOM     49  C   UNL     1      10.940  14.954  -1.920  1.00  0.00     0.049 A 
ATOM     50  C   UNL     1       5.703  16.729  -2.689  1.00  0.00     0.074 A 
ATOM     51  C   UNL     1      11.886  15.914  -1.602  1.00  0.00     0.029 A 
ATOM     52  N   UNL     1       9.729  15.618  -2.054  1.00  0.00    -0.354 N 
ATOM     53  N   UNL     1       6.973  16.475  -2.487  1.00  0.00    -0.248 NA
ATOM     54  C   UNL     1       5.335  18.137  -2.485  1.00  0.00     0.031 C 
ATOM     55  C   UNL     1      11.239  17.150  -1.492  1.00  0.00     0.029 A 
ATOM     56  C   UNL     1       9.901  16.971  -1.801  1.00  0.00     0.049 A 
ATOM     57  H   UNL     1       8.874  15.192  -2.293  1.00  0.00     0.167 HD
ATOM     58  C   UNL     1       7.560  17.693  -2.167  1.00  0.00     0.074 A 
ATOM     59  C   UNL     1       6.510  18.688  -2.216  1.00  0.00     0.031 C 
ATOM     60  C   UNL     1       8.854  17.960  -1.863  1.00  0.00     0.037 A 
BRANCH  47  61
ATOM     61  C   UNL     1      12.489  12.965  -1.831  1.00  0.00     0.064 A 
ATOM     62  C   UNL     1      13.280  12.462  -2.876  1.00  0.00     0.173 A 
ATOM     63  C   UNL     1      13.037  12.966  -0.538  1.00  0.00     0.173 A 
ATOM     64  F   UNL     1      12.803  12.432  -4.129  1.00  0.00    -0.203 F 
ATOM     65  C   UNL     1      14.554  11.954  -2.631  1.00  0.00     0.198 A 
ATOM     66  C   UNL     1      14.323  12.487  -0.303  1.00  0.00     0.198 A 
ATOM     67  F   UNL     1      12.329  13.444   0.496  1.00  0.00    -0.203 F 
ATOM     68  F   UNL     1      15.270  11.434  -3.638  1.00  0.00    -0.200 F 
ATOM     69  C   UNL     1      15.077  11.974  -1.348  1.00  0.00     0.200 A 
ATOM     70  F   UNL     1      14.834  12.522   0.935  1.00  0.00    -0.200 F 
ATOM     71  F   UNL     1      16.306  11.492  -1.116  1.00  0.00    -0.200 F 
ENDBRANCH  47  61
BRANCH  48  72
ATOM     72  C   UNL     1       3.216  16.300  -3.312  1.00  0.00     0.064 A 
ATOM     73  C   UNL     1       2.917  17.176  -4.365  1.00  0.00     0.173 A 
ATOM     74  C   UNL     1       2.171  15.933  -2.452  1.00  0.00     0.173 A 
ATOM     75  F   UNL     1       3.888  17.575  -5.201  1.00  0.00    -0.203 F 
ATOM     76  C   UNL     1       1.631  17.683  -4.537  1.00  0.00     0.198 A 
ATOM     77  C   UNL     1       0.878  16.417  -2.644  1.00  0.00     0.198 A 
ATOM     78  F   UNL     1       2.404  15.096  -1.431  1.00  0.00    -0.203 F 
ATOM     79  F   UNL     1       1.385  18.559  -5.521  1.00  0.00    -0.200 F 
ATOM     80  C   UNL     1       0.611  17.299  -3.680  1.00  0.00     0.200 A 
ATOM     81  F   UNL     1      -0.107  16.033  -1.821  1.00  0.00    -0.200 F 
ATOM     82  F   UNL     1      -0.626  17.786  -3.847  1.00  0.00    -0.200 F 
ENDBRANCH  48  72
BRANCH  60  83
ATOM     83  C   UNL     1       9.223  19.393  -1.604  1.00  0.00     0.064 A 
ATOM     84  C   UNL     1       8.802  20.071  -0.450  1.00  0.00     0.173 A 
ATOM     85  C   UNL     1      10.038  20.090  -2.510  1.00  0.00     0.173 A 
ATOM     86  F   UNL     1       8.010  19.457   0.443  1.00  0.00    -0.203 F 
ATOM     87  C   UNL     1       9.156  21.400  -0.229  1.00  0.00     0.198 A 
ATOM     88  C   UNL     1      10.418  21.407  -2.270  1.00  0.00     0.198 A 
ATOM     89  F   UNL     1      10.476  19.488  -3.626  1.00  0.00    -0.203 F 
ATOM     90  F   UNL     1       8.697  22.043   0.854  1.00  0.00    -0.200 F 
ATOM     91  C   UNL     1       9.970  22.064  -1.135  1.00  0.00     0.200 A 
ATOM     92  F   UNL     1      11.217  22.042  -3.139  1.00  0.00    -0.200 F 
ATOM     93  F   UNL     1      10.315  23.340  -0.917  1.00  0.00    -0.200 F 
ENDBRANCH  60  83
ENDBRANCH  34  35
ENDBRANCH  26  29
ENDBRANCH  24  25
ENDBRANCH  23  24
ENDBRANCH   1  23
TORSDOF 15
