REMARK SMILES C[NH2+][C@]1(C(=O)NCCCNC(=O)c2ccc(-c3c4nc(c(-c5c(F)c(F)c(F)c(F)c5F)c5ccc([nH]5)c(-c5c(F)c(F)c(F)c(F)c5F)c5nc(c(-c6c(F)c(F)c(F)c(F)c6F)c6ccc3[nH]6)C=C5)C=C4)cc2)CC[C@H](Sc2ccc(Cl)cn2)C1
REMARK SMILES IDX 8 1 7 2 6 3 4 4 5 5 3 7 76 8 87 9 77 10 78 11 2 12 1 13
REMARK SMILES IDX 79 16 80 17 81 18 86 19 82 20 85 21 83 22 84 23 9 24 10 25
REMARK SMILES IDX 11 26 12 28 13 29 14 30 75 31 15 32 74 33 16 34 17 35 18 36
REMARK SMILES IDX 68 37 19 38 73 39 67 40 69 41 20 42 72 43 66 44 65 45 21 47
REMARK SMILES IDX 53 48 33 49 52 50 34 51 37 52 51 53 70 54 35 55 36 56 50 58
REMARK SMILES IDX 71 59 38 60 22 61 23 62 31 63 24 64 25 65 29 66 32 67 26 68
REMARK SMILES IDX 27 69 30 70 28 71 54 72 55 73 63 74 56 75 57 76 61 77 64 78
REMARK SMILES IDX 58 79 59 80 62 81 60 82 39 83 40 84 48 85 41 86 42 87 46 88
REMARK SMILES IDX 49 89 43 90 44 91 47 92 45 93
REMARK H PARENT 6 6 2 14 2 15 10 27 69 46 37 57
REMARK Flexibility Score: inf
ROOT
ATOM      1  C   UNL     1       0.870   0.412  -4.986  1.00  0.00     0.042 C 
ENDROOT
BRANCH   1   2
ATOM      2  C   UNL     1       0.429  -0.631  -3.970  1.00  0.00     0.118 C 
BRANCH   2   3
ATOM      3  N   UNL     1       1.049  -0.414  -2.675  1.00  0.00    -0.351 N 
ATOM      4  C   UNL     1       0.572  -0.054  -1.449  1.00  0.00     0.281 C 
ATOM      5  O   UNL     1       1.461   0.162  -0.620  1.00  0.00    -0.268 OA
ATOM      6  H   UNL     1       2.023  -0.556  -2.683  1.00  0.00     0.163 HD
BRANCH   4   7
ATOM      7  C   UNL     1      -0.959   0.057  -1.155  1.00  0.00     0.176 C 
ATOM      8  C   UNL     1      -1.595   1.174  -1.998  1.00  0.00     0.080 C 
ATOM      9  C   UNL     1      -1.724  -1.216  -1.584  1.00  0.00     0.094 C 
ATOM     10  C   UNL     1      -3.060   0.782  -2.135  1.00  0.00     0.022 C 
ATOM     11  C   UNL     1      -3.079  -0.751  -2.162  1.00  0.00     0.060 C 
BRANCH   7  12
ATOM     12  N   UNL     1      -1.363   0.382   0.247  1.00  0.00    -0.336 N 
ATOM     13  C   UNL     1      -0.380   0.232   1.303  1.00  0.00     0.331 C 
ATOM     14  H   UNL     1      -1.667   1.355   0.255  1.00  0.00     0.346 HD
ATOM     15  H   UNL     1      -2.076  -0.314   0.469  1.00  0.00     0.346 HD
ENDBRANCH   7  12
BRANCH  11  16
ATOM     16  S   UNL     1      -4.412  -1.509  -1.164  1.00  0.00    -0.103 SA
BRANCH  16  17
ATOM     17  C   UNL     1      -5.938  -0.909  -1.841  1.00  0.00     0.096 A 
ATOM     18  C   UNL     1      -6.082  -0.227  -3.043  1.00  0.00     0.037 A 
ATOM     19  N   UNL     1      -7.005  -1.192  -1.056  1.00  0.00    -0.248 NA
ATOM     20  C   UNL     1      -7.352   0.213  -3.432  1.00  0.00     0.025 A 
ATOM     21  C   UNL     1      -8.228  -0.775  -1.460  1.00  0.00     0.132 A 
ATOM     22  C   UNL     1      -8.446  -0.066  -2.626  1.00  0.00     0.059 A 
ATOM     23  Cl  UNL     1     -10.020   0.448  -3.069  1.00  0.00    -0.083 Cl
ENDBRANCH  16  17
ENDBRANCH  11  16
ENDBRANCH   4   7
ENDBRANCH   2   3
ENDBRANCH   1   2
BRANCH   1  24
ATOM     24  C   UNL     1       2.375   0.465  -5.199  1.00  0.00     0.118 C 
BRANCH  24  25
ATOM     25  N   UNL     1       2.917  -0.789  -5.704  1.00  0.00    -0.352 N 
ATOM     26  C   UNL     1       3.522  -1.065  -6.904  1.00  0.00     0.251 C 
ATOM     27  H   UNL     1       2.837  -1.555  -5.091  1.00  0.00     0.163 HD
ATOM     28  O   UNL     1       3.734  -2.230  -7.231  1.00  0.00    -0.269 OA
BRANCH  26  29
ATOM     29  C   UNL     1       3.893   0.037  -7.814  1.00  0.00     0.039 A 
ATOM     30  C   UNL     1       3.651  -0.102  -9.183  1.00  0.00     0.014 A 
ATOM     31  C   UNL     1       4.474   1.206  -7.319  1.00  0.00     0.014 A 
ATOM     32  C   UNL     1       3.929   0.962 -10.044  1.00  0.00     0.010 A 
ATOM     33  C   UNL     1       4.650   2.299  -8.159  1.00  0.00     0.010 A 
ATOM     34  C   UNL     1       4.393   2.185  -9.533  1.00  0.00    -0.014 A 
BRANCH  34  35
ATOM     35  C   UNL     1       4.639   3.351 -10.418  1.00  0.00     0.031 A 
ATOM     36  C   UNL     1       6.022   3.931 -10.526  1.00  0.00     0.074 A 
ATOM     37  C   UNL     1       3.609   3.927 -11.068  1.00  0.00     0.049 A 
ATOM     38  N   UNL     1       6.429   4.989 -11.181  1.00  0.00    -0.248 NA
ATOM     39  C   UNL     1       7.087   3.250  -9.771  1.00  0.00     0.031 C 
ATOM     40  C   UNL     1       2.214   3.488 -11.004  1.00  0.00     0.029 A 
ATOM     41  N   UNL     1       3.575   5.015 -11.905  1.00  0.00    -0.354 N 
ATOM     42  C   UNL     1       7.784   5.108 -10.901  1.00  0.00     0.074 A 
ATOM     43  C   UNL     1       8.119   4.056  -9.968  1.00  0.00     0.031 C 
ATOM     44  C   UNL     1       1.467   4.279 -11.790  1.00  0.00     0.029 A 
ATOM     45  C   UNL     1       2.319   5.308 -12.377  1.00  0.00     0.049 A 
ATOM     46  H   UNL     1       4.376   5.536 -12.143  1.00  0.00     0.167 HD
ATOM     47  C   UNL     1       8.675   5.998 -11.399  1.00  0.00     0.037 A 
ATOM     48  C   UNL     1       1.903   6.300 -13.187  1.00  0.00     0.037 A 
ATOM     49  C   UNL     1       8.341   7.026 -12.348  1.00  0.00     0.049 A 
ATOM     50  C   UNL     1       2.912   7.282 -13.719  1.00  0.00     0.074 A 
ATOM     51  C   UNL     1       9.181   7.938 -12.963  1.00  0.00     0.029 A 
ATOM     52  N   UNL     1       7.061   7.281 -12.817  1.00  0.00    -0.354 N 
ATOM     53  N   UNL     1       4.205   7.340 -13.506  1.00  0.00    -0.248 NA
ATOM     54  C   UNL     1       2.405   8.334 -14.610  1.00  0.00     0.031 C 
ATOM     55  C   UNL     1       8.400   8.782 -13.758  1.00  0.00     0.029 A 
ATOM     56  C   UNL     1       7.084   8.355 -13.693  1.00  0.00     0.049 A 
ATOM     57  H   UNL     1       6.255   6.775 -12.565  1.00  0.00     0.167 HD
ATOM     58  C   UNL     1       4.670   8.408 -14.263  1.00  0.00     0.074 A 
ATOM     59  C   UNL     1       3.522   8.961 -14.950  1.00  0.00     0.031 C 
ATOM     60  C   UNL     1       5.933   8.886 -14.379  1.00  0.00     0.037 A 
BRANCH  47  61
ATOM     61  C   UNL     1      10.098   5.897 -10.925  1.00  0.00     0.064 A 
ATOM     62  C   UNL     1      10.915   4.808 -11.264  1.00  0.00     0.173 A 
ATOM     63  C   UNL     1      10.661   6.919 -10.145  1.00  0.00     0.173 A 
ATOM     64  F   UNL     1      10.424   3.797 -11.997  1.00  0.00    -0.203 F 
ATOM     65  C   UNL     1      12.230   4.728 -10.812  1.00  0.00     0.198 A 
ATOM     66  C   UNL     1      11.987   6.854  -9.725  1.00  0.00     0.198 A 
ATOM     67  F   UNL     1       9.928   7.987  -9.796  1.00  0.00    -0.203 F 
ATOM     68  F   UNL     1      12.972   3.650 -11.101  1.00  0.00    -0.200 F 
ATOM     69  C   UNL     1      12.767   5.754 -10.050  1.00  0.00     0.200 A 
ATOM     70  F   UNL     1      12.510   7.854  -9.002  1.00  0.00    -0.200 F 
ATOM     71  F   UNL     1      14.035   5.681  -9.623  1.00  0.00    -0.200 F 
ENDBRANCH  47  61
BRANCH  48  72
ATOM     72  C   UNL     1       0.468   6.401 -13.566  1.00  0.00     0.064 A 
ATOM     73  C   UNL     1       0.054   6.169 -14.886  1.00  0.00     0.173 A 
ATOM     74  C   UNL     1      -0.515   6.741 -12.626  1.00  0.00     0.173 A 
ATOM     75  F   UNL     1       0.958   5.859 -15.826  1.00  0.00    -0.203 F 
ATOM     76  C   UNL     1      -1.284   6.300 -15.255  1.00  0.00     0.198 A 
ATOM     77  C   UNL     1      -1.857   6.839 -12.989  1.00  0.00     0.198 A 
ATOM     78  F   UNL     1      -0.175   6.965 -11.348  1.00  0.00    -0.203 F 
ATOM     79  F   UNL     1      -1.643   6.124 -16.534  1.00  0.00    -0.200 F 
ATOM     80  C   UNL     1      -2.239   6.629 -14.306  1.00  0.00     0.200 A 
ATOM     81  F   UNL     1      -2.779   7.139 -12.065  1.00  0.00    -0.200 F 
ATOM     82  F   UNL     1      -3.525   6.751 -14.660  1.00  0.00    -0.200 F 
ENDBRANCH  48  72
BRANCH  60  83
ATOM     83  C   UNL     1       6.152  10.035 -15.321  1.00  0.00     0.064 A 
ATOM     84  C   UNL     1       5.679  11.325 -15.040  1.00  0.00     0.173 A 
ATOM     85  C   UNL     1       6.885   9.849 -16.504  1.00  0.00     0.173 A 
ATOM     86  F   UNL     1       4.961  11.554 -13.930  1.00  0.00    -0.203 F 
ATOM     87  C   UNL     1       5.904  12.378 -15.922  1.00  0.00     0.198 A 
ATOM     88  C   UNL     1       7.139  10.911 -17.366  1.00  0.00     0.198 A 
ATOM     89  F   UNL     1       7.368   8.637 -16.817  1.00  0.00    -0.203 F 
ATOM     90  F   UNL     1       5.396  13.590 -15.660  1.00  0.00    -0.200 F 
ATOM     91  C   UNL     1       6.641  12.173 -17.079  1.00  0.00     0.200 A 
ATOM     92  F   UNL     1       7.867  10.714 -18.474  1.00  0.00    -0.200 F 
ATOM     93  F   UNL     1       6.865  13.190 -17.923  1.00  0.00    -0.200 F 
ENDBRANCH  60  83
ENDBRANCH  34  35
ENDBRANCH  26  29
ENDBRANCH  24  25
ENDBRANCH   1  24
TORSDOF 13
