REMARK SMILES O=C(NCCCNC(=O)C1CCN(c2nc(-c3ccc(F)cc3)cc(C(F)F)n2)CC1)c1ccc(-c2c3nc(c(-c4c(F)c(F)c(F)c(F)c4F)c4ccc([nH]4)c(-c4c(F)c(F)c(F)c(F)c4F)c4nc(c(-c5c(F)c(F)c(F)c(F)c5F)c5ccc2[nH]5)C=C4)C=C3)cc1
REMARK SMILES IDX 5 1 4 2 3 3 1 4 2 5 32 7 33 8 94 9 34 10 93 11 35 12 36 13
REMARK SMILES IDX 37 14 87 15 38 16 92 17 86 18 88 19 39 20 91 21 85 22 84 23
REMARK SMILES IDX 40 25 72 26 52 27 71 28 53 29 56 30 70 31 89 32 54 33 55 34
REMARK SMILES IDX 69 36 90 37 57 38 41 39 42 40 50 41 43 42 44 43 48 44 51 45
REMARK SMILES IDX 45 46 46 47 49 48 47 49 73 50 74 51 82 52 75 53 76 54 80 55
REMARK SMILES IDX 83 56 77 57 78 58 81 59 79 60 58 61 59 62 67 63 60 64 61 65
REMARK SMILES IDX 65 66 68 67 62 68 63 69 66 70 64 71 6 72 7 73 8 74 9 76
REMARK SMILES IDX 10 77 11 78 31 79 12 80 30 81 13 82 14 83 15 84 29 85 16 86
REMARK SMILES IDX 25 87 24 88 17 89 18 90 23 91 19 92 22 93 20 94 21 95 26 96
REMARK SMILES IDX 27 97 28 98
REMARK H PARENT 3 6 88 24 56 35 7 75
REMARK Flexibility Score: inf
ROOT
ATOM      1  C   UNL     1       4.895   2.268  -0.983  1.00  0.00     0.042 C 
ENDROOT
BRANCH   1   2
ATOM      2  C   UNL     1       4.508   1.326   0.145  1.00  0.00     0.118 C 
BRANCH   2   3
ATOM      3  N   UNL     1       3.073   1.088   0.219  1.00  0.00    -0.352 N 
ATOM      4  O   UNL     1       1.123   0.004  -0.097  1.00  0.00    -0.269 OA
ATOM      5  C   UNL     1       2.349  -0.049  -0.046  1.00  0.00     0.251 C 
ATOM      6  H   UNL     1       2.538   1.864   0.502  1.00  0.00     0.163 HD
BRANCH   5   7
ATOM      7  C   UNL     1       3.041  -1.331  -0.293  1.00  0.00     0.039 A 
ATOM      8  C   UNL     1       4.138  -1.709   0.480  1.00  0.00     0.014 A 
ATOM      9  C   UNL     1       2.571  -2.180  -1.300  1.00  0.00     0.014 A 
ATOM     10  C   UNL     1       4.868  -2.839   0.139  1.00  0.00     0.010 A 
ATOM     11  C   UNL     1       3.241  -3.378  -1.569  1.00  0.00     0.010 A 
ATOM     12  C   UNL     1       4.413  -3.702  -0.870  1.00  0.00    -0.014 A 
BRANCH  12  13
ATOM     13  C   UNL     1       5.137  -4.976  -1.104  1.00  0.00     0.031 A 
ATOM     14  C   UNL     1       5.821  -5.260  -2.409  1.00  0.00     0.074 A 
ATOM     15  C   UNL     1       5.203  -5.865  -0.092  1.00  0.00     0.049 A 
ATOM     16  N   UNL     1       6.507  -6.319  -2.762  1.00  0.00    -0.248 NA
ATOM     17  C   UNL     1       5.725  -4.233  -3.458  1.00  0.00     0.031 C 
ATOM     18  C   UNL     1       4.568  -5.694   1.217  1.00  0.00     0.029 A 
ATOM     19  N   UNL     1       5.848  -7.070   0.009  1.00  0.00    -0.354 N 
ATOM     20  C   UNL     1       6.908  -6.095  -4.072  1.00  0.00     0.074 A 
ATOM     21  C   UNL     1       6.374  -4.808  -4.464  1.00  0.00     0.031 C 
ATOM     22  C   UNL     1       4.903  -6.722   2.008  1.00  0.00     0.029 A 
ATOM     23  C   UNL     1       5.711  -7.662   1.241  1.00  0.00     0.049 A 
ATOM     24  H   UNL     1       6.360  -7.473  -0.730  1.00  0.00     0.167 HD
ATOM     25  C   UNL     1       7.661  -6.893  -4.866  1.00  0.00     0.037 A 
ATOM     26  C   UNL     1       6.167  -8.841   1.701  1.00  0.00     0.037 A 
ATOM     27  C   UNL     1       8.209  -8.161  -4.457  1.00  0.00     0.049 A 
ATOM     28  C   UNL     1       6.977  -9.712   0.786  1.00  0.00     0.074 A 
ATOM     29  C   UNL     1       9.014  -9.023  -5.182  1.00  0.00     0.029 A 
ATOM     30  N   UNL     1       8.012  -8.747  -3.216  1.00  0.00    -0.354 N 
ATOM     31  N   UNL     1       7.362  -9.480  -0.444  1.00  0.00    -0.248 NA
ATOM     32  C   UNL     1       7.406 -11.013   1.317  1.00  0.00     0.031 C 
ATOM     33  C   UNL     1       9.266 -10.151  -4.397  1.00  0.00     0.029 A 
ATOM     34  C   UNL     1       8.660  -9.971  -3.164  1.00  0.00     0.049 A 
ATOM     35  H   UNL     1       7.489  -8.352  -2.481  1.00  0.00     0.167 HD
ATOM     36  C   UNL     1       8.084 -10.597  -0.834  1.00  0.00     0.074 A 
ATOM     37  C   UNL     1       8.104 -11.499   0.300  1.00  0.00     0.031 C 
ATOM     38  C   UNL     1       8.669 -10.855  -2.028  1.00  0.00     0.037 A 
BRANCH  25  39
ATOM     39  C   UNL     1       7.949  -6.436  -6.266  1.00  0.00     0.064 A 
ATOM     40  C   UNL     1       7.368  -7.097  -7.360  1.00  0.00     0.173 A 
ATOM     41  C   UNL     1       8.885  -5.426  -6.529  1.00  0.00     0.173 A 
ATOM     42  F   UNL     1       6.472  -8.075  -7.161  1.00  0.00    -0.203 F 
ATOM     43  C   UNL     1       7.732  -6.779  -8.665  1.00  0.00     0.198 A 
ATOM     44  C   UNL     1       9.230  -5.095  -7.838  1.00  0.00     0.198 A 
ATOM     45  F   UNL     1       9.461  -4.759  -5.518  1.00  0.00    -0.203 F 
ATOM     46  F   UNL     1       7.195  -7.451  -9.693  1.00  0.00    -0.200 F 
ATOM     47  C   UNL     1       8.664  -5.779  -8.903  1.00  0.00     0.200 A 
ATOM     48  F   UNL     1      10.118  -4.118  -8.067  1.00  0.00    -0.200 F 
ATOM     49  F   UNL     1       9.018  -5.477 -10.160  1.00  0.00    -0.200 F 
ENDBRANCH  25  39
BRANCH  26  50
ATOM     50  C   UNL     1       5.853  -9.256   3.091  1.00  0.00     0.064 A 
ATOM     51  C   UNL     1       4.539  -9.558   3.480  1.00  0.00     0.173 A 
ATOM     52  C   UNL     1       6.854  -9.322   4.069  1.00  0.00     0.173 A 
ATOM     53  F   UNL     1       3.544  -9.503   2.583  1.00  0.00    -0.203 F 
ATOM     54  C   UNL     1       4.236  -9.886   4.799  1.00  0.00     0.198 A 
ATOM     55  C   UNL     1       6.554  -9.681   5.381  1.00  0.00     0.198 A 
ATOM     56  F   UNL     1       8.128  -9.059   3.741  1.00  0.00    -0.203 F 
ATOM     57  F   UNL     1       2.966 -10.128   5.152  1.00  0.00    -0.200 F 
ATOM     58  C   UNL     1       5.244  -9.953   5.747  1.00  0.00     0.200 A 
ATOM     59  F   UNL     1       7.535  -9.767   6.290  1.00  0.00    -0.200 F 
ATOM     60  F   UNL     1       4.955 -10.281   7.013  1.00  0.00    -0.200 F 
ENDBRANCH  26  50
BRANCH  38  61
ATOM     61  C   UNL     1       9.392 -12.160  -2.172  1.00  0.00     0.064 A 
ATOM     62  C   UNL     1      10.792 -12.194  -2.248  1.00  0.00     0.173 A 
ATOM     63  C   UNL     1       8.694 -13.369  -2.304  1.00  0.00     0.173 A 
ATOM     64  F   UNL     1      11.503 -11.062  -2.134  1.00  0.00    -0.203 F 
ATOM     65  C   UNL     1      11.467 -13.391  -2.465  1.00  0.00     0.198 A 
ATOM     66  C   UNL     1       9.373 -14.568  -2.494  1.00  0.00     0.198 A 
ATOM     67  F   UNL     1       7.355 -13.387  -2.223  1.00  0.00    -0.203 F 
ATOM     68  F   UNL     1      12.803 -13.397  -2.566  1.00  0.00    -0.200 F 
ATOM     69  C   UNL     1      10.758 -14.577  -2.584  1.00  0.00     0.200 A 
ATOM     70  F   UNL     1       8.689 -15.717  -2.585  1.00  0.00    -0.200 F 
ATOM     71  F   UNL     1      11.409 -15.731  -2.784  1.00  0.00    -0.200 F 
ENDBRANCH  38  61
ENDBRANCH  12  13
ENDBRANCH   5   7
ENDBRANCH   2   3
ENDBRANCH   1   2
BRANCH   1  72
ATOM     72  C   UNL     1       4.361   3.679  -0.809  1.00  0.00     0.117 C 
BRANCH  72  73
ATOM     73  N   UNL     1       4.840   4.297   0.416  1.00  0.00    -0.356 N 
ATOM     74  C   UNL     1       5.622   5.401   0.585  1.00  0.00     0.223 C 
ATOM     75  H   UNL     1       4.557   3.853   1.247  1.00  0.00     0.163 HD
ATOM     76  O   UNL     1       5.991   5.675   1.726  1.00  0.00    -0.275 OA
BRANCH  74  77
ATOM     77  C   UNL     1       5.987   6.237  -0.633  1.00  0.00     0.082 C 
ATOM     78  C   UNL     1       7.056   7.296  -0.299  1.00  0.00     0.035 C 
ATOM     79  C   UNL     1       4.732   6.898  -1.231  1.00  0.00     0.035 C 
ATOM     80  C   UNL     1       6.502   8.492   0.478  1.00  0.00     0.120 C 
ATOM     81  C   UNL     1       4.196   8.003  -0.323  1.00  0.00     0.120 C 
ATOM     82  N   UNL     1       5.269   8.943  -0.132  1.00  0.00    -0.341 N 
BRANCH  82  83
ATOM     83  C   UNL     1       5.067  10.260  -0.422  1.00  0.00     0.226 A 
ATOM     84  N   UNL     1       6.024  10.917  -1.084  1.00  0.00    -0.213 NA
ATOM     85  N   UNL     1       3.888  10.809  -0.101  1.00  0.00    -0.212 NA
ATOM     86  C   UNL     1       5.773  12.187  -1.448  1.00  0.00     0.076 A 
ATOM     87  C   UNL     1       3.672  12.105  -0.413  1.00  0.00     0.112 A 
ATOM     88  C   UNL     1       4.606  12.841  -1.111  1.00  0.00     0.059 A 
BRANCH  86  89
ATOM     89  C   UNL     1       6.794  12.819  -2.287  1.00  0.00     0.001 A 
ATOM     90  C   UNL     1       7.482  13.966  -1.857  1.00  0.00     0.013 A 
ATOM     91  C   UNL     1       7.087  12.298  -3.562  1.00  0.00     0.013 A 
ATOM     92  C   UNL     1       8.423  14.584  -2.684  1.00  0.00     0.040 A 
ATOM     93  C   UNL     1       8.021  12.921  -4.393  1.00  0.00     0.040 A 
ATOM     94  C   UNL     1       8.678  14.060  -3.946  1.00  0.00     0.123 A 
ATOM     95  F   UNL     1       9.570  14.663  -4.742  1.00  0.00    -0.207 F 
ENDBRANCH  86  89
BRANCH  87  96
ATOM     96  C   UNL     1       2.369  12.730   0.027  1.00  0.00     0.391 C 
ATOM     97  F   UNL     1       1.270  12.076  -0.447  1.00  0.00    -0.203 F 
ATOM     98  F   UNL     1       2.228  12.775   1.383  1.00  0.00    -0.203 F 
ENDBRANCH  87  96
ENDBRANCH  82  83
ENDBRANCH  74  77
ENDBRANCH  72  73
ENDBRANCH   1  72
TORSDOF 13
