REMARK SMILES CCC[NH2+][C@]1(C(=O)NCCCNC(=O)c2ccc(-c3c4nc(c(-c5c(F)c(F)c(F)c(F)c5F)c5ccc([nH]5)c(-c5c(F)c(F)c(F)c(F)c5F)c5nc(c(-c6c(F)c(F)c(F)c(F)c6F)c6ccc3[nH]6)C=C5)C=C4)cc2)CC[C@H](n2nc(C)c(CC)c2C)C1
REMARK SMILES IDX 9 1 8 2 6 3 7 4 5 6 78 7 90 8 79 9 80 10 4 11 3 14 2 15 1 16
REMARK SMILES IDX 81 17 82 18 88 19 83 20 85 21 89 22 84 23 86 24 87 25 10 26
REMARK SMILES IDX 11 27 12 28 13 29 14 31 15 32 16 33 77 34 17 35 76 36 18 37
REMARK SMILES IDX 19 38 20 39 70 40 21 41 75 42 69 43 71 44 22 45 74 46 68 47
REMARK SMILES IDX 67 48 23 50 55 51 35 52 54 53 36 54 39 55 53 56 72 57 37 58
REMARK SMILES IDX 38 59 52 61 73 62 40 63 24 64 25 65 33 66 26 67 27 68 31 69
REMARK SMILES IDX 34 70 28 71 29 72 32 73 30 74 56 75 57 76 65 77 58 78 59 79
REMARK SMILES IDX 63 80 66 81 60 82 61 83 64 84 62 85 41 86 42 87 50 88 43 89
REMARK SMILES IDX 44 90 48 91 51 92 45 93 46 94 49 95 47 96
REMARK H PARENT 8 5 4 12 4 13 12 30 71 49 39 60
REMARK Flexibility Score: inf
ROOT
ATOM      1  C   UNL     1       1.492  -1.687   1.619  1.00  0.00     0.118 C 
ENDROOT
BRANCH   1   2
ATOM      2  N   UNL     1       0.415  -2.017   0.700  1.00  0.00    -0.351 N 
ATOM      3  C   UNL     1      -0.029  -3.242   0.265  1.00  0.00     0.281 C 
ATOM      4  O   UNL     1      -1.185  -3.264  -0.176  1.00  0.00    -0.268 OA
ATOM      5  H   UNL     1      -0.070  -1.244   0.332  1.00  0.00     0.163 HD
BRANCH   3   6
ATOM      6  C   UNL     1       0.909  -4.490   0.113  1.00  0.00     0.177 C 
ATOM      7  C   UNL     1       0.145  -5.827   0.112  1.00  0.00     0.081 C 
ATOM      8  C   UNL     1       1.365  -4.481  -1.363  1.00  0.00     0.106 C 
ATOM      9  C   UNL     1       1.076  -6.780  -0.651  1.00  0.00     0.034 C 
ATOM     10  C   UNL     1       1.774  -5.917  -1.748  1.00  0.00     0.114 C 
BRANCH   6  11
ATOM     11  N   UNL     1       1.918  -4.535   1.189  1.00  0.00    -0.334 N 
ATOM     12  H   UNL     1       1.834  -3.665   1.715  1.00  0.00     0.347 HD
ATOM     13  H   UNL     1       1.702  -5.393   1.695  1.00  0.00     0.347 HD
BRANCH  11  14
ATOM     14  C   UNL     1       3.318  -4.682   0.830  1.00  0.00     0.261 C 
BRANCH  14  15
ATOM     15  C   UNL     1       4.295  -4.323   1.949  1.00  0.00     0.058 C 
ATOM     16  C   UNL     1       4.140  -5.188   3.183  1.00  0.00     0.010 C 
ENDBRANCH  14  15
ENDBRANCH  11  14
ENDBRANCH   6  11
BRANCH  10  17
ATOM     17  N   UNL     1       3.205  -6.173  -1.920  1.00  0.00    -0.266 N 
ATOM     18  N   UNL     1       3.655  -7.430  -1.698  1.00  0.00    -0.178 NA
ATOM     19  C   UNL     1       4.237  -5.331  -2.291  1.00  0.00     0.039 A 
ATOM     20  C   UNL     1       4.988  -7.323  -1.694  1.00  0.00     0.063 A 
ATOM     21  C   UNL     1       5.409  -5.995  -1.948  1.00  0.00    -0.004 A 
ATOM     22  C   UNL     1       4.112  -3.976  -2.889  1.00  0.00     0.066 C 
ATOM     23  C   UNL     1       5.820  -8.530  -1.464  1.00  0.00     0.069 C 
BRANCH  21  24
ATOM     24  C   UNL     1       6.799  -5.436  -1.958  1.00  0.00     0.036 C 
ATOM     25  C   UNL     1       7.522  -5.562  -0.622  1.00  0.00     0.009 C 
ENDBRANCH  21  24
ENDBRANCH  10  17
ENDBRANCH   3   6
ENDBRANCH   1   2
BRANCH   1  26
ATOM     26  C   UNL     1       2.283  -0.442   1.257  1.00  0.00     0.042 C 
BRANCH  26  27
ATOM     27  C   UNL     1       1.539   0.863   1.477  1.00  0.00     0.118 C 
BRANCH  27  28
ATOM     28  N   UNL     1       1.180   1.085   2.872  1.00  0.00    -0.352 N 
ATOM     29  C   UNL     1       1.527   2.088   3.746  1.00  0.00     0.251 C 
ATOM     30  H   UNL     1       0.587   0.399   3.255  1.00  0.00     0.163 HD
ATOM     31  O   UNL     1       1.234   1.984   4.930  1.00  0.00    -0.269 OA
BRANCH  29  32
ATOM     32  C   UNL     1       2.272   3.280   3.278  1.00  0.00     0.039 A 
ATOM     33  C   UNL     1       3.252   3.828   4.112  1.00  0.00     0.014 A 
ATOM     34  C   UNL     1       2.001   3.874   2.045  1.00  0.00     0.014 A 
ATOM     35  C   UNL     1       4.007   4.919   3.675  1.00  0.00     0.010 A 
ATOM     36  C   UNL     1       2.818   4.895   1.570  1.00  0.00     0.010 A 
ATOM     37  C   UNL     1       3.828   5.433   2.381  1.00  0.00    -0.014 A 
BRANCH  37  38
ATOM     38  C   UNL     1       4.684   6.527   1.855  1.00  0.00     0.031 A 
ATOM     39  C   UNL     1       4.075   7.840   1.450  1.00  0.00     0.074 A 
ATOM     40  C   UNL     1       6.002   6.310   1.672  1.00  0.00     0.049 A 
ATOM     41  N   UNL     1       4.644   8.883   0.898  1.00  0.00    -0.248 NA
ATOM     42  C   UNL     1       2.628   7.992   1.666  1.00  0.00     0.031 C 
ATOM     43  C   UNL     1       6.704   5.063   1.977  1.00  0.00     0.029 A 
ATOM     44  N   UNL     1       6.983   7.129   1.171  1.00  0.00    -0.354 N 
ATOM     45  C   UNL     1       3.625   9.802   0.687  1.00  0.00     0.074 A 
ATOM     46  C   UNL     1       2.394   9.173   1.115  1.00  0.00     0.031 C 
ATOM     47  C   UNL     1       8.004   5.206   1.680  1.00  0.00     0.029 A 
ATOM     48  C   UNL     1       8.221   6.536   1.121  1.00  0.00     0.049 A 
ATOM     49  H   UNL     1       6.816   8.053   0.876  1.00  0.00     0.167 HD
ATOM     50  C   UNL     1       3.711  11.064   0.203  1.00  0.00     0.037 A 
ATOM     51  C   UNL     1       9.397   7.007   0.663  1.00  0.00     0.037 A 
ATOM     52  C   UNL     1       4.941  11.692  -0.203  1.00  0.00     0.049 A 
ATOM     53  C   UNL     1       9.465   8.407   0.116  1.00  0.00     0.074 A 
ATOM     54  C   UNL     1       5.144  12.988  -0.644  1.00  0.00     0.029 A 
ATOM     55  N   UNL     1       6.179  11.064  -0.227  1.00  0.00    -0.354 N 
ATOM     56  N   UNL     1       8.508   9.295  -0.008  1.00  0.00    -0.248 NA
ATOM     57  C   UNL     1      10.779   8.873  -0.348  1.00  0.00     0.031 C 
ATOM     58  C   UNL     1       6.491  13.125  -0.994  1.00  0.00     0.029 A 
ATOM     59  C   UNL     1       7.143  11.937  -0.707  1.00  0.00     0.049 A 
ATOM     60  H   UNL     1       6.347  10.136   0.055  1.00  0.00     0.167 HD
ATOM     61  C   UNL     1       9.107  10.431  -0.536  1.00  0.00     0.074 A 
ATOM     62  C   UNL     1      10.513  10.125  -0.695  1.00  0.00     0.031 C 
ATOM     63  C   UNL     1       8.541  11.620  -0.859  1.00  0.00     0.037 A 
BRANCH  50  64
ATOM     64  C   UNL     1       2.435  11.849   0.078  1.00  0.00     0.064 A 
ATOM     65  C   UNL     1       1.712  12.271   1.205  1.00  0.00     0.173 A 
ATOM     66  C   UNL     1       1.942  12.208  -1.186  1.00  0.00     0.173 A 
ATOM     67  F   UNL     1       2.132  11.948   2.438  1.00  0.00    -0.203 F 
ATOM     68  C   UNL     1       0.525  12.988   1.071  1.00  0.00     0.198 A 
ATOM     69  C   UNL     1       0.774  12.957  -1.315  1.00  0.00     0.198 A 
ATOM     70  F   UNL     1       2.595  11.839  -2.297  1.00  0.00    -0.203 F 
ATOM     71  F   UNL     1      -0.178  13.326   2.160  1.00  0.00    -0.200 F 
ATOM     72  C   UNL     1       0.062  13.336  -0.189  1.00  0.00     0.200 A 
ATOM     73  F   UNL     1       0.337  13.306  -2.533  1.00  0.00    -0.200 F 
ATOM     74  F   UNL     1      -1.077  14.031  -0.317  1.00  0.00    -0.200 F 
ENDBRANCH  50  64
BRANCH  51  75
ATOM     75  C   UNL     1      10.609   6.148   0.720  1.00  0.00     0.064 A 
ATOM     76  C   UNL     1      11.666   6.449   1.591  1.00  0.00     0.173 A 
ATOM     77  C   UNL     1      10.734   5.007  -0.086  1.00  0.00     0.173 A 
ATOM     78  F   UNL     1      11.602   7.540   2.368  1.00  0.00    -0.203 F 
ATOM     79  C   UNL     1      12.808   5.653   1.640  1.00  0.00     0.198 A 
ATOM     80  C   UNL     1      11.863   4.194  -0.014  1.00  0.00     0.198 A 
ATOM     81  F   UNL     1       9.749   4.670  -0.932  1.00  0.00    -0.203 F 
ATOM     82  F   UNL     1      13.822   5.989   2.449  1.00  0.00    -0.200 F 
ATOM     83  C   UNL     1      12.903   4.522   0.843  1.00  0.00     0.200 A 
ATOM     84  F   UNL     1      11.942   3.092  -0.772  1.00  0.00    -0.200 F 
ATOM     85  F   UNL     1      13.998   3.751   0.897  1.00  0.00    -0.200 F 
ENDBRANCH  51  75
BRANCH  63  86
ATOM     86  C   UNL     1       9.449  12.696  -1.385  1.00  0.00     0.064 A 
ATOM     87  C   UNL     1      10.034  12.615  -2.658  1.00  0.00     0.173 A 
ATOM     88  C   UNL     1       9.703  13.845  -0.619  1.00  0.00     0.173 A 
ATOM     89  F   UNL     1       9.835  11.532  -3.424  1.00  0.00    -0.203 F 
ATOM     90  C   UNL     1      10.860  13.630  -3.132  1.00  0.00     0.198 A 
ATOM     91  C   UNL     1      10.502  14.873  -1.111  1.00  0.00     0.198 A 
ATOM     92  F   UNL     1       9.164  13.977   0.602  1.00  0.00    -0.203 F 
ATOM     93  F   UNL     1      11.450  13.507  -4.329  1.00  0.00    -0.200 F 
ATOM     94  C   UNL     1      11.087  14.762  -2.362  1.00  0.00     0.200 A 
ATOM     95  F   UNL     1      10.705  15.973  -0.372  1.00  0.00    -0.200 F 
ATOM     96  F   UNL     1      11.874  15.742  -2.825  1.00  0.00    -0.200 F 
ENDBRANCH  63  86
ENDBRANCH  37  38
ENDBRANCH  29  32
ENDBRANCH  27  28
ENDBRANCH  26  27
ENDBRANCH   1  26
TORSDOF 15
