REMARK SMILES COc1ccc(Br)cc1CNc1ccc(N2CCOCC2)c(C(=O)NCCCNC(=O)c2ccc(-c3c4nc(c(-c5c(F)c(F)c(F)c(F)c5F)c5ccc([nH]5)c(-c5c(F)c(F)c(F)c(F)c5F)c5nc(c(-c6c(F)c(F)c(F)c(F)c6F)c6ccc3[nH]6)C=C5)C=C4)cc2)c1
REMARK SMILES IDX 26 1 25 2 23 3 24 4 22 6 12 7 13 8 95 9 14 10 15 11 11 12
REMARK SMILES IDX 10 14 9 15 3 16 4 17 5 18 8 19 6 20 7 21 2 22 1 23 16 24
REMARK SMILES IDX 17 25 21 26 18 27 20 28 19 29 27 30 28 31 29 32 30 33 31 35
REMARK SMILES IDX 32 36 33 37 94 38 34 39 93 40 35 41 36 42 37 43 87 44 38 45
REMARK SMILES IDX 92 46 86 47 88 48 39 49 91 50 85 51 84 52 40 54 72 55 52 56
REMARK SMILES IDX 71 57 53 58 56 59 70 60 89 61 54 62 55 63 69 65 90 66 57 67
REMARK SMILES IDX 41 68 42 69 50 70 43 71 44 72 48 73 51 74 45 75 46 76 49 77
REMARK SMILES IDX 47 78 73 79 74 80 82 81 75 82 76 83 80 84 83 85 77 86 78 87
REMARK SMILES IDX 81 88 79 89 58 90 59 91 67 92 60 93 61 94 65 95 68 96 62 97
REMARK SMILES IDX 63 98 66 99 64 100
REMARK H PARENT 25 5 11 13 29 34 88 53 56 64
REMARK Flexibility Score: inf
ROOT
ATOM      1  C   UNL     1      -4.772  -3.936   1.001  1.00  0.00     0.118 C 
ENDROOT
BRANCH   1   2
ATOM      2  N   UNL     1      -5.738  -4.837   0.381  1.00  0.00    -0.352 N 
ATOM      3  C   UNL     1      -6.029  -5.219  -0.917  1.00  0.00     0.253 C 
ATOM      4  O   UNL     1      -6.894  -6.087  -1.025  1.00  0.00    -0.269 OA
ATOM      5  H   UNL     1      -6.320  -5.277   1.041  1.00  0.00     0.163 HD
BRANCH   3   6
ATOM      6  C   UNL     1      -5.376  -4.600  -2.117  1.00  0.00     0.065 A 
ATOM      7  C   UNL     1      -3.444  -3.319  -2.931  1.00  0.00     0.035 A 
ATOM      8  C   UNL     1      -4.115  -3.128  -4.134  1.00  0.00     0.028 A 
ATOM      9  C   UNL     1      -4.061  -4.138  -1.990  1.00  0.00     0.041 A 
ATOM     10  C   UNL     1      -5.339  -3.759  -4.374  1.00  0.00     0.029 A 
ATOM     11  C   UNL     1      -5.984  -4.527  -3.387  1.00  0.00     0.050 A 
BRANCH   7  12
ATOM     12  N   UNL     1      -2.200  -2.762  -2.742  1.00  0.00    -0.381 N 
ATOM     13  H   UNL     1      -1.799  -2.288  -3.505  1.00  0.00     0.160 HD
BRANCH  12  14
ATOM     14  C   UNL     1      -1.426  -2.816  -1.509  1.00  0.00     0.152 C 
BRANCH  14  15
ATOM     15  C   UNL     1       0.040  -2.944  -1.841  1.00  0.00     0.014 A 
ATOM     16  C   UNL     1       1.018  -2.236  -1.130  1.00  0.00     0.123 A 
ATOM     17  C   UNL     1       2.372  -2.414  -1.433  1.00  0.00     0.048 A 
ATOM     18  C   UNL     1       2.757  -3.287  -2.454  1.00  0.00     0.019 A 
ATOM     19  C   UNL     1       0.444  -3.848  -2.842  1.00  0.00     0.025 A 
ATOM     20  C   UNL     1       1.791  -4.004  -3.152  1.00  0.00     0.018 A 
ATOM     21  Br  UNL     1       2.302  -5.209  -4.514  1.00  0.00    -0.051 Br
BRANCH  16  22
ATOM     22  O   UNL     1       0.609  -1.455  -0.081  1.00  0.00    -0.496 OA
ATOM     23  C   UNL     1       1.125  -0.127  -0.132  1.00  0.00     0.278 C 
ENDBRANCH  16  22
ENDBRANCH  14  15
ENDBRANCH  12  14
ENDBRANCH   7  12
BRANCH  11  24
ATOM     24  N   UNL     1      -7.072  -5.284  -3.764  1.00  0.00    -0.366 N 
ATOM     25  C   UNL     1      -8.451  -4.969  -3.399  1.00  0.00     0.145 C 
ATOM     26  C   UNL     1      -6.889  -6.336  -4.769  1.00  0.00     0.145 C 
ATOM     27  C   UNL     1      -9.253  -6.266  -3.153  1.00  0.00     0.181 C 
ATOM     28  C   UNL     1      -7.708  -7.567  -4.362  1.00  0.00     0.181 C 
ATOM     29  O   UNL     1      -9.097  -7.223  -4.219  1.00  0.00    -0.378 OA
ENDBRANCH  11  24
ENDBRANCH   3   6
ENDBRANCH   1   2
BRANCH   1  30
ATOM     30  C   UNL     1      -5.384  -2.849   1.868  1.00  0.00     0.042 C 
BRANCH  30  31
ATOM     31  C   UNL     1      -6.250  -3.344   3.012  1.00  0.00     0.118 C 
BRANCH  31  32
ATOM     32  N   UNL     1      -5.532  -4.200   3.946  1.00  0.00    -0.352 N 
ATOM     33  C   UNL     1      -5.095  -3.990   5.231  1.00  0.00     0.251 C 
ATOM     34  H   UNL     1      -5.322  -5.094   3.592  1.00  0.00     0.163 HD
ATOM     35  O   UNL     1      -4.350  -4.818   5.747  1.00  0.00    -0.269 OA
BRANCH  33  36
ATOM     36  C   UNL     1      -5.479  -2.782   5.999  1.00  0.00     0.039 A 
ATOM     37  C   UNL     1      -4.549  -2.236   6.891  1.00  0.00     0.014 A 
ATOM     38  C   UNL     1      -6.748  -2.211   5.900  1.00  0.00     0.014 A 
ATOM     39  C   UNL     1      -4.871  -1.092   7.626  1.00  0.00     0.010 A 
ATOM     40  C   UNL     1      -7.030  -1.010   6.547  1.00  0.00     0.010 A 
ATOM     41  C   UNL     1      -6.102  -0.445   7.431  1.00  0.00    -0.014 A 
BRANCH  41  42
ATOM     42  C   UNL     1      -6.426   0.813   8.151  1.00  0.00     0.031 A 
ATOM     43  C   UNL     1      -7.592   0.875   9.101  1.00  0.00     0.074 A 
ATOM     44  C   UNL     1      -5.698   1.920   7.907  1.00  0.00     0.049 A 
ATOM     45  N   UNL     1      -8.025   1.884   9.815  1.00  0.00    -0.248 NA
ATOM     46  C   UNL     1      -8.400  -0.346   9.244  1.00  0.00     0.031 C 
ATOM     47  C   UNL     1      -4.597   2.011   6.947  1.00  0.00     0.029 A 
ATOM     48  N   UNL     1      -5.773   3.180   8.445  1.00  0.00    -0.354 N 
ATOM     49  C   UNL     1      -9.161   1.425  10.471  1.00  0.00     0.074 A 
ATOM     50  C   UNL     1      -9.385   0.068  10.027  1.00  0.00     0.031 C 
ATOM     51  C   UNL     1      -4.075   3.246   6.991  1.00  0.00     0.029 A 
ATOM     52  C   UNL     1      -4.820   4.042   7.961  1.00  0.00     0.049 A 
ATOM     53  H   UNL     1      -6.447   3.441   9.114  1.00  0.00     0.167 HD
ATOM     54  C   UNL     1      -9.930   2.067  11.383  1.00  0.00     0.037 A 
ATOM     55  C   UNL     1      -4.567   5.327   8.274  1.00  0.00     0.037 A 
ATOM     56  C   UNL     1      -9.682   3.406  11.850  1.00  0.00     0.049 A 
ATOM     57  C   UNL     1      -5.397   5.998   9.333  1.00  0.00     0.074 A 
ATOM     58  C   UNL     1     -10.356   4.122  12.824  1.00  0.00     0.029 A 
ATOM     59  N   UNL     1      -8.675   4.233  11.372  1.00  0.00    -0.354 N 
ATOM     60  N   UNL     1      -6.413   5.524  10.012  1.00  0.00    -0.248 NA
ATOM     61  C   UNL     1      -5.032   7.377   9.682  1.00  0.00     0.031 C 
ATOM     62  C   UNL     1      -9.781   5.396  12.908  1.00  0.00     0.029 A 
ATOM     63  C   UNL     1      -8.718   5.456  12.021  1.00  0.00     0.049 A 
ATOM     64  H   UNL     1      -8.025   3.986  10.675  1.00  0.00     0.167 HD
ATOM     65  C   UNL     1      -6.793   6.534  10.885  1.00  0.00     0.074 A 
ATOM     66  C   UNL     1      -5.884   7.639  10.662  1.00  0.00     0.031 C 
ATOM     67  C   UNL     1      -7.804   6.545  11.788  1.00  0.00     0.037 A 
BRANCH  54  68
ATOM     68  C   UNL     1     -11.110   1.324  11.943  1.00  0.00     0.064 A 
ATOM     69  C   UNL     1     -10.949   0.223  12.799  1.00  0.00     0.173 A 
ATOM     70  C   UNL     1     -12.418   1.732  11.641  1.00  0.00     0.173 A 
ATOM     71  F   UNL     1      -9.720  -0.216  13.110  1.00  0.00    -0.203 F 
ATOM     72  C   UNL     1     -12.052  -0.461  13.305  1.00  0.00     0.198 A 
ATOM     73  C   UNL     1     -13.519   1.065  12.174  1.00  0.00     0.198 A 
ATOM     74  F   UNL     1     -12.631   2.781  10.833  1.00  0.00    -0.203 F 
ATOM     75  F   UNL     1     -11.872  -1.542  14.076  1.00  0.00    -0.200 F 
ATOM     76  C   UNL     1     -13.335  -0.036  12.998  1.00  0.00     0.200 A 
ATOM     77  F   UNL     1     -14.759   1.485  11.887  1.00  0.00    -0.200 F 
ATOM     78  F   UNL     1     -14.396  -0.692  13.489  1.00  0.00    -0.200 F 
ENDBRANCH  54  68
BRANCH  55  79
ATOM     79  C   UNL     1      -3.441   6.037   7.616  1.00  0.00     0.064 A 
ATOM     80  C   UNL     1      -2.274   6.350   8.327  1.00  0.00     0.173 A 
ATOM     81  C   UNL     1      -3.498   6.402   6.263  1.00  0.00     0.173 A 
ATOM     82  F   UNL     1      -2.179   6.036   9.628  1.00  0.00    -0.203 F 
ATOM     83  C   UNL     1      -1.214   7.016   7.716  1.00  0.00     0.198 A 
ATOM     84  C   UNL     1      -2.427   7.043   5.645  1.00  0.00     0.198 A 
ATOM     85  F   UNL     1      -4.588   6.116   5.536  1.00  0.00    -0.203 F 
ATOM     86  F   UNL     1      -0.127   7.337   8.429  1.00  0.00    -0.200 F 
ATOM     87  C   UNL     1      -1.289   7.356   6.374  1.00  0.00     0.200 A 
ATOM     88  F   UNL     1      -2.495   7.354   4.344  1.00  0.00    -0.200 F 
ATOM     89  F   UNL     1      -0.266   7.988   5.783  1.00  0.00    -0.200 F 
ENDBRANCH  55  79
BRANCH  67  90
ATOM     90  C   UNL     1      -7.957   7.783  12.623  1.00  0.00     0.064 A 
ATOM     91  C   UNL     1      -8.422   8.988  12.076  1.00  0.00     0.173 A 
ATOM     92  C   UNL     1      -7.649   7.757  13.992  1.00  0.00     0.173 A 
ATOM     93  F   UNL     1      -8.716   9.067  10.770  1.00  0.00    -0.203 F 
ATOM     94  C   UNL     1      -8.537  10.132  12.861  1.00  0.00     0.198 A 
ATOM     95  C   UNL     1      -7.795   8.895  14.780  1.00  0.00     0.198 A 
ATOM     96  F   UNL     1      -7.209   6.627  14.565  1.00  0.00    -0.203 F 
ATOM     97  F   UNL     1      -8.927  11.287  12.305  1.00  0.00    -0.200 F 
ATOM     98  C   UNL     1      -8.229  10.083  14.213  1.00  0.00     0.200 A 
ATOM     99  F   UNL     1      -7.509   8.843  16.088  1.00  0.00    -0.200 F 
ATOM    100  F   UNL     1      -8.339  11.186  14.966  1.00  0.00    -0.200 F 
ENDBRANCH  67  90
ENDBRANCH  41  42
ENDBRANCH  33  36
ENDBRANCH  31  32
ENDBRANCH  30  31
ENDBRANCH   1  30
TORSDOF 15
