REMARK SMILES CC(=O)Oc1ccc2oc(N)c([C@@H]3[NH2+][C@@H](C(=O)NCCCNC(=O)c4ccc(-c5c6nc(c(-c7c(F)c(F)c(F)c(F)c7F)c7ccc([nH]7)c(-c7c(F)c(F)c(F)c(F)c7F)c7nc(c(-c8c(F)c(F)c(F)c(F)c8F)c8ccc5[nH]8)C=C7)C=C6)cc4)C(C)(C)S3)c(=O)c2c1
REMARK SMILES IDX 19 1 18 2 16 3 17 4 15 6 13 7 14 8 91 9 88 12 89 13 90 14
REMARK SMILES IDX 12 15 5 16 6 17 95 18 7 19 94 20 8 21 92 22 9 23 93 24 10 25
REMARK SMILES IDX 4 26 2 27 1 28 3 29 11 30 20 33 21 34 22 35 23 36 24 38
REMARK SMILES IDX 25 39 26 40 87 41 27 42 86 43 28 44 29 45 30 46 80 47 31 48
REMARK SMILES IDX 85 49 79 50 81 51 32 52 84 53 78 54 77 55 33 57 65 58 45 59
REMARK SMILES IDX 64 60 46 61 49 62 63 63 82 64 47 65 48 66 62 68 83 69 50 70
REMARK SMILES IDX 34 71 35 72 43 73 36 74 37 75 41 76 44 77 38 78 39 79 42 80
REMARK SMILES IDX 40 81 66 82 67 83 75 84 68 85 69 86 73 87 76 88 70 89 71 90
REMARK SMILES IDX 74 91 72 92 51 93 52 94 60 95 53 96 54 97 58 98 61 99 55 100
REMARK SMILES IDX 56 101 59 102 57 103
REMARK H PARENT 18 5 14 10 14 11 11 31 11 32 22 37 81 56 49 67
REMARK Flexibility Score: inf
ROOT
ATOM      1  C   UNL     1      -1.666  -8.269  -7.068  1.00  0.00     0.118 C 
ENDROOT
BRANCH   1   2
ATOM      2  N   UNL     1      -0.706  -9.316  -7.381  1.00  0.00    -0.351 N 
ATOM      3  C   UNL     1       0.523  -9.351  -7.958  1.00  0.00     0.279 C 
ATOM      4  O   UNL     1       0.948 -10.482  -8.229  1.00  0.00    -0.268 OA
ATOM      5  H   UNL     1      -1.021 -10.209  -7.112  1.00  0.00     0.163 HD
BRANCH   3   6
ATOM      6  C   UNL     1       1.366  -8.116  -8.312  1.00  0.00     0.289 C 
ATOM      7  C   UNL     1       2.017  -5.886  -7.708  1.00  0.00     0.284 C 
ATOM      8  N   UNL     1       1.433  -7.135  -7.208  1.00  0.00    -0.320 N 
ATOM      9  S   UNL     1       1.812  -5.808  -9.522  1.00  0.00    -0.081 SA
ATOM     10  H   UNL     1       0.494  -6.955  -6.854  1.00  0.00     0.348 HD
ATOM     11  H   UNL     1       2.012  -7.506  -6.455  1.00  0.00     0.348 HD
ATOM     12  C   UNL     1       1.059  -7.468  -9.678  1.00  0.00     0.077 C 
ATOM     13  C   UNL     1      -0.403  -7.251 -10.039  1.00  0.00     0.030 C 
ATOM     14  C   UNL     1       1.723  -8.233 -10.832  1.00  0.00     0.030 C 
BRANCH   7  15
ATOM     15  C   UNL     1       3.451  -5.683  -7.285  1.00  0.00     0.128 A 
ATOM     16  C   UNL     1       6.675  -2.635  -5.191  1.00  0.00     0.131 A 
ATOM     17  C   UNL     1       7.708  -3.414  -5.720  1.00  0.00     0.051 A 
ATOM     18  C   UNL     1       5.340  -3.029  -5.298  1.00  0.00     0.063 A 
ATOM     19  C   UNL     1       7.399  -4.578  -6.413  1.00  0.00     0.052 A 
ATOM     20  C   UNL     1       5.044  -4.194  -6.010  1.00  0.00     0.069 A 
ATOM     21  C   UNL     1       6.066  -4.951  -6.565  1.00  0.00     0.140 A 
ATOM     22  C   UNL     1       3.660  -4.639  -6.237  1.00  0.00     0.205 A 
ATOM     23  O   UNL     1       5.829  -6.081  -7.286  1.00  0.00    -0.440 OA
ATOM     24  O   UNL     1       2.733  -4.117  -5.627  1.00  0.00    -0.288 OA
ATOM     25  C   UNL     1       4.555  -6.297  -7.769  1.00  0.00     0.205 A 
BRANCH  16  26
ATOM     26  O   UNL     1       6.971  -1.467  -4.481  1.00  0.00    -0.427 OA
BRANCH  26  27
ATOM     27  C   UNL     1       7.639  -0.497  -5.224  1.00  0.00     0.308 C 
ATOM     28  C   UNL     1       8.066   0.608  -4.307  1.00  0.00     0.139 C 
ATOM     29  O   UNL     1       7.867  -0.518  -6.426  1.00  0.00    -0.252 OA
ENDBRANCH  26  27
ENDBRANCH  16  26
BRANCH  25  30
ATOM     30  N   UNL     1       4.571  -7.180  -8.807  1.00  0.00    -0.369 N 
ATOM     31  H   UNL     1       5.421  -7.583  -9.097  1.00  0.00     0.159 HD
ATOM     32  H   UNL     1       3.732  -7.414  -9.268  1.00  0.00     0.159 HD
ENDBRANCH  25  30
ENDBRANCH   7  15
ENDBRANCH   3   6
ENDBRANCH   1   2
BRANCH   1  33
ATOM     33  C   UNL     1      -2.900  -8.337  -7.962  1.00  0.00     0.042 C 
BRANCH  33  34
ATOM     34  C   UNL     1      -3.651  -9.652  -7.870  1.00  0.00     0.118 C 
BRANCH  34  35
ATOM     35  N   UNL     1      -4.583  -9.670  -6.756  1.00  0.00    -0.352 N 
ATOM     36  C   UNL     1      -5.947  -9.485  -6.759  1.00  0.00     0.251 C 
ATOM     37  H   UNL     1      -4.181  -9.838  -5.873  1.00  0.00     0.163 HD
ATOM     38  O   UNL     1      -6.540  -9.279  -5.707  1.00  0.00    -0.269 OA
BRANCH  36  39
ATOM     39  C   UNL     1      -6.690  -9.498  -8.040  1.00  0.00     0.039 A 
ATOM     40  C   UNL     1      -6.388 -10.433  -9.030  1.00  0.00     0.014 A 
ATOM     41  C   UNL     1      -7.700  -8.558  -8.258  1.00  0.00     0.014 A 
ATOM     42  C   UNL     1      -6.935 -10.298 -10.299  1.00  0.00     0.010 A 
ATOM     43  C   UNL     1      -8.347  -8.508  -9.498  1.00  0.00     0.010 A 
ATOM     44  C   UNL     1      -7.936  -9.345 -10.548  1.00  0.00    -0.014 A 
BRANCH  44  45
ATOM     45  C   UNL     1      -8.546  -9.261 -11.902  1.00  0.00     0.031 A 
ATOM     46  C   UNL     1      -8.458  -7.997 -12.714  1.00  0.00     0.074 A 
ATOM     47  C   UNL     1      -9.143 -10.353 -12.422  1.00  0.00     0.049 A 
ATOM     48  N   UNL     1      -8.953  -7.742 -13.901  1.00  0.00    -0.248 NA
ATOM     49  C   UNL     1      -7.726  -6.868 -12.120  1.00  0.00     0.031 C 
ATOM     50  C   UNL     1      -9.275 -11.644 -11.742  1.00  0.00     0.029 A 
ATOM     51  N   UNL     1      -9.727 -10.565 -13.646  1.00  0.00    -0.354 N 
ATOM     52  C   UNL     1      -8.611  -6.426 -14.184  1.00  0.00     0.074 A 
ATOM     53  C   UNL     1      -7.896  -5.920 -13.032  1.00  0.00     0.031 C 
ATOM     54  C   UNL     1      -9.839 -12.527 -12.577  1.00  0.00     0.029 A 
ATOM     55  C   UNL     1     -10.190 -11.847 -13.818  1.00  0.00     0.049 A 
ATOM     56  H   UNL     1      -9.806  -9.865 -14.334  1.00  0.00     0.167 HD
ATOM     57  C   UNL     1      -8.857  -5.712 -15.308  1.00  0.00     0.037 A 
ATOM     58  C   UNL     1     -10.846 -12.411 -14.849  1.00  0.00     0.037 A 
ATOM     59  C   UNL     1      -9.549  -6.228 -16.462  1.00  0.00     0.049 A 
ATOM     60  C   UNL     1     -11.165 -11.575 -16.055  1.00  0.00     0.074 A 
ATOM     61  C   UNL     1      -9.835  -5.585 -17.653  1.00  0.00     0.029 A 
ATOM     62  N   UNL     1     -10.060  -7.513 -16.570  1.00  0.00    -0.354 N 
ATOM     63  N   UNL     1     -10.838 -10.331 -16.307  1.00  0.00    -0.248 NA
ATOM     64  C   UNL     1     -11.954 -12.217 -17.114  1.00  0.00     0.031 C 
ATOM     65  C   UNL     1     -10.564  -6.462 -18.461  1.00  0.00     0.029 A 
ATOM     66  C   UNL     1     -10.682  -7.673 -17.799  1.00  0.00     0.049 A 
ATOM     67  H   UNL     1      -9.992  -8.209 -15.876  1.00  0.00     0.167 HD
ATOM     68  C   UNL     1     -11.366 -10.045 -17.557  1.00  0.00     0.074 A 
ATOM     69  C   UNL     1     -12.015 -11.253 -18.023  1.00  0.00     0.031 C 
ATOM     70  C   UNL     1     -11.321  -8.883 -18.252  1.00  0.00     0.037 A 
BRANCH  57  71
ATOM     71  C   UNL     1      -8.380  -4.287 -15.358  1.00  0.00     0.064 A 
ATOM     72  C   UNL     1      -7.018  -3.970 -15.464  1.00  0.00     0.173 A 
ATOM     73  C   UNL     1      -9.302  -3.228 -15.377  1.00  0.00     0.173 A 
ATOM     74  F   UNL     1      -6.094  -4.943 -15.439  1.00  0.00    -0.203 F 
ATOM     75  C   UNL     1      -6.595  -2.647 -15.571  1.00  0.00     0.198 A 
ATOM     76  C   UNL     1      -8.878  -1.909 -15.515  1.00  0.00     0.198 A 
ATOM     77  F   UNL     1     -10.617  -3.475 -15.287  1.00  0.00    -0.203 F 
ATOM     78  F   UNL     1      -5.286  -2.367 -15.635  1.00  0.00    -0.200 F 
ATOM     79  C   UNL     1      -7.525  -1.619 -15.608  1.00  0.00     0.200 A 
ATOM     80  F   UNL     1      -9.779  -0.918 -15.568  1.00  0.00    -0.200 F 
ATOM     81  F   UNL     1      -7.118  -0.348 -15.730  1.00  0.00    -0.200 F 
ENDBRANCH  57  71
BRANCH  58  82
ATOM     82  C   UNL     1     -11.243 -13.841 -14.773  1.00  0.00     0.064 A 
ATOM     83  C   UNL     1     -10.649 -14.797 -15.608  1.00  0.00     0.173 A 
ATOM     84  C   UNL     1     -12.197 -14.288 -13.846  1.00  0.00     0.173 A 
ATOM     85  F   UNL     1      -9.747 -14.416 -16.525  1.00  0.00    -0.203 F 
ATOM     86  C   UNL     1     -10.997 -16.143 -15.522  1.00  0.00     0.198 A 
ATOM     87  C   UNL     1     -12.520 -15.639 -13.738  1.00  0.00     0.198 A 
ATOM     88  F   UNL     1     -12.793 -13.415 -13.021  1.00  0.00    -0.203 F 
ATOM     89  F   UNL     1     -10.438 -17.031 -16.355  1.00  0.00    -0.200 F 
ATOM     90  C   UNL     1     -11.924 -16.564 -14.580  1.00  0.00     0.200 A 
ATOM     91  F   UNL     1     -13.400 -16.043 -12.812  1.00  0.00    -0.200 F 
ATOM     92  F   UNL     1     -12.244 -17.862 -14.486  1.00  0.00    -0.200 F 
ENDBRANCH  58  82
BRANCH  70  93
ATOM     93  C   UNL     1     -11.975  -8.857 -19.603  1.00  0.00     0.064 A 
ATOM     94  C   UNL     1     -13.371  -8.874 -19.742  1.00  0.00     0.173 A 
ATOM     95  C   UNL     1     -11.200  -8.746 -20.767  1.00  0.00     0.173 A 
ATOM     96  F   UNL     1     -14.155  -8.994 -18.660  1.00  0.00    -0.203 F 
ATOM     97  C   UNL     1     -13.965  -8.796 -20.998  1.00  0.00     0.198 A 
ATOM     98  C   UNL     1     -11.798  -8.636 -22.019  1.00  0.00     0.198 A 
ATOM     99  F   UNL     1      -9.861  -8.719 -20.688  1.00  0.00    -0.203 F 
ATOM    100  F   UNL     1     -15.299  -8.852 -21.110  1.00  0.00    -0.200 F 
ATOM    101  C   UNL     1     -13.180  -8.665 -22.134  1.00  0.00     0.200 A 
ATOM    102  F   UNL     1     -11.038  -8.493 -23.113  1.00  0.00    -0.200 F 
ATOM    103  F   UNL     1     -13.755  -8.572 -23.340  1.00  0.00    -0.200 F 
ENDBRANCH  70  93
ENDBRANCH  44  45
ENDBRANCH  36  39
ENDBRANCH  34  35
ENDBRANCH  33  34
ENDBRANCH   1  33
TORSDOF 14
