REMARK SMILES Cc1cccc(N2C(=O)/C(=C/c3ccc(C(=O)NCCCNC(=O)c4ccc(-c5c6nc(c(-c7c(F)c(F)c(F)c(F)c7F)c7ccc([nH]7)c(-c7c(F)c(F)c(F)c(F)c7F)c7nc(c(-c8c(F)c(F)c(F)c(F)c8F)c8ccc5[nH]8)C=C7)C=C6)cc4)cc3)c3ccccc3C2=O)c1
REMARK SMILES IDX 20 1 19 2 18 3 16 4 17 5 15 7 12 8 13 9 89 10 14 11 88 12
REMARK SMILES IDX 11 13 7 14 8 15 96 16 9 17 10 18 95 19 97 20 90 21 94 22
REMARK SMILES IDX 91 23 93 24 92 25 6 26 1 27 2 28 3 29 98 30 4 31 5 32 21 33
REMARK SMILES IDX 22 34 23 35 24 37 25 38 26 39 87 40 27 41 86 42 28 43 29 44
REMARK SMILES IDX 30 45 80 46 31 47 85 48 79 49 81 50 32 51 84 52 78 53 77 54
REMARK SMILES IDX 33 56 65 57 45 58 64 59 46 60 49 61 63 62 82 63 47 64 48 65
REMARK SMILES IDX 62 67 83 68 50 69 34 70 35 71 43 72 36 73 37 74 41 75 44 76
REMARK SMILES IDX 38 77 39 78 42 79 40 80 66 81 67 82 75 83 68 84 69 85 73 86
REMARK SMILES IDX 76 87 70 88 71 89 74 90 72 91 51 92 52 93 60 94 53 95 54 96
REMARK SMILES IDX 58 97 61 98 55 99 56 100 59 101 57 102
REMARK H PARENT 18 6 22 36 81 55 49 66
REMARK Flexibility Score: inf
ROOT
ATOM      1  C   UNL     1      -5.618  10.206   2.255  1.00  0.00     0.042 C 
ENDROOT
BRANCH   1   2
ATOM      2  C   UNL     1      -5.830  10.006   0.764  1.00  0.00     0.118 C 
BRANCH   2   3
ATOM      3  N   UNL     1      -5.217  11.053  -0.053  1.00  0.00    -0.352 N 
ATOM      4  C   UNL     1      -4.189  10.996  -0.971  1.00  0.00     0.251 C 
ATOM      5  O   UNL     1      -3.778  12.037  -1.481  1.00  0.00    -0.269 OA
ATOM      6  H   UNL     1      -5.605  11.949   0.072  1.00  0.00     0.163 HD
BRANCH   4   7
ATOM      7  C   UNL     1      -3.516   9.713  -1.280  1.00  0.00     0.039 A 
ATOM      8  C   UNL     1      -2.192   7.260  -1.266  1.00  0.00    -0.025 A 
ATOM      9  C   UNL     1      -1.456   8.450  -1.302  1.00  0.00     0.009 A 
ATOM     10  C   UNL     1      -3.579   7.308  -1.451  1.00  0.00     0.009 A 
ATOM     11  C   UNL     1      -2.118   9.679  -1.303  1.00  0.00     0.014 A 
ATOM     12  C   UNL     1      -4.237   8.535  -1.481  1.00  0.00     0.014 A 
BRANCH   8  13
ATOM     13  C   UNL     1      -1.506   5.994  -0.989  1.00  0.00     0.022 C 
ATOM     14  N   UNL     1      -1.697   2.665   0.320  1.00  0.00    -0.242 N 
ATOM     15  C   UNL     1      -0.994   3.833  -0.048  1.00  0.00     0.265 C 
ATOM     16  C   UNL     1      -3.043   2.732   0.736  1.00  0.00     0.265 C 
ATOM     17  O   UNL     1       0.167   3.911  -0.448  1.00  0.00    -0.268 OA
ATOM     18  C   UNL     1      -1.802   5.103  -0.014  1.00  0.00     0.049 C 
ATOM     19  C   UNL     1      -3.517   4.010   1.312  1.00  0.00     0.048 A 
ATOM     20  O   UNL     1      -3.892   1.839   0.699  1.00  0.00    -0.268 OA
ATOM     21  C   UNL     1      -2.869   5.196   0.985  1.00  0.00    -0.000 A 
ATOM     22  C   UNL     1      -4.607   4.007   2.198  1.00  0.00     0.014 A 
ATOM     23  C   UNL     1      -3.261   6.374   1.639  1.00  0.00     0.010 A 
ATOM     24  C   UNL     1      -5.025   5.191   2.798  1.00  0.00     0.001 A 
ATOM     25  C   UNL     1      -4.336   6.370   2.533  1.00  0.00     0.001 A 
BRANCH  14  26
ATOM     26  C   UNL     1      -1.044   1.358   0.185  1.00  0.00     0.053 A 
ATOM     27  C   UNL     1       2.505  -0.106  -0.016  1.00  0.00     0.044 C 
ATOM     28  C   UNL     1       1.008  -0.019   0.028  1.00  0.00    -0.049 A 
ATOM     29  C   UNL     1       0.244  -1.181  -0.051  1.00  0.00     0.003 A 
ATOM     30  C   UNL     1       0.360   1.225   0.163  1.00  0.00     0.030 A 
ATOM     31  C   UNL     1      -1.139  -1.093  -0.010  1.00  0.00     0.002 A 
ATOM     32  C   UNL     1      -1.767   0.155   0.101  1.00  0.00     0.027 A 
ENDBRANCH  14  26
ENDBRANCH   8  13
ENDBRANCH   4   7
ENDBRANCH   2   3
ENDBRANCH   1   2
BRANCH   1  33
ATOM     33  C   UNL     1      -6.641  11.120   2.906  1.00  0.00     0.118 C 
BRANCH  33  34
ATOM     34  N   UNL     1      -7.840  10.433   3.406  1.00  0.00    -0.352 N 
ATOM     35  C   UNL     1      -8.850  10.903   4.238  1.00  0.00     0.251 C 
ATOM     36  H   UNL     1      -7.943   9.501   3.107  1.00  0.00     0.163 HD
ATOM     37  O   UNL     1      -9.812  10.195   4.517  1.00  0.00    -0.269 OA
BRANCH  35  38
ATOM     38  C   UNL     1      -8.830  12.325   4.654  1.00  0.00     0.039 A 
ATOM     39  C   UNL     1      -9.914  13.113   4.252  1.00  0.00     0.014 A 
ATOM     40  C   UNL     1      -7.611  12.903   4.968  1.00  0.00     0.014 A 
ATOM     41  C   UNL     1      -9.666  14.401   3.801  1.00  0.00     0.010 A 
ATOM     42  C   UNL     1      -7.324  14.107   4.370  1.00  0.00     0.010 A 
ATOM     43  C   UNL     1      -8.340  14.815   3.720  1.00  0.00    -0.014 A 
BRANCH  43  44
ATOM     44  C   UNL     1      -7.913  15.991   2.990  1.00  0.00     0.031 A 
ATOM     45  C   UNL     1      -7.687  17.217   3.773  1.00  0.00     0.074 A 
ATOM     46  C   UNL     1      -7.685  15.942   1.658  1.00  0.00     0.049 A 
ATOM     47  N   UNL     1      -7.894  18.401   3.320  1.00  0.00    -0.248 NA
ATOM     48  C   UNL     1      -7.281  17.198   5.177  1.00  0.00     0.031 C 
ATOM     49  C   UNL     1      -7.009  16.949   0.845  1.00  0.00     0.029 A 
ATOM     50  N   UNL     1      -8.136  14.993   0.725  1.00  0.00    -0.354 N 
ATOM     51  C   UNL     1      -7.392  19.287   4.245  1.00  0.00     0.074 A 
ATOM     52  C   UNL     1      -7.114  18.501   5.422  1.00  0.00     0.031 C 
ATOM     53  C   UNL     1      -7.298  16.739  -0.450  1.00  0.00     0.029 A 
ATOM     54  C   UNL     1      -8.280  15.673  -0.512  1.00  0.00     0.049 A 
ATOM     55  H   UNL     1      -8.317  14.040   0.896  1.00  0.00     0.167 HD
ATOM     56  C   UNL     1      -7.117  20.560   3.852  1.00  0.00     0.037 A 
ATOM     57  C   UNL     1      -9.479  15.749  -1.165  1.00  0.00     0.037 A 
ATOM     58  C   UNL     1      -7.434  20.730   2.438  1.00  0.00     0.049 A 
ATOM     59  C   UNL     1     -10.005  17.156  -1.249  1.00  0.00     0.074 A 
ATOM     60  C   UNL     1      -6.648  20.579   1.307  1.00  0.00     0.029 A 
ATOM     61  N   UNL     1      -8.756  20.683   2.011  1.00  0.00    -0.354 N 
ATOM     62  N   UNL     1      -9.589  18.122  -0.480  1.00  0.00    -0.248 NA
ATOM     63  C   UNL     1     -11.052  17.576  -2.172  1.00  0.00     0.031 C 
ATOM     64  C   UNL     1      -7.506  20.408   0.197  1.00  0.00     0.029 A 
ATOM     65  C   UNL     1      -8.815  20.480   0.644  1.00  0.00     0.049 A 
ATOM     66  H   UNL     1      -9.540  20.781   2.599  1.00  0.00     0.167 HD
ATOM     67  C   UNL     1     -10.292  19.262  -0.764  1.00  0.00     0.074 A 
ATOM     68  C   UNL     1     -11.176  18.874  -1.848  1.00  0.00     0.031 C 
ATOM     69  C   UNL     1     -10.086  20.419  -0.066  1.00  0.00     0.037 A 
BRANCH  56  70
ATOM     70  C   UNL     1      -6.250  21.509   4.642  1.00  0.00     0.064 A 
ATOM     71  C   UNL     1      -5.386  22.409   3.982  1.00  0.00     0.173 A 
ATOM     72  C   UNL     1      -6.193  21.553   6.048  1.00  0.00     0.173 A 
ATOM     73  F   UNL     1      -5.389  22.534   2.649  1.00  0.00    -0.203 F 
ATOM     74  C   UNL     1      -4.474  23.214   4.667  1.00  0.00     0.198 A 
ATOM     75  C   UNL     1      -5.248  22.326   6.733  1.00  0.00     0.198 A 
ATOM     76  F   UNL     1      -7.074  20.879   6.799  1.00  0.00    -0.203 F 
ATOM     77  F   UNL     1      -3.672  24.040   3.980  1.00  0.00    -0.200 F 
ATOM     78  C   UNL     1      -4.383  23.151   6.041  1.00  0.00     0.200 A 
ATOM     79  F   UNL     1      -5.181  22.265   8.071  1.00  0.00    -0.200 F 
ATOM     80  F   UNL     1      -3.482  23.895   6.695  1.00  0.00    -0.200 F 
ENDBRANCH  56  70
BRANCH  57  81
ATOM     81  C   UNL     1     -10.318  14.536  -0.954  1.00  0.00     0.064 A 
ATOM     82  C   UNL     1      -9.740  13.325  -1.378  1.00  0.00     0.173 A 
ATOM     83  C   UNL     1     -11.214  14.501   0.120  1.00  0.00     0.173 A 
ATOM     84  F   UNL     1      -8.949  13.304  -2.462  1.00  0.00    -0.203 F 
ATOM     85  C   UNL     1      -9.778  12.210  -0.552  1.00  0.00     0.198 A 
ATOM     86  C   UNL     1     -11.300  13.357   0.909  1.00  0.00     0.198 A 
ATOM     87  F   UNL     1     -11.870  15.607   0.498  1.00  0.00    -0.203 F 
ATOM     88  F   UNL     1      -8.993  11.156  -0.820  1.00  0.00    -0.200 F 
ATOM     89  C   UNL     1     -10.513  12.249   0.621  1.00  0.00     0.200 A 
ATOM     90  F   UNL     1     -12.051  13.372   2.019  1.00  0.00    -0.200 F 
ATOM     91  F   UNL     1     -10.413  11.242   1.498  1.00  0.00    -0.200 F 
ENDBRANCH  57  81
BRANCH  69  92
ATOM     92  C   UNL     1     -10.973  21.640  -0.102  1.00  0.00     0.064 A 
ATOM     93  C   UNL     1     -12.320  21.624  -0.499  1.00  0.00     0.173 A 
ATOM     94  C   UNL     1     -10.505  22.888   0.380  1.00  0.00     0.173 A 
ATOM     95  F   UNL     1     -12.949  20.482  -0.804  1.00  0.00    -0.203 F 
ATOM     96  C   UNL     1     -13.097  22.784  -0.535  1.00  0.00     0.198 A 
ATOM     97  C   UNL     1     -11.308  24.025   0.423  1.00  0.00     0.198 A 
ATOM     98  F   UNL     1      -9.260  23.044   0.852  1.00  0.00    -0.203 F 
ATOM     99  F   UNL     1     -14.350  22.725  -1.006  1.00  0.00    -0.200 F 
ATOM    100  C   UNL     1     -12.594  23.983  -0.069  1.00  0.00     0.200 A 
ATOM    101  F   UNL     1     -10.828  25.157   0.956  1.00  0.00    -0.200 F 
ATOM    102  F   UNL     1     -13.354  25.084  -0.069  1.00  0.00    -0.200 F 
ENDBRANCH  69  92
ENDBRANCH  43  44
ENDBRANCH  35  38
ENDBRANCH  33  34
ENDBRANCH   1  33
TORSDOF 12
