REMARK SMILES CCn1cc(Br)c(C(=O)NCCCNC(=O)c2ccc(-c3c4nc(c(-c5c(F)c(F)c(F)c(F)c5F)c5ccc([nH]5)c(-c5c(F)c(F)c(F)c(F)c5F)c5nc(c(-c6c(F)c(F)c(F)c(F)c6F)c6ccc3[nH]6)C=C5)C=C4)cc2)n1
REMARK SMILES IDX 12 1 11 2 10 3 8 4 9 5 7 7 3 8 4 9 80 10 5 11 6 12 2 13 1 14
REMARK SMILES IDX 13 15 14 16 15 17 16 19 17 20 18 21 79 22 19 23 78 24 20 25
REMARK SMILES IDX 21 26 22 27 72 28 23 29 77 30 71 31 73 32 24 33 76 34 70 35
REMARK SMILES IDX 69 36 25 38 57 39 37 40 56 41 38 42 41 43 55 44 74 45 39 46
REMARK SMILES IDX 40 47 54 49 75 50 42 51 26 52 27 53 35 54 28 55 29 56 33 57
REMARK SMILES IDX 36 58 30 59 31 60 34 61 32 62 58 63 59 64 67 65 60 66 61 67
REMARK SMILES IDX 65 68 68 69 62 70 63 71 66 72 64 73 43 74 44 75 52 76 45 77
REMARK SMILES IDX 46 78 50 79 53 80 47 81 48 82 51 83 49 84
REMARK H PARENT 10 6 14 18 73 37 41 48
REMARK Flexibility Score: inf
ROOT
ATOM      1  C   UNL     1       5.527   1.609   1.456  1.00  0.00     0.042 C 
ENDROOT
BRANCH   1   2
ATOM      2  C   UNL     1       4.800   2.280   2.625  1.00  0.00     0.118 C 
BRANCH   2   3
ATOM      3  N   UNL     1       4.576   3.700   2.401  1.00  0.00    -0.351 N 
ATOM      4  C   UNL     1       3.468   4.391   1.955  1.00  0.00     0.272 C 
ATOM      5  O   UNL     1       3.586   5.618   1.895  1.00  0.00    -0.267 OA
ATOM      6  H   UNL     1       5.353   4.270   2.604  1.00  0.00     0.163 HD
BRANCH   4   7
ATOM      7  C   UNL     1       2.218   3.699   1.587  1.00  0.00     0.164 A 
ATOM      8  N   UNL     1       0.837   2.116   1.187  1.00  0.00    -0.271 N 
ATOM      9  C   UNL     1       0.087   3.241   1.051  1.00  0.00     0.125 A 
ATOM     10  N   UNL     1       2.127   2.357   1.469  1.00  0.00    -0.166 NA
ATOM     11  C   UNL     1       0.951   4.277   1.299  1.00  0.00     0.069 A 
ATOM     12  Br  UNL     1       0.487   6.092   1.288  1.00  0.00    -0.047 Br
BRANCH   8  13
ATOM     13  C   UNL     1       0.380   0.743   1.092  1.00  0.00     0.141 C 
ATOM     14  C   UNL     1       0.930   0.039  -0.135  1.00  0.00     0.029 C 
ENDBRANCH   8  13
ENDBRANCH   4   7
ENDBRANCH   2   3
ENDBRANCH   1   2
BRANCH   1  15
ATOM     15  C   UNL     1       6.992   2.026   1.374  1.00  0.00     0.118 C 
BRANCH  15  16
ATOM     16  N   UNL     1       7.785   1.528   2.499  1.00  0.00    -0.352 N 
ATOM     17  C   UNL     1       9.120   1.717   2.770  1.00  0.00     0.251 C 
ATOM     18  H   UNL     1       7.293   0.981   3.153  1.00  0.00     0.163 HD
ATOM     19  O   UNL     1       9.698   0.979   3.568  1.00  0.00    -0.269 OA
BRANCH  17  20
ATOM     20  C   UNL     1       9.870   2.785   2.086  1.00  0.00     0.039 A 
ATOM     21  C   UNL     1      11.182   2.556   1.668  1.00  0.00     0.014 A 
ATOM     22  C   UNL     1       9.264   4.021   1.855  1.00  0.00     0.014 A 
ATOM     23  C   UNL     1      11.839   3.540   0.935  1.00  0.00     0.010 A 
ATOM     24  C   UNL     1       9.869   4.947   1.030  1.00  0.00     0.010 A 
ATOM     25  C   UNL     1      11.164   4.723   0.580  1.00  0.00    -0.014 A 
BRANCH  25  26
ATOM     26  C   UNL     1      11.777   5.630  -0.391  1.00  0.00     0.031 A 
ATOM     27  C   UNL     1      12.256   4.954  -1.629  1.00  0.00     0.074 A 
ATOM     28  C   UNL     1      11.787   6.978  -0.312  1.00  0.00     0.049 A 
ATOM     29  N   UNL     1      13.478   4.817  -2.023  1.00  0.00    -0.248 NA
ATOM     30  C   UNL     1      11.278   4.230  -2.458  1.00  0.00     0.031 C 
ATOM     31  C   UNL     1      11.101   7.843   0.649  1.00  0.00     0.029 A 
ATOM     32  N   UNL     1      12.370   7.876  -1.160  1.00  0.00    -0.354 N 
ATOM     33  C   UNL     1      13.422   4.145  -3.241  1.00  0.00     0.074 A 
ATOM     34  C   UNL     1      12.069   3.676  -3.379  1.00  0.00     0.031 C 
ATOM     35  C   UNL     1      11.123   9.120   0.206  1.00  0.00     0.029 A 
ATOM     36  C   UNL     1      11.964   9.193  -0.975  1.00  0.00     0.049 A 
ATOM     37  H   UNL     1      13.024   7.613  -1.847  1.00  0.00     0.167 HD
ATOM     38  C   UNL     1      14.450   4.240  -4.131  1.00  0.00     0.037 A 
ATOM     39  C   UNL     1      12.282  10.262  -1.747  1.00  0.00     0.037 A 
ATOM     40  C   UNL     1      15.657   4.683  -3.472  1.00  0.00     0.049 A 
ATOM     41  C   UNL     1      13.508   9.911  -2.503  1.00  0.00     0.074 A 
ATOM     42  C   UNL     1      16.419   4.208  -2.421  1.00  0.00     0.029 A 
ATOM     43  N   UNL     1      16.043   5.989  -3.641  1.00  0.00    -0.354 N 
ATOM     44  N   UNL     1      14.683   9.763  -1.962  1.00  0.00    -0.248 NA
ATOM     45  C   UNL     1      13.343   9.314  -3.818  1.00  0.00     0.031 C 
ATOM     46  C   UNL     1      16.829   5.374  -1.707  1.00  0.00     0.029 A 
ATOM     47  C   UNL     1      16.361   6.487  -2.405  1.00  0.00     0.049 A 
ATOM     48  H   UNL     1      16.083   6.479  -4.494  1.00  0.00     0.167 HD
ATOM     49  C   UNL     1      15.238   8.687  -2.634  1.00  0.00     0.074 A 
ATOM     50  C   UNL     1      14.418   8.524  -3.832  1.00  0.00     0.031 C 
ATOM     51  C   UNL     1      16.127   7.857  -2.015  1.00  0.00     0.037 A 
BRANCH  38  52
ATOM     52  C   UNL     1      14.274   4.329  -5.632  1.00  0.00     0.064 A 
ATOM     53  C   UNL     1      15.424   4.427  -6.446  1.00  0.00     0.173 A 
ATOM     54  C   UNL     1      13.057   4.644  -6.274  1.00  0.00     0.173 A 
ATOM     55  F   UNL     1      16.640   4.154  -5.949  1.00  0.00    -0.203 F 
ATOM     56  C   UNL     1      15.368   4.915  -7.754  1.00  0.00     0.198 A 
ATOM     57  C   UNL     1      13.000   5.081  -7.597  1.00  0.00     0.198 A 
ATOM     58  F   UNL     1      11.886   4.654  -5.630  1.00  0.00    -0.203 F 
ATOM     59  F   UNL     1      16.504   5.132  -8.431  1.00  0.00    -0.200 F 
ATOM     60  C   UNL     1      14.157   5.254  -8.324  1.00  0.00     0.200 A 
ATOM     61  F   UNL     1      11.815   5.416  -8.127  1.00  0.00    -0.200 F 
ATOM     62  F   UNL     1      14.106   5.790  -9.550  1.00  0.00    -0.200 F 
ENDBRANCH  38  52
BRANCH  39  63
ATOM     63  C   UNL     1      11.481  11.466  -2.079  1.00  0.00     0.064 A 
ATOM     64  C   UNL     1      12.079  12.580  -2.696  1.00  0.00     0.173 A 
ATOM     65  C   UNL     1      10.074  11.431  -2.083  1.00  0.00     0.173 A 
ATOM     66  F   UNL     1      13.414  12.677  -2.770  1.00  0.00    -0.203 F 
ATOM     67  C   UNL     1      11.316  13.572  -3.321  1.00  0.00     0.198 A 
ATOM     68  C   UNL     1       9.314  12.427  -2.700  1.00  0.00     0.198 A 
ATOM     69  F   UNL     1       9.411  10.381  -1.579  1.00  0.00    -0.203 F 
ATOM     70  F   UNL     1      11.926  14.576  -3.968  1.00  0.00    -0.200 F 
ATOM     71  C   UNL     1       9.935  13.487  -3.336  1.00  0.00     0.200 A 
ATOM     72  F   UNL     1       7.979  12.315  -2.738  1.00  0.00    -0.200 F 
ATOM     73  F   UNL     1       9.206  14.396  -3.997  1.00  0.00    -0.200 F 
ENDBRANCH  39  63
BRANCH  51  74
ATOM     74  C   UNL     1      16.737   8.309  -0.717  1.00  0.00     0.064 A 
ATOM     75  C   UNL     1      16.011   8.603   0.451  1.00  0.00     0.173 A 
ATOM     76  C   UNL     1      18.136   8.315  -0.622  1.00  0.00     0.173 A 
ATOM     77  F   UNL     1      14.674   8.526   0.476  1.00  0.00    -0.203 F 
ATOM     78  C   UNL     1      16.661   8.930   1.641  1.00  0.00     0.198 A 
ATOM     79  C   UNL     1      18.781   8.600   0.577  1.00  0.00     0.198 A 
ATOM     80  F   UNL     1      18.884   7.997  -1.691  1.00  0.00    -0.203 F 
ATOM     81  F   UNL     1      15.947   9.226   2.738  1.00  0.00    -0.200 F 
ATOM     82  C   UNL     1      18.045   8.919   1.705  1.00  0.00     0.200 A 
ATOM     83  F   UNL     1      20.118   8.540   0.644  1.00  0.00    -0.200 F 
ATOM     84  F   UNL     1      18.669   9.192   2.860  1.00  0.00    -0.200 F 
ENDBRANCH  51  74
ENDBRANCH  25  26
ENDBRANCH  17  20
ENDBRANCH  15  16
ENDBRANCH   1  15
TORSDOF 11
