REMARK SMILES Cc1cccc([C@@H](CCC[C@@H]2CCCO2)C(=O)NCCCNC(=O)c2ccc(-c3c4nc(c(-c5c(F)c(F)c(F)c(F)c5F)c5ccc([nH]5)c(-c5c(F)c(F)c(F)c(F)c5F)c5nc(c(-c6c(F)c(F)c(F)c(F)c6F)c6ccc3[nH]6)C=C5)C=C4)cc2)c1
REMARK SMILES IDX 19 1 18 2 16 3 17 4 7 6 6 7 1 8 2 9 3 10 88 11 4 12 5 13
REMARK SMILES IDX 8 14 9 15 10 16 11 17 12 18 15 19 13 20 14 21 20 22 21 23
REMARK SMILES IDX 22 24 23 25 24 27 25 28 26 29 87 30 27 31 86 32 28 33 29 34
REMARK SMILES IDX 30 35 80 36 31 37 85 38 79 39 81 40 32 41 84 42 78 43 77 44
REMARK SMILES IDX 33 46 65 47 45 48 64 49 46 50 49 51 63 52 82 53 47 54 48 55
REMARK SMILES IDX 62 57 83 58 50 59 34 60 35 61 43 62 36 63 37 64 41 65 44 66
REMARK SMILES IDX 38 67 39 68 42 69 40 70 66 71 67 72 75 73 68 74 69 75 73 76
REMARK SMILES IDX 76 77 70 78 71 79 74 80 72 81 51 82 52 83 60 84 53 85 54 86
REMARK SMILES IDX 58 87 61 88 55 89 56 90 59 91 57 92
REMARK H PARENT 18 5 22 26 81 45 49 56
REMARK Flexibility Score: inf
ROOT
ATOM      1  C   UNL     1      -3.741   0.156   1.054  1.00  0.00     0.117 C 
ENDROOT
BRANCH   1   2
ATOM      2  N   UNL     1      -3.027   1.225   1.721  1.00  0.00    -0.356 N 
ATOM      3  C   UNL     1      -2.249   2.222   1.213  1.00  0.00     0.227 C 
ATOM      4  O   UNL     1      -1.926   3.123   1.996  1.00  0.00    -0.274 OA
ATOM      5  H   UNL     1      -3.119   1.233   2.701  1.00  0.00     0.163 HD
BRANCH   3   6
ATOM      6  C   UNL     1      -1.725   2.228  -0.233  1.00  0.00     0.108 C 
BRANCH   6   7
ATOM      7  C   UNL     1      -0.796   1.042  -0.509  1.00  0.00    -0.035 A 
ATOM      8  C   UNL     1       2.845   0.145   0.314  1.00  0.00     0.044 C 
ATOM      9  C   UNL     1       1.421   0.030  -0.143  1.00  0.00    -0.051 A 
ATOM     10  C   UNL     1       0.940  -1.185  -0.632  1.00  0.00     0.003 A 
ATOM     11  C   UNL     1       0.542   1.119  -0.056  1.00  0.00     0.008 A 
ATOM     12  C   UNL     1      -0.363  -1.273  -1.114  1.00  0.00     0.001 A 
ATOM     13  C   UNL     1      -1.208  -0.157  -1.091  1.00  0.00     0.004 A 
ENDBRANCH   6   7
BRANCH   6  14
ATOM     14  C   UNL     1      -2.650   2.805  -1.339  1.00  0.00     0.018 C 
BRANCH  14  15
ATOM     15  C   UNL     1      -3.953   2.136  -1.796  1.00  0.00     0.004 C 
BRANCH  15  16
ATOM     16  C   UNL     1      -5.189   2.268  -0.891  1.00  0.00     0.032 C 
BRANCH  16  17
ATOM     17  C   UNL     1      -5.947   3.584  -0.843  1.00  0.00     0.118 C 
ATOM     18  C   UNL     1      -6.487   4.126  -2.149  1.00  0.00     0.034 C 
ATOM     19  O   UNL     1      -5.137   4.624  -0.283  1.00  0.00    -0.378 OA
ATOM     20  C   UNL     1      -6.738   5.564  -1.761  1.00  0.00     0.031 C 
ATOM     21  C   UNL     1      -5.552   5.867  -0.865  1.00  0.00     0.160 C 
ENDBRANCH  16  17
ENDBRANCH  15  16
ENDBRANCH  14  15
ENDBRANCH   6  14
ENDBRANCH   3   6
ENDBRANCH   1   2
BRANCH   1  22
ATOM     22  C   UNL     1      -3.198  -1.234   1.320  1.00  0.00     0.042 C 
BRANCH  22  23
ATOM     23  C   UNL     1      -4.233  -2.102   2.000  1.00  0.00     0.118 C 
BRANCH  23  24
ATOM     24  N   UNL     1      -5.332  -2.572   1.144  1.00  0.00    -0.352 N 
ATOM     25  C   UNL     1      -6.526  -3.187   1.493  1.00  0.00     0.251 C 
ATOM     26  H   UNL     1      -5.201  -2.430   0.178  1.00  0.00     0.163 HD
ATOM     27  O   UNL     1      -7.310  -3.541   0.648  1.00  0.00    -0.269 OA
BRANCH  25  28
ATOM     28  C   UNL     1      -6.896  -3.268   2.940  1.00  0.00     0.039 A 
ATOM     29  C   UNL     1      -8.183  -2.869   3.318  1.00  0.00     0.014 A 
ATOM     30  C   UNL     1      -5.904  -3.414   3.897  1.00  0.00     0.014 A 
ATOM     31  C   UNL     1      -8.372  -2.319   4.582  1.00  0.00     0.010 A 
ATOM     32  C   UNL     1      -6.036  -2.697   5.062  1.00  0.00     0.010 A 
ATOM     33  C   UNL     1      -7.258  -2.094   5.383  1.00  0.00    -0.014 A 
BRANCH  33  34
ATOM     34  C   UNL     1      -7.217  -1.164   6.506  1.00  0.00     0.031 A 
ATOM     35  C   UNL     1      -6.858  -1.665   7.854  1.00  0.00     0.074 A 
ATOM     36  C   UNL     1      -7.316   0.168   6.272  1.00  0.00     0.049 A 
ATOM     37  N   UNL     1      -6.956  -0.962   8.928  1.00  0.00    -0.248 NA
ATOM     38  C   UNL     1      -6.406  -3.033   8.122  1.00  0.00     0.031 C 
ATOM     39  C   UNL     1      -6.906   1.256   7.161  1.00  0.00     0.029 A 
ATOM     40  N   UNL     1      -7.994   0.823   5.224  1.00  0.00    -0.354 N 
ATOM     41  C   UNL     1      -6.309  -1.637   9.933  1.00  0.00     0.074 A 
ATOM     42  C   UNL     1      -6.091  -2.961   9.419  1.00  0.00     0.031 C 
ATOM     43  C   UNL     1      -7.571   2.371   6.824  1.00  0.00     0.029 A 
ATOM     44  C   UNL     1      -8.537   1.996   5.809  1.00  0.00     0.049 A 
ATOM     45  H   UNL     1      -8.074   0.529   4.288  1.00  0.00     0.167 HD
ATOM     46  C   UNL     1      -5.925  -0.937  11.035  1.00  0.00     0.037 A 
ATOM     47  C   UNL     1      -9.884   2.181   5.922  1.00  0.00     0.037 A 
ATOM     48  C   UNL     1      -6.621   0.347  11.092  1.00  0.00     0.049 A 
ATOM     49  C   UNL     1     -10.373   2.327   7.346  1.00  0.00     0.074 A 
ATOM     50  C   UNL     1      -6.236   1.662  10.907  1.00  0.00     0.029 A 
ATOM     51  N   UNL     1      -8.015   0.343  11.116  1.00  0.00    -0.354 N 
ATOM     52  N   UNL     1      -9.674   1.989   8.394  1.00  0.00    -0.248 NA
ATOM     53  C   UNL     1     -11.697   2.832   7.702  1.00  0.00     0.031 C 
ATOM     54  C   UNL     1      -7.417   2.433  10.715  1.00  0.00     0.029 A 
ATOM     55  C   UNL     1      -8.514   1.596  10.834  1.00  0.00     0.049 A 
ATOM     56  H   UNL     1      -8.568  -0.449  11.308  1.00  0.00     0.167 HD
ATOM     57  C   UNL     1     -10.422   2.171   9.527  1.00  0.00     0.074 A 
ATOM     58  C   UNL     1     -11.671   2.727   9.042  1.00  0.00     0.031 C 
ATOM     59  C   UNL     1      -9.954   1.820  10.762  1.00  0.00     0.037 A 
BRANCH  46  60
ATOM     60  C   UNL     1      -4.809  -1.326  11.980  1.00  0.00     0.064 A 
ATOM     61  C   UNL     1      -4.553  -0.544  13.128  1.00  0.00     0.173 A 
ATOM     62  C   UNL     1      -3.871  -2.357  11.752  1.00  0.00     0.173 A 
ATOM     63  F   UNL     1      -5.351   0.481  13.460  1.00  0.00    -0.203 F 
ATOM     64  C   UNL     1      -3.453  -0.770  13.964  1.00  0.00     0.198 A 
ATOM     65  C   UNL     1      -2.805  -2.617  12.619  1.00  0.00     0.198 A 
ATOM     66  F   UNL     1      -3.899  -3.119  10.654  1.00  0.00    -0.203 F 
ATOM     67  F   UNL     1      -3.227   0.044  15.004  1.00  0.00    -0.200 F 
ATOM     68  C   UNL     1      -2.586  -1.815  13.716  1.00  0.00     0.200 A 
ATOM     69  F   UNL     1      -1.972  -3.635  12.356  1.00  0.00    -0.200 F 
ATOM     70  F   UNL     1      -1.534  -2.035  14.516  1.00  0.00    -0.200 F 
ENDBRANCH  46  60
BRANCH  47  71
ATOM     71  C   UNL     1     -10.645   1.573   4.800  1.00  0.00     0.064 A 
ATOM     72  C   UNL     1     -10.460   2.114   3.513  1.00  0.00     0.173 A 
ATOM     73  C   UNL     1     -11.171   0.280   4.890  1.00  0.00     0.173 A 
ATOM     74  F   UNL     1      -9.963   3.353   3.373  1.00  0.00    -0.203 F 
ATOM     75  C   UNL     1     -10.662   1.345   2.368  1.00  0.00     0.198 A 
ATOM     76  C   UNL     1     -11.387  -0.482   3.739  1.00  0.00     0.198 A 
ATOM     77  F   UNL     1     -11.347  -0.298   6.087  1.00  0.00    -0.203 F 
ATOM     78  F   UNL     1     -10.357   1.848   1.163  1.00  0.00    -0.200 F 
ATOM     79  C   UNL     1     -11.093   0.036   2.485  1.00  0.00     0.200 A 
ATOM     80  F   UNL     1     -11.773  -1.762   3.850  1.00  0.00    -0.200 F 
ATOM     81  F   UNL     1     -11.182  -0.742   1.397  1.00  0.00    -0.200 F 
ENDBRANCH  47  71
BRANCH  59  82
ATOM     82  C   UNL     1     -10.776   1.708  12.030  1.00  0.00     0.064 A 
ATOM     83  C   UNL     1     -12.158   1.455  12.057  1.00  0.00     0.173 A 
ATOM     84  C   UNL     1     -10.138   1.704  13.296  1.00  0.00     0.173 A 
ATOM     85  F   UNL     1     -12.864   1.301  10.930  1.00  0.00    -0.203 F 
ATOM     86  C   UNL     1     -12.859   1.284  13.256  1.00  0.00     0.198 A 
ATOM     87  C   UNL     1     -10.829   1.469  14.485  1.00  0.00     0.198 A 
ATOM     88  F   UNL     1      -8.817   1.897  13.417  1.00  0.00    -0.203 F 
ATOM     89  F   UNL     1     -14.185   1.091  13.227  1.00  0.00    -0.200 F 
ATOM     90  C   UNL     1     -12.194   1.278  14.467  1.00  0.00     0.200 A 
ATOM     91  F   UNL     1     -10.159   1.407  15.644  1.00  0.00    -0.200 F 
ATOM     92  F   UNL     1     -12.862   1.065  15.608  1.00  0.00    -0.200 F 
ENDBRANCH  59  82
ENDBRANCH  33  34
ENDBRANCH  25  28
ENDBRANCH  23  24
ENDBRANCH  22  23
ENDBRANCH   1  22
TORSDOF 15
