REMARK SMILES COC[C@@H]1CCN(C(=O)N[C@H]2CCCCC[C@@H]2C(=O)NCCCNC(=O)c2ccc(-c3c4nc(c(-c5c(F)c(F)c(F)c(F)c5F)c5ccc([nH]5)c(-c5c(F)c(F)c(F)c(F)c5F)c5nc(c(-c6c(F)c(F)c(F)c(F)c6F)c6ccc3[nH]6)C=C5)C=C4)cc2)C1
REMARK SMILES IDX 18 1 19 2 20 3 17 5 11 6 10 8 8 9 9 10 7 12 4 13 5 14 90 15
REMARK SMILES IDX 6 16 3 17 2 18 1 19 16 20 15 21 14 22 13 23 12 24 21 26
REMARK SMILES IDX 22 27 23 28 24 29 25 30 26 32 27 33 28 34 89 35 29 36 88 37
REMARK SMILES IDX 30 38 31 39 32 40 82 41 33 42 87 43 81 44 83 45 34 46 86 47
REMARK SMILES IDX 80 48 79 49 35 51 67 52 47 53 66 54 48 55 51 56 65 57 84 58
REMARK SMILES IDX 49 59 50 60 64 62 85 63 52 64 36 65 37 66 45 67 38 68 39 69
REMARK SMILES IDX 43 70 46 71 40 72 41 73 44 74 42 75 68 76 69 77 77 78 70 79
REMARK SMILES IDX 71 80 75 81 78 82 72 83 73 84 76 85 74 86 53 87 54 88 62 89
REMARK SMILES IDX 55 90 56 91 60 92 63 93 57 94 58 95 61 96 59 97
REMARK H PARENT 20 4 10 11 24 31 83 50 51 61
REMARK Flexibility Score: 90.00
ROOT
ATOM      1  C   UNL     1       3.513   5.509  -3.915  1.00  0.00     0.225 C 
ATOM      2  O   UNL     1       2.293   5.396  -4.067  1.00  0.00    -0.275 OA
ATOM      3  N   UNL     1       3.974   6.786  -3.989  1.00  0.00    -0.356 N 
ATOM      4  H   UNL     1       3.290   7.439  -4.262  1.00  0.00     0.163 HD
ENDROOT
BRANCH   1   5
ATOM      5  C   UNL     1       4.437   4.283  -3.753  1.00  0.00     0.101 C 
BRANCH   5   6
ATOM      6  C   UNL     1       3.561   2.998  -3.564  1.00  0.00     0.096 CG0
ATOM      7  G   UNL     1       4.308   1.781  -2.961  1.00  0.00     0.000 G0
BRANCH   6   8
ATOM      8  N   UNL     1       2.845   2.569  -4.767  1.00  0.00    -0.334 N 
ATOM      9  C   UNL     1       1.927   1.590  -4.959  1.00  0.00     0.317 C 
ATOM     10  O   UNL     1       1.700   1.269  -6.129  1.00  0.00    -0.249 OA
ATOM     11  H   UNL     1       3.069   3.081  -5.577  1.00  0.00     0.165 HD
BRANCH   9  12
ATOM     12  N   UNL     1       1.353   0.925  -3.912  1.00  0.00    -0.324 N 
ATOM     13  C   UNL     1       0.274  -0.890  -2.784  1.00  0.00     0.036 C 
ATOM     14  C   UNL     1       1.111  -0.062  -1.809  1.00  0.00     0.029 C 
ATOM     15  C   UNL     1       0.788  -0.403  -4.146  1.00  0.00     0.127 C 
ATOM     16  C   UNL     1       1.159   1.285  -2.514  1.00  0.00     0.122 C 
BRANCH  13  17
ATOM     17  C   UNL     1      -1.218  -0.682  -2.474  1.00  0.00     0.165 C 
BRANCH  17  18
ATOM     18  O   UNL     1      -2.053  -0.633  -3.621  1.00  0.00    -0.384 OA
ATOM     19  C   UNL     1      -2.358   0.703  -4.016  1.00  0.00     0.194 C 
ENDBRANCH  17  18
ENDBRANCH  13  17
ENDBRANCH   9  12
ENDBRANCH   6   8
ENDBRANCH   5   6
BRANCH   5  20
ATOM     20  C   UNL     1       5.407   4.413  -2.555  1.00  0.00     0.015 C 
BRANCH  20  21
ATOM     21  C   UNL     1       6.761   3.750  -2.832  1.00  0.00     0.001 C 
BRANCH  21  22
ATOM     22  C   UNL     1       6.769   2.234  -2.680  1.00  0.00     0.000 C 
BRANCH  22  23
ATOM     23  C   UNL     1       5.707   1.518  -3.502  1.00  0.00     0.002 C 
BRANCH  23  24
ATOM     24  C   UNL     1       4.308   1.781  -2.961  1.00  0.00     0.026 CG0
ATOM     25  G   UNL     1       3.561   2.998  -3.564  1.00  0.00     0.000 G0
ENDBRANCH  23  24
ENDBRANCH  22  23
ENDBRANCH  21  22
ENDBRANCH  20  21
ENDBRANCH   5  20
ENDBRANCH   1   5
BRANCH   3  26
ATOM     26  C   UNL     1       5.278   7.373  -3.743  1.00  0.00     0.117 C 
BRANCH  26  27
ATOM     27  C   UNL     1       5.600   8.559  -4.639  1.00  0.00     0.042 C 
BRANCH  27  28
ATOM     28  C   UNL     1       4.576   9.685  -4.662  1.00  0.00     0.118 C 
BRANCH  28  29
ATOM     29  N   UNL     1       4.484  10.442  -3.422  1.00  0.00    -0.352 N 
ATOM     30  C   UNL     1       4.636  11.793  -3.204  1.00  0.00     0.251 C 
ATOM     31  H   UNL     1       4.284   9.908  -2.619  1.00  0.00     0.163 HD
ATOM     32  O   UNL     1       4.608  12.236  -2.058  1.00  0.00    -0.269 OA
BRANCH  30  33
ATOM     33  C   UNL     1       4.878  12.716  -4.338  1.00  0.00     0.039 A 
ATOM     34  C   UNL     1       5.865  13.698  -4.213  1.00  0.00     0.014 A 
ATOM     35  C   UNL     1       4.150  12.615  -5.525  1.00  0.00     0.014 A 
ATOM     36  C   UNL     1       6.183  14.513  -5.305  1.00  0.00     0.010 A 
ATOM     37  C   UNL     1       4.530  13.360  -6.639  1.00  0.00     0.010 A 
ATOM     38  C   UNL     1       5.550  14.319  -6.543  1.00  0.00    -0.014 A 
BRANCH  38  39
ATOM     39  C   UNL     1       5.920  15.109  -7.748  1.00  0.00     0.031 A 
ATOM     40  C   UNL     1       4.893  15.981  -8.418  1.00  0.00     0.074 A 
ATOM     41  C   UNL     1       7.148  14.983  -8.291  1.00  0.00     0.049 A 
ATOM     42  N   UNL     1       4.973  16.646  -9.543  1.00  0.00    -0.248 NA
ATOM     43  C   UNL     1       3.589  16.096  -7.746  1.00  0.00     0.031 C 
ATOM     44  C   UNL     1       8.226  14.147  -7.762  1.00  0.00     0.029 A 
ATOM     45  N   UNL     1       7.690  15.544  -9.422  1.00  0.00    -0.354 N 
ATOM     46  C   UNL     1       3.728  17.236  -9.722  1.00  0.00     0.074 A 
ATOM     47  C   UNL     1       2.894  16.807  -8.621  1.00  0.00     0.031 C 
ATOM     48  C   UNL     1       9.303  14.262  -8.556  1.00  0.00     0.029 A 
ATOM     49  C   UNL     1       8.979  15.140  -9.677  1.00  0.00     0.049 A 
ATOM     50  H   UNL     1       7.201  16.177  -9.996  1.00  0.00     0.167 HD
ATOM     51  C   UNL     1       3.323  18.078 -10.703  1.00  0.00     0.037 A 
ATOM     52  C   UNL     1       9.800  15.429 -10.705  1.00  0.00     0.037 A 
ATOM     53  C   UNL     1       4.162  18.524 -11.784  1.00  0.00     0.049 A 
ATOM     54  C   UNL     1       9.318  16.349 -11.797  1.00  0.00     0.074 A 
ATOM     55  C   UNL     1       3.861  19.417 -12.798  1.00  0.00     0.029 A 
ATOM     56  N   UNL     1       5.469  18.108 -11.993  1.00  0.00    -0.354 N 
ATOM     57  N   UNL     1       8.158  16.947 -11.925  1.00  0.00    -0.248 NA
ATOM     58  C   UNL     1      10.262  16.640 -12.885  1.00  0.00     0.031 C 
ATOM     59  C   UNL     1       4.965  19.499 -13.651  1.00  0.00     0.029 A 
ATOM     60  C   UNL     1       5.979  18.710 -13.133  1.00  0.00     0.049 A 
ATOM     61  H   UNL     1       5.961  17.479 -11.418  1.00  0.00     0.167 HD
ATOM     62  C   UNL     1       8.248  17.714 -13.079  1.00  0.00     0.074 A 
ATOM     63  C   UNL     1       9.577  17.510 -13.614  1.00  0.00     0.031 C 
ATOM     64  C   UNL     1       7.313  18.518 -13.641  1.00  0.00     0.037 A 
BRANCH  51  65
ATOM     65  C   UNL     1       1.905  18.573 -10.655  1.00  0.00     0.064 A 
ATOM     66  C   UNL     1       1.465  19.455  -9.657  1.00  0.00     0.173 A 
ATOM     67  C   UNL     1       0.984  18.189 -11.642  1.00  0.00     0.173 A 
ATOM     68  F   UNL     1       2.302  19.846  -8.684  1.00  0.00    -0.203 F 
ATOM     69  C   UNL     1       0.149  19.908  -9.629  1.00  0.00     0.198 A 
ATOM     70  C   UNL     1      -0.322  18.672 -11.631  1.00  0.00     0.198 A 
ATOM     71  F   UNL     1       1.353  17.353 -12.624  1.00  0.00    -0.203 F 
ATOM     72  F   UNL     1      -0.262  20.706  -8.634  1.00  0.00    -0.200 F 
ATOM     73  C   UNL     1      -0.741  19.523 -10.620  1.00  0.00     0.200 A 
ATOM     74  F   UNL     1      -1.176  18.312 -12.599  1.00  0.00    -0.200 F 
ATOM     75  F   UNL     1      -2.005  19.967 -10.597  1.00  0.00    -0.200 F 
ENDBRANCH  51  65
BRANCH  52  76
ATOM     76  C   UNL     1      11.171  14.855 -10.749  1.00  0.00     0.064 A 
ATOM     77  C   UNL     1      12.300  15.675 -10.601  1.00  0.00     0.173 A 
ATOM     78  C   UNL     1      11.386  13.485 -10.955  1.00  0.00     0.173 A 
ATOM     79  F   UNL     1      12.149  16.996 -10.423  1.00  0.00    -0.203 F 
ATOM     80  C   UNL     1      13.588  15.150 -10.681  1.00  0.00     0.198 A 
ATOM     81  C   UNL     1      12.675  12.956 -11.003  1.00  0.00     0.198 A 
ATOM     82  F   UNL     1      10.342  12.655 -11.098  1.00  0.00    -0.203 F 
ATOM     83  F   UNL     1      14.648  15.965 -10.589  1.00  0.00    -0.200 F 
ATOM     84  C   UNL     1      13.775  13.791 -10.877  1.00  0.00     0.200 A 
ATOM     85  F   UNL     1      12.850  11.639 -11.176  1.00  0.00    -0.200 F 
ATOM     86  F   UNL     1      15.014  13.286 -10.951  1.00  0.00    -0.200 F 
ENDBRANCH  52  76
BRANCH  64  87
ATOM     87  C   UNL     1       7.706  19.296 -14.865  1.00  0.00     0.064 A 
ATOM     88  C   UNL     1       7.893  18.680 -16.110  1.00  0.00     0.173 A 
ATOM     89  C   UNL     1       7.834  20.693 -14.798  1.00  0.00     0.173 A 
ATOM     90  F   UNL     1       7.797  17.346 -16.224  1.00  0.00    -0.203 F 
ATOM     91  C   UNL     1       8.213  19.430 -17.239  1.00  0.00     0.198 A 
ATOM     92  C   UNL     1       8.121  21.443 -15.935  1.00  0.00     0.198 A 
ATOM     93  F   UNL     1       7.658  21.334 -13.632  1.00  0.00    -0.203 F 
ATOM     94  F   UNL     1       8.429  18.815 -18.410  1.00  0.00    -0.200 F 
ATOM     95  C   UNL     1       8.316  20.811 -17.152  1.00  0.00     0.200 A 
ATOM     96  F   UNL     1       8.203  22.778 -15.852  1.00  0.00    -0.200 F 
ATOM     97  F   UNL     1       8.608  21.532 -18.244  1.00  0.00    -0.200 F 
ENDBRANCH  64  87
ENDBRANCH  38  39
ENDBRANCH  30  33
ENDBRANCH  28  29
ENDBRANCH  27  28
ENDBRANCH  26  27
ENDBRANCH   3  26
TORSDOF 14
