REMARK SMILES O=C(NCCCNC(=O)c1cn(C2C[NH+](CCC[C@@H]3CCCO3)C2)nn1)c1ccc(-c2c3nc(c(-c4c(F)c(F)c(F)c(F)c4F)c4ccc([nH]4)c(-c4c(F)c(F)c(F)c(F)c4F)c4nc(c(-c5c(F)c(F)c(F)c(F)c5F)c5ccc2[nH]5)C=C4)C=C3)cc1
REMARK SMILES IDX 7 1 8 2 9 3 6 5 5 6 4 7 3 8 1 9 2 10 27 12 28 13 89 14 29 15
REMARK SMILES IDX 88 16 30 17 31 18 32 19 82 20 33 21 87 22 81 23 83 24 34 25
REMARK SMILES IDX 86 26 80 27 79 28 35 30 67 31 47 32 66 33 48 34 51 35 65 36
REMARK SMILES IDX 84 37 49 38 50 39 64 41 85 42 52 43 36 44 37 45 45 46 38 47
REMARK SMILES IDX 39 48 43 49 46 50 40 51 41 52 44 53 42 54 68 55 69 56 77 57
REMARK SMILES IDX 70 58 71 59 75 60 78 61 72 62 73 63 76 64 74 65 53 66 54 67
REMARK SMILES IDX 62 68 55 69 56 70 60 71 63 72 57 73 58 74 61 75 59 76 10 77
REMARK SMILES IDX 11 78 26 79 12 80 25 81 13 82 14 83 24 84 15 85 16 87 17 88
REMARK SMILES IDX 18 89 19 90 20 91 23 92 21 93 22 94
REMARK H PARENT 7 4 3 11 83 29 51 40 15 86
REMARK Flexibility Score: inf
ROOT
ATOM      1  N   UNL     1       4.968   3.180  -2.590  1.00  0.00    -0.351 N 
ATOM      2  C   UNL     1       5.792   4.060  -3.258  1.00  0.00     0.273 C 
ATOM      3  O   UNL     1       6.226   5.029  -2.649  1.00  0.00    -0.267 OA
ATOM      4  H   UNL     1       4.658   3.492  -1.709  1.00  0.00     0.163 HD
ENDROOT
BRANCH   1   5
ATOM      5  C   UNL     1       4.484   1.865  -2.978  1.00  0.00     0.118 C 
BRANCH   5   6
ATOM      6  C   UNL     1       5.032   0.747  -2.088  1.00  0.00     0.042 C 
BRANCH   6   7
ATOM      7  C   UNL     1       4.702   0.894  -0.603  1.00  0.00     0.118 C 
BRANCH   7   8
ATOM      8  N   UNL     1       3.288   1.023  -0.317  1.00  0.00    -0.352 N 
ATOM      9  O   UNL     1       1.230   0.672   0.377  1.00  0.00    -0.269 OA
ATOM     10  C   UNL     1       2.279   0.155  -0.015  1.00  0.00     0.251 C 
ATOM     11  H   UNL     1       2.982   1.958  -0.348  1.00  0.00     0.163 HD
BRANCH  10  12
ATOM     12  C   UNL     1       2.318  -1.322  -0.196  1.00  0.00     0.039 A 
ATOM     13  C   UNL     1       3.416  -2.075  -0.615  1.00  0.00     0.014 A 
ATOM     14  C   UNL     1       1.089  -1.982   0.008  1.00  0.00     0.014 A 
ATOM     15  C   UNL     1       3.263  -3.426  -0.922  1.00  0.00     0.010 A 
ATOM     16  C   UNL     1       0.931  -3.327  -0.294  1.00  0.00     0.010 A 
ATOM     17  C   UNL     1       2.009  -4.037  -0.805  1.00  0.00    -0.014 A 
BRANCH  17  18
ATOM     18  C   UNL     1       1.895  -5.470  -1.067  1.00  0.00     0.031 A 
ATOM     19  C   UNL     1       2.639  -6.321  -0.092  1.00  0.00     0.074 A 
ATOM     20  C   UNL     1       1.069  -5.991  -2.000  1.00  0.00     0.049 A 
ATOM     21  N   UNL     1       3.580  -7.176  -0.329  1.00  0.00    -0.248 NA
ATOM     22  C   UNL     1       2.384  -6.103   1.343  1.00  0.00     0.031 C 
ATOM     23  C   UNL     1       0.078  -5.289  -2.820  1.00  0.00     0.029 A 
ATOM     24  N   UNL     1       0.875  -7.295  -2.352  1.00  0.00    -0.354 N 
ATOM     25  C   UNL     1       3.919  -7.732   0.906  1.00  0.00     0.074 A 
ATOM     26  C   UNL     1       3.264  -6.933   1.904  1.00  0.00     0.031 C 
ATOM     27  C   UNL     1      -0.753  -6.190  -3.394  1.00  0.00     0.029 A 
ATOM     28  C   UNL     1      -0.281  -7.530  -3.092  1.00  0.00     0.049 A 
ATOM     29  H   UNL     1       1.502  -8.013  -2.103  1.00  0.00     0.167 HD
ATOM     30  C   UNL     1       4.526  -8.950   0.986  1.00  0.00     0.037 A 
ATOM     31  C   UNL     1      -0.835  -8.738  -3.381  1.00  0.00     0.037 A 
ATOM     32  C   UNL     1       5.180  -9.278  -0.255  1.00  0.00     0.049 A 
ATOM     33  C   UNL     1       0.213  -9.768  -3.182  1.00  0.00     0.074 A 
ATOM     34  C   UNL     1       6.201  -8.718  -0.997  1.00  0.00     0.029 A 
ATOM     35  N   UNL     1       4.553 -10.158  -1.101  1.00  0.00    -0.354 N 
ATOM     36  N   UNL     1       1.268  -9.885  -3.940  1.00  0.00    -0.248 NA
ATOM     37  C   UNL     1       0.318 -10.366  -1.860  1.00  0.00     0.031 C 
ATOM     38  C   UNL     1       5.815  -8.908  -2.357  1.00  0.00     0.029 A 
ATOM     39  C   UNL     1       4.622  -9.630  -2.362  1.00  0.00     0.049 A 
ATOM     40  H   UNL     1       4.132 -11.011  -0.848  1.00  0.00     0.167 HD
ATOM     41  C   UNL     1       2.299 -10.162  -3.057  1.00  0.00     0.074 A 
ATOM     42  C   UNL     1       1.644 -10.514  -1.798  1.00  0.00     0.031 C 
ATOM     43  C   UNL     1       3.583  -9.801  -3.345  1.00  0.00     0.037 A 
BRANCH  30  44
ATOM     44  C   UNL     1       4.171 -10.011   2.011  1.00  0.00     0.064 A 
ATOM     45  C   UNL     1       4.837 -11.255   1.951  1.00  0.00     0.173 A 
ATOM     46  C   UNL     1       3.002  -9.996   2.803  1.00  0.00     0.173 A 
ATOM     47  F   UNL     1       5.971 -11.392   1.246  1.00  0.00    -0.203 F 
ATOM     48  C   UNL     1       4.296 -12.415   2.513  1.00  0.00     0.198 A 
ATOM     49  C   UNL     1       2.491 -11.146   3.402  1.00  0.00     0.198 A 
ATOM     50  F   UNL     1       2.244  -8.905   2.948  1.00  0.00    -0.203 F 
ATOM     51  F   UNL     1       4.886 -13.597   2.292  1.00  0.00    -0.200 F 
ATOM     52  C   UNL     1       3.112 -12.362   3.222  1.00  0.00     0.200 A 
ATOM     53  F   UNL     1       1.337 -11.075   4.082  1.00  0.00    -0.200 F 
ATOM     54  F   UNL     1       2.547 -13.482   3.690  1.00  0.00    -0.200 F 
ENDBRANCH  30  44
BRANCH  31  55
ATOM     55  C   UNL     1      -2.273  -9.100  -3.476  1.00  0.00     0.064 A 
ATOM     56  C   UNL     1      -2.689 -10.307  -4.067  1.00  0.00     0.173 A 
ATOM     57  C   UNL     1      -3.245  -8.408  -2.728  1.00  0.00     0.173 A 
ATOM     58  F   UNL     1      -1.815 -11.060  -4.751  1.00  0.00    -0.203 F 
ATOM     59  C   UNL     1      -3.991 -10.798  -3.901  1.00  0.00     0.198 A 
ATOM     60  C   UNL     1      -4.543  -8.896  -2.568  1.00  0.00     0.198 A 
ATOM     61  F   UNL     1      -2.926  -7.295  -2.054  1.00  0.00    -0.203 F 
ATOM     62  F   UNL     1      -4.332 -11.983  -4.429  1.00  0.00    -0.200 F 
ATOM     63  C   UNL     1      -4.913 -10.097  -3.144  1.00  0.00     0.200 A 
ATOM     64  F   UNL     1      -5.413  -8.228  -1.796  1.00  0.00    -0.200 F 
ATOM     65  F   UNL     1      -6.140 -10.595  -2.933  1.00  0.00    -0.200 F 
ENDBRANCH  31  55
BRANCH  43  66
ATOM     66  C   UNL     1       3.884  -9.329  -4.738  1.00  0.00     0.064 A 
ATOM     67  C   UNL     1       3.342  -8.165  -5.310  1.00  0.00     0.173 A 
ATOM     68  C   UNL     1       4.877 -10.002  -5.461  1.00  0.00     0.173 A 
ATOM     69  F   UNL     1       2.462  -7.411  -4.640  1.00  0.00    -0.203 F 
ATOM     70  C   UNL     1       3.753  -7.719  -6.565  1.00  0.00     0.198 A 
ATOM     71  C   UNL     1       5.311  -9.535  -6.697  1.00  0.00     0.198 A 
ATOM     72  F   UNL     1       5.469 -11.087  -4.938  1.00  0.00    -0.203 F 
ATOM     73  F   UNL     1       3.221  -6.606  -7.092  1.00  0.00    -0.200 F 
ATOM     74  C   UNL     1       4.744  -8.400  -7.253  1.00  0.00     0.200 A 
ATOM     75  F   UNL     1       6.307 -10.167  -7.334  1.00  0.00    -0.200 F 
ATOM     76  F   UNL     1       5.175  -7.944  -8.438  1.00  0.00    -0.200 F 
ENDBRANCH  43  66
ENDBRANCH  17  18
ENDBRANCH  10  12
ENDBRANCH   7   8
ENDBRANCH   6   7
ENDBRANCH   5   6
ENDBRANCH   1   5
BRANCH   2  77
ATOM     77  C   UNL     1       6.117   3.797  -4.646  1.00  0.00     0.170 A 
ATOM     78  C   UNL     1       5.264   3.509  -5.695  1.00  0.00     0.145 A 
ATOM     79  N   UNL     1       7.406   3.814  -5.111  1.00  0.00    -0.125 NA
ATOM     80  N   UNL     1       6.108   3.216  -6.726  1.00  0.00    -0.237 N 
ATOM     81  N   UNL     1       7.388   3.448  -6.383  1.00  0.00    -0.066 NA
BRANCH  80  82
ATOM     82  C   UNL     1       5.820   2.517  -7.934  1.00  0.00     0.218 C 
ATOM     83  C   UNL     1       4.779   1.374  -7.767  1.00  0.00     0.295 C 
ATOM     84  C   UNL     1       4.758   3.129  -8.869  1.00  0.00     0.295 C 
ATOM     85  N   UNL     1       4.169   1.780  -9.039  1.00  0.00    -0.331 N 
ATOM     86  H   UNL     1       3.168   1.667  -9.200  1.00  0.00     0.348 HD
BRANCH  85  87
ATOM     87  C   UNL     1       4.662   1.036 -10.214  1.00  0.00     0.262 C 
BRANCH  87  88
ATOM     88  C   UNL     1       6.158   0.826 -10.537  1.00  0.00     0.064 C 
BRANCH  88  89
ATOM     89  C   UNL     1       6.966  -0.169  -9.683  1.00  0.00     0.038 C 
BRANCH  89  90
ATOM     90  C   UNL     1       6.321  -1.541  -9.512  1.00  0.00     0.118 C 
ATOM     91  C   UNL     1       7.293  -2.613  -9.040  1.00  0.00     0.034 C 
ATOM     92  O   UNL     1       5.786  -2.005 -10.758  1.00  0.00    -0.378 OA
ATOM     93  C   UNL     1       6.616  -3.864  -9.543  1.00  0.00     0.031 C 
ATOM     94  C   UNL     1       6.058  -3.407 -10.875  1.00  0.00     0.160 C 
ENDBRANCH  89  90
ENDBRANCH  88  89
ENDBRANCH  87  88
ENDBRANCH  85  87
ENDBRANCH  80  82
ENDBRANCH   2  77
TORSDOF 15
