REMARK SMILES COc1ccc(-c2ccc(CCC(=O)NCCCNC(=O)c3ccc(-c4c5nc(c(-c6c(F)c(F)c(F)c(F)c6F)c6ccc([nH]6)c(-c6c(F)c(F)c(F)c(F)c6F)c6nc(c(-c7c(F)c(F)c(F)c(F)c7F)c7ccc4[nH]7)C=C6)C=C5)cc3)n2-c2ccc(C(C)=O)cc2)cc1
REMARK SMILES IDX 16 1 15 2 13 3 14 4 12 6 11 7 10 8 7 9 8 10 85 11 9 12 6 13
REMARK SMILES IDX 3 14 4 15 96 16 5 17 95 18 2 19 1 20 86 21 87 22 94 23 88 24
REMARK SMILES IDX 93 25 89 26 90 27 91 28 92 29 17 30 18 31 19 32 20 33 21 35
REMARK SMILES IDX 22 36 23 37 84 38 24 39 83 40 25 41 26 42 27 43 77 44 28 45
REMARK SMILES IDX 82 46 76 47 78 48 29 49 81 50 75 51 74 52 30 54 62 55 42 56
REMARK SMILES IDX 61 57 43 58 46 59 60 60 79 61 44 62 45 63 59 65 80 66 47 67
REMARK SMILES IDX 31 68 32 69 40 70 33 71 34 72 38 73 41 74 35 75 36 76 39 77
REMARK SMILES IDX 37 78 63 79 64 80 72 81 65 82 66 83 70 84 73 85 67 86 68 87
REMARK SMILES IDX 71 88 69 89 48 90 49 91 57 92 50 93 51 94 55 95 58 96 52 97
REMARK SMILES IDX 53 98 56 99 54 100
REMARK H PARENT 15 5 19 34 78 53 46 64
REMARK Flexibility Score: inf
ROOT
ATOM      1  C   UNL     1       5.038  -0.461   8.298  1.00  0.00     0.117 C 
ENDROOT
BRANCH   1   2
ATOM      2  N   UNL     1       4.879  -0.358   9.739  1.00  0.00    -0.356 N 
ATOM      3  C   UNL     1       3.771  -0.608  10.498  1.00  0.00     0.220 C 
ATOM      4  O   UNL     1       3.777  -0.242  11.675  1.00  0.00    -0.275 OA
ATOM      5  H   UNL     1       5.678  -0.069  10.236  1.00  0.00     0.163 HD
BRANCH   3   6
ATOM      6  C   UNL     1       2.591  -1.367   9.916  1.00  0.00     0.106 C 
BRANCH   6   7
ATOM      7  C   UNL     1       1.279  -0.577   9.970  1.00  0.00     0.064 C 
BRANCH   7   8
ATOM      8  C   UNL     1       1.086   0.326   8.776  1.00  0.00     0.024 A 
ATOM      9  C   UNL     1       1.014   0.895   6.589  1.00  0.00     0.053 A 
ATOM     10  C   UNL     1       1.222   2.047   7.336  1.00  0.00     0.029 A 
ATOM     11  N   UNL     1       0.704  -0.112   7.506  1.00  0.00    -0.314 N 
ATOM     12  C   UNL     1       1.249   1.696   8.702  1.00  0.00     0.024 A 
BRANCH   9  13
ATOM     13  C   UNL     1       0.866   0.822   5.134  1.00  0.00    -0.001 A 
ATOM     14  C   UNL     1       0.599   0.829   2.335  1.00  0.00     0.118 A 
ATOM     15  C   UNL     1      -0.477   1.180   3.150  1.00  0.00     0.047 A 
ATOM     16  C   UNL     1       1.820   0.491   2.918  1.00  0.00     0.047 A 
ATOM     17  C   UNL     1      -0.350   1.170   4.541  1.00  0.00     0.014 A 
ATOM     18  C   UNL     1       1.952   0.489   4.313  1.00  0.00     0.014 A 
BRANCH  14  19
ATOM     19  O   UNL     1       0.365   0.909   0.991  1.00  0.00    -0.497 OA
ATOM     20  C   UNL     1       1.079  -0.027   0.191  1.00  0.00     0.278 C 
ENDBRANCH  14  19
ENDBRANCH   9  13
BRANCH  11  21
ATOM     21  C   UNL     1      -0.104  -1.248   7.242  1.00  0.00     0.046 A 
ATOM     22  C   UNL     1      -1.269  -1.400   8.005  1.00  0.00     0.027 A 
ATOM     23  C   UNL     1       0.157  -2.114   6.181  1.00  0.00     0.027 A 
ATOM     24  C   UNL     1      -2.187  -2.403   7.699  1.00  0.00     0.014 A 
ATOM     25  C   UNL     1      -0.760  -3.132   5.891  1.00  0.00     0.014 A 
ATOM     26  C   UNL     1      -1.949  -3.271   6.631  1.00  0.00     0.017 A 
BRANCH  26  27
ATOM     27  C   UNL     1      -2.915  -4.337   6.224  1.00  0.00     0.159 C 
ATOM     28  C   UNL     1      -4.304  -4.394   6.812  1.00  0.00     0.093 C 
ATOM     29  O   UNL     1      -2.572  -5.165   5.379  1.00  0.00    -0.295 OA
ENDBRANCH  26  27
ENDBRANCH  11  21
ENDBRANCH   7   8
ENDBRANCH   6   7
ENDBRANCH   3   6
ENDBRANCH   1   2
BRANCH   1  30
ATOM     30  C   UNL     1       4.469   0.775   7.615  1.00  0.00     0.042 C 
BRANCH  30  31
ATOM     31  C   UNL     1       5.434   1.948   7.549  1.00  0.00     0.118 C 
BRANCH  31  32
ATOM     32  N   UNL     1       6.150   1.978   6.286  1.00  0.00    -0.352 N 
ATOM     33  C   UNL     1       6.760   3.021   5.652  1.00  0.00     0.251 C 
ATOM     34  H   UNL     1       6.202   1.115   5.815  1.00  0.00     0.163 HD
ATOM     35  O   UNL     1       7.078   2.868   4.459  1.00  0.00    -0.269 OA
BRANCH  33  36
ATOM     36  C   UNL     1       7.045   4.319   6.311  1.00  0.00     0.039 A 
ATOM     37  C   UNL     1       7.184   5.449   5.490  1.00  0.00     0.014 A 
ATOM     38  C   UNL     1       7.252   4.448   7.690  1.00  0.00     0.014 A 
ATOM     39  C   UNL     1       7.485   6.693   6.040  1.00  0.00     0.010 A 
ATOM     40  C   UNL     1       7.521   5.693   8.250  1.00  0.00     0.010 A 
ATOM     41  C   UNL     1       7.632   6.817   7.425  1.00  0.00    -0.014 A 
BRANCH  41  42
ATOM     42  C   UNL     1       7.819   8.155   8.032  1.00  0.00     0.031 A 
ATOM     43  C   UNL     1       6.510   8.903   8.276  1.00  0.00     0.074 A 
ATOM     44  C   UNL     1       9.102   8.512   8.328  1.00  0.00     0.049 A 
ATOM     45  N   UNL     1       6.306  10.154   8.560  1.00  0.00    -0.248 NA
ATOM     46  C   UNL     1       5.228   8.154   8.171  1.00  0.00     0.031 C 
ATOM     47  C   UNL     1      10.266   7.651   8.059  1.00  0.00     0.029 A 
ATOM     48  N   UNL     1       9.696   9.622   8.902  1.00  0.00    -0.354 N 
ATOM     49  C   UNL     1       4.938  10.292   8.868  1.00  0.00     0.074 A 
ATOM     50  C   UNL     1       4.308   9.058   8.507  1.00  0.00     0.031 C 
ATOM     51  C   UNL     1      11.408   8.273   8.405  1.00  0.00     0.029 A 
ATOM     52  C   UNL     1      11.114   9.586   8.941  1.00  0.00     0.049 A 
ATOM     53  H   UNL     1       9.175  10.378   9.256  1.00  0.00     0.167 HD
ATOM     54  C   UNL     1       4.424  11.363   9.537  1.00  0.00     0.037 A 
ATOM     55  C   UNL     1      12.002  10.543   9.354  1.00  0.00     0.037 A 
ATOM     56  C   UNL     1       5.424  12.350   9.764  1.00  0.00     0.049 A 
ATOM     57  C   UNL     1      11.194  11.589  10.004  1.00  0.00     0.074 A 
ATOM     58  C   UNL     1       6.036  13.267   8.952  1.00  0.00     0.029 A 
ATOM     59  N   UNL     1       6.101  12.295  10.955  1.00  0.00    -0.354 N 
ATOM     60  N   UNL     1      10.637  11.459  11.171  1.00  0.00    -0.248 NA
ATOM     61  C   UNL     1      10.946  12.854   9.304  1.00  0.00     0.031 C 
ATOM     62  C   UNL     1       7.296  13.486   9.549  1.00  0.00     0.029 A 
ATOM     63  C   UNL     1       7.380  12.742  10.730  1.00  0.00     0.049 A 
ATOM     64  H   UNL     1       5.736  11.989  11.817  1.00  0.00     0.167 HD
ATOM     65  C   UNL     1       9.712  12.478  11.178  1.00  0.00     0.074 A 
ATOM     66  C   UNL     1      10.155  13.442  10.199  1.00  0.00     0.031 C 
ATOM     67  C   UNL     1       8.438  12.208  11.559  1.00  0.00     0.037 A 
BRANCH  54  68
ATOM     68  C   UNL     1       3.106  11.548  10.236  1.00  0.00     0.064 A 
ATOM     69  C   UNL     1       2.661  12.868  10.497  1.00  0.00     0.173 A 
ATOM     70  C   UNL     1       2.463  10.527  10.950  1.00  0.00     0.173 A 
ATOM     71  F   UNL     1       3.190  13.912   9.839  1.00  0.00    -0.203 F 
ATOM     72  C   UNL     1       1.730  13.152  11.493  1.00  0.00     0.198 A 
ATOM     73  C   UNL     1       1.493  10.813  11.915  1.00  0.00     0.198 A 
ATOM     74  F   UNL     1       2.829   9.246  10.808  1.00  0.00    -0.203 F 
ATOM     75  F   UNL     1       1.442  14.426  11.796  1.00  0.00    -0.200 F 
ATOM     76  C   UNL     1       1.157  12.124  12.214  1.00  0.00     0.200 A 
ATOM     77  F   UNL     1       0.936   9.812  12.612  1.00  0.00    -0.200 F 
ATOM     78  F   UNL     1       0.312  12.394  13.218  1.00  0.00    -0.200 F 
ENDBRANCH  54  68
BRANCH  55  79
ATOM     79  C   UNL     1      13.500  10.780   9.296  1.00  0.00     0.064 A 
ATOM     80  C   UNL     1      14.458   9.899   8.774  1.00  0.00     0.173 A 
ATOM     81  C   UNL     1      14.041  12.032   9.708  1.00  0.00     0.173 A 
ATOM     82  F   UNL     1      14.151   8.647   8.432  1.00  0.00    -0.203 F 
ATOM     83  C   UNL     1      15.801  10.270   8.583  1.00  0.00     0.198 A 
ATOM     84  C   UNL     1      15.365  12.416   9.483  1.00  0.00     0.198 A 
ATOM     85  F   UNL     1      13.296  12.948  10.341  1.00  0.00    -0.203 F 
ATOM     86  F   UNL     1      16.663   9.384   8.062  1.00  0.00    -0.200 F 
ATOM     87  C   UNL     1      16.246  11.537   8.902  1.00  0.00     0.200 A 
ATOM     88  F   UNL     1      15.764  13.652   9.815  1.00  0.00    -0.200 F 
ATOM     89  F   UNL     1      17.511  11.904   8.660  1.00  0.00    -0.200 F 
ENDBRANCH  55  79
BRANCH  67  90
ATOM     90  C   UNL     1       8.342  11.004  12.477  1.00  0.00     0.064 A 
ATOM     91  C   UNL     1       8.963  11.029  13.736  1.00  0.00     0.173 A 
ATOM     92  C   UNL     1       7.797   9.771  12.081  1.00  0.00     0.173 A 
ATOM     93  F   UNL     1       9.495  12.171  14.198  1.00  0.00    -0.203 F 
ATOM     94  C   UNL     1       9.059   9.881  14.529  1.00  0.00     0.198 A 
ATOM     95  C   UNL     1       7.881   8.627  12.873  1.00  0.00     0.198 A 
ATOM     96  F   UNL     1       7.169   9.651  10.914  1.00  0.00    -0.203 F 
ATOM     97  F   UNL     1       9.677   9.939  15.716  1.00  0.00    -0.200 F 
ATOM     98  C   UNL     1       8.524   8.679  14.094  1.00  0.00     0.200 A 
ATOM     99  F   UNL     1       7.339   7.476  12.446  1.00  0.00    -0.200 F 
ATOM    100  F   UNL     1       8.616   7.579  14.854  1.00  0.00    -0.200 F 
ENDBRANCH  67  90
ENDBRANCH  41  42
ENDBRANCH  33  36
ENDBRANCH  31  32
ENDBRANCH  30  31
ENDBRANCH   1  30
TORSDOF 16
