REMARK SMILES CC[C@@]1(CC(=O)NCCCNC(=O)c2ccc(-c3c4nc(c(-c5c(F)c(F)c(F)c(F)c5F)c5ccc([nH]5)c(-c5c(F)c(F)c(F)c(F)c5F)c5nc(c(-c6c(F)c(F)c(F)c(F)c6F)c6ccc3[nH]6)C=C5)C=C4)cc2)OC[C@H](Cc2ccccc2)c2c1[nH]c1ccccc21
REMARK SMILES IDX 8 1 7 2 5 3 6 4 4 6 3 7 77 8 88 9 78 10 87 11 89 12 79 13
REMARK SMILES IDX 95 14 90 15 94 17 91 18 93 19 92 20 2 21 1 22 80 23 81 24
REMARK SMILES IDX 82 25 86 26 83 27 85 28 84 29 9 30 10 31 11 32 12 33 13 35
REMARK SMILES IDX 14 36 15 37 76 38 16 39 75 40 17 41 18 42 19 43 69 44 20 45
REMARK SMILES IDX 74 46 68 47 70 48 21 49 73 50 67 51 66 52 22 54 54 55 34 56
REMARK SMILES IDX 53 57 35 58 38 59 52 60 71 61 36 62 37 63 51 65 72 66 39 67
REMARK SMILES IDX 23 68 24 69 32 70 25 71 26 72 30 73 33 74 27 75 28 76 31 77
REMARK SMILES IDX 29 78 55 79 56 80 64 81 57 82 58 83 62 84 65 85 59 86 60 87
REMARK SMILES IDX 63 88 61 89 40 90 41 91 49 92 42 93 43 94 47 95 50 96 44 97
REMARK SMILES IDX 45 98 48 99 46 100
REMARK H PARENT 7 5 89 16 11 34 70 53 38 64
REMARK Flexibility Score: inf
ROOT
ATOM      1  C   UNL     1       0.129  -1.823   1.392  1.00  0.00     0.117 C 
ENDROOT
BRANCH   1   2
ATOM      2  N   UNL     1       1.050  -0.702   1.138  1.00  0.00    -0.356 N 
ATOM      3  C   UNL     1       1.228   0.169   0.097  1.00  0.00     0.223 C 
ATOM      4  O   UNL     1       2.174   0.960   0.183  1.00  0.00    -0.275 OA
ATOM      5  H   UNL     1       1.675  -0.544   1.881  1.00  0.00     0.163 HD
BRANCH   3   6
ATOM      6  C   UNL     1       0.347   0.178  -1.150  1.00  0.00     0.142 C 
BRANCH   6   7
ATOM      7  C   UNL     1       0.985  -0.501  -2.403  1.00  0.00     0.117 C 
ATOM      8  O   UNL     1      -0.034  -0.978  -3.323  1.00  0.00    -0.368 OA
ATOM      9  C   UNL     1       1.755  -1.711  -2.010  1.00  0.00     0.052 A 
ATOM     10  C   UNL     1      -0.868  -2.034  -2.841  1.00  0.00     0.170 C 
ATOM     11  C   UNL     1       1.315  -3.019  -2.006  1.00  0.00    -0.011 A 
ATOM     12  N   UNL     1       3.015  -1.645  -1.491  1.00  0.00    -0.356 N 
ATOM     13  C   UNL     1      -0.119  -3.338  -2.453  1.00  0.00     0.052 C 
ATOM     14  C   UNL     1       2.403  -3.790  -1.436  1.00  0.00     0.003 A 
ATOM     15  C   UNL     1       3.412  -2.884  -1.077  1.00  0.00     0.046 A 
ATOM     16  H   UNL     1       3.557  -0.826  -1.425  1.00  0.00     0.166 HD
ATOM     17  C   UNL     1       2.604  -5.137  -1.058  1.00  0.00     0.010 A 
ATOM     18  C   UNL     1       4.571  -3.223  -0.371  1.00  0.00     0.026 A 
ATOM     19  C   UNL     1       3.748  -5.491  -0.314  1.00  0.00     0.001 A 
ATOM     20  C   UNL     1       4.714  -4.547   0.025  1.00  0.00     0.002 A 
BRANCH   7  21
ATOM     21  C   UNL     1       1.819   0.501  -3.261  1.00  0.00     0.039 C 
ATOM     22  C   UNL     1       2.920  -0.106  -4.144  1.00  0.00     0.007 C 
ENDBRANCH   7  21
BRANCH  13  23
ATOM     23  C   UNL     1      -0.941  -4.050  -1.363  1.00  0.00     0.046 C 
BRANCH  23  24
ATOM     24  C   UNL     1      -2.449  -4.199  -1.433  1.00  0.00    -0.047 A 
ATOM     25  C   UNL     1      -3.029  -5.181  -2.235  1.00  0.00     0.004 A 
ATOM     26  C   UNL     1      -3.283  -3.472  -0.557  1.00  0.00     0.004 A 
ATOM     27  C   UNL     1      -4.390  -5.477  -2.113  1.00  0.00     0.000 A 
ATOM     28  C   UNL     1      -4.642  -3.777  -0.430  1.00  0.00     0.000 A 
ATOM     29  C   UNL     1      -5.190  -4.799  -1.194  1.00  0.00     0.000 A 
ENDBRANCH  23  24
ENDBRANCH  13  23
ENDBRANCH   6   7
ENDBRANCH   3   6
ENDBRANCH   1   2
BRANCH   1  30
ATOM     30  C   UNL     1       0.880  -3.166   1.507  1.00  0.00     0.042 C 
BRANCH  30  31
ATOM     31  C   UNL     1       0.245  -4.384   2.205  1.00  0.00     0.118 C 
BRANCH  31  32
ATOM     32  N   UNL     1      -1.168  -4.598   1.946  1.00  0.00    -0.352 N 
ATOM     33  C   UNL     1      -1.815  -5.761   2.342  1.00  0.00     0.251 C 
ATOM     34  H   UNL     1      -1.681  -3.901   1.477  1.00  0.00     0.163 HD
ATOM     35  O   UNL     1      -2.349  -5.793   3.441  1.00  0.00    -0.269 OA
BRANCH  33  36
ATOM     36  C   UNL     1      -2.096  -6.839   1.341  1.00  0.00     0.039 A 
ATOM     37  C   UNL     1      -1.317  -7.118   0.219  1.00  0.00     0.014 A 
ATOM     38  C   UNL     1      -3.278  -7.572   1.530  1.00  0.00     0.014 A 
ATOM     39  C   UNL     1      -1.799  -7.992  -0.774  1.00  0.00     0.010 A 
ATOM     40  C   UNL     1      -3.741  -8.466   0.563  1.00  0.00     0.010 A 
ATOM     41  C   UNL     1      -3.049  -8.624  -0.635  1.00  0.00    -0.014 A 
BRANCH  41  42
ATOM     42  C   UNL     1      -3.563  -9.509  -1.705  1.00  0.00     0.031 A 
ATOM     43  C   UNL     1      -2.668 -10.648  -2.087  1.00  0.00     0.074 A 
ATOM     44  C   UNL     1      -4.820  -9.467  -2.212  1.00  0.00     0.049 A 
ATOM     45  N   UNL     1      -2.221 -10.983  -3.256  1.00  0.00    -0.248 NA
ATOM     46  C   UNL     1      -2.172 -11.500  -0.995  1.00  0.00     0.031 C 
ATOM     47  C   UNL     1      -5.948  -8.649  -1.758  1.00  0.00     0.029 A 
ATOM     48  N   UNL     1      -5.390 -10.225  -3.206  1.00  0.00    -0.354 N 
ATOM     49  C   UNL     1      -1.494 -12.163  -3.075  1.00  0.00     0.074 A 
ATOM     50  C   UNL     1      -1.413 -12.377  -1.653  1.00  0.00     0.031 C 
ATOM     51  C   UNL     1      -7.089  -9.073  -2.343  1.00  0.00     0.029 A 
ATOM     52  C   UNL     1      -6.780 -10.146  -3.268  1.00  0.00     0.049 A 
ATOM     53  H   UNL     1      -4.860 -10.779  -3.823  1.00  0.00     0.167 HD
ATOM     54  C   UNL     1      -1.141 -12.976  -4.111  1.00  0.00     0.037 A 
ATOM     55  C   UNL     1      -7.635 -10.944  -3.963  1.00  0.00     0.037 A 
ATOM     56  C   UNL     1      -1.194 -12.288  -5.370  1.00  0.00     0.049 A 
ATOM     57  C   UNL     1      -6.853 -11.628  -5.021  1.00  0.00     0.074 A 
ATOM     58  C   UNL     1      -0.536 -11.196  -5.903  1.00  0.00     0.029 A 
ATOM     59  N   UNL     1      -2.258 -12.515  -6.204  1.00  0.00    -0.354 N 
ATOM     60  N   UNL     1      -6.349 -11.027  -6.061  1.00  0.00    -0.248 NA
ATOM     61  C   UNL     1      -6.253 -12.910  -4.681  1.00  0.00     0.031 C 
ATOM     62  C   UNL     1      -1.520 -10.524  -6.684  1.00  0.00     0.029 A 
ATOM     63  C   UNL     1      -2.689 -11.282  -6.622  1.00  0.00     0.049 A 
ATOM     64  H   UNL     1      -2.638 -13.388  -6.454  1.00  0.00     0.167 HD
ATOM     65  C   UNL     1      -5.111 -11.623  -6.238  1.00  0.00     0.074 A 
ATOM     66  C   UNL     1      -5.136 -12.822  -5.405  1.00  0.00     0.031 C 
ATOM     67  C   UNL     1      -4.076 -10.948  -6.816  1.00  0.00     0.037 A 
BRANCH  54  68
ATOM     68  C   UNL     1      -1.021 -14.478  -4.029  1.00  0.00     0.064 A 
ATOM     69  C   UNL     1      -0.474 -15.197  -5.113  1.00  0.00     0.173 A 
ATOM     70  C   UNL     1      -1.693 -15.255  -3.063  1.00  0.00     0.173 A 
ATOM     71  F   UNL     1       0.170 -14.560  -6.103  1.00  0.00    -0.203 F 
ATOM     72  C   UNL     1      -0.656 -16.577  -5.253  1.00  0.00     0.198 A 
ATOM     73  C   UNL     1      -1.828 -16.638  -3.179  1.00  0.00     0.198 A 
ATOM     74  F   UNL     1      -2.340 -14.697  -2.032  1.00  0.00    -0.203 F 
ATOM     75  F   UNL     1      -0.226 -17.196  -6.361  1.00  0.00    -0.200 F 
ATOM     76  C   UNL     1      -1.338 -17.295  -4.289  1.00  0.00     0.200 A 
ATOM     77  F   UNL     1      -2.508 -17.315  -2.243  1.00  0.00    -0.200 F 
ATOM     78  F   UNL     1      -1.568 -18.605  -4.450  1.00  0.00    -0.200 F 
ENDBRANCH  54  68
BRANCH  55  79
ATOM     79  C   UNL     1      -9.010 -11.373  -3.583  1.00  0.00     0.064 A 
ATOM     80  C   UNL     1      -9.872 -12.001  -4.501  1.00  0.00     0.173 A 
ATOM     81  C   UNL     1      -9.419 -11.410  -2.235  1.00  0.00     0.173 A 
ATOM     82  F   UNL     1      -9.547 -12.065  -5.801  1.00  0.00    -0.203 F 
ATOM     83  C   UNL     1     -11.054 -12.635  -4.090  1.00  0.00     0.198 A 
ATOM     84  C   UNL     1     -10.603 -12.027  -1.829  1.00  0.00     0.198 A 
ATOM     85  F   UNL     1      -8.634 -10.930  -1.261  1.00  0.00    -0.203 F 
ATOM     86  F   UNL     1     -11.819 -13.276  -4.987  1.00  0.00    -0.200 F 
ATOM     87  C   UNL     1     -11.415 -12.653  -2.753  1.00  0.00     0.200 A 
ATOM     88  F   UNL     1     -10.918 -12.063  -0.526  1.00  0.00    -0.200 F 
ATOM     89  F   UNL     1     -12.514 -13.305  -2.351  1.00  0.00    -0.200 F 
ENDBRANCH  55  79
BRANCH  67  90
ATOM     90  C   UNL     1      -4.360  -9.623  -7.462  1.00  0.00     0.064 A 
ATOM     91  C   UNL     1      -4.814  -8.496  -6.755  1.00  0.00     0.173 A 
ATOM     92  C   UNL     1      -3.973  -9.438  -8.796  1.00  0.00     0.173 A 
ATOM     93  F   UNL     1      -5.107  -8.569  -5.451  1.00  0.00    -0.203 F 
ATOM     94  C   UNL     1      -4.900  -7.247  -7.368  1.00  0.00     0.198 A 
ATOM     95  C   UNL     1      -4.026  -8.182  -9.394  1.00  0.00     0.198 A 
ATOM     96  F   UNL     1      -3.478 -10.467  -9.501  1.00  0.00    -0.203 F 
ATOM     97  F   UNL     1      -5.332  -6.186  -6.671  1.00  0.00    -0.200 F 
ATOM     98  C   UNL     1      -4.495  -7.090  -8.683  1.00  0.00     0.200 A 
ATOM     99  F   UNL     1      -3.583  -8.024 -10.649  1.00  0.00    -0.200 F 
ATOM    100  F   UNL     1      -4.525  -5.878  -9.256  1.00  0.00    -0.200 F 
ENDBRANCH  67  90
ENDBRANCH  41  42
ENDBRANCH  33  36
ENDBRANCH  31  32
ENDBRANCH  30  31
ENDBRANCH   1  30
TORSDOF 14
