REMARK SMILES Cc1nc(C[N@H+]2Cc3ccccc3C[C@@H]2C(=O)NCCCNC(=O)c2ccc(-c3c4nc(c(-c5c(F)c(F)c(F)c(F)c5F)c5ccc([nH]5)c(-c5c(F)c(F)c(F)c(F)c5F)c5nc(c(-c6c(F)c(F)c(F)c(F)c6F)c6ccc3[nH]6)C=C5)C=C4)cc2)sc1C
REMARK SMILES IDX 20 1 19 2 18 3 16 4 17 5 15 7 6 8 7 9 8 11 14 12 9 13 13 14
REMARK SMILES IDX 10 15 12 16 11 17 5 18 4 19 1 20 2 21 3 22 89 23 88 24 90 25
REMARK SMILES IDX 21 26 22 27 23 28 24 30 25 31 26 32 87 33 27 34 86 35 28 36
REMARK SMILES IDX 29 37 30 38 80 39 31 40 85 41 79 42 81 43 32 44 84 45 78 46
REMARK SMILES IDX 77 47 33 49 65 50 45 51 64 52 46 53 49 54 63 55 82 56 47 57
REMARK SMILES IDX 48 58 62 60 83 61 50 62 34 63 35 64 43 65 36 66 37 67 41 68
REMARK SMILES IDX 44 69 38 70 39 71 42 72 40 73 66 74 67 75 75 76 68 77 69 78
REMARK SMILES IDX 73 79 76 80 70 81 71 82 74 83 72 84 51 85 52 86 60 87 53 88
REMARK SMILES IDX 54 89 58 90 61 91 55 92 56 93 59 94 57 95
REMARK H PARENT 18 6 6 10 22 29 81 48 49 59
REMARK Flexibility Score: inf
ROOT
ATOM      1  C   UNL     1      -3.468   6.233   1.422  1.00  0.00     0.042 C 
ENDROOT
BRANCH   1   2
ATOM      2  C   UNL     1      -2.367   6.015   0.386  1.00  0.00     0.118 C 
BRANCH   2   3
ATOM      3  N   UNL     1      -1.054   6.231   0.954  1.00  0.00    -0.351 N 
ATOM      4  C   UNL     1      -0.109   5.379   1.433  1.00  0.00     0.278 C 
ATOM      5  O   UNL     1       0.878   5.941   1.929  1.00  0.00    -0.268 OA
ATOM      6  H   UNL     1      -0.795   7.179   1.005  1.00  0.00     0.163 HD
BRANCH   4   7
ATOM      7  C   UNL     1      -0.140   3.836   1.228  1.00  0.00     0.279 C 
ATOM      8  N   UNL     1      -1.516   3.260   1.267  1.00  0.00    -0.315 N 
ATOM      9  C   UNL     1      -1.902   2.609   2.530  1.00  0.00     0.300 C 
ATOM     10  H   UNL     1      -2.119   4.081   1.205  1.00  0.00     0.349 HD
ATOM     11  C   UNL     1      -1.136   3.056   3.750  1.00  0.00     0.010 A 
ATOM     12  C   UNL     1       0.836   3.191   2.245  1.00  0.00     0.111 C 
ATOM     13  C   UNL     1      -1.735   3.136   5.011  1.00  0.00     0.010 A 
ATOM     14  C   UNL     1       0.244   3.276   3.627  1.00  0.00    -0.033 A 
ATOM     15  C   UNL     1      -0.963   3.444   6.132  1.00  0.00     0.001 A 
ATOM     16  C   UNL     1       1.017   3.567   4.753  1.00  0.00     0.004 A 
ATOM     17  C   UNL     1       0.410   3.654   6.004  1.00  0.00     0.000 A 
BRANCH   8  18
ATOM     18  C   UNL     1      -1.786   2.373   0.102  1.00  0.00     0.332 C 
BRANCH  18  19
ATOM     19  C   UNL     1      -0.853   1.193  -0.062  1.00  0.00     0.148 A 
ATOM     20  C   UNL     1       2.537   0.039  -0.304  1.00  0.00     0.068 C 
ATOM     21  C   UNL     1       1.053   0.068  -0.234  1.00  0.00     0.052 A 
ATOM     22  N   UNL     1       0.440   1.305  -0.286  1.00  0.00    -0.240 NA
ATOM     23  C   UNL     1       0.185  -0.999  -0.083  1.00  0.00     0.025 A 
ATOM     24  S   UNL     1      -1.427  -0.422   0.045  1.00  0.00    -0.118 S 
ATOM     25  C   UNL     1       0.490  -2.452   0.007  1.00  0.00     0.058 C 
ENDBRANCH  18  19
ENDBRANCH   8  18
ENDBRANCH   4   7
ENDBRANCH   2   3
ENDBRANCH   1   2
BRANCH   1  26
ATOM     26  C   UNL     1      -3.544   7.667   1.949  1.00  0.00     0.118 C 
BRANCH  26  27
ATOM     27  N   UNL     1      -3.846   8.637   0.903  1.00  0.00    -0.352 N 
ATOM     28  C   UNL     1      -4.842   9.575   0.819  1.00  0.00     0.251 C 
ATOM     29  H   UNL     1      -3.235   8.615   0.131  1.00  0.00     0.163 HD
ATOM     30  O   UNL     1      -5.023  10.177  -0.239  1.00  0.00    -0.269 OA
BRANCH  28  31
ATOM     31  C   UNL     1      -5.713   9.863   1.978  1.00  0.00     0.039 A 
ATOM     32  C   UNL     1      -7.081  10.050   1.758  1.00  0.00     0.014 A 
ATOM     33  C   UNL     1      -5.188   9.992   3.266  1.00  0.00     0.014 A 
ATOM     34  C   UNL     1      -7.931  10.303   2.836  1.00  0.00     0.010 A 
ATOM     35  C   UNL     1      -6.045  10.181   4.348  1.00  0.00     0.010 A 
ATOM     36  C   UNL     1      -7.425  10.337   4.145  1.00  0.00    -0.014 A 
BRANCH  36  37
ATOM     37  C   UNL     1      -8.321  10.525   5.313  1.00  0.00     0.031 A 
ATOM     38  C   UNL     1      -8.200  11.752   6.172  1.00  0.00     0.074 A 
ATOM     39  C   UNL     1      -9.196   9.555   5.641  1.00  0.00     0.049 A 
ATOM     40  N   UNL     1      -8.826  12.051   7.283  1.00  0.00    -0.248 NA
ATOM     41  C   UNL     1      -7.227  12.767   5.740  1.00  0.00     0.031 C 
ATOM     42  C   UNL     1      -9.380   8.301   4.909  1.00  0.00     0.029 A 
ATOM     43  N   UNL     1     -10.084   9.465   6.684  1.00  0.00    -0.354 N 
ATOM     44  C   UNL     1      -8.312  13.275   7.689  1.00  0.00     0.074 A 
ATOM     45  C   UNL     1      -7.291  13.643   6.732  1.00  0.00     0.031 C 
ATOM     46  C   UNL     1     -10.331   7.573   5.516  1.00  0.00     0.029 A 
ATOM     47  C   UNL     1     -10.795   8.290   6.700  1.00  0.00     0.049 A 
ATOM     48  H   UNL     1     -10.200  10.175   7.356  1.00  0.00     0.167 HD
ATOM     49  C   UNL     1      -8.672  14.031   8.754  1.00  0.00     0.037 A 
ATOM     50  C   UNL     1     -11.709   7.836   7.579  1.00  0.00     0.037 A 
ATOM     51  C   UNL     1      -9.706  13.673   9.690  1.00  0.00     0.049 A 
ATOM     52  C   UNL     1     -12.087   8.693   8.756  1.00  0.00     0.074 A 
ATOM     53  C   UNL     1     -10.186  14.400  10.766  1.00  0.00     0.029 A 
ATOM     54  N   UNL     1     -10.420  12.484   9.662  1.00  0.00    -0.354 N 
ATOM     55  N   UNL     1     -11.638   9.877   9.096  1.00  0.00    -0.248 NA
ATOM     56  C   UNL     1     -13.103   8.152   9.670  1.00  0.00     0.031 C 
ATOM     57  C   UNL     1     -11.159  13.632  11.414  1.00  0.00     0.029 A 
ATOM     58  C   UNL     1     -11.321  12.448  10.714  1.00  0.00     0.049 A 
ATOM     59  H   UNL     1     -10.303  11.771   8.993  1.00  0.00     0.167 HD
ATOM     60  C   UNL     1     -12.335  10.235  10.242  1.00  0.00     0.074 A 
ATOM     61  C   UNL     1     -13.246   9.147  10.533  1.00  0.00     0.031 C 
ATOM     62  C   UNL     1     -12.229  11.363  10.985  1.00  0.00     0.037 A 
BRANCH  49  63
ATOM     63  C   UNL     1      -7.943  15.326   8.965  1.00  0.00     0.064 A 
ATOM     64  C   UNL     1      -8.126  16.421   8.107  1.00  0.00     0.173 A 
ATOM     65  C   UNL     1      -7.081  15.488  10.060  1.00  0.00     0.173 A 
ATOM     66  F   UNL     1      -8.931  16.316   7.040  1.00  0.00    -0.203 F 
ATOM     67  C   UNL     1      -7.451  17.620   8.322  1.00  0.00     0.198 A 
ATOM     68  C   UNL     1      -6.431  16.698  10.289  1.00  0.00     0.198 A 
ATOM     69  F   UNL     1      -6.876  14.475  10.916  1.00  0.00    -0.203 F 
ATOM     70  F   UNL     1      -7.606  18.637   7.462  1.00  0.00    -0.200 F 
ATOM     71  C   UNL     1      -6.610  17.760   9.415  1.00  0.00     0.200 A 
ATOM     72  F   UNL     1      -5.630  16.836  11.354  1.00  0.00    -0.200 F 
ATOM     73  F   UNL     1      -5.968  18.918   9.625  1.00  0.00    -0.200 F 
ENDBRANCH  49  63
BRANCH  50  74
ATOM     74  C   UNL     1     -12.346   6.511   7.367  1.00  0.00     0.064 A 
ATOM     75  C   UNL     1     -13.697   6.413   7.004  1.00  0.00     0.173 A 
ATOM     76  C   UNL     1     -11.624   5.319   7.522  1.00  0.00     0.173 A 
ATOM     77  F   UNL     1     -14.433   7.525   6.864  1.00  0.00    -0.203 F 
ATOM     78  C   UNL     1     -14.306   5.174   6.824  1.00  0.00     0.198 A 
ATOM     79  C   UNL     1     -12.227   4.080   7.314  1.00  0.00     0.198 A 
ATOM     80  F   UNL     1     -10.328   5.358   7.863  1.00  0.00    -0.203 F 
ATOM     81  F   UNL     1     -15.610   5.108   6.521  1.00  0.00    -0.200 F 
ATOM     82  C   UNL     1     -13.569   4.008   6.973  1.00  0.00     0.200 A 
ATOM     83  F   UNL     1     -11.509   2.957   7.446  1.00  0.00    -0.200 F 
ATOM     84  F   UNL     1     -14.155   2.816   6.796  1.00  0.00    -0.200 F 
ENDBRANCH  50  74
BRANCH  62  85
ATOM     85  C   UNL     1     -13.147  11.499  12.164  1.00  0.00     0.064 A 
ATOM     86  C   UNL     1     -12.965  10.743  13.331  1.00  0.00     0.173 A 
ATOM     87  C   UNL     1     -14.198  12.429  12.140  1.00  0.00     0.173 A 
ATOM     88  F   UNL     1     -11.985   9.829  13.396  1.00  0.00    -0.203 F 
ATOM     89  C   UNL     1     -13.814  10.898  14.423  1.00  0.00     0.198 A 
ATOM     90  C   UNL     1     -15.027  12.602  13.244  1.00  0.00     0.198 A 
ATOM     91  F   UNL     1     -14.411  13.181  11.050  1.00  0.00    -0.203 F 
ATOM     92  F   UNL     1     -13.649  10.133  15.511  1.00  0.00    -0.200 F 
ATOM     93  C   UNL     1     -14.839  11.832  14.382  1.00  0.00     0.200 A 
ATOM     94  F   UNL     1     -16.009  13.513  13.208  1.00  0.00    -0.200 F 
ATOM     95  F   UNL     1     -15.651  11.984  15.437  1.00  0.00    -0.200 F 
ENDBRANCH  62  85
ENDBRANCH  36  37
ENDBRANCH  28  31
ENDBRANCH  26  27
ENDBRANCH   1  26
TORSDOF 12
