REMARK SMILES CN(C)C(=O)CNC(=O)NCCOCC(=O)NCCCNC(=O)c1ccc(-c2c3nc(c(-c4c(F)c(F)c(F)c(F)c4F)c4ccc([nH]4)c(-c4c(F)c(F)c(F)c(F)c4F)c4nc(c(-c5c(F)c(F)c(F)c(F)c5F)c5ccc2[nH]5)C=C4)C=C3)cc1
REMARK SMILES IDX 15 1 16 2 17 3 14 5 13 6 12 7 11 8 10 9 7 10 8 11 9 13 6 15
REMARK SMILES IDX 4 16 1 17 2 18 3 19 5 20 18 21 19 22 20 23 21 24 22 25 23 27
REMARK SMILES IDX 24 28 25 29 86 30 26 31 85 32 27 33 28 34 29 35 79 36 30 37
REMARK SMILES IDX 84 38 78 39 80 40 31 41 83 42 77 43 76 44 32 46 64 47 44 48
REMARK SMILES IDX 63 49 45 50 48 51 62 52 81 53 46 54 47 55 61 57 82 58 49 59
REMARK SMILES IDX 33 60 34 61 42 62 35 63 36 64 40 65 43 66 37 67 38 68 41 69
REMARK SMILES IDX 39 70 65 71 66 72 74 73 67 74 68 75 72 76 75 77 69 78 70 79
REMARK SMILES IDX 73 80 71 81 50 82 51 83 59 84 52 85 53 86 57 87 60 88 54 89
REMARK SMILES IDX 55 90 58 91 56 92
REMARK H PARENT 17 4 7 12 10 14 21 26 80 45 48 56
REMARK Flexibility Score: inf
ROOT
ATOM      1  C   UNL     1      -3.266   6.973  -3.183  1.00  0.00     0.245 C 
ATOM      2  O   UNL     1      -2.137   6.977  -3.670  1.00  0.00    -0.272 OA
ATOM      3  N   UNL     1      -3.836   8.157  -2.813  1.00  0.00    -0.354 N 
ATOM      4  H   UNL     1      -3.293   8.964  -2.963  1.00  0.00     0.163 HD
ENDROOT
BRANCH   1   5
ATOM      5  C   UNL     1      -4.053   5.679  -2.972  1.00  0.00     0.260 C 
BRANCH   5   6
ATOM      6  O   UNL     1      -4.260   5.304  -1.619  1.00  0.00    -0.370 OA
BRANCH   6   7
ATOM      7  C   UNL     1      -3.064   5.031  -0.875  1.00  0.00     0.182 C 
BRANCH   7   8
ATOM      8  C   UNL     1      -2.370   3.735  -1.307  1.00  0.00     0.146 C 
BRANCH   8   9
ATOM      9  N   UNL     1      -1.396   3.946  -2.371  1.00  0.00    -0.336 N 
ATOM     10  N   UNL     1       0.779   3.942  -1.452  1.00  0.00    -0.329 N 
ATOM     11  C   UNL     1      -0.075   4.083  -2.461  1.00  0.00     0.315 C 
ATOM     12  H   UNL     1       1.710   4.097  -1.732  1.00  0.00     0.165 HD
ATOM     13  O   UNL     1       0.400   4.300  -3.577  1.00  0.00    -0.249 OA
ATOM     14  H   UNL     1      -1.829   4.002  -3.253  1.00  0.00     0.165 HD
BRANCH  10  15
ATOM     15  C   UNL     1       0.685   3.617  -0.045  1.00  0.00     0.218 C 
BRANCH  15  16
ATOM     16  C   UNL     1       1.082   2.200   0.427  1.00  0.00     0.241 C 
ATOM     17  C   UNL     1       1.158  -0.217   0.280  1.00  0.00     0.146 C 
ATOM     18  N   UNL     1       0.786   1.060  -0.308  1.00  0.00    -0.347 N 
ATOM     19  C   UNL     1       0.075   1.018  -1.572  1.00  0.00     0.146 C 
ATOM     20  O   UNL     1       1.562   2.093   1.565  1.00  0.00    -0.273 OA
ENDBRANCH  15  16
ENDBRANCH  10  15
ENDBRANCH   8   9
ENDBRANCH   7   8
ENDBRANCH   6   7
ENDBRANCH   5   6
ENDBRANCH   1   5
BRANCH   3  21
ATOM     21  C   UNL     1      -5.144   8.368  -2.227  1.00  0.00     0.117 C 
BRANCH  21  22
ATOM     22  C   UNL     1      -5.068   8.729  -0.749  1.00  0.00     0.042 C 
BRANCH  22  23
ATOM     23  C   UNL     1      -4.301  10.016  -0.458  1.00  0.00     0.118 C 
BRANCH  23  24
ATOM     24  N   UNL     1      -4.840  11.166  -1.171  1.00  0.00    -0.352 N 
ATOM     25  C   UNL     1      -5.428  12.313  -0.710  1.00  0.00     0.251 C 
ATOM     26  H   UNL     1      -4.771  11.108  -2.151  1.00  0.00     0.163 HD
ATOM     27  O   UNL     1      -5.998  13.060  -1.507  1.00  0.00    -0.269 OA
BRANCH  25  28
ATOM     28  C   UNL     1      -5.397  12.668   0.724  1.00  0.00     0.039 A 
ATOM     29  C   UNL     1      -6.531  13.260   1.292  1.00  0.00     0.014 A 
ATOM     30  C   UNL     1      -4.248  12.483   1.497  1.00  0.00     0.014 A 
ATOM     31  C   UNL     1      -6.530  13.612   2.643  1.00  0.00     0.010 A 
ATOM     32  C   UNL     1      -4.274  12.764   2.861  1.00  0.00     0.010 A 
ATOM     33  C   UNL     1      -5.411  13.339   3.445  1.00  0.00    -0.014 A 
BRANCH  33  34
ATOM     34  C   UNL     1      -5.412  13.660   4.894  1.00  0.00     0.031 A 
ATOM     35  C   UNL     1      -4.466  14.692   5.442  1.00  0.00     0.074 A 
ATOM     36  C   UNL     1      -6.223  12.978   5.725  1.00  0.00     0.049 A 
ATOM     37  N   UNL     1      -4.274  15.065   6.683  1.00  0.00    -0.248 NA
ATOM     38  C   UNL     1      -3.600  15.378   4.470  1.00  0.00     0.031 C 
ATOM     39  C   UNL     1      -7.147  11.918   5.321  1.00  0.00     0.029 A 
ATOM     40  N   UNL     1      -6.391  13.067   7.083  1.00  0.00    -0.354 N 
ATOM     41  C   UNL     1      -3.258  16.009   6.641  1.00  0.00     0.074 A 
ATOM     42  C   UNL     1      -2.839  16.120   5.261  1.00  0.00     0.031 C 
ATOM     43  C   UNL     1      -7.801  11.469   6.404  1.00  0.00     0.029 A 
ATOM     44  C   UNL     1      -7.320  12.185   7.581  1.00  0.00     0.049 A 
ATOM     45  H   UNL     1      -5.894  13.702   7.648  1.00  0.00     0.167 HD
ATOM     46  C   UNL     1      -2.736  16.734   7.660  1.00  0.00     0.037 A 
ATOM     47  C   UNL     1      -7.732  11.977   8.845  1.00  0.00     0.037 A 
ATOM     48  C   UNL     1      -3.180  16.648   9.026  1.00  0.00     0.049 A 
ATOM     49  C   UNL     1      -7.150  12.808   9.955  1.00  0.00     0.074 A 
ATOM     50  C   UNL     1      -2.765  17.391  10.117  1.00  0.00     0.029 A 
ATOM     51  N   UNL     1      -4.143  15.762   9.487  1.00  0.00    -0.354 N 
ATOM     52  N   UNL     1      -6.239  13.748   9.893  1.00  0.00    -0.248 NA
ATOM     53  C   UNL     1      -7.660  12.554  11.309  1.00  0.00     0.031 C 
ATOM     54  C   UNL     1      -3.450  16.929  11.247  1.00  0.00     0.029 A 
ATOM     55  C   UNL     1      -4.322  15.927  10.851  1.00  0.00     0.049 A 
ATOM     56  H   UNL     1      -4.627  15.113   8.928  1.00  0.00     0.167 HD
ATOM     57  C   UNL     1      -6.083  14.213  11.191  1.00  0.00     0.074 A 
ATOM     58  C   UNL     1      -7.005  13.463  12.018  1.00  0.00     0.031 C 
ATOM     59  C   UNL     1      -5.249  15.175  11.657  1.00  0.00     0.037 A 
BRANCH  46  60
ATOM     60  C   UNL     1      -1.629  17.694   7.333  1.00  0.00     0.064 A 
ATOM     61  C   UNL     1      -1.868  18.871   6.607  1.00  0.00     0.173 A 
ATOM     62  C   UNL     1      -0.322  17.452   7.780  1.00  0.00     0.173 A 
ATOM     63  F   UNL     1      -3.098  19.142   6.147  1.00  0.00    -0.203 F 
ATOM     64  C   UNL     1      -0.833  19.757   6.318  1.00  0.00     0.198 A 
ATOM     65  C   UNL     1       0.705  18.354   7.514  1.00  0.00     0.198 A 
ATOM     66  F   UNL     1      -0.041  16.345   8.483  1.00  0.00    -0.203 F 
ATOM     67  F   UNL     1      -1.076  20.851   5.584  1.00  0.00    -0.200 F 
ATOM     68  C   UNL     1       0.451  19.501   6.777  1.00  0.00     0.200 A 
ATOM     69  F   UNL     1       1.942  18.112   7.968  1.00  0.00    -0.200 F 
ATOM     70  F   UNL     1       1.444  20.358   6.504  1.00  0.00    -0.200 F 
ENDBRANCH  46  60
BRANCH  47  71
ATOM     71  C   UNL     1      -8.774  10.956   9.124  1.00  0.00     0.064 A 
ATOM     72  C   UNL     1     -10.069  11.336   9.503  1.00  0.00     0.173 A 
ATOM     73  C   UNL     1      -8.501   9.585   9.016  1.00  0.00     0.173 A 
ATOM     74  F   UNL     1     -10.371  12.636   9.638  1.00  0.00    -0.203 F 
ATOM     75  C   UNL     1     -11.046  10.384   9.780  1.00  0.00     0.198 A 
ATOM     76  C   UNL     1      -9.486   8.633   9.269  1.00  0.00     0.198 A 
ATOM     77  F   UNL     1      -7.279   9.170   8.651  1.00  0.00    -0.203 F 
ATOM     78  F   UNL     1     -12.264  10.774  10.180  1.00  0.00    -0.200 F 
ATOM     79  C   UNL     1     -10.756   9.033   9.658  1.00  0.00     0.200 A 
ATOM     80  F   UNL     1      -9.207   7.330   9.136  1.00  0.00    -0.200 F 
ATOM     81  F   UNL     1     -11.698   8.117   9.921  1.00  0.00    -0.200 F 
ENDBRANCH  47  71
BRANCH  59  82
ATOM     82  C   UNL     1      -5.316  15.489  13.122  1.00  0.00     0.064 A 
ATOM     83  C   UNL     1      -4.795  14.612  14.085  1.00  0.00     0.173 A 
ATOM     84  C   UNL     1      -5.874  16.697  13.565  1.00  0.00     0.173 A 
ATOM     85  F   UNL     1      -4.265  13.437  13.711  1.00  0.00    -0.203 F 
ATOM     86  C   UNL     1      -4.852  14.923  15.440  1.00  0.00     0.198 A 
ATOM     87  C   UNL     1      -5.905  17.017  14.919  1.00  0.00     0.198 A 
ATOM     88  F   UNL     1      -6.381  17.572  12.683  1.00  0.00    -0.203 F 
ATOM     89  F   UNL     1      -4.388  14.051  16.346  1.00  0.00    -0.200 F 
ATOM     90  C   UNL     1      -5.400  16.128  15.855  1.00  0.00     0.200 A 
ATOM     91  F   UNL     1      -6.425  18.186  15.318  1.00  0.00    -0.200 F 
ATOM     92  F   UNL     1      -5.449  16.428  17.161  1.00  0.00    -0.200 F 
ENDBRANCH  59  82
ENDBRANCH  33  34
ENDBRANCH  25  28
ENDBRANCH  23  24
ENDBRANCH  22  23
ENDBRANCH  21  22
ENDBRANCH   3  21
TORSDOF 16
