REMARK SMILES C[C@H](NC(=O)[C@@H]1CCCN(S(=O)(=O)c2ccc(Cl)cc2)C1)C(=O)NCCCNC(=O)c1ccc(-c2c3nc(c(-c4c(F)c(F)c(F)c(F)c4F)c4ccc([nH]4)c(-c4c(F)c(F)c(F)c(F)c4F)c4nc(c(-c5c(F)c(F)c(F)c(F)c5F)c5ccc2[nH]5)C=C4)C=C3)cc1
REMARK SMILES IDX 25 1 24 2 22 3 23 4 2 6 1 7 3 8 4 9 5 11 6 12 7 13 21 14
REMARK SMILES IDX 8 15 10 16 9 17 11 18 12 19 13 20 14 21 15 22 20 23 16 24
REMARK SMILES IDX 19 25 17 26 18 27 26 28 27 29 28 30 29 31 30 33 31 34 32 35
REMARK SMILES IDX 93 36 33 37 92 38 34 39 35 40 36 41 86 42 37 43 91 44 85 45
REMARK SMILES IDX 87 46 38 47 90 48 84 49 83 50 39 52 71 53 51 54 70 55 52 56
REMARK SMILES IDX 55 57 69 58 88 59 53 60 54 61 68 63 89 64 56 65 40 66 41 67
REMARK SMILES IDX 49 68 42 69 43 70 47 71 50 72 44 73 45 74 48 75 46 76 72 77
REMARK SMILES IDX 73 78 81 79 74 80 75 81 79 82 82 83 76 84 77 85 80 86 78 87
REMARK SMILES IDX 57 88 58 89 66 90 59 91 60 92 64 93 67 94 61 95 62 96 65 97
REMARK SMILES IDX 63 98
REMARK H PARENT 24 5 3 10 28 32 87 51 55 62
REMARK Flexibility Score: inf
ROOT
ATOM      1  C   UNL     1      -1.085  -0.201   2.300  1.00  0.00     0.117 C 
ENDROOT
BRANCH   1   2
ATOM      2  N   UNL     1      -1.849  -0.791   1.216  1.00  0.00    -0.354 N 
ATOM      3  C   UNL     1      -1.449  -1.503   0.131  1.00  0.00     0.242 C 
ATOM      4  O   UNL     1      -2.322  -1.914  -0.636  1.00  0.00    -0.273 OA
ATOM      5  H   UNL     1      -2.821  -0.650   1.277  1.00  0.00     0.163 HD
BRANCH   3   6
ATOM      6  C   UNL     1       0.021  -1.876  -0.075  1.00  0.00     0.168 C 
ATOM      7  C   UNL     1       0.490  -2.830   1.029  1.00  0.00     0.041 C 
BRANCH   6   8
ATOM      8  N   UNL     1       0.901  -0.716  -0.189  1.00  0.00    -0.344 N 
ATOM      9  C   UNL     1       2.177  -0.702  -0.684  1.00  0.00     0.225 C 
ATOM     10  H   UNL     1       0.539   0.145   0.122  1.00  0.00     0.164 HD
ATOM     11  O   UNL     1       2.843   0.323  -0.558  1.00  0.00    -0.275 OA
BRANCH   9  12
ATOM     12  C   UNL     1       2.693  -1.958  -1.384  1.00  0.00     0.094 C 
ATOM     13  C   UNL     1       4.065  -2.389  -0.880  1.00  0.00     0.016 C 
ATOM     14  C   UNL     1       2.596  -1.784  -2.899  1.00  0.00     0.116 C 
ATOM     15  C   UNL     1       5.193  -1.628  -1.546  1.00  0.00     0.018 C 
ATOM     16  N   UNL     1       3.762  -1.053  -3.485  1.00  0.00    -0.197 NA
ATOM     17  C   UNL     1       5.056  -1.653  -3.059  1.00  0.00     0.102 C 
BRANCH  16  18
ATOM     18  S   UNL     1       3.573  -0.872  -5.193  1.00  0.00     0.243 S 
ATOM     19  O   UNL     1       3.871  -2.152  -5.800  1.00  0.00    -0.207 OA
ATOM     20  O   UNL     1       2.299  -0.221  -5.426  1.00  0.00    -0.207 OA
BRANCH  18  21
ATOM     21  C   UNL     1       4.857   0.265  -5.660  1.00  0.00     0.082 A 
ATOM     22  C   UNL     1       6.167  -0.206  -5.815  1.00  0.00     0.023 A 
ATOM     23  C   UNL     1       4.550   1.603  -5.923  1.00  0.00     0.023 A 
ATOM     24  C   UNL     1       7.192   0.687  -6.121  1.00  0.00     0.022 A 
ATOM     25  C   UNL     1       5.575   2.486  -6.272  1.00  0.00     0.022 A 
ATOM     26  C   UNL     1       6.893   2.030  -6.345  1.00  0.00     0.041 A 
ATOM     27  Cl  UNL     1       8.162   3.131  -6.715  1.00  0.00    -0.084 Cl
ENDBRANCH  18  21
ENDBRANCH  16  18
ENDBRANCH   9  12
ENDBRANCH   6   8
ENDBRANCH   3   6
ENDBRANCH   1   2
BRANCH   1  28
ATOM     28  C   UNL     1      -1.389   1.281   2.440  1.00  0.00     0.042 C 
BRANCH  28  29
ATOM     29  C   UNL     1      -2.869   1.581   2.639  1.00  0.00     0.118 C 
BRANCH  29  30
ATOM     30  N   UNL     1      -3.436   0.901   3.797  1.00  0.00    -0.352 N 
ATOM     31  C   UNL     1      -4.114   1.430   4.867  1.00  0.00     0.251 C 
ATOM     32  H   UNL     1      -3.315  -0.076   3.814  1.00  0.00     0.163 HD
ATOM     33  O   UNL     1      -4.364   0.739   5.847  1.00  0.00    -0.269 OA
BRANCH  31  34
ATOM     34  C   UNL     1      -4.510   2.850   4.832  1.00  0.00     0.039 A 
ATOM     35  C   UNL     1      -4.261   3.651   5.947  1.00  0.00     0.014 A 
ATOM     36  C   UNL     1      -5.083   3.393   3.679  1.00  0.00     0.014 A 
ATOM     37  C   UNL     1      -4.517   5.020   5.875  1.00  0.00     0.010 A 
ATOM     38  C   UNL     1      -5.242   4.768   3.576  1.00  0.00     0.010 A 
ATOM     39  C   UNL     1      -4.965   5.595   4.674  1.00  0.00    -0.014 A 
BRANCH  39  40
ATOM     40  C   UNL     1      -5.149   7.061   4.542  1.00  0.00     0.031 A 
ATOM     41  C   UNL     1      -6.509   7.622   4.236  1.00  0.00     0.074 A 
ATOM     42  C   UNL     1      -4.079   7.875   4.628  1.00  0.00     0.049 A 
ATOM     43  N   UNL     1      -6.861   8.863   4.014  1.00  0.00    -0.248 NA
ATOM     44  C   UNL     1      -7.616   6.658   4.134  1.00  0.00     0.031 C 
ATOM     45  C   UNL     1      -2.701   7.441   4.866  1.00  0.00     0.029 A 
ATOM     46  N   UNL     1      -3.981   9.239   4.514  1.00  0.00    -0.354 N 
ATOM     47  C   UNL     1      -8.220   8.824   3.734  1.00  0.00     0.074 A 
ATOM     48  C   UNL     1      -8.618   7.434   3.750  1.00  0.00     0.031 C 
ATOM     49  C   UNL     1      -1.902   8.518   4.910  1.00  0.00     0.029 A 
ATOM     50  C   UNL     1      -2.700   9.713   4.657  1.00  0.00     0.049 A 
ATOM     51  H   UNL     1      -4.756   9.823   4.345  1.00  0.00     0.167 HD
ATOM     52  C   UNL     1      -9.066   9.858   3.512  1.00  0.00     0.037 A 
ATOM     53  C   UNL     1      -2.223  10.970   4.583  1.00  0.00     0.037 A 
ATOM     54  C   UNL     1      -8.665  11.240   3.517  1.00  0.00     0.049 A 
ATOM     55  C   UNL     1      -3.182  12.099   4.319  1.00  0.00     0.074 A 
ATOM     56  C   UNL     1      -9.453  12.367   3.362  1.00  0.00     0.029 A 
ATOM     57  N   UNL     1      -7.361  11.683   3.680  1.00  0.00    -0.354 N 
ATOM     58  N   UNL     1      -4.479  12.059   4.133  1.00  0.00    -0.248 NA
ATOM     59  C   UNL     1      -2.611  13.452   4.263  1.00  0.00     0.031 C 
ATOM     60  C   UNL     1      -8.618  13.488   3.373  1.00  0.00     0.029 A 
ATOM     61  C   UNL     1      -7.318  13.066   3.602  1.00  0.00     0.049 A 
ATOM     62  H   UNL     1      -6.581  11.101   3.830  1.00  0.00     0.167 HD
ATOM     63  C   UNL     1      -4.884  13.377   3.971  1.00  0.00     0.074 A 
ATOM     64  C   UNL     1      -3.696  14.195   4.096  1.00  0.00     0.031 C 
ATOM     65  C   UNL     1      -6.127  13.866   3.739  1.00  0.00     0.037 A 
BRANCH  52  66
ATOM     66  C   UNL     1     -10.508   9.532   3.245  1.00  0.00     0.064 A 
ATOM     67  C   UNL     1     -11.340   8.998   4.242  1.00  0.00     0.173 A 
ATOM     68  C   UNL     1     -11.076   9.790   1.988  1.00  0.00     0.173 A 
ATOM     69  F   UNL     1     -10.846   8.720   5.458  1.00  0.00    -0.203 F 
ATOM     70  C   UNL     1     -12.676   8.704   3.980  1.00  0.00     0.198 A 
ATOM     71  C   UNL     1     -12.421   9.529   1.741  1.00  0.00     0.198 A 
ATOM     72  F   UNL     1     -10.328  10.305   1.001  1.00  0.00    -0.203 F 
ATOM     73  F   UNL     1     -13.436   8.143   4.931  1.00  0.00    -0.200 F 
ATOM     74  C   UNL     1     -13.217   8.978   2.733  1.00  0.00     0.200 A 
ATOM     75  F   UNL     1     -12.946   9.808   0.540  1.00  0.00    -0.200 F 
ATOM     76  F   UNL     1     -14.506   8.704   2.486  1.00  0.00    -0.200 F 
ENDBRANCH  52  66
BRANCH  53  77
ATOM     77  C   UNL     1      -0.772  11.229   4.781  1.00  0.00     0.064 A 
ATOM     78  C   UNL     1      -0.312  11.926   5.907  1.00  0.00     0.173 A 
ATOM     79  C   UNL     1       0.182  10.795   3.849  1.00  0.00     0.173 A 
ATOM     80  F   UNL     1      -1.186  12.378   6.818  1.00  0.00    -0.203 F 
ATOM     81  C   UNL     1       1.043  12.202   6.080  1.00  0.00     0.198 A 
ATOM     82  C   UNL     1       1.540  11.043   4.040  1.00  0.00     0.198 A 
ATOM     83  F   UNL     1      -0.203  10.118   2.758  1.00  0.00    -0.203 F 
ATOM     84  F   UNL     1       1.449  12.915   7.140  1.00  0.00    -0.200 F 
ATOM     85  C   UNL     1       1.969  11.755   5.150  1.00  0.00     0.200 A 
ATOM     86  F   UNL     1       2.433  10.593   3.147  1.00  0.00    -0.200 F 
ATOM     87  F   UNL     1       3.272  12.016   5.319  1.00  0.00    -0.200 F 
ENDBRANCH  53  77
BRANCH  65  88
ATOM     88  C   UNL     1      -6.276  15.358   3.651  1.00  0.00     0.064 A 
ATOM     89  C   UNL     1      -5.773  16.089   2.565  1.00  0.00     0.173 A 
ATOM     90  C   UNL     1      -6.969  16.059   4.650  1.00  0.00     0.173 A 
ATOM     91  F   UNL     1      -5.090  15.469   1.590  1.00  0.00    -0.203 F 
ATOM     92  C   UNL     1      -5.933  17.471   2.497  1.00  0.00     0.198 A 
ATOM     93  C   UNL     1      -7.158  17.435   4.561  1.00  0.00     0.198 A 
ATOM     94  F   UNL     1      -7.477  15.407   5.706  1.00  0.00    -0.203 F 
ATOM     95  F   UNL     1      -5.397  18.156   1.478  1.00  0.00    -0.200 F 
ATOM     96  C   UNL     1      -6.632  18.141   3.490  1.00  0.00     0.200 A 
ATOM     97  F   UNL     1      -7.849  18.078   5.512  1.00  0.00    -0.200 F 
ATOM     98  F   UNL     1      -6.793  19.469   3.418  1.00  0.00    -0.200 F 
ENDBRANCH  65  88
ENDBRANCH  39  40
ENDBRANCH  31  34
ENDBRANCH  29  30
ENDBRANCH  28  29
ENDBRANCH   1  28
TORSDOF 14
