REMARK SMILES O=C(CC1(CC(=O)N[C@H]2CO[C@H]3[C@@H]2OC[C@@H]3n2nnnc2-c2ccccc2)CCCC1)NCCCNC(=O)c1ccc(-c2c3nc(c(-c4c(F)c(F)c(F)c(F)c4F)c4ccc([nH]4)c(-c4c(F)c(F)c(F)c(F)c4F)c4nc(c(-c5c(F)c(F)c(F)c(F)c5F)c5ccc2[nH]5)C=C4)C=C3)cc1
REMARK SMILES IDX 1 1 2 2 32 3 3 5 4 6 28 7 31 8 29 9 30 10 5 11 6 12 7 13
REMARK SMILES IDX 8 14 9 16 10 17 13 18 11 19 12 20 14 21 16 22 15 23 17 24
REMARK SMILES IDX 18 25 21 26 19 27 20 28 22 29 23 30 27 31 24 32 26 33 25 34
REMARK SMILES IDX 33 35 34 36 35 37 36 38 37 39 38 41 39 42 40 43 101 44 41 45
REMARK SMILES IDX 100 46 42 47 43 48 44 49 94 50 45 51 99 52 93 53 95 54 46 55
REMARK SMILES IDX 98 56 92 57 91 58 47 60 79 61 59 62 78 63 60 64 63 65 77 66
REMARK SMILES IDX 96 67 61 68 62 69 76 71 97 72 64 73 48 74 49 75 57 76 50 77
REMARK SMILES IDX 51 78 55 79 58 80 52 81 53 82 56 83 54 84 80 85 81 86 89 87
REMARK SMILES IDX 82 88 83 89 87 90 90 91 84 92 85 93 88 94 86 95 65 96 66 97
REMARK SMILES IDX 74 98 67 99 68 100 72 101 75 102 69 103 70 104 73 105 71 106
REMARK H PARENT 32 4 8 15 36 40 95 59 63 70
REMARK Flexibility Score: inf
ROOT
ATOM      1  O   UNL     1       3.861  -0.849  -2.521  1.00  0.00    -0.275 OA
ATOM      2  C   UNL     1       4.100   0.331  -2.765  1.00  0.00     0.220 C 
ATOM      3  N   UNL     1       5.267   0.950  -2.386  1.00  0.00    -0.356 N 
ATOM      4  H   UNL     1       5.507   1.803  -2.815  1.00  0.00     0.163 HD
ENDROOT
BRANCH   2   5
ATOM      5  C   UNL     1       3.060   1.232  -3.446  1.00  0.00     0.107 C 
BRANCH   5   6
ATOM      6  C   UNL     1       2.149   2.037  -2.463  1.00  0.00    -0.012 C 
ATOM      7  C   UNL     1       0.723   2.242  -3.057  1.00  0.00     0.008 C 
ATOM      8  C   UNL     1       1.819   1.216  -1.190  1.00  0.00     0.008 C 
ATOM      9  C   UNL     1      -0.166   2.465  -1.835  1.00  0.00     0.001 C 
ATOM     10  C   UNL     1       0.346   1.450  -0.834  1.00  0.00     0.001 C 
BRANCH   6  11
ATOM     11  C   UNL     1       2.702   3.476  -2.224  1.00  0.00     0.107 C 
BRANCH  11  12
ATOM     12  C   UNL     1       4.094   3.645  -1.690  1.00  0.00     0.220 C 
ATOM     13  O   UNL     1       5.025   3.572  -2.499  1.00  0.00    -0.275 OA
ATOM     14  N   UNL     1       4.403   3.925  -0.403  1.00  0.00    -0.348 N 
ATOM     15  H   UNL     1       5.324   4.259  -0.306  1.00  0.00     0.163 HD
BRANCH  14  16
ATOM     16  C   UNL     1       3.699   3.851   0.890  1.00  0.00     0.139 C 
ATOM     17  C   UNL     1       4.049   5.050   1.785  1.00  0.00     0.188 C 
ATOM     18  C   UNL     1       2.202   3.975   0.887  1.00  0.00     0.174 C 
ATOM     19  O   UNL     1       3.023   6.055   1.602  1.00  0.00    -0.371 OA
ATOM     20  C   UNL     1       1.924   5.457   0.877  1.00  0.00     0.176 C 
ATOM     21  O   UNL     1       1.641   3.487   2.109  1.00  0.00    -0.371 OA
ATOM     22  C   UNL     1       0.604   5.603   1.627  1.00  0.00     0.169 C 
ATOM     23  C   UNL     1       0.409   4.205   2.255  1.00  0.00     0.191 C 
BRANCH  22  24
ATOM     24  N   UNL     1      -0.596   5.992   0.912  1.00  0.00    -0.217 N 
ATOM     25  N   UNL     1      -1.768   5.819   1.570  1.00  0.00    -0.044 NA
ATOM     26  C   UNL     1      -0.867   6.534  -0.325  1.00  0.00     0.182 A 
ATOM     27  N   UNL     1      -2.718   6.165   0.723  1.00  0.00    -0.023 NA
ATOM     28  N   UNL     1      -2.181   6.600  -0.449  1.00  0.00    -0.108 NA
BRANCH  26  29
ATOM     29  C   UNL     1       0.039   6.983  -1.369  1.00  0.00     0.021 A 
ATOM     30  C   UNL     1       0.610   8.258  -1.319  1.00  0.00     0.012 A 
ATOM     31  C   UNL     1       0.214   6.205  -2.522  1.00  0.00     0.012 A 
ATOM     32  C   UNL     1       1.351   8.738  -2.401  1.00  0.00     0.001 A 
ATOM     33  C   UNL     1       0.984   6.667  -3.588  1.00  0.00     0.001 A 
ATOM     34  C   UNL     1       1.532   7.944  -3.532  1.00  0.00     0.000 A 
ENDBRANCH  26  29
ENDBRANCH  22  24
ENDBRANCH  14  16
ENDBRANCH  11  12
ENDBRANCH   6  11
ENDBRANCH   5   6
ENDBRANCH   2   5
BRANCH   3  35
ATOM     35  C   UNL     1       6.165   0.402  -1.379  1.00  0.00     0.117 C 
BRANCH  35  36
ATOM     36  C   UNL     1       7.636   0.331  -1.796  1.00  0.00     0.042 C 
BRANCH  36  37
ATOM     37  C   UNL     1       8.312   1.683  -1.990  1.00  0.00     0.118 C 
BRANCH  37  38
ATOM     38  N   UNL     1       8.608   2.418  -0.745  1.00  0.00    -0.352 N 
ATOM     39  C   UNL     1       9.174   3.687  -0.602  1.00  0.00     0.251 C 
ATOM     40  H   UNL     1       8.377   1.954   0.092  1.00  0.00     0.163 HD
ATOM     41  O   UNL     1       9.680   4.041   0.449  1.00  0.00    -0.269 OA
BRANCH  39  42
ATOM     42  C   UNL     1       9.103   4.623  -1.743  1.00  0.00     0.039 A 
ATOM     43  C   UNL     1      10.084   5.554  -2.086  1.00  0.00     0.014 A 
ATOM     44  C   UNL     1       7.949   4.538  -2.497  1.00  0.00     0.014 A 
ATOM     45  C   UNL     1       9.898   6.328  -3.239  1.00  0.00     0.010 A 
ATOM     46  C   UNL     1       7.879   5.088  -3.737  1.00  0.00     0.010 A 
ATOM     47  C   UNL     1       8.788   6.075  -4.059  1.00  0.00    -0.014 A 
BRANCH  47  48
ATOM     48  C   UNL     1       8.498   6.800  -5.281  1.00  0.00     0.031 A 
ATOM     49  C   UNL     1       9.476   6.640  -6.374  1.00  0.00     0.074 A 
ATOM     50  C   UNL     1       7.285   7.349  -5.508  1.00  0.00     0.049 A 
ATOM     51  N   UNL     1      10.230   7.561  -6.865  1.00  0.00    -0.248 NA
ATOM     52  C   UNL     1       9.723   5.302  -6.925  1.00  0.00     0.031 C 
ATOM     53  C   UNL     1       6.091   7.308  -4.656  1.00  0.00     0.029 A 
ATOM     54  N   UNL     1       6.830   7.970  -6.628  1.00  0.00    -0.354 N 
ATOM     55  C   UNL     1      10.939   6.973  -7.903  1.00  0.00     0.074 A 
ATOM     56  C   UNL     1      10.713   5.554  -7.786  1.00  0.00     0.031 C 
ATOM     57  C   UNL     1       5.013   7.681  -5.377  1.00  0.00     0.029 A 
ATOM     58  C   UNL     1       5.454   8.142  -6.676  1.00  0.00     0.049 A 
ATOM     59  H   UNL     1       7.429   8.274  -7.348  1.00  0.00     0.167 HD
ATOM     60  C   UNL     1      11.482   7.738  -8.890  1.00  0.00     0.037 A 
ATOM     61  C   UNL     1       4.730   8.618  -7.719  1.00  0.00     0.037 A 
ATOM     62  C   UNL     1      11.464   9.136  -8.524  1.00  0.00     0.049 A 
ATOM     63  C   UNL     1       5.668   9.405  -8.563  1.00  0.00     0.074 A 
ATOM     64  C   UNL     1      12.015   9.867  -7.488  1.00  0.00     0.029 A 
ATOM     65  N   UNL     1      10.467   9.929  -9.044  1.00  0.00    -0.354 N 
ATOM     66  N   UNL     1       6.219  10.522  -8.172  1.00  0.00    -0.248 NA
ATOM     67  C   UNL     1       6.365   8.704  -9.631  1.00  0.00     0.031 C 
ATOM     68  C   UNL     1      11.010  10.813  -7.127  1.00  0.00     0.029 A 
ATOM     69  C   UNL     1       9.938  10.657  -8.007  1.00  0.00     0.049 A 
ATOM     70  H   UNL     1      10.185   9.967  -9.986  1.00  0.00     0.167 HD
ATOM     71  C   UNL     1       7.534  10.431  -8.605  1.00  0.00     0.074 A 
ATOM     72  C   UNL     1       7.541   9.339  -9.578  1.00  0.00     0.031 C 
ATOM     73  C   UNL     1       8.548  11.041  -7.922  1.00  0.00     0.037 A 
BRANCH  60  74
ATOM     74  C   UNL     1      11.726   7.295 -10.308  1.00  0.00     0.064 A 
ATOM     75  C   UNL     1      12.438   8.152 -11.174  1.00  0.00     0.173 A 
ATOM     76  C   UNL     1      11.062   6.218 -10.929  1.00  0.00     0.173 A 
ATOM     77  F   UNL     1      13.104   9.212 -10.693  1.00  0.00    -0.203 F 
ATOM     78  C   UNL     1      12.406   7.992 -12.561  1.00  0.00     0.198 A 
ATOM     79  C   UNL     1      11.081   6.029 -12.311  1.00  0.00     0.198 A 
ATOM     80  F   UNL     1      10.279   5.374 -10.249  1.00  0.00    -0.203 F 
ATOM     81  F   UNL     1      12.986   8.909 -13.348  1.00  0.00    -0.200 F 
ATOM     82  C   UNL     1      11.721   6.935 -13.129  1.00  0.00     0.200 A 
ATOM     83  F   UNL     1      10.400   5.005 -12.844  1.00  0.00    -0.200 F 
ATOM     84  F   UNL     1      11.635   6.816 -14.460  1.00  0.00    -0.200 F 
ENDBRANCH  60  74
BRANCH  61  85
ATOM     85  C   UNL     1       3.375   8.212  -8.169  1.00  0.00     0.064 A 
ATOM     86  C   UNL     1       2.676   8.956  -9.135  1.00  0.00     0.173 A 
ATOM     87  C   UNL     1       2.852   6.938  -7.870  1.00  0.00     0.173 A 
ATOM     88  F   UNL     1       3.117  10.168  -9.502  1.00  0.00    -0.203 F 
ATOM     89  C   UNL     1       1.552   8.439  -9.792  1.00  0.00     0.198 A 
ATOM     90  C   UNL     1       1.730   6.425  -8.523  1.00  0.00     0.198 A 
ATOM     91  F   UNL     1       3.470   6.123  -7.003  1.00  0.00    -0.203 F 
ATOM     92  F   UNL     1       0.953   9.153 -10.755  1.00  0.00    -0.200 F 
ATOM     93  C   UNL     1       1.090   7.168  -9.496  1.00  0.00     0.200 A 
ATOM     94  F   UNL     1       1.311   5.182  -8.243  1.00  0.00    -0.200 F 
ATOM     95  F   UNL     1       0.057   6.645 -10.172  1.00  0.00    -0.200 F 
ENDBRANCH  61  85
BRANCH  73  96
ATOM     96  C   UNL     1       8.179  12.009  -6.828  1.00  0.00     0.064 A 
ATOM     97  C   UNL     1       7.481  11.651  -5.660  1.00  0.00     0.173 A 
ATOM     98  C   UNL     1       8.690  13.312  -6.889  1.00  0.00     0.173 A 
ATOM     99  F   UNL     1       7.044  10.403  -5.471  1.00  0.00    -0.203 F 
ATOM    100  C   UNL     1       7.270  12.562  -4.627  1.00  0.00     0.198 A 
ATOM    101  C   UNL     1       8.510  14.211  -5.840  1.00  0.00     0.198 A 
ATOM    102  F   UNL     1       9.414  13.699  -7.951  1.00  0.00    -0.203 F 
ATOM    103  F   UNL     1       6.592  12.190  -3.531  1.00  0.00    -0.200 F 
ATOM    104  C   UNL     1       7.793  13.839  -4.714  1.00  0.00     0.200 A 
ATOM    105  F   UNL     1       9.060  15.431  -5.908  1.00  0.00    -0.200 F 
ATOM    106  F   UNL     1       7.629  14.704  -3.703  1.00  0.00    -0.200 F 
ENDBRANCH  73  96
ENDBRANCH  47  48
ENDBRANCH  39  42
ENDBRANCH  37  38
ENDBRANCH  36  37
ENDBRANCH  35  36
ENDBRANCH   3  35
TORSDOF 16
