REMARK SMILES COc1ccc2c(c1)c(CC(=O)NCCCNC(=O)c1ccc(-c3c4nc(c(-c5c(F)c(F)c(F)c(F)c5F)c5ccc([nH]5)c(-c5c(F)c(F)c(F)c(F)c5F)c5nc(c(-c6c(F)c(F)c(F)c(F)c6F)c6ccc3[nH]6)C=C5)C=C4)cc1)c(C)n2Cc1ccn(C(F)F)c(=O)c1
REMARK SMILES IDX 14 1 13 2 11 3 12 4 10 6 9 7 3 8 4 9 8 10 5 11 7 12 6 13
REMARK SMILES IDX 85 14 83 15 84 16 2 17 1 18 86 19 87 20 88 21 96 22 89 23
REMARK SMILES IDX 94 24 90 25 95 26 91 27 92 28 93 29 15 30 16 31 17 32 18 33
REMARK SMILES IDX 19 35 20 36 21 37 82 38 22 39 81 40 23 41 24 42 25 43 75 44
REMARK SMILES IDX 26 45 80 46 74 47 76 48 27 49 79 50 73 51 72 52 28 54 60 55
REMARK SMILES IDX 40 56 59 57 41 58 44 59 58 60 77 61 42 62 43 63 57 65 78 66
REMARK SMILES IDX 45 67 29 68 30 69 38 70 31 71 32 72 36 73 39 74 33 75 34 76
REMARK SMILES IDX 37 77 35 78 61 79 62 80 70 81 63 82 64 83 68 84 71 85 65 86
REMARK SMILES IDX 66 87 69 88 67 89 46 90 47 91 55 92 48 93 49 94 53 95 56 96
REMARK SMILES IDX 50 97 51 98 54 99 52 100
REMARK H PARENT 13 5 17 34 76 53 44 64
REMARK Flexibility Score: inf
ROOT
ATOM      1  C   UNL     1      -0.465   5.159  -6.110  1.00  0.00     0.117 C 
ENDROOT
BRANCH   1   2
ATOM      2  N   UNL     1      -1.350   4.108  -5.632  1.00  0.00    -0.356 N 
ATOM      3  C   UNL     1      -1.968   3.956  -4.421  1.00  0.00     0.224 C 
ATOM      4  O   UNL     1      -2.754   3.013  -4.290  1.00  0.00    -0.275 OA
ATOM      5  H   UNL     1      -1.534   3.393  -6.283  1.00  0.00     0.163 HD
BRANCH   3   6
ATOM      6  C   UNL     1      -1.751   4.952  -3.291  1.00  0.00     0.138 C 
BRANCH   6   7
ATOM      7  C   UNL     1      -0.339   4.983  -2.793  1.00  0.00    -0.010 A 
ATOM      8  C   UNL     1       1.109   1.662  -1.605  1.00  0.00     0.119 A 
ATOM      9  C   UNL     1       2.412   2.115  -1.433  1.00  0.00     0.048 A 
ATOM     10  C   UNL     1       0.124   2.516  -2.104  1.00  0.00     0.057 A 
ATOM     11  C   UNL     1       2.747   3.452  -1.685  1.00  0.00     0.031 A 
ATOM     12  C   UNL     1       0.430   3.874  -2.336  1.00  0.00     0.007 A 
ATOM     13  C   UNL     1       1.731   4.331  -2.103  1.00  0.00     0.049 A 
ATOM     14  N   UNL     1       1.735   5.693  -2.372  1.00  0.00    -0.340 N 
ATOM     15  C   UNL     1       0.436   6.116  -2.597  1.00  0.00     0.020 A 
ATOM     16  C   UNL     1      -0.009   7.536  -2.650  1.00  0.00     0.065 C 
BRANCH   8  17
ATOM     17  O   UNL     1       0.733   0.368  -1.362  1.00  0.00    -0.497 OA
ATOM     18  C   UNL     1       1.074  -0.065  -0.046  1.00  0.00     0.278 C 
ENDBRANCH   8  17
BRANCH  14  19
ATOM     19  C   UNL     1       2.934   6.541  -2.374  1.00  0.00     0.158 C 
BRANCH  19  20
ATOM     20  C   UNL     1       3.303   7.021  -3.760  1.00  0.00    -0.021 A 
ATOM     21  C   UNL     1       2.706   8.248  -4.244  1.00  0.00     0.024 A 
ATOM     22  C   UNL     1       4.161   6.364  -4.558  1.00  0.00     0.077 A 
ATOM     23  C   UNL     1       2.876   8.640  -5.508  1.00  0.00     0.095 A 
ATOM     24  C   UNL     1       4.400   6.808  -5.967  1.00  0.00     0.255 A 
ATOM     25  N   UNL     1       3.706   7.947  -6.360  1.00  0.00    -0.258 N 
ATOM     26  O   UNL     1       5.147   6.138  -6.652  1.00  0.00    -0.269 OA
BRANCH  25  27
ATOM     27  C   UNL     1       3.774   8.363  -7.737  1.00  0.00     0.451 C 
ATOM     28  F   UNL     1       5.015   8.239  -8.248  1.00  0.00    -0.185 F 
ATOM     29  F   UNL     1       2.913   7.623  -8.473  1.00  0.00    -0.185 F 
ENDBRANCH  25  27
ENDBRANCH  19  20
ENDBRANCH  14  19
ENDBRANCH   6   7
ENDBRANCH   3   6
ENDBRANCH   1   2
BRANCH   1  30
ATOM     30  C   UNL     1       0.962   4.679  -6.404  1.00  0.00     0.042 C 
BRANCH  30  31
ATOM     31  C   UNL     1       1.095   3.695  -7.570  1.00  0.00     0.118 C 
BRANCH  31  32
ATOM     32  N   UNL     1       0.543   4.167  -8.832  1.00  0.00    -0.352 N 
ATOM     33  C   UNL     1       1.010   4.699 -10.004  1.00  0.00     0.251 C 
ATOM     34  H   UNL     1      -0.438   4.081  -8.846  1.00  0.00     0.163 HD
ATOM     35  O   UNL     1       0.164   4.818 -10.897  1.00  0.00    -0.269 OA
BRANCH  33  36
ATOM     36  C   UNL     1       2.386   5.201 -10.280  1.00  0.00     0.039 A 
ATOM     37  C   UNL     1       3.504   5.010  -9.480  1.00  0.00     0.014 A 
ATOM     38  C   UNL     1       2.535   5.996 -11.441  1.00  0.00     0.014 A 
ATOM     39  C   UNL     1       4.689   5.697  -9.768  1.00  0.00     0.010 A 
ATOM     40  C   UNL     1       3.720   6.683 -11.729  1.00  0.00     0.010 A 
ATOM     41  C   UNL     1       4.788   6.592 -10.850  1.00  0.00    -0.014 A 
BRANCH  41  42
ATOM     42  C   UNL     1       6.055   7.330 -11.014  1.00  0.00     0.031 A 
ATOM     43  C   UNL     1       7.274   6.478 -10.934  1.00  0.00     0.074 A 
ATOM     44  C   UNL     1       6.211   8.653 -11.255  1.00  0.00     0.049 A 
ATOM     45  N   UNL     1       8.249   6.559 -10.086  1.00  0.00    -0.248 NA
ATOM     46  C   UNL     1       7.368   5.337 -11.857  1.00  0.00     0.031 C 
ATOM     47  C   UNL     1       5.191   9.646 -11.593  1.00  0.00     0.029 A 
ATOM     48  N   UNL     1       7.374   9.385 -11.311  1.00  0.00    -0.354 N 
ATOM     49  C   UNL     1       9.146   5.558 -10.439  1.00  0.00     0.074 A 
ATOM     50  C   UNL     1       8.511   4.773 -11.466  1.00  0.00     0.031 C 
ATOM     51  C   UNL     1       5.791  10.780 -12.022  1.00  0.00     0.029 A 
ATOM     52  C   UNL     1       7.232  10.649 -11.873  1.00  0.00     0.049 A 
ATOM     53  H   UNL     1       8.236   9.043 -10.981  1.00  0.00     0.167 HD
ATOM     54  C   UNL     1      10.433   5.572 -10.001  1.00  0.00     0.037 A 
ATOM     55  C   UNL     1       8.222  11.505 -12.239  1.00  0.00     0.037 A 
ATOM     56  C   UNL     1      10.586   6.345  -8.798  1.00  0.00     0.049 A 
ATOM     57  C   UNL     1       9.438  11.142 -11.475  1.00  0.00     0.074 A 
ATOM     58  C   UNL     1      10.028   6.292  -7.535  1.00  0.00     0.029 A 
ATOM     59  N   UNL     1      11.209   7.564  -8.873  1.00  0.00    -0.354 N 
ATOM     60  N   UNL     1       9.606  11.361 -10.202  1.00  0.00    -0.248 NA
ATOM     61  C   UNL     1      10.377  10.211 -12.082  1.00  0.00     0.031 C 
ATOM     62  C   UNL     1       9.931   7.649  -7.111  1.00  0.00     0.029 A 
ATOM     63  C   UNL     1      10.466   8.439  -8.127  1.00  0.00     0.049 A 
ATOM     64  H   UNL     1      12.033   7.771  -9.370  1.00  0.00     0.167 HD
ATOM     65  C   UNL     1      10.362  10.286  -9.768  1.00  0.00     0.074 A 
ATOM     66  C   UNL     1      10.907   9.684 -10.978  1.00  0.00     0.031 C 
ATOM     67  C   UNL     1      10.244   9.816  -8.495  1.00  0.00     0.037 A 
BRANCH  54  68
ATOM     68  C   UNL     1      11.597   5.199 -10.881  1.00  0.00     0.064 A 
ATOM     69  C   UNL     1      12.886   5.105 -10.322  1.00  0.00     0.173 A 
ATOM     70  C   UNL     1      11.543   5.251 -12.292  1.00  0.00     0.173 A 
ATOM     71  F   UNL     1      13.055   5.080  -8.991  1.00  0.00    -0.203 F 
ATOM     72  C   UNL     1      14.036   5.145 -11.115  1.00  0.00     0.198 A 
ATOM     73  C   UNL     1      12.690   5.235 -13.081  1.00  0.00     0.198 A 
ATOM     74  F   UNL     1      10.396   5.441 -12.955  1.00  0.00    -0.203 F 
ATOM     75  F   UNL     1      15.242   5.193 -10.535  1.00  0.00    -0.200 F 
ATOM     76  C   UNL     1      13.936   5.216 -12.493  1.00  0.00     0.200 A 
ATOM     77  F   UNL     1      12.573   5.329 -14.413  1.00  0.00    -0.200 F 
ATOM     78  F   UNL     1      15.035   5.324 -13.251  1.00  0.00    -0.200 F 
ENDBRANCH  54  68
BRANCH  55  79
ATOM     79  C   UNL     1       8.282  12.473 -13.367  1.00  0.00     0.064 A 
ATOM     80  C   UNL     1       9.338  13.401 -13.473  1.00  0.00     0.173 A 
ATOM     81  C   UNL     1       7.482  12.320 -14.515  1.00  0.00     0.173 A 
ATOM     82  F   UNL     1      10.177  13.595 -12.444  1.00  0.00    -0.203 F 
ATOM     83  C   UNL     1       9.604  14.088 -14.663  1.00  0.00     0.198 A 
ATOM     84  C   UNL     1       7.741  13.017 -15.698  1.00  0.00     0.198 A 
ATOM     85  F   UNL     1       6.489  11.421 -14.550  1.00  0.00    -0.203 F 
ATOM     86  F   UNL     1      10.668  14.900 -14.743  1.00  0.00    -0.200 F 
ATOM     87  C   UNL     1       8.813  13.884 -15.779  1.00  0.00     0.200 A 
ATOM     88  F   UNL     1       6.982  12.790 -16.780  1.00  0.00    -0.200 F 
ATOM     89  F   UNL     1       9.105  14.489 -16.939  1.00  0.00    -0.200 F 
ENDBRANCH  55  79
BRANCH  67  90
ATOM     90  C   UNL     1       9.574  10.680  -7.470  1.00  0.00     0.064 A 
ATOM     91  C   UNL     1       8.226  11.072  -7.529  1.00  0.00     0.173 A 
ATOM     92  C   UNL     1      10.286  10.963  -6.295  1.00  0.00     0.173 A 
ATOM     93  F   UNL     1       7.457  10.766  -8.583  1.00  0.00    -0.203 F 
ATOM     94  C   UNL     1       7.627  11.734  -6.458  1.00  0.00     0.198 A 
ATOM     95  C   UNL     1       9.675  11.594  -5.217  1.00  0.00     0.198 A 
ATOM     96  F   UNL     1      11.564  10.572  -6.170  1.00  0.00    -0.203 F 
ATOM     97  F   UNL     1       6.336  12.093  -6.527  1.00  0.00    -0.200 F 
ATOM     98  C   UNL     1       8.348  11.982  -5.300  1.00  0.00     0.200 A 
ATOM     99  F   UNL     1      10.361  11.790  -4.082  1.00  0.00    -0.200 F 
ATOM    100  F   UNL     1       7.753  12.567  -4.250  1.00  0.00    -0.200 F 
ENDBRANCH  67  90
ENDBRANCH  41  42
ENDBRANCH  33  36
ENDBRANCH  31  32
ENDBRANCH  30  31
ENDBRANCH   1  30
TORSDOF 15
