REMARK SMILES CC(C)[NH2+][C@]1(C(=O)NCCCNC(=O)c2ccc(-c3c4nc(c(-c5c(F)c(F)c(F)c(F)c5F)c5ccc([nH]5)c(-c5c(F)c(F)c(F)c(F)c5F)c5nc(c(-c6c(F)c(F)c(F)c(F)c6F)c6ccc3[nH]6)C=C5)C=C4)cc2)CC[C@H](Sc2ccncn2)C1
REMARK SMILES IDX 10 1 9 2 8 3 6 4 7 5 5 7 78 8 88 9 79 10 80 11 4 12 2 15
REMARK SMILES IDX 1 16 3 17 81 18 82 19 83 20 87 21 84 22 86 23 85 24 11 25
REMARK SMILES IDX 12 26 13 27 14 29 15 30 16 31 77 32 17 33 76 34 18 35 19 36
REMARK SMILES IDX 20 37 70 38 21 39 75 40 69 41 71 42 22 43 74 44 68 45 67 46
REMARK SMILES IDX 23 48 55 49 35 50 54 51 36 52 39 53 53 54 72 55 37 56 38 57
REMARK SMILES IDX 52 59 73 60 40 61 24 62 25 63 33 64 26 65 27 66 31 67 34 68
REMARK SMILES IDX 28 69 29 70 32 71 30 72 56 73 57 74 65 75 58 76 59 77 63 78
REMARK SMILES IDX 66 79 60 80 61 81 64 82 62 83 41 84 42 85 50 86 43 87 44 88
REMARK SMILES IDX 48 89 51 90 45 91 46 92 49 93 47 94
REMARK H PARENT 8 6 4 13 4 14 12 28 71 47 39 58
REMARK Flexibility Score: inf
ROOT
ATOM      1  C   UNL     1      -0.223   0.716  -3.610  1.00  0.00     0.042 C 
ENDROOT
BRANCH   1   2
ATOM      2  C   UNL     1       0.568  -0.360  -2.874  1.00  0.00     0.118 C 
BRANCH   2   3
ATOM      3  N   UNL     1       0.163  -0.573  -1.491  1.00  0.00    -0.351 N 
ATOM      4  C   UNL     1      -0.530  -1.543  -0.831  1.00  0.00     0.281 C 
ATOM      5  O   UNL     1      -0.487  -1.469   0.406  1.00  0.00    -0.268 OA
ATOM      6  H   UNL     1       0.457   0.153  -0.895  1.00  0.00     0.163 HD
BRANCH   4   7
ATOM      7  C   UNL     1      -1.411  -2.626  -1.514  1.00  0.00     0.176 C 
ATOM      8  C   UNL     1      -0.977  -3.082  -2.905  1.00  0.00     0.080 C 
ATOM      9  C   UNL     1      -1.219  -3.956  -0.720  1.00  0.00     0.094 C 
ATOM     10  C   UNL     1      -1.541  -4.481  -3.087  1.00  0.00     0.022 C 
ATOM     11  C   UNL     1      -1.444  -5.120  -1.703  1.00  0.00     0.060 C 
BRANCH   7  12
ATOM     12  N   UNL     1      -2.863  -2.309  -1.453  1.00  0.00    -0.332 N 
ATOM     13  H   UNL     1      -3.334  -2.928  -2.112  1.00  0.00     0.347 HD
ATOM     14  H   UNL     1      -3.105  -2.433  -0.470  1.00  0.00     0.347 HD
BRANCH  12  15
ATOM     15  C   UNL     1      -3.293  -0.945  -1.758  1.00  0.00     0.176 C 
ATOM     16  C   UNL     1      -4.702  -1.022  -2.353  1.00  0.00     0.075 C 
ATOM     17  C   UNL     1      -3.342  -0.045  -0.517  1.00  0.00     0.075 C 
ENDBRANCH  12  15
ENDBRANCH   7  12
BRANCH  11  18
ATOM     18  S   UNL     1      -2.914  -6.126  -1.279  1.00  0.00    -0.103 SA
BRANCH  18  19
ATOM     19  C   UNL     1      -2.978  -7.340  -2.590  1.00  0.00     0.100 A 
ATOM     20  C   UNL     1      -1.871  -7.765  -3.297  1.00  0.00     0.055 A 
ATOM     21  N   UNL     1      -4.207  -7.837  -2.828  1.00  0.00    -0.230 NA
ATOM     22  C   UNL     1      -2.095  -8.697  -4.284  1.00  0.00     0.115 A 
ATOM     23  C   UNL     1      -4.308  -8.754  -3.799  1.00  0.00     0.222 A 
ATOM     24  N   UNL     1      -3.304  -9.211  -4.559  1.00  0.00    -0.245 NA
ENDBRANCH  18  19
ENDBRANCH  11  18
ENDBRANCH   4   7
ENDBRANCH   2   3
ENDBRANCH   1   2
BRANCH   1  25
ATOM     25  C   UNL     1      -0.090   2.103  -2.996  1.00  0.00     0.118 C 
BRANCH  25  26
ATOM     26  N   UNL     1       1.258   2.630  -3.150  1.00  0.00    -0.352 N 
ATOM     27  C   UNL     1       1.735   3.632  -3.954  1.00  0.00     0.251 C 
ATOM     28  H   UNL     1       1.938   2.197  -2.585  1.00  0.00     0.163 HD
ATOM     29  O   UNL     1       2.949   3.719  -4.144  1.00  0.00    -0.269 OA
BRANCH  27  30
ATOM     30  C   UNL     1       0.828   4.618  -4.584  1.00  0.00     0.039 A 
ATOM     31  C   UNL     1       1.167   5.139  -5.838  1.00  0.00     0.014 A 
ATOM     32  C   UNL     1      -0.293   5.112  -3.912  1.00  0.00     0.014 A 
ATOM     33  C   UNL     1       0.379   6.137  -6.419  1.00  0.00     0.010 A 
ATOM     34  C   UNL     1      -1.125   6.045  -4.527  1.00  0.00     0.010 A 
ATOM     35  C   UNL     1      -0.777   6.594  -5.769  1.00  0.00    -0.014 A 
BRANCH  35  36
ATOM     36  C   UNL     1      -1.589   7.706  -6.328  1.00  0.00     0.031 A 
ATOM     37  C   UNL     1      -1.679   9.011  -5.581  1.00  0.00     0.074 A 
ATOM     38  C   UNL     1      -2.276   7.534  -7.472  1.00  0.00     0.049 A 
ATOM     39  N   UNL     1      -2.394  10.075  -5.849  1.00  0.00    -0.248 NA
ATOM     40  C   UNL     1      -0.882   9.122  -4.348  1.00  0.00     0.031 C 
ATOM     41  C   UNL     1      -2.303   6.308  -8.268  1.00  0.00     0.029 A 
ATOM     42  N   UNL     1      -3.095   8.396  -8.159  1.00  0.00    -0.354 N 
ATOM     43  C   UNL     1      -2.156  10.962  -4.806  1.00  0.00     0.074 A 
ATOM     44  C   UNL     1      -1.272  10.296  -3.876  1.00  0.00     0.031 C 
ATOM     45  C   UNL     1      -3.079   6.502  -9.347  1.00  0.00     0.029 A 
ATOM     46  C   UNL     1      -3.627   7.854  -9.303  1.00  0.00     0.049 A 
ATOM     47  H   UNL     1      -3.282   9.315  -7.860  1.00  0.00     0.167 HD
ATOM     48  C   UNL     1      -2.613  12.227  -4.649  1.00  0.00     0.037 A 
ATOM     49  C   UNL     1      -4.462   8.392 -10.212  1.00  0.00     0.037 A 
ATOM     50  C   UNL     1      -3.452  12.906  -5.600  1.00  0.00     0.049 A 
ATOM     51  C   UNL     1      -4.923   9.814 -10.037  1.00  0.00     0.074 A 
ATOM     52  C   UNL     1      -3.930  14.204  -5.561  1.00  0.00     0.029 A 
ATOM     53  N   UNL     1      -3.928  12.340  -6.773  1.00  0.00    -0.354 N 
ATOM     54  N   UNL     1      -4.654  10.659  -9.071  1.00  0.00    -0.248 NA
ATOM     55  C   UNL     1      -5.793  10.361 -11.087  1.00  0.00     0.031 C 
ATOM     56  C   UNL     1      -4.716  14.415  -6.699  1.00  0.00     0.029 A 
ATOM     57  C   UNL     1      -4.695  13.262  -7.466  1.00  0.00     0.049 A 
ATOM     58  H   UNL     1      -3.747  11.419  -7.070  1.00  0.00     0.167 HD
ATOM     59  C   UNL     1      -5.291  11.844  -9.412  1.00  0.00     0.074 A 
ATOM     60  C   UNL     1      -5.952  11.613 -10.680  1.00  0.00     0.031 C 
ATOM     61  C   UNL     1      -5.324  13.019  -8.738  1.00  0.00     0.037 A 
BRANCH  48  62
ATOM     62  C   UNL     1      -2.203  12.962  -3.406  1.00  0.00     0.064 A 
ATOM     63  C   UNL     1      -0.883  13.396  -3.210  1.00  0.00     0.173 A 
ATOM     64  C   UNL     1      -3.145  13.256  -2.409  1.00  0.00     0.173 A 
ATOM     65  F   UNL     1       0.059  13.128  -4.127  1.00  0.00    -0.203 F 
ATOM     66  C   UNL     1      -0.514  14.068  -2.047  1.00  0.00     0.198 A 
ATOM     67  C   UNL     1      -2.779  13.954  -1.260  1.00  0.00     0.198 A 
ATOM     68  F   UNL     1      -4.422  12.869  -2.548  1.00  0.00    -0.203 F 
ATOM     69  F   UNL     1       0.764  14.424  -1.859  1.00  0.00    -0.200 F 
ATOM     70  C   UNL     1      -1.463  14.351  -1.077  1.00  0.00     0.200 A 
ATOM     71  F   UNL     1      -3.699  14.238  -0.328  1.00  0.00    -0.200 F 
ATOM     72  F   UNL     1      -1.107  15.001   0.040  1.00  0.00    -0.200 F 
ENDBRANCH  48  62
BRANCH  49  73
ATOM     73  C   UNL     1      -4.878   7.599 -11.396  1.00  0.00     0.064 A 
ATOM     74  C   UNL     1      -4.390   7.909 -12.673  1.00  0.00     0.173 A 
ATOM     75  C   UNL     1      -5.767   6.521 -11.280  1.00  0.00     0.173 A 
ATOM     76  F   UNL     1      -3.553   8.944 -12.836  1.00  0.00    -0.203 F 
ATOM     77  C   UNL     1      -4.792   7.185 -13.793  1.00  0.00     0.198 A 
ATOM     78  C   UNL     1      -6.148   5.781 -12.397  1.00  0.00     0.198 A 
ATOM     79  F   UNL     1      -6.256   6.180 -10.079  1.00  0.00    -0.203 F 
ATOM     80  F   UNL     1      -4.343   7.530 -15.008  1.00  0.00    -0.200 F 
ATOM     81  C   UNL     1      -5.667   6.118 -13.654  1.00  0.00     0.200 A 
ATOM     82  F   UNL     1      -6.984   4.742 -12.258  1.00  0.00    -0.200 F 
ATOM     83  F   UNL     1      -6.051   5.419 -14.731  1.00  0.00    -0.200 F 
ENDBRANCH  49  73
BRANCH  61  84
ATOM     84  C   UNL     1      -6.053  14.161  -9.382  1.00  0.00     0.064 A 
ATOM     85  C   UNL     1      -7.453  14.202  -9.441  1.00  0.00     0.173 A 
ATOM     86  C   UNL     1      -5.338  15.245  -9.912  1.00  0.00     0.173 A 
ATOM     87  F   UNL     1      -8.179  13.181  -8.960  1.00  0.00    -0.203 F 
ATOM     88  C   UNL     1      -8.111  15.277 -10.031  1.00  0.00     0.198 A 
ATOM     89  C   UNL     1      -6.000  16.331 -10.477  1.00  0.00     0.198 A 
ATOM     90  F   UNL     1      -3.997  15.255  -9.873  1.00  0.00    -0.203 F 
ATOM     91  F   UNL     1      -9.448  15.276 -10.117  1.00  0.00    -0.200 F 
ATOM     92  C   UNL     1      -7.385  16.343 -10.542  1.00  0.00     0.200 A 
ATOM     93  F   UNL     1      -5.297  17.364 -10.961  1.00  0.00    -0.200 F 
ATOM     94  F   UNL     1      -8.021  17.379 -11.106  1.00  0.00    -0.200 F 
ENDBRANCH  61  84
ENDBRANCH  35  36
ENDBRANCH  27  30
ENDBRANCH  25  26
ENDBRANCH   1  25
TORSDOF 14
