REMARK SMILES C[C@H](SCC[NH3+])c1ccc(C(=O)NCCCNC(=O)c2ccc(-c3c4nc(c(-c5c(F)c(F)c(F)c(F)c5F)c5ccc([nH]5)c(-c5c(F)c(F)c(F)c(F)c5F)c5nc(c(-c6c(F)c(F)c(F)c(F)c6F)c6ccc3[nH]6)C=C5)C=C4)cc2)o1
REMARK SMILES IDX 11 1 12 2 13 3 10 5 7 6 8 7 83 8 9 9 2 10 1 11 3 12 4 13
REMARK SMILES IDX 5 14 6 15 14 19 15 20 16 21 17 22 18 23 19 25 20 26 21 27
REMARK SMILES IDX 82 28 22 29 81 30 23 31 24 32 25 33 75 34 26 35 80 36 74 37
REMARK SMILES IDX 76 38 27 39 79 40 73 41 72 42 28 44 60 45 40 46 59 47 41 48
REMARK SMILES IDX 44 49 58 50 77 51 42 52 43 53 57 55 78 56 45 57 29 58 30 59
REMARK SMILES IDX 38 60 31 61 32 62 36 63 39 64 33 65 34 66 37 67 35 68 61 69
REMARK SMILES IDX 62 70 70 71 63 72 64 73 68 74 71 75 65 76 66 77 69 78 67 79
REMARK SMILES IDX 46 80 47 81 55 82 48 83 49 84 53 85 56 86 50 87 51 88 54 89
REMARK SMILES IDX 52 90
REMARK H PARENT 13 4 6 16 6 17 6 18 17 24 76 43 44 54
REMARK Flexibility Score: inf
ROOT
ATOM      1  C   UNL     1      -4.096   1.004   1.294  1.00  0.00     0.286 C 
ATOM      2  O   UNL     1      -3.927   2.223   1.362  1.00  0.00    -0.266 OA
ATOM      3  N   UNL     1      -5.383   0.598   1.014  1.00  0.00    -0.349 N 
ATOM      4  H   UNL     1      -6.051   1.320   1.018  1.00  0.00     0.163 HD
ENDROOT
BRANCH   1   5
ATOM      5  C   UNL     1      -3.028   0.041   1.484  1.00  0.00     0.191 A 
ATOM      6  C   UNL     1      -0.889  -0.543   1.510  1.00  0.00     0.117 A 
ATOM      7  C   UNL     1      -1.603  -1.665   1.869  1.00  0.00     0.047 A 
ATOM      8  O   UNL     1      -1.745   0.493   1.287  1.00  0.00    -0.455 OA
ATOM      9  C   UNL     1      -2.966  -1.288   1.866  1.00  0.00     0.056 A 
BRANCH   6  10
ATOM     10  C   UNL     1       0.572  -0.287   1.359  1.00  0.00     0.110 C 
ATOM     11  C   UNL     1       1.020   0.851   2.280  1.00  0.00     0.028 C 
BRANCH  10  12
ATOM     12  S   UNL     1       1.087   0.118  -0.353  1.00  0.00    -0.145 SA
BRANCH  12  13
ATOM     13  C   UNL     1       0.244  -1.171  -1.338  1.00  0.00     0.131 C 
BRANCH  13  14
ATOM     14  C   UNL     1       0.924  -2.547  -1.347  1.00  0.00     0.269 C 
BRANCH  14  15
ATOM     15  N   UNL     1       0.803  -3.301  -0.097  1.00  0.00    -0.357 N 
ATOM     16  H   UNL     1       1.266  -2.790   0.654  1.00  0.00     0.344 HD
ATOM     17  H   UNL     1       1.242  -4.215  -0.208  1.00  0.00     0.344 HD
ATOM     18  H   UNL     1      -0.183  -3.423   0.132  1.00  0.00     0.344 HD
ENDBRANCH  14  15
ENDBRANCH  13  14
ENDBRANCH  12  13
ENDBRANCH  10  12
ENDBRANCH   6  10
ENDBRANCH   1   5
BRANCH   3  19
ATOM     19  C   UNL     1      -5.915  -0.716   0.716  1.00  0.00     0.118 C 
BRANCH  19  20
ATOM     20  C   UNL     1      -6.595  -1.350   1.928  1.00  0.00     0.042 C 
BRANCH  20  21
ATOM     21  C   UNL     1      -7.934  -0.709   2.292  1.00  0.00     0.118 C 
BRANCH  21  22
ATOM     22  N   UNL     1      -8.957  -0.958   1.287  1.00  0.00    -0.352 N 
ATOM     23  C   UNL     1     -10.189  -1.550   1.392  1.00  0.00     0.251 C 
ATOM     24  H   UNL     1      -8.726  -0.650   0.381  1.00  0.00     0.163 HD
ATOM     25  O   UNL     1     -10.804  -1.835   0.367  1.00  0.00    -0.269 OA
BRANCH  23  26
ATOM     26  C   UNL     1     -10.792  -1.858   2.709  1.00  0.00     0.039 A 
ATOM     27  C   UNL     1     -11.534  -3.037   2.841  1.00  0.00     0.014 A 
ATOM     28  C   UNL     1     -10.706  -0.971   3.785  1.00  0.00     0.014 A 
ATOM     29  C   UNL     1     -12.151  -3.346   4.056  1.00  0.00     0.010 A 
ATOM     30  C   UNL     1     -11.269  -1.308   5.016  1.00  0.00     0.010 A 
ATOM     31  C   UNL     1     -12.006  -2.494   5.161  1.00  0.00    -0.014 A 
BRANCH  31  32
ATOM     32  C   UNL     1     -12.630  -2.821   6.468  1.00  0.00     0.031 A 
ATOM     33  C   UNL     1     -13.738  -1.965   7.016  1.00  0.00     0.074 A 
ATOM     34  C   UNL     1     -12.163  -3.859   7.188  1.00  0.00     0.049 A 
ATOM     35  N   UNL     1     -14.359  -2.048   8.166  1.00  0.00    -0.248 NA
ATOM     36  C   UNL     1     -14.193  -0.852   6.168  1.00  0.00     0.031 C 
ATOM     37  C   UNL     1     -11.068  -4.741   6.784  1.00  0.00     0.029 A 
ATOM     38  N   UNL     1     -12.544  -4.340   8.415  1.00  0.00    -0.354 N 
ATOM     39  C   UNL     1     -15.259  -0.990   8.188  1.00  0.00     0.074 A 
ATOM     40  C   UNL     1     -15.077  -0.256   6.955  1.00  0.00     0.031 C 
ATOM     41  C   UNL     1     -10.875  -5.665   7.739  1.00  0.00     0.029 A 
ATOM     42  C   UNL     1     -11.810  -5.423   8.834  1.00  0.00     0.049 A 
ATOM     43  H   UNL     1     -13.274  -3.947   8.946  1.00  0.00     0.167 HD
ATOM     44  C   UNL     1     -16.166  -0.671   9.143  1.00  0.00     0.037 A 
ATOM     45  C   UNL     1     -11.880  -6.135   9.973  1.00  0.00     0.037 A 
ATOM     46  C   UNL     1     -16.369  -1.422  10.354  1.00  0.00     0.049 A 
ATOM     47  C   UNL     1     -12.909  -5.773  11.008  1.00  0.00     0.074 A 
ATOM     48  C   UNL     1     -17.302  -1.212  11.355  1.00  0.00     0.029 A 
ATOM     49  N   UNL     1     -15.626  -2.532  10.727  1.00  0.00    -0.354 N 
ATOM     50  N   UNL     1     -13.791  -4.803  10.993  1.00  0.00    -0.248 NA
ATOM     51  C   UNL     1     -12.957  -6.609  12.215  1.00  0.00     0.031 C 
ATOM     52  C   UNL     1     -17.102  -2.176  12.350  1.00  0.00     0.029 A 
ATOM     53  C   UNL     1     -16.072  -3.010  11.950  1.00  0.00     0.049 A 
ATOM     54  H   UNL     1     -14.892  -2.923  10.202  1.00  0.00     0.167 HD
ATOM     55  C   UNL     1     -14.514  -4.928  12.170  1.00  0.00     0.074 A 
ATOM     56  C   UNL     1     -13.977  -6.075  12.872  1.00  0.00     0.031 C 
ATOM     57  C   UNL     1     -15.532  -4.160  12.629  1.00  0.00     0.037 A 
BRANCH  44  58
ATOM     58  C   UNL     1     -17.014   0.545   8.913  1.00  0.00     0.064 A 
ATOM     59  C   UNL     1     -18.033   0.558   7.948  1.00  0.00     0.173 A 
ATOM     60  C   UNL     1     -16.831   1.699   9.690  1.00  0.00     0.173 A 
ATOM     61  F   UNL     1     -18.241  -0.516   7.172  1.00  0.00    -0.203 F 
ATOM     62  C   UNL     1     -18.818   1.691   7.751  1.00  0.00     0.198 A 
ATOM     63  C   UNL     1     -17.636   2.820   9.509  1.00  0.00     0.198 A 
ATOM     64  F   UNL     1     -15.875   1.736  10.631  1.00  0.00    -0.203 F 
ATOM     65  F   UNL     1     -19.755   1.696   6.793  1.00  0.00    -0.200 F 
ATOM     66  C   UNL     1     -18.624   2.818   8.535  1.00  0.00     0.200 A 
ATOM     67  F   UNL     1     -17.455   3.905  10.275  1.00  0.00    -0.200 F 
ATOM     68  F   UNL     1     -19.384   3.906   8.347  1.00  0.00    -0.200 F 
ENDBRANCH  44  58
BRANCH  45  69
ATOM     69  C   UNL     1     -10.965  -7.286  10.181  1.00  0.00     0.064 A 
ATOM     70  C   UNL     1     -11.446  -8.602  10.134  1.00  0.00     0.173 A 
ATOM     71  C   UNL     1      -9.598  -7.098  10.427  1.00  0.00     0.173 A 
ATOM     72  F   UNL     1     -12.751  -8.830   9.922  1.00  0.00    -0.203 F 
ATOM     73  C   UNL     1     -10.596  -9.686  10.339  1.00  0.00     0.198 A 
ATOM     74  C   UNL     1      -8.744  -8.183  10.608  1.00  0.00     0.198 A 
ATOM     75  F   UNL     1      -9.089  -5.858  10.477  1.00  0.00    -0.203 F 
ATOM     76  F   UNL     1     -11.088 -10.932  10.327  1.00  0.00    -0.200 F 
ATOM     77  C   UNL     1      -9.245  -9.476  10.571  1.00  0.00     0.200 A 
ATOM     78  F   UNL     1      -7.437  -7.978  10.819  1.00  0.00    -0.200 F 
ATOM     79  F   UNL     1      -8.427 -10.520  10.764  1.00  0.00    -0.200 F 
ENDBRANCH  45  69
BRANCH  57  80
ATOM     80  C   UNL     1     -16.154  -4.555  13.936  1.00  0.00     0.064 A 
ATOM     81  C   UNL     1     -15.496  -4.343  15.156  1.00  0.00     0.173 A 
ATOM     82  C   UNL     1     -17.436  -5.124  13.968  1.00  0.00     0.173 A 
ATOM     83  F   UNL     1     -14.262  -3.818  15.174  1.00  0.00    -0.203 F 
ATOM     84  C   UNL     1     -16.090  -4.708  16.360  1.00  0.00     0.198 A 
ATOM     85  C   UNL     1     -18.037  -5.464  15.176  1.00  0.00     0.198 A 
ATOM     86  F   UNL     1     -18.107  -5.342  12.827  1.00  0.00    -0.203 F 
ATOM     87  F   UNL     1     -15.426  -4.537  17.512  1.00  0.00    -0.200 F 
ATOM     88  C   UNL     1     -17.362  -5.262  16.370  1.00  0.00     0.200 A 
ATOM     89  F   UNL     1     -19.270  -5.991  15.184  1.00  0.00    -0.200 F 
ATOM     90  F   UNL     1     -17.934  -5.610  17.531  1.00  0.00    -0.200 F 
ENDBRANCH  57  80
ENDBRANCH  31  32
ENDBRANCH  23  26
ENDBRANCH  21  22
ENDBRANCH  20  21
ENDBRANCH  19  20
ENDBRANCH   3  19
TORSDOF 15
