REMARK SMILES CC(C)(C)OC(=O)[C@@H]1[NH2+][C@H](C(=O)NCCCNC(=O)c2ccc(-c3c4nc(c(-c5c(F)c(F)c(F)c(F)c5F)c5ccc([nH]5)c(-c5c(F)c(F)c(F)c(F)c5F)c5nc(c(-c6c(F)c(F)c(F)c(F)c6F)c6ccc3[nH]6)C=C5)C=C4)cc2)C(C)(C)S1
REMARK SMILES IDX 14 1 13 2 11 3 12 4 10 6 8 7 9 8 86 9 83 12 84 13 85 14 6 15
REMARK SMILES IDX 7 16 5 17 2 18 1 19 3 20 4 21 15 22 16 23 17 24 18 25 19 27
REMARK SMILES IDX 20 28 21 29 82 30 22 31 81 32 23 33 24 34 25 35 75 36 26 37
REMARK SMILES IDX 80 38 74 39 76 40 27 41 79 42 73 43 72 44 28 46 60 47 40 48
REMARK SMILES IDX 59 49 41 50 44 51 58 52 77 53 42 54 43 55 57 57 78 58 45 59
REMARK SMILES IDX 29 60 30 61 38 62 31 63 32 64 36 65 39 66 33 67 34 68 37 69
REMARK SMILES IDX 35 70 61 71 62 72 70 73 63 74 64 75 68 76 71 77 65 78 66 79
REMARK SMILES IDX 69 80 67 81 46 82 47 83 55 84 48 85 49 86 53 87 56 88 50 89
REMARK SMILES IDX 51 90 54 91 52 92
REMARK H PARENT 13 5 9 10 9 11 17 26 76 45 44 56
REMARK Flexibility Score: inf
ROOT
ATOM      1  C   UNL     1       3.207   9.671  -2.352  1.00  0.00     0.118 C 
ENDROOT
BRANCH   1   2
ATOM      2  N   UNL     1       3.695   8.416  -1.819  1.00  0.00    -0.351 N 
ATOM      3  C   UNL     1       3.087   7.225  -1.571  1.00  0.00     0.279 C 
ATOM      4  O   UNL     1       3.797   6.381  -1.025  1.00  0.00    -0.268 OA
ATOM      5  H   UNL     1       4.652   8.427  -1.591  1.00  0.00     0.163 HD
BRANCH   3   6
ATOM      6  C   UNL     1       1.620   6.961  -1.984  1.00  0.00     0.289 C 
ATOM      7  C   UNL     1       1.171   4.716  -1.198  1.00  0.00     0.354 C 
ATOM      8  N   UNL     1       1.447   5.534  -2.406  1.00  0.00    -0.314 N 
ATOM      9  S   UNL     1       0.227   5.743  -0.040  1.00  0.00    -0.074 SA
ATOM     10  H   UNL     1       0.665   5.460  -3.057  1.00  0.00     0.348 HD
ATOM     11  H   UNL     1       2.293   5.201  -2.868  1.00  0.00     0.348 HD
ATOM     12  C   UNL     1       0.525   7.298  -0.943  1.00  0.00     0.078 C 
ATOM     13  C   UNL     1      -0.789   7.676  -1.649  1.00  0.00     0.030 C 
ATOM     14  C   UNL     1       0.872   8.383   0.071  1.00  0.00     0.030 C 
BRANCH   7  15
ATOM     15  C   UNL     1       2.429   4.033  -0.604  1.00  0.00     0.376 C 
ATOM     16  O   UNL     1       3.108   3.225  -1.233  1.00  0.00    -0.244 OA
BRANCH  15  17
ATOM     17  O   UNL     1       2.643   4.372   0.699  1.00  0.00    -0.455 OA
BRANCH  17  18
ATOM     18  C   UNL     1       3.763   3.851   1.456  1.00  0.00     0.104 C 
ATOM     19  C   UNL     1       3.618   4.491   2.847  1.00  0.00     0.056 C 
ATOM     20  C   UNL     1       5.111   4.280   0.868  1.00  0.00     0.056 C 
ATOM     21  C   UNL     1       3.670   2.330   1.605  1.00  0.00     0.056 C 
ENDBRANCH  17  18
ENDBRANCH  15  17
ENDBRANCH   7  15
ENDBRANCH   3   6
ENDBRANCH   1   2
BRANCH   1  22
ATOM     22  C   UNL     1       3.265  10.794  -1.316  1.00  0.00     0.042 C 
BRANCH  22  23
ATOM     23  C   UNL     1       4.625  11.015  -0.661  1.00  0.00     0.118 C 
BRANCH  23  24
ATOM     24  N   UNL     1       5.598  11.615  -1.557  1.00  0.00    -0.352 N 
ATOM     25  C   UNL     1       6.247  12.820  -1.472  1.00  0.00     0.251 C 
ATOM     26  H   UNL     1       5.827  11.073  -2.346  1.00  0.00     0.163 HD
ATOM     27  O   UNL     1       6.917  13.212  -2.430  1.00  0.00    -0.269 OA
BRANCH  25  28
ATOM     28  C   UNL     1       6.132  13.677  -0.268  1.00  0.00     0.039 A 
ATOM     29  C   UNL     1       5.989  15.057  -0.445  1.00  0.00     0.014 A 
ATOM     30  C   UNL     1       6.201  13.152   1.026  1.00  0.00     0.014 A 
ATOM     31  C   UNL     1       5.853  15.896   0.664  1.00  0.00     0.010 A 
ATOM     32  C   UNL     1       5.991  13.981   2.131  1.00  0.00     0.010 A 
ATOM     33  C   UNL     1       5.817  15.363   1.963  1.00  0.00    -0.014 A 
BRANCH  33  34
ATOM     34  C   UNL     1       5.592  16.242   3.141  1.00  0.00     0.031 A 
ATOM     35  C   UNL     1       6.662  16.415   4.186  1.00  0.00     0.074 A 
ATOM     36  C   UNL     1       4.401  16.855   3.297  1.00  0.00     0.049 A 
ATOM     37  N   UNL     1       6.634  17.121   5.290  1.00  0.00    -0.248 NA
ATOM     38  C   UNL     1       7.921  15.683   3.978  1.00  0.00     0.031 C 
ATOM     39  C   UNL     1       3.261  16.729   2.387  1.00  0.00     0.029 A 
ATOM     40  N   UNL     1       3.949  17.702   4.279  1.00  0.00    -0.354 N 
ATOM     41  C   UNL     1       7.855  16.902   5.913  1.00  0.00     0.074 A 
ATOM     42  C   UNL     1       8.589  15.969   5.086  1.00  0.00     0.031 C 
ATOM     43  C   UNL     1       2.251  17.491   2.839  1.00  0.00     0.029 A 
ATOM     44  C   UNL     1       2.659  18.134   4.084  1.00  0.00     0.049 A 
ATOM     45  H   UNL     1       4.498  17.975   5.049  1.00  0.00     0.167 HD
ATOM     46  C   UNL     1       8.330  17.446   7.059  1.00  0.00     0.037 A 
ATOM     47  C   UNL     1       1.891  18.954   4.826  1.00  0.00     0.037 A 
ATOM     48  C   UNL     1       7.623  18.412   7.858  1.00  0.00     0.049 A 
ATOM     49  C   UNL     1       2.455  19.558   6.084  1.00  0.00     0.074 A 
ATOM     50  C   UNL     1       8.064  19.090   8.982  1.00  0.00     0.029 A 
ATOM     51  N   UNL     1       6.326  18.839   7.618  1.00  0.00    -0.354 N 
ATOM     52  N   UNL     1       3.645  19.412   6.611  1.00  0.00    -0.248 NA
ATOM     53  C   UNL     1       1.567  20.449   6.846  1.00  0.00     0.031 C 
ATOM     54  C   UNL     1       7.019  19.896   9.447  1.00  0.00     0.029 A 
ATOM     55  C   UNL     1       5.942  19.751   8.588  1.00  0.00     0.049 A 
ATOM     56  H   UNL     1       5.762  18.538   6.870  1.00  0.00     0.167 HD
ATOM     57  C   UNL     1       3.659  20.210   7.747  1.00  0.00     0.074 A 
ATOM     58  C   UNL     1       2.365  20.852   7.824  1.00  0.00     0.031 C 
ATOM     59  C   UNL     1       4.655  20.391   8.648  1.00  0.00     0.037 A 
BRANCH  46  60
ATOM     60  C   UNL     1       9.692  17.023   7.524  1.00  0.00     0.064 A 
ATOM     61  C   UNL     1      10.857  17.463   6.880  1.00  0.00     0.173 A 
ATOM     62  C   UNL     1       9.835  16.231   8.673  1.00  0.00     0.173 A 
ATOM     63  F   UNL     1      10.773  18.216   5.772  1.00  0.00    -0.203 F 
ATOM     64  C   UNL     1      12.117  17.112   7.360  1.00  0.00     0.198 A 
ATOM     65  C   UNL     1      11.095  15.902   9.164  1.00  0.00     0.198 A 
ATOM     66  F   UNL     1       8.751  15.791   9.330  1.00  0.00    -0.203 F 
ATOM     67  F   UNL     1      13.216  17.518   6.711  1.00  0.00    -0.200 F 
ATOM     68  C   UNL     1      12.235  16.340   8.506  1.00  0.00     0.200 A 
ATOM     69  F   UNL     1      11.208  15.166  10.279  1.00  0.00    -0.200 F 
ATOM     70  F   UNL     1      13.447  16.016   8.975  1.00  0.00    -0.200 F 
ENDBRANCH  46  60
BRANCH  47  71
ATOM     71  C   UNL     1       0.507  19.278   4.393  1.00  0.00     0.064 A 
ATOM     72  C   UNL     1       0.176  20.565   3.948  1.00  0.00     0.173 A 
ATOM     73  C   UNL     1      -0.517  18.321   4.446  1.00  0.00     0.173 A 
ATOM     74  F   UNL     1       1.117  21.520   3.903  1.00  0.00    -0.203 F 
ATOM     75  C   UNL     1      -1.132  20.892   3.597  1.00  0.00     0.198 A 
ATOM     76  C   UNL     1      -1.819  18.642   4.068  1.00  0.00     0.198 A 
ATOM     77  F   UNL     1      -0.251  17.075   4.861  1.00  0.00    -0.203 F 
ATOM     78  F   UNL     1      -1.431  22.144   3.226  1.00  0.00    -0.200 F 
ATOM     79  C   UNL     1      -2.128  19.929   3.654  1.00  0.00     0.200 A 
ATOM     80  F   UNL     1      -2.777  17.705   4.113  1.00  0.00    -0.200 F 
ATOM     81  F   UNL     1      -3.387  20.244   3.320  1.00  0.00    -0.200 F 
ENDBRANCH  47  71
BRANCH  59  82
ATOM     82  C   UNL     1       4.394  21.344   9.776  1.00  0.00     0.064 A 
ATOM     83  C   UNL     1       3.530  21.014  10.830  1.00  0.00     0.173 A 
ATOM     84  C   UNL     1       5.035  22.592   9.816  1.00  0.00     0.173 A 
ATOM     85  F   UNL     1       2.881  19.840  10.828  1.00  0.00    -0.203 F 
ATOM     86  C   UNL     1       3.295  21.910  11.869  1.00  0.00     0.198 A 
ATOM     87  C   UNL     1       4.819  23.474  10.870  1.00  0.00     0.198 A 
ATOM     88  F   UNL     1       5.875  22.952   8.834  1.00  0.00    -0.203 F 
ATOM     89  F   UNL     1       2.428  21.594  12.841  1.00  0.00    -0.200 F 
ATOM     90  C   UNL     1       3.944  23.136  11.892  1.00  0.00     0.200 A 
ATOM     91  F   UNL     1       5.455  24.653  10.896  1.00  0.00    -0.200 F 
ATOM     92  F   UNL     1       3.719  23.996  12.894  1.00  0.00    -0.200 F 
ENDBRANCH  59  82
ENDBRANCH  33  34
ENDBRANCH  25  28
ENDBRANCH  23  24
ENDBRANCH  22  23
ENDBRANCH   1  22
TORSDOF 13
