REMARK SMILES O=C(CCC(=O)N1N=C(c2ccc(F)cc2)C[C@@H]1c1ccc2nccnc2c1)NCCCNC(=O)c1ccc(-c2c3nc(c(-c4c(F)c(F)c(F)c(F)c4F)c4ccc([nH]4)c(-c4c(F)c(F)c(F)c(F)c4F)c4nc(c(-c5c(F)c(F)c(F)c(F)c5F)c5ccc2[nH]5)C=C4)C=C3)cc1
REMARK SMILES IDX 30 1 29 2 1 3 2 4 3 6 4 7 5 8 6 9 7 10 8 11 18 12 9 13 17 14
REMARK SMILES IDX 19 15 20 16 28 17 21 18 27 19 22 20 26 21 23 22 25 23 24 24
REMARK SMILES IDX 10 25 11 26 16 27 12 28 15 29 13 30 14 31 31 32 32 33 33 34
REMARK SMILES IDX 34 35 35 37 36 38 37 39 98 40 38 41 97 42 39 43 40 44 41 45
REMARK SMILES IDX 91 46 42 47 96 48 90 49 92 50 43 51 95 52 89 53 88 54 44 56
REMARK SMILES IDX 76 57 56 58 75 59 57 60 60 61 74 62 93 63 58 64 59 65 73 67
REMARK SMILES IDX 94 68 61 69 45 70 46 71 54 72 47 73 48 74 52 75 55 76 49 77
REMARK SMILES IDX 50 78 53 79 51 80 77 81 78 82 86 83 79 84 80 85 84 86 87 87
REMARK SMILES IDX 81 88 82 89 85 90 83 91 62 92 63 93 71 94 64 95 65 96 69 97
REMARK SMILES IDX 72 98 66 99 67 100 70 101 68 102
REMARK H PARENT 29 5 33 36 92 55 60 66
REMARK Flexibility Score: inf
ROOT
ATOM      1  C   UNL     1       0.842   1.075   2.441  1.00  0.00     0.117 C 
ENDROOT
BRANCH   1   2
ATOM      2  N   UNL     1       1.206   0.281   1.252  1.00  0.00    -0.356 N 
ATOM      3  O   UNL     1       0.795   1.918  -0.303  1.00  0.00    -0.275 OA
ATOM      4  C   UNL     1       1.335   0.850  -0.011  1.00  0.00     0.220 C 
ATOM      5  H   UNL     1       1.363  -0.686   1.355  1.00  0.00     0.163 HD
BRANCH   4   6
ATOM      6  C   UNL     1       2.287   0.123  -0.982  1.00  0.00     0.110 C 
BRANCH   6   7
ATOM      7  C   UNL     1       3.357   1.082  -1.544  1.00  0.00     0.112 C 
BRANCH   7   8
ATOM      8  C   UNL     1       4.834   1.060  -1.084  1.00  0.00     0.243 C 
ATOM      9  O   UNL     1       5.725   1.124  -1.938  1.00  0.00    -0.273 OA
BRANCH   8  10
ATOM     10  N   UNL     1       5.118   1.200   0.267  1.00  0.00    -0.225 N 
ATOM     11  N   UNL     1       5.736   2.396   0.688  1.00  0.00    -0.174 NA
ATOM     12  C   UNL     1       4.404   0.564   1.350  1.00  0.00     0.147 C 
ATOM     13  C   UNL     1       5.518   2.501   1.964  1.00  0.00     0.071 C 
ATOM     14  C   UNL     1       4.739   1.382   2.570  1.00  0.00     0.091 C 
BRANCH  12  15
ATOM     15  C   UNL     1       4.487  -0.950   1.519  1.00  0.00    -0.021 A 
ATOM     16  C   UNL     1       3.428  -1.599   2.167  1.00  0.00     0.008 A 
ATOM     17  C   UNL     1       5.510  -1.784   1.066  1.00  0.00     0.036 A 
ATOM     18  C   UNL     1       3.350  -2.964   2.376  1.00  0.00     0.031 A 
ATOM     19  C   UNL     1       5.463  -3.183   1.254  1.00  0.00     0.089 A 
ATOM     20  C   UNL     1       4.353  -3.766   1.925  1.00  0.00     0.089 A 
ATOM     21  N   UNL     1       6.448  -3.987   0.811  1.00  0.00    -0.253 NA
ATOM     22  N   UNL     1       4.215  -5.079   2.151  1.00  0.00    -0.253 NA
ATOM     23  C   UNL     1       6.300  -5.318   1.036  1.00  0.00     0.132 A 
ATOM     24  C   UNL     1       5.209  -5.854   1.691  1.00  0.00     0.132 A 
ENDBRANCH  12  15
BRANCH  13  25
ATOM     25  C   UNL     1       5.853   3.629   2.858  1.00  0.00    -0.002 A 
ATOM     26  C   UNL     1       6.517   3.341   4.059  1.00  0.00     0.013 A 
ATOM     27  C   UNL     1       5.295   4.898   2.656  1.00  0.00     0.013 A 
ATOM     28  C   UNL     1       6.615   4.309   5.060  1.00  0.00     0.040 A 
ATOM     29  C   UNL     1       5.393   5.865   3.668  1.00  0.00     0.040 A 
ATOM     30  C   UNL     1       6.044   5.559   4.861  1.00  0.00     0.123 A 
ATOM     31  F   UNL     1       6.101   6.472   5.840  1.00  0.00    -0.207 F 
ENDBRANCH  13  25
ENDBRANCH   8  10
ENDBRANCH   7   8
ENDBRANCH   6   7
ENDBRANCH   4   6
ENDBRANCH   1   2
BRANCH   1  32
ATOM     32  C   UNL     1       1.009   0.443   3.870  1.00  0.00     0.042 C 
BRANCH  32  33
ATOM     33  C   UNL     1       2.353   0.305   4.671  1.00  0.00     0.118 C 
BRANCH  33  34
ATOM     34  N   UNL     1       2.925   1.496   5.263  1.00  0.00    -0.352 N 
ATOM     35  C   UNL     1       3.976   1.658   6.151  1.00  0.00     0.251 C 
ATOM     36  H   UNL     1       2.492   2.336   4.988  1.00  0.00     0.163 HD
ATOM     37  O   UNL     1       4.223   2.813   6.501  1.00  0.00    -0.269 OA
BRANCH  35  38
ATOM     38  C   UNL     1       4.796   0.558   6.768  1.00  0.00     0.039 A 
ATOM     39  C   UNL     1       5.230   0.788   8.086  1.00  0.00     0.014 A 
ATOM     40  C   UNL     1       5.222  -0.625   6.150  1.00  0.00     0.014 A 
ATOM     41  C   UNL     1       5.963  -0.171   8.802  1.00  0.00     0.010 A 
ATOM     42  C   UNL     1       5.937  -1.611   6.881  1.00  0.00     0.010 A 
ATOM     43  C   UNL     1       6.265  -1.418   8.233  1.00  0.00    -0.014 A 
BRANCH  43  44
ATOM     44  C   UNL     1       6.668  -2.533   9.153  1.00  0.00     0.031 A 
ATOM     45  C   UNL     1       8.060  -3.095   9.238  1.00  0.00     0.074 A 
ATOM     46  C   UNL     1       5.722  -2.998  10.000  1.00  0.00     0.049 A 
ATOM     47  N   UNL     1       8.559  -3.930  10.120  1.00  0.00    -0.248 NA
ATOM     48  C   UNL     1       9.012  -2.686   8.199  1.00  0.00     0.031 C 
ATOM     49  C   UNL     1       4.324  -2.563   9.995  1.00  0.00     0.029 A 
ATOM     50  N   UNL     1       5.784  -3.889  11.046  1.00  0.00    -0.354 N 
ATOM     51  C   UNL     1       9.886  -4.134   9.758  1.00  0.00     0.074 A 
ATOM     52  C   UNL     1      10.100  -3.368   8.544  1.00  0.00     0.031 C 
ATOM     53  C   UNL     1       3.680  -3.126  11.025  1.00  0.00     0.029 A 
ATOM     54  C   UNL     1       4.603  -3.996  11.745  1.00  0.00     0.049 A 
ATOM     55  H   UNL     1       6.594  -4.400  11.273  1.00  0.00     0.167 HD
ATOM     56  C   UNL     1      10.834  -4.879  10.386  1.00  0.00     0.037 A 
ATOM     57  C   UNL     1       4.290  -4.697  12.853  1.00  0.00     0.037 A 
ATOM     58  C   UNL     1      10.606  -5.652  11.587  1.00  0.00     0.049 A 
ATOM     59  C   UNL     1       5.359  -5.509  13.528  1.00  0.00     0.074 A 
ATOM     60  C   UNL     1      11.511  -6.415  12.310  1.00  0.00     0.029 A 
ATOM     61  N   UNL     1       9.386  -5.771  12.239  1.00  0.00    -0.354 N 
ATOM     62  N   UNL     1       6.623  -5.636  13.208  1.00  0.00    -0.248 NA
ATOM     63  C   UNL     1       4.960  -6.269  14.720  1.00  0.00     0.031 C 
ATOM     64  C   UNL     1      10.827  -7.038  13.360  1.00  0.00     0.029 A 
ATOM     65  C   UNL     1       9.509  -6.615  13.335  1.00  0.00     0.049 A 
ATOM     66  H   UNL     1       8.554  -5.322  11.964  1.00  0.00     0.167 HD
ATOM     67  C   UNL     1       7.175  -6.480  14.161  1.00  0.00     0.074 A 
ATOM     68  C   UNL     1       6.114  -6.804  15.094  1.00  0.00     0.031 C 
ATOM     69  C   UNL     1       8.443  -6.951  14.248  1.00  0.00     0.037 A 
BRANCH  56  70
ATOM     70  C   UNL     1      12.222  -4.903   9.799  1.00  0.00     0.064 A 
ATOM     71  C   UNL     1      12.758  -6.086   9.263  1.00  0.00     0.173 A 
ATOM     72  C   UNL     1      13.059  -3.777   9.850  1.00  0.00     0.173 A 
ATOM     73  F   UNL     1      12.013  -7.200   9.205  1.00  0.00    -0.203 F 
ATOM     74  C   UNL     1      14.074  -6.141   8.807  1.00  0.00     0.198 A 
ATOM     75  C   UNL     1      14.366  -3.828   9.367  1.00  0.00     0.198 A 
ATOM     76  F   UNL     1      12.604  -2.621  10.356  1.00  0.00    -0.203 F 
ATOM     77  F   UNL     1      14.570  -7.292   8.330  1.00  0.00    -0.200 F 
ATOM     78  C   UNL     1      14.875  -5.011   8.853  1.00  0.00     0.200 A 
ATOM     79  F   UNL     1      15.132  -2.728   9.396  1.00  0.00    -0.200 F 
ATOM     80  F   UNL     1      16.137  -5.061   8.403  1.00  0.00    -0.200 F 
ENDBRANCH  56  70
BRANCH  57  81
ATOM     81  C   UNL     1       2.910  -4.620  13.408  1.00  0.00     0.064 A 
ATOM     82  C   UNL     1       1.812  -5.133  12.702  1.00  0.00     0.173 A 
ATOM     83  C   UNL     1       2.656  -3.997  14.639  1.00  0.00     0.173 A 
ATOM     84  F   UNL     1       1.997  -5.734  11.517  1.00  0.00    -0.203 F 
ATOM     85  C   UNL     1       0.513  -5.002  13.189  1.00  0.00     0.198 A 
ATOM     86  C   UNL     1       1.359  -3.896  15.142  1.00  0.00     0.198 A 
ATOM     87  F   UNL     1       3.671  -3.506  15.364  1.00  0.00    -0.203 F 
ATOM     88  F   UNL     1      -0.520  -5.458  12.468  1.00  0.00    -0.200 F 
ATOM     89  C   UNL     1       0.288  -4.388  14.411  1.00  0.00     0.200 A 
ATOM     90  F   UNL     1       1.149  -3.326  16.336  1.00  0.00    -0.200 F 
ATOM     91  F   UNL     1      -0.960  -4.271  14.885  1.00  0.00    -0.200 F 
ENDBRANCH  57  81
BRANCH  69  92
ATOM     92  C   UNL     1       8.753  -7.877  15.392  1.00  0.00     0.064 A 
ATOM     93  C   UNL     1       9.618  -7.478  16.423  1.00  0.00     0.173 A 
ATOM     94  C   UNL     1       8.215  -9.172  15.455  1.00  0.00     0.173 A 
ATOM     95  F   UNL     1      10.166  -6.254  16.411  1.00  0.00    -0.203 F 
ATOM     96  C   UNL     1       9.933  -8.340  17.470  1.00  0.00     0.198 A 
ATOM     97  C   UNL     1       8.504 -10.018  16.523  1.00  0.00     0.198 A 
ATOM     98  F   UNL     1       7.372  -9.600  14.504  1.00  0.00    -0.203 F 
ATOM     99  F   UNL     1      10.782  -7.945  18.429  1.00  0.00    -0.200 F 
ATOM    100  C   UNL     1       9.368  -9.605  17.525  1.00  0.00     0.200 A 
ATOM    101  F   UNL     1       7.930 -11.228  16.590  1.00  0.00    -0.200 F 
ATOM    102  F   UNL     1       9.650 -10.423  18.548  1.00  0.00    -0.200 F 
ENDBRANCH  69  92
ENDBRANCH  43  44
ENDBRANCH  35  38
ENDBRANCH  33  34
ENDBRANCH  32  33
ENDBRANCH   1  32
TORSDOF 15
