REMARK SMILES O=C(NCCCNC(=O)[C@H]1[C@H]2CC[C@H](CC2)[C@H]1C(=O)Nc1ccc(C(=O)N2CCCC2)cc1)c1ccc(-c2c3nc(c(-c4c(F)c(F)c(F)c(F)c4F)c4ccc([nH]4)c(-c4c(F)c(F)c(F)c(F)c4F)c4nc(c(-c5c(F)c(F)c(F)c(F)c5F)c5ccc2[nH]5)C=C4)C=C3)cc1
REMARK SMILES IDX 5 1 4 2 3 3 1 4 2 5 34 7 35 8 96 9 36 10 95 11 37 12 38 13
REMARK SMILES IDX 39 14 89 15 40 16 94 17 88 18 90 19 41 20 93 21 87 22 86 23
REMARK SMILES IDX 42 25 74 26 54 27 73 28 55 29 58 30 72 31 91 32 56 33 57 34
REMARK SMILES IDX 71 36 92 37 59 38 43 39 44 40 52 41 45 42 46 43 50 44 53 45
REMARK SMILES IDX 47 46 48 47 51 48 49 49 75 50 76 51 84 52 77 53 78 54 82 55
REMARK SMILES IDX 85 56 79 57 80 58 83 59 81 60 60 61 61 62 69 63 62 64 63 65
REMARK SMILES IDX 67 66 70 67 64 68 65 69 68 70 66 71 6 72 7 73 8 74 9 76
REMARK SMILES IDX 10 77 11 78 17 79 16 80 12 81 14 82 15 83 13 84 18 85 19 86
REMARK SMILES IDX 20 87 21 89 22 90 33 91 23 92 32 93 24 94 25 95 26 96 27 97
REMARK SMILES IDX 28 98 31 99 29 100 30 101
REMARK H PARENT 3 6 90 24 58 35 7 75 20 88
REMARK Flexibility Score: inf
ROOT
ATOM      1  C   UNL     1       3.605   1.543  -2.321  1.00  0.00     0.042 C 
ENDROOT
BRANCH   1   2
ATOM      2  C   UNL     1       3.644   1.706  -0.802  1.00  0.00     0.118 C 
BRANCH   2   3
ATOM      3  N   UNL     1       2.398   1.293  -0.179  1.00  0.00    -0.352 N 
ATOM      4  O   UNL     1       0.828  -0.080   0.630  1.00  0.00    -0.269 OA
ATOM      5  C   UNL     1       2.020   0.103   0.392  1.00  0.00     0.251 C 
ATOM      6  H   UNL     1       1.701   1.989  -0.165  1.00  0.00     0.163 HD
BRANCH   5   7
ATOM      7  C   UNL     1       2.993  -0.964   0.741  1.00  0.00     0.039 A 
ATOM      8  C   UNL     1       4.237  -0.684   1.309  1.00  0.00     0.014 A 
ATOM      9  C   UNL     1       2.575  -2.300   0.644  1.00  0.00     0.014 A 
ATOM     10  C   UNL     1       5.080  -1.725   1.711  1.00  0.00     0.010 A 
ATOM     11  C   UNL     1       3.388  -3.341   1.113  1.00  0.00     0.010 A 
ATOM     12  C   UNL     1       4.650  -3.063   1.654  1.00  0.00    -0.014 A 
BRANCH  12  13
ATOM     13  C   UNL     1       5.475  -4.127   2.292  1.00  0.00     0.031 A 
ATOM     14  C   UNL     1       6.124  -5.218   1.489  1.00  0.00     0.074 A 
ATOM     15  C   UNL     1       5.644  -4.095   3.630  1.00  0.00     0.049 A 
ATOM     16  N   UNL     1       6.916  -6.181   1.897  1.00  0.00    -0.248 NA
ATOM     17  C   UNL     1       5.844  -5.245   0.047  1.00  0.00     0.031 C 
ATOM     18  C   UNL     1       5.023  -3.123   4.532  1.00  0.00     0.029 A 
ATOM     19  N   UNL     1       6.396  -4.886   4.463  1.00  0.00    -0.354 N 
ATOM     20  C   UNL     1       7.228  -6.925   0.767  1.00  0.00     0.074 A 
ATOM     21  C   UNL     1       6.513  -6.324  -0.340  1.00  0.00     0.031 C 
ATOM     22  C   UNL     1       5.455  -3.343   5.782  1.00  0.00     0.029 A 
ATOM     23  C   UNL     1       6.351  -4.495   5.780  1.00  0.00     0.049 A 
ATOM     24  H   UNL     1       6.918  -5.658   4.148  1.00  0.00     0.167 HD
ATOM     25  C   UNL     1       8.046  -8.001   0.662  1.00  0.00     0.037 A 
ATOM     26  C   UNL     1       6.960  -5.003   6.868  1.00  0.00     0.037 A 
ATOM     27  C   UNL     1       8.763  -8.600   1.760  1.00  0.00     0.049 A 
ATOM     28  C   UNL     1       7.873  -6.186   6.715  1.00  0.00     0.074 A 
ATOM     29  C   UNL     1       9.634  -9.678   1.738  1.00  0.00     0.029 A 
ATOM     30  N   UNL     1       8.692  -8.175   3.078  1.00  0.00    -0.354 N 
ATOM     31  N   UNL     1       8.196  -6.846   5.631  1.00  0.00    -0.248 NA
ATOM     32  C   UNL     1       8.508  -6.693   7.940  1.00  0.00     0.031 C 
ATOM     33  C   UNL     1      10.065  -9.924   3.047  1.00  0.00     0.029 A 
ATOM     34  C   UNL     1       9.493  -8.976   3.879  1.00  0.00     0.049 A 
ATOM     35  H   UNL     1       8.152  -7.417   3.398  1.00  0.00     0.167 HD
ATOM     36  C   UNL     1       9.074  -7.840   6.039  1.00  0.00     0.074 A 
ATOM     37  C   UNL     1       9.260  -7.676   7.465  1.00  0.00     0.031 C 
ATOM     38  C   UNL     1       9.663  -8.809   5.298  1.00  0.00     0.037 A 
BRANCH  25  39
ATOM     39  C   UNL     1       8.227  -8.610  -0.698  1.00  0.00     0.064 A 
ATOM     40  C   UNL     1       9.010  -7.982  -1.679  1.00  0.00     0.173 A 
ATOM     41  C   UNL     1       7.681  -9.867  -0.998  1.00  0.00     0.173 A 
ATOM     42  F   UNL     1       9.549  -6.777  -1.442  1.00  0.00    -0.203 F 
ATOM     43  C   UNL     1       9.229  -8.586  -2.914  1.00  0.00     0.198 A 
ATOM     44  C   UNL     1       7.921 -10.477  -2.227  1.00  0.00     0.198 A 
ATOM     45  F   UNL     1       6.934 -10.514  -0.091  1.00  0.00    -0.203 F 
ATOM     46  F   UNL     1       9.961  -7.957  -3.845  1.00  0.00    -0.200 F 
ATOM     47  C   UNL     1       8.692  -9.836  -3.184  1.00  0.00     0.200 A 
ATOM     48  F   UNL     1       7.413 -11.691  -2.482  1.00  0.00    -0.200 F 
ATOM     49  F   UNL     1       8.917 -10.422  -4.369  1.00  0.00    -0.200 F 
ENDBRANCH  25  39
BRANCH  26  50
ATOM     50  C   UNL     1       6.733  -4.386   8.199  1.00  0.00     0.064 A 
ATOM     51  C   UNL     1       7.754  -3.681   8.852  1.00  0.00     0.173 A 
ATOM     52  C   UNL     1       5.494  -4.491   8.847  1.00  0.00     0.173 A 
ATOM     53  F   UNL     1       8.963  -3.573   8.281  1.00  0.00    -0.203 F 
ATOM     54  C   UNL     1       7.550  -3.123  10.111  1.00  0.00     0.198 A 
ATOM     55  C   UNL     1       5.282  -3.907  10.093  1.00  0.00     0.198 A 
ATOM     56  F   UNL     1       4.484  -5.152   8.261  1.00  0.00    -0.203 F 
ATOM     57  F   UNL     1       8.556  -2.494  10.734  1.00  0.00    -0.200 F 
ATOM     58  C   UNL     1       6.312  -3.231  10.728  1.00  0.00     0.200 A 
ATOM     59  F   UNL     1       4.081  -4.002  10.680  1.00  0.00    -0.200 F 
ATOM     60  F   UNL     1       6.115  -2.690  11.938  1.00  0.00    -0.200 F 
ENDBRANCH  26  50
BRANCH  38  61
ATOM     61  C   UNL     1      10.567  -9.761   6.024  1.00  0.00     0.064 A 
ATOM     62  C   UNL     1      10.053 -10.745   6.882  1.00  0.00     0.173 A 
ATOM     63  C   UNL     1      11.958  -9.694   5.857  1.00  0.00     0.173 A 
ATOM     64  F   UNL     1       8.731 -10.838   7.087  1.00  0.00    -0.203 F 
ATOM     65  C   UNL     1      10.902 -11.607   7.571  1.00  0.00     0.198 A 
ATOM     66  C   UNL     1      12.802 -10.574   6.529  1.00  0.00     0.198 A 
ATOM     67  F   UNL     1      12.498  -8.773   5.046  1.00  0.00    -0.203 F 
ATOM     68  F   UNL     1      10.392 -12.505   8.426  1.00  0.00    -0.200 F 
ATOM     69  C   UNL     1      12.274 -11.524   7.391  1.00  0.00     0.200 A 
ATOM     70  F   UNL     1      14.128 -10.498   6.349  1.00  0.00    -0.200 F 
ATOM     71  F   UNL     1      13.090 -12.351   8.059  1.00  0.00    -0.200 F 
ENDBRANCH  38  61
ENDBRANCH  12  13
ENDBRANCH   5   7
ENDBRANCH   2   3
ENDBRANCH   1   2
BRANCH   1  72
ATOM     72  C   UNL     1       3.560   2.848  -3.120  1.00  0.00     0.117 C 
BRANCH  72  73
ATOM     73  N   UNL     1       4.483   3.882  -2.672  1.00  0.00    -0.356 N 
ATOM     74  C   UNL     1       5.566   4.452  -3.276  1.00  0.00     0.224 C 
ATOM     75  H   UNL     1       4.292   4.233  -1.772  1.00  0.00     0.163 HD
ATOM     76  O   UNL     1       5.921   5.555  -2.857  1.00  0.00    -0.275 OA
BRANCH  74  77
ATOM     77  C   UNL     1       6.213   3.812  -4.487  1.00  0.00     0.094 C 
ATOM     78  C   UNL     1       7.342   4.667  -5.165  1.00  0.00     0.002 C 
ATOM     79  C   UNL     1       6.658   2.340  -4.447  1.00  0.00     0.094 C 
ATOM     80  C   UNL     1       8.761   4.271  -4.704  1.00  0.00     0.005 C 
ATOM     81  C   UNL     1       7.298   4.342  -6.670  1.00  0.00     0.005 C 
ATOM     82  C   UNL     1       7.775   2.127  -5.513  1.00  0.00     0.002 C 
ATOM     83  C   UNL     1       9.059   2.804  -5.034  1.00  0.00     0.005 C 
ATOM     84  C   UNL     1       7.369   2.814  -6.848  1.00  0.00     0.005 C 
BRANCH  79  85
ATOM     85  C   UNL     1       6.900   1.500  -3.171  1.00  0.00     0.228 C 
ATOM     86  O   UNL     1       6.806   0.265  -3.269  1.00  0.00    -0.274 OA
ATOM     87  N   UNL     1       7.134   1.959  -1.904  1.00  0.00    -0.326 N 
ATOM     88  H   UNL     1       6.523   1.661  -1.192  1.00  0.00     0.169 HD
BRANCH  87  89
ATOM     89  C   UNL     1       8.180   2.822  -1.544  1.00  0.00     0.041 A 
ATOM     90  C   UNL     1       9.484   2.339  -1.474  1.00  0.00     0.027 A 
ATOM     91  C   UNL     1       7.924   4.133  -1.167  1.00  0.00     0.027 A 
ATOM     92  C   UNL     1      10.542   3.235  -1.297  1.00  0.00     0.016 A 
ATOM     93  C   UNL     1       8.978   5.042  -1.026  1.00  0.00     0.016 A 
ATOM     94  C   UNL     1      10.296   4.614  -1.182  1.00  0.00     0.040 A 
BRANCH  94  95
ATOM     95  C   UNL     1      11.462   5.518  -1.431  1.00  0.00     0.253 C 
ATOM     96  O   UNL     1      12.584   5.133  -1.111  1.00  0.00    -0.269 OA
ATOM     97  N   UNL     1      11.263   6.563  -2.319  1.00  0.00    -0.339 N 
ATOM     98  C   UNL     1      10.563   7.803  -2.050  1.00  0.00     0.120 C 
ATOM     99  C   UNL     1      12.171   6.746  -3.440  1.00  0.00     0.120 C 
ATOM    100  C   UNL     1      10.443   8.431  -3.426  1.00  0.00     0.023 C 
ATOM    101  C   UNL     1      11.780   8.082  -4.071  1.00  0.00     0.023 C 
ENDBRANCH  94  95
ENDBRANCH  87  89
ENDBRANCH  79  85
ENDBRANCH  74  77
ENDBRANCH  72  73
ENDBRANCH   1  72
TORSDOF 13
