REMARK SMILES NS(=O)(=O)c1ccc(N2N=C(C(=O)NCCCNC(=O)c3ccc(-c4c5nc(c(-c6c(F)c(F)c(F)c(F)c6F)c6ccc([nH]6)c(-c6c(F)c(F)c(F)c(F)c6F)c6nc(c(-c7c(F)c(F)c(F)c(F)c7F)c7ccc4[nH]7)C=C6)C=C5)cc3)C[C@H]2c2ccco2)cc1
REMARK SMILES IDX 15 1 14 2 12 3 13 4 11 6 9 7 10 8 85 9 84 10 8 11 5 12 6 13
REMARK SMILES IDX 92 14 7 15 91 16 2 17 3 18 4 19 1 20 86 23 87 24 90 25 88 26
REMARK SMILES IDX 89 27 16 28 17 29 18 30 19 31 20 33 21 34 22 35 83 36 23 37
REMARK SMILES IDX 82 38 24 39 25 40 26 41 76 42 27 43 81 44 75 45 77 46 28 47
REMARK SMILES IDX 80 48 74 49 73 50 29 52 61 53 41 54 60 55 42 56 45 57 59 58
REMARK SMILES IDX 78 59 43 60 44 61 58 63 79 64 46 65 30 66 31 67 39 68 32 69
REMARK SMILES IDX 33 70 37 71 40 72 34 73 35 74 38 75 36 76 62 77 63 78 71 79
REMARK SMILES IDX 64 80 65 81 69 82 72 83 66 84 67 85 70 86 68 87 47 88 48 89
REMARK SMILES IDX 56 90 49 91 50 92 54 93 57 94 51 95 52 96 55 97 53 98
REMARK H PARENT 14 5 1 21 1 22 18 32 77 51 45 62
REMARK Flexibility Score: inf
ROOT
ATOM      1  C   UNL     1       2.177  -7.271   9.051  1.00  0.00     0.118 C 
ENDROOT
BRANCH   1   2
ATOM      2  N   UNL     1       2.897  -7.333   7.790  1.00  0.00    -0.351 N 
ATOM      3  C   UNL     1       2.924  -6.566   6.653  1.00  0.00     0.267 C 
ATOM      4  O   UNL     1       3.579  -6.988   5.703  1.00  0.00    -0.268 OA
ATOM      5  H   UNL     1       3.507  -8.104   7.741  1.00  0.00     0.163 HD
BRANCH   3   6
ATOM      6  C   UNL     1       2.234  -5.218   6.523  1.00  0.00     0.128 C 
ATOM      7  N   UNL     1       1.813  -3.266   5.757  1.00  0.00    -0.254 N 
ATOM      8  N   UNL     1       2.436  -4.452   5.494  1.00  0.00    -0.171 NA
ATOM      9  C   UNL     1       0.949  -3.315   6.946  1.00  0.00     0.180 C 
ATOM     10  C   UNL     1       1.326  -4.665   7.560  1.00  0.00     0.099 C 
BRANCH   7  11
ATOM     11  C   UNL     1       1.518  -2.397   4.706  1.00  0.00     0.060 A 
ATOM     12  C   UNL     1       0.829  -0.594   2.666  1.00  0.00     0.082 A 
ATOM     13  C   UNL     1       0.650  -1.965   2.467  1.00  0.00     0.024 A 
ATOM     14  C   UNL     1       1.380  -0.117   3.853  1.00  0.00     0.024 A 
ATOM     15  C   UNL     1       1.007  -2.860   3.483  1.00  0.00     0.029 A 
ATOM     16  C   UNL     1       1.727  -1.020   4.857  1.00  0.00     0.029 A 
BRANCH  12  17
ATOM     17  S   UNL     1       0.359   0.551   1.407  1.00  0.00     0.238 S 
ATOM     18  O   UNL     1       0.971   1.835   1.680  1.00  0.00    -0.207 OA
ATOM     19  O   UNL     1      -1.051   0.403   1.155  1.00  0.00    -0.207 OA
BRANCH  17  20
ATOM     20  N   UNL     1       1.153  -0.031   0.048  1.00  0.00    -0.225 NA
ATOM     21  H   UNL     1       0.945   0.570  -0.750  1.00  0.00     0.137 HD
ATOM     22  H   UNL     1       0.838  -0.980  -0.150  1.00  0.00     0.137 HD
ENDBRANCH  17  20
ENDBRANCH  12  17
ENDBRANCH   7  11
BRANCH   9  23
ATOM     23  C   UNL     1       1.045  -2.195   7.947  1.00  0.00     0.128 A 
ATOM     24  C   UNL     1       0.528  -0.913   7.983  1.00  0.00     0.048 A 
ATOM     25  O   UNL     1       1.737  -2.426   9.106  1.00  0.00    -0.467 OA
ATOM     26  C   UNL     1       0.955  -0.332   9.202  1.00  0.00     0.042 A 
ATOM     27  C   UNL     1       1.672  -1.302   9.857  1.00  0.00     0.195 A 
ENDBRANCH   9  23
ENDBRANCH   3   6
ENDBRANCH   1   2
BRANCH   1  28
ATOM     28  C   UNL     1       1.084  -8.328   9.116  1.00  0.00     0.042 C 
BRANCH  28  29
ATOM     29  C   UNL     1       1.636  -9.735   9.305  1.00  0.00     0.118 C 
BRANCH  29  30
ATOM     30  N   UNL     1       2.311  -9.889  10.588  1.00  0.00    -0.352 N 
ATOM     31  C   UNL     1       1.974 -10.639  11.686  1.00  0.00     0.251 C 
ATOM     32  H   UNL     1       3.144  -9.372  10.681  1.00  0.00     0.163 HD
ATOM     33  O   UNL     1       2.540 -10.438  12.757  1.00  0.00    -0.269 OA
BRANCH  31  34
ATOM     34  C   UNL     1       0.930 -11.679  11.589  1.00  0.00     0.039 A 
ATOM     35  C   UNL     1       0.047 -11.856  12.657  1.00  0.00     0.014 A 
ATOM     36  C   UNL     1       0.839 -12.500  10.462  1.00  0.00     0.014 A 
ATOM     37  C   UNL     1      -0.966 -12.812  12.565  1.00  0.00     0.010 A 
ATOM     38  C   UNL     1      -0.226 -13.382  10.332  1.00  0.00     0.010 A 
ATOM     39  C   UNL     1      -1.134 -13.556  11.386  1.00  0.00    -0.014 A 
BRANCH  39  40
ATOM     40  C   UNL     1      -2.244 -14.529  11.235  1.00  0.00     0.031 A 
ATOM     41  C   UNL     1      -1.943 -15.986  11.016  1.00  0.00     0.074 A 
ATOM     42  C   UNL     1      -3.517 -14.089  11.221  1.00  0.00     0.049 A 
ATOM     43  N   UNL     1      -2.767 -16.975  10.777  1.00  0.00    -0.248 NA
ATOM     44  C   UNL     1      -0.525 -16.380  11.038  1.00  0.00     0.031 C 
ATOM     45  C   UNL     1      -3.931 -12.693  11.374  1.00  0.00     0.029 A 
ATOM     46  N   UNL     1      -4.697 -14.769  11.059  1.00  0.00    -0.354 N 
ATOM     47  C   UNL     1      -1.968 -18.098  10.604  1.00  0.00     0.074 A 
ATOM     48  C   UNL     1      -0.593 -17.660  10.705  1.00  0.00     0.031 C 
ATOM     49  C   UNL     1      -5.270 -12.623  11.323  1.00  0.00     0.029 A 
ATOM     50  C   UNL     1      -5.807 -13.960  11.089  1.00  0.00     0.049 A 
ATOM     51  H   UNL     1      -4.745 -15.744  10.933  1.00  0.00     0.167 HD
ATOM     52  C   UNL     1      -2.348 -19.382  10.404  1.00  0.00     0.037 A 
ATOM     53  C   UNL     1      -7.110 -14.262  10.933  1.00  0.00     0.037 A 
ATOM     54  C   UNL     1      -3.719 -19.814  10.329  1.00  0.00     0.049 A 
ATOM     55  C   UNL     1      -7.505 -15.696  10.701  1.00  0.00     0.074 A 
ATOM     56  C   UNL     1      -4.211 -21.100  10.191  1.00  0.00     0.029 A 
ATOM     57  N   UNL     1      -4.817 -18.968  10.381  1.00  0.00    -0.354 N 
ATOM     58  N   UNL     1      -6.744 -16.761  10.611  1.00  0.00    -0.248 NA
ATOM     59  C   UNL     1      -8.940 -15.971  10.556  1.00  0.00     0.031 C 
ATOM     60  C   UNL     1      -5.605 -21.026  10.104  1.00  0.00     0.029 A 
ATOM     61  C   UNL     1      -5.985 -19.701  10.251  1.00  0.00     0.049 A 
ATOM     62  H   UNL     1      -4.772 -17.991  10.494  1.00  0.00     0.167 HD
ATOM     63  C   UNL     1      -7.608 -17.833  10.431  1.00  0.00     0.074 A 
ATOM     64  C   UNL     1      -8.951 -17.291  10.440  1.00  0.00     0.031 C 
ATOM     65  C   UNL     1      -7.315 -19.147  10.272  1.00  0.00     0.037 A 
BRANCH  52  66
ATOM     66  C   UNL     1      -1.265 -20.413  10.254  1.00  0.00     0.064 A 
ATOM     67  C   UNL     1      -0.438 -20.777  11.328  1.00  0.00     0.173 A 
ATOM     68  C   UNL     1      -1.075 -21.073   9.030  1.00  0.00     0.173 A 
ATOM     69  F   UNL     1      -0.568 -20.170  12.517  1.00  0.00    -0.203 F 
ATOM     70  C   UNL     1       0.559 -21.737  11.173  1.00  0.00     0.198 A 
ATOM     71  C   UNL     1      -0.101 -22.057   8.888  1.00  0.00     0.198 A 
ATOM     72  F   UNL     1      -1.841 -20.769   7.971  1.00  0.00    -0.203 F 
ATOM     73  F   UNL     1       1.372 -22.027  12.198  1.00  0.00    -0.200 F 
ATOM     74  C   UNL     1       0.722 -22.382   9.957  1.00  0.00     0.200 A 
ATOM     75  F   UNL     1       0.045 -22.690   7.716  1.00  0.00    -0.200 F 
ATOM     76  F   UNL     1       1.675 -23.312   9.812  1.00  0.00    -0.200 F 
ENDBRANCH  52  66
BRANCH  53  77
ATOM     77  C   UNL     1      -8.137 -13.191  11.012  1.00  0.00     0.064 A 
ATOM     78  C   UNL     1      -9.046 -13.141  12.079  1.00  0.00     0.173 A 
ATOM     79  C   UNL     1      -8.238 -12.199  10.025  1.00  0.00     0.173 A 
ATOM     80  F   UNL     1      -9.002 -14.077  13.039  1.00  0.00    -0.203 F 
ATOM     81  C   UNL     1     -10.030 -12.158  12.143  1.00  0.00     0.198 A 
ATOM     82  C   UNL     1      -9.202 -11.197  10.106  1.00  0.00     0.198 A 
ATOM     83  F   UNL     1      -7.388 -12.195   8.987  1.00  0.00    -0.203 F 
ATOM     84  F   UNL     1     -10.917 -12.165  13.147  1.00  0.00    -0.200 F 
ATOM     85  C   UNL     1     -10.104 -11.183  11.159  1.00  0.00     0.200 A 
ATOM     86  F   UNL     1      -9.259 -10.247   9.164  1.00  0.00    -0.200 F 
ATOM     87  F   UNL     1     -11.049 -10.235  11.223  1.00  0.00    -0.200 F 
ENDBRANCH  53  77
BRANCH  65  88
ATOM     88  C   UNL     1      -8.470 -20.098  10.137  1.00  0.00     0.064 A 
ATOM     89  C   UNL     1      -9.271 -20.130   8.986  1.00  0.00     0.173 A 
ATOM     90  C   UNL     1      -8.751 -21.019  11.158  1.00  0.00     0.173 A 
ATOM     91  F   UNL     1      -9.053 -19.261   7.987  1.00  0.00    -0.203 F 
ATOM     92  C   UNL     1     -10.329 -21.029   8.876  1.00  0.00     0.198 A 
ATOM     93  C   UNL     1      -9.787 -21.939  11.030  1.00  0.00     0.198 A 
ATOM     94  F   UNL     1      -8.010 -21.036  12.277  1.00  0.00    -0.203 F 
ATOM     95  F   UNL     1     -11.114 -21.006   7.790  1.00  0.00    -0.200 F 
ATOM     96  C   UNL     1     -10.580 -21.938   9.893  1.00  0.00     0.200 A 
ATOM     97  F   UNL     1     -10.017 -22.827  12.006  1.00  0.00    -0.200 F 
ATOM     98  F   UNL     1     -11.593 -22.808   9.780  1.00  0.00    -0.200 F 
ENDBRANCH  65  88
ENDBRANCH  39  40
ENDBRANCH  31  34
ENDBRANCH  29  30
ENDBRANCH  28  29
ENDBRANCH   1  28
TORSDOF 14
