REMARK SMILES CN(/C=C\C(=O)NCCCNC(=O)c1ccc(-c2c3nc(c(-c4c(F)c(F)c(F)c(F)c4F)c4ccc([nH]4)c(-c4c(F)c(F)c(F)c(F)c4F)c4nc(c(-c5c(F)c(F)c(F)c(F)c5F)c5ccc2[nH]5)C=C4)C=C3)cc1)C[C@@H]1CCCO1
REMARK SMILES IDX 8 1 7 2 5 3 6 4 4 6 3 7 2 8 1 9 77 10 78 11 79 12 82 13
REMARK SMILES IDX 80 14 81 15 9 16 10 17 11 18 12 19 13 21 14 22 15 23 76 24
REMARK SMILES IDX 16 25 75 26 17 27 18 28 19 29 69 30 20 31 74 32 68 33 70 34
REMARK SMILES IDX 21 35 73 36 67 37 66 38 22 40 54 41 34 42 53 43 35 44 38 45
REMARK SMILES IDX 52 46 71 47 36 48 37 49 51 51 72 52 39 53 23 54 24 55 32 56
REMARK SMILES IDX 25 57 26 58 30 59 33 60 27 61 28 62 31 63 29 64 55 65 56 66
REMARK SMILES IDX 64 67 57 68 58 69 62 70 65 71 59 72 60 73 63 74 61 75 40 76
REMARK SMILES IDX 41 77 49 78 42 79 43 80 47 81 50 82 44 83 45 84 48 85 46 86
REMARK H PARENT 7 5 11 20 70 39 38 50
REMARK Flexibility Score: inf
ROOT
ATOM      1  C   UNL     1       1.896  -2.252   1.429  1.00  0.00     0.118 C 
ENDROOT
BRANCH   1   2
ATOM      2  N   UNL     1       1.163  -3.009   2.431  1.00  0.00    -0.352 N 
ATOM      3  C   UNL     1       0.105  -2.603   3.187  1.00  0.00     0.245 C 
ATOM      4  O   UNL     1      -0.422  -3.387   3.972  1.00  0.00    -0.270 OA
ATOM      5  H   UNL     1       1.470  -3.932   2.582  1.00  0.00     0.163 HD
BRANCH   3   6
ATOM      6  C   UNL     1      -0.321  -1.192   3.148  1.00  0.00     0.088 C 
ATOM      7  C   UNL     1      -0.633  -0.461   2.070  1.00  0.00     0.086 C 
BRANCH   7   8
ATOM      8  N   UNL     1      -0.756  -0.777   0.722  1.00  0.00    -0.378 N 
ATOM      9  C   UNL     1      -0.431   0.228  -0.294  1.00  0.00     0.143 C 
BRANCH   8  10
ATOM     10  C   UNL     1      -1.505  -1.975   0.276  1.00  0.00     0.147 C 
BRANCH  10  11
ATOM     11  C   UNL     1      -1.137  -2.617  -1.083  1.00  0.00     0.137 C 
ATOM     12  C   UNL     1      -0.876  -4.112  -0.987  1.00  0.00     0.036 C 
ATOM     13  O   UNL     1       0.037  -2.110  -1.738  1.00  0.00    -0.376 OA
ATOM     14  C   UNL     1      -0.237  -4.402  -2.324  1.00  0.00     0.031 C 
ATOM     15  C   UNL     1       0.496  -3.115  -2.656  1.00  0.00     0.160 C 
ENDBRANCH  10  11
ENDBRANCH   8  10
ENDBRANCH   7   8
ENDBRANCH   3   6
ENDBRANCH   1   2
BRANCH   1  16
ATOM     16  C   UNL     1       3.347  -2.673   1.286  1.00  0.00     0.042 C 
BRANCH  16  17
ATOM     17  C   UNL     1       3.546  -4.148   0.977  1.00  0.00     0.118 C 
BRANCH  17  18
ATOM     18  N   UNL     1       3.008  -4.577  -0.310  1.00  0.00    -0.352 N 
ATOM     19  C   UNL     1       3.645  -4.968  -1.468  1.00  0.00     0.251 C 
ATOM     20  H   UNL     1       2.025  -4.590  -0.359  1.00  0.00     0.163 HD
ATOM     21  O   UNL     1       3.015  -5.267  -2.472  1.00  0.00    -0.269 OA
BRANCH  19  22
ATOM     22  C   UNL     1       5.115  -4.974  -1.511  1.00  0.00     0.039 A 
ATOM     23  C   UNL     1       5.770  -4.317  -2.556  1.00  0.00     0.014 A 
ATOM     24  C   UNL     1       5.835  -5.572  -0.482  1.00  0.00     0.014 A 
ATOM     25  C   UNL     1       7.154  -4.162  -2.502  1.00  0.00     0.010 A 
ATOM     26  C   UNL     1       7.184  -5.299  -0.360  1.00  0.00     0.010 A 
ATOM     27  C   UNL     1       7.860  -4.597  -1.372  1.00  0.00    -0.014 A 
BRANCH  27  28
ATOM     28  C   UNL     1       9.315  -4.376  -1.206  1.00  0.00     0.031 A 
ATOM     29  C   UNL     1      10.204  -5.568  -0.992  1.00  0.00     0.074 A 
ATOM     30  C   UNL     1       9.801  -3.124  -1.107  1.00  0.00     0.049 A 
ATOM     31  N   UNL     1      11.440  -5.620  -0.571  1.00  0.00    -0.248 NA
ATOM     32  C   UNL     1       9.589  -6.889  -1.214  1.00  0.00     0.031 C 
ATOM     33  C   UNL     1       9.018  -1.893  -1.237  1.00  0.00     0.029 A 
ATOM     34  N   UNL     1      11.072  -2.681  -0.847  1.00  0.00    -0.354 N 
ATOM     35  C   UNL     1      11.723  -6.971  -0.417  1.00  0.00     0.074 A 
ATOM     36  C   UNL     1      10.517  -7.701  -0.734  1.00  0.00     0.031 C 
ATOM     37  C   UNL     1       9.831  -0.836  -1.084  1.00  0.00     0.029 A 
ATOM     38  C   UNL     1      11.178  -1.313  -0.795  1.00  0.00     0.049 A 
ATOM     39  H   UNL     1      11.836  -3.287  -0.710  1.00  0.00     0.167 HD
ATOM     40  C   UNL     1      12.896  -7.548  -0.066  1.00  0.00     0.037 A 
ATOM     41  C   UNL     1      12.247  -0.538  -0.532  1.00  0.00     0.037 A 
ATOM     42  C   UNL     1      14.105  -6.807   0.164  1.00  0.00     0.049 A 
ATOM     43  C   UNL     1      13.561  -1.204  -0.228  1.00  0.00     0.074 A 
ATOM     44  C   UNL     1      15.374  -7.282   0.438  1.00  0.00     0.029 A 
ATOM     45  N   UNL     1      14.194  -5.422   0.120  1.00  0.00    -0.354 N 
ATOM     46  N   UNL     1      13.834  -2.483  -0.122  1.00  0.00    -0.248 NA
ATOM     47  C   UNL     1      14.716  -0.323  -0.009  1.00  0.00     0.031 C 
ATOM     48  C   UNL     1      16.227  -6.183   0.580  1.00  0.00     0.029 A 
ATOM     49  C   UNL     1      15.497  -5.025   0.359  1.00  0.00     0.049 A 
ATOM     50  H   UNL     1      13.440  -4.813  -0.056  1.00  0.00     0.167 HD
ATOM     51  C   UNL     1      15.191  -2.563   0.151  1.00  0.00     0.074 A 
ATOM     52  C   UNL     1      15.690  -1.202   0.180  1.00  0.00     0.031 C 
ATOM     53  C   UNL     1      15.959  -3.660   0.364  1.00  0.00     0.037 A 
BRANCH  40  54
ATOM     54  C   UNL     1      12.917  -9.043   0.072  1.00  0.00     0.064 A 
ATOM     55  C   UNL     1      12.758  -9.890  -1.037  1.00  0.00     0.173 A 
ATOM     56  C   UNL     1      13.087  -9.640   1.330  1.00  0.00     0.173 A 
ATOM     57  F   UNL     1      12.575  -9.372  -2.261  1.00  0.00    -0.203 F 
ATOM     58  C   UNL     1      12.723 -11.274  -0.885  1.00  0.00     0.198 A 
ATOM     59  C   UNL     1      13.087 -11.026   1.473  1.00  0.00     0.198 A 
ATOM     60  F   UNL     1      13.246  -8.880   2.424  1.00  0.00    -0.203 F 
ATOM     61  F   UNL     1      12.498 -12.056  -1.950  1.00  0.00    -0.200 F 
ATOM     62  C   UNL     1      12.893 -11.841   0.368  1.00  0.00     0.200 A 
ATOM     63  F   UNL     1      13.262 -11.573   2.684  1.00  0.00    -0.200 F 
ATOM     64  F   UNL     1      12.856 -13.172   0.513  1.00  0.00    -0.200 F 
ENDBRANCH  40  54
BRANCH  41  65
ATOM     65  C   UNL     1      12.126   0.942  -0.590  1.00  0.00     0.064 A 
ATOM     66  C   UNL     1      12.712   1.663  -1.640  1.00  0.00     0.173 A 
ATOM     67  C   UNL     1      11.414   1.663   0.378  1.00  0.00     0.173 A 
ATOM     68  F   UNL     1      13.417   1.019  -2.582  1.00  0.00    -0.203 F 
ATOM     69  C   UNL     1      12.606   3.050  -1.710  1.00  0.00     0.198 A 
ATOM     70  C   UNL     1      11.287   3.049   0.294  1.00  0.00     0.198 A 
ATOM     71  F   UNL     1      10.826   1.021   1.398  1.00  0.00    -0.203 F 
ATOM     72  F   UNL     1      13.207   3.717  -2.705  1.00  0.00    -0.200 F 
ATOM     73  C   UNL     1      11.888   3.742  -0.747  1.00  0.00     0.200 A 
ATOM     74  F   UNL     1      10.580   3.713   1.218  1.00  0.00    -0.200 F 
ATOM     75  F   UNL     1      11.780   5.076  -0.818  1.00  0.00    -0.200 F 
ENDBRANCH  41  65
BRANCH  53  76
ATOM     76  C   UNL     1      17.419  -3.432   0.610  1.00  0.00     0.064 A 
ATOM     77  C   UNL     1      17.885  -2.936   1.835  1.00  0.00     0.173 A 
ATOM     78  C   UNL     1      18.362  -3.766  -0.373  1.00  0.00     0.173 A 
ATOM     79  F   UNL     1      17.018  -2.589   2.798  1.00  0.00    -0.203 F 
ATOM     80  C   UNL     1      19.247  -2.764   2.061  1.00  0.00     0.198 A 
ATOM     81  C   UNL     1      19.724  -3.618  -0.134  1.00  0.00     0.198 A 
ATOM     82  F   UNL     1      17.961  -4.250  -1.558  1.00  0.00    -0.203 F 
ATOM     83  F   UNL     1      19.672  -2.253   3.225  1.00  0.00    -0.200 F 
ATOM     84  C   UNL     1      20.165  -3.113   1.080  1.00  0.00     0.200 A 
ATOM     85  F   UNL     1      20.610  -3.966  -1.077  1.00  0.00    -0.200 F 
ATOM     86  F   UNL     1      21.477  -2.956   1.304  1.00  0.00    -0.200 F 
ENDBRANCH  53  76
ENDBRANCH  27  28
ENDBRANCH  19  22
ENDBRANCH  17  18
ENDBRANCH  16  17
ENDBRANCH   1  16
TORSDOF 13
