REMARK SMILES O=C(C[C@@H]1CSCC[NH2+]1)NC[C@@H](C(=O)NCCCNC(=O)c1ccc(-c2c3nc(c(-c4c(F)c(F)c(F)c(F)c4F)c4ccc([nH]4)c(-c4c(F)c(F)c(F)c(F)c4F)c4nc(c(-c5c(F)c(F)c(F)c(F)c5F)c5ccc2[nH]5)C=C4)C=C3)cc1)c1ccccc1
REMARK SMILES IDX 16 1 15 2 13 3 14 4 12 6 11 7 10 8 1 9 2 10 3 12 4 13 5 14
REMARK SMILES IDX 9 15 6 16 8 17 7 20 85 21 86 22 90 23 87 24 89 25 88 26
REMARK SMILES IDX 17 27 18 28 19 29 20 30 21 32 22 33 23 34 84 35 24 36 83 37
REMARK SMILES IDX 25 38 26 39 27 40 77 41 28 42 82 43 76 44 78 45 29 46 81 47
REMARK SMILES IDX 75 48 74 49 30 51 62 52 42 53 61 54 43 55 46 56 60 57 79 58
REMARK SMILES IDX 44 59 45 60 59 62 80 63 47 64 31 65 32 66 40 67 33 68 34 69
REMARK SMILES IDX 38 70 41 71 35 72 36 73 39 74 37 75 63 76 64 77 72 78 65 79
REMARK SMILES IDX 66 80 70 81 73 82 67 83 68 84 71 85 69 86 48 87 49 88 57 89
REMARK SMILES IDX 50 90 51 91 55 92 58 93 52 94 53 95 56 96 54 97
REMARK H PARENT 15 5 10 11 9 18 9 19 19 31 78 50 46 61
REMARK Flexibility Score: inf
ROOT
ATOM      1  C   UNL     1       5.126  -0.467   2.598  1.00  0.00     0.117 C 
ENDROOT
BRANCH   1   2
ATOM      2  N   UNL     1       5.110   0.724   3.416  1.00  0.00    -0.355 N 
ATOM      3  C   UNL     1       4.203   1.747   3.341  1.00  0.00     0.229 C 
ATOM      4  O   UNL     1       4.654   2.883   3.511  1.00  0.00    -0.274 OA
ATOM      5  H   UNL     1       5.820   0.807   4.094  1.00  0.00     0.163 HD
BRANCH   3   6
ATOM      6  C   UNL     1       2.702   1.462   3.092  1.00  0.00     0.127 C 
BRANCH   6   7
ATOM      7  C   UNL     1       2.244   1.891   1.674  1.00  0.00     0.134 C 
BRANCH   7   8
ATOM      8  N   UNL     1       2.739   1.057   0.571  1.00  0.00    -0.355 N 
ATOM      9  O   UNL     1       0.843  -0.177   0.281  1.00  0.00    -0.275 OA
ATOM     10  C   UNL     1       2.007   0.060  -0.034  1.00  0.00     0.226 C 
ATOM     11  H   UNL     1       3.653   1.221   0.243  1.00  0.00     0.163 HD
BRANCH  10  12
ATOM     12  C   UNL     1       2.765  -0.874  -0.986  1.00  0.00     0.165 C 
BRANCH  12  13
ATOM     13  C   UNL     1       3.687  -0.250  -2.063  1.00  0.00     0.201 C 
ATOM     14  C   UNL     1       2.994  -0.068  -3.434  1.00  0.00     0.135 C 
ATOM     15  N   UNL     1       4.971  -0.976  -2.239  1.00  0.00    -0.342 N 
ATOM     16  S   UNL     1       2.654  -1.622  -4.341  1.00  0.00    -0.150 SA
ATOM     17  C   UNL     1       4.800  -2.349  -2.731  1.00  0.00     0.271 C 
ATOM     18  H   UNL     1       5.448  -1.012  -1.338  1.00  0.00     0.346 HD
ATOM     19  H   UNL     1       5.510  -0.469  -2.941  1.00  0.00     0.346 HD
ATOM     20  C   UNL     1       4.291  -2.403  -4.168  1.00  0.00     0.131 C 
ENDBRANCH  12  13
ENDBRANCH  10  12
ENDBRANCH   7   8
ENDBRANCH   6   7
BRANCH   6  21
ATOM     21  C   UNL     1       1.903   2.203   4.180  1.00  0.00    -0.034 A 
ATOM     22  C   UNL     1       1.868   3.610   4.221  1.00  0.00     0.004 A 
ATOM     23  C   UNL     1       1.280   1.495   5.220  1.00  0.00     0.004 A 
ATOM     24  C   UNL     1       1.260   4.287   5.279  1.00  0.00     0.000 A 
ATOM     25  C   UNL     1       0.662   2.178   6.274  1.00  0.00     0.000 A 
ATOM     26  C   UNL     1       0.659   3.571   6.308  1.00  0.00     0.000 A 
ENDBRANCH   6  21
ENDBRANCH   3   6
ENDBRANCH   1   2
BRANCH   1  27
ATOM     27  C   UNL     1       5.647  -0.116   1.209  1.00  0.00     0.042 C 
BRANCH  27  28
ATOM     28  C   UNL     1       7.157  -0.043   1.042  1.00  0.00     0.118 C 
BRANCH  28  29
ATOM     29  N   UNL     1       7.744  -1.348   0.799  1.00  0.00    -0.352 N 
ATOM     30  C   UNL     1       8.336  -1.905  -0.312  1.00  0.00     0.251 C 
ATOM     31  H   UNL     1       7.715  -1.949   1.579  1.00  0.00     0.163 HD
ATOM     32  O   UNL     1       8.596  -3.103  -0.284  1.00  0.00    -0.269 OA
BRANCH  30  33
ATOM     33  C   UNL     1       8.626  -1.132  -1.552  1.00  0.00     0.039 A 
ATOM     34  C   UNL     1       8.563  -1.812  -2.778  1.00  0.00     0.014 A 
ATOM     35  C   UNL     1       9.009   0.209  -1.548  1.00  0.00     0.014 A 
ATOM     36  C   UNL     1       8.793  -1.139  -3.984  1.00  0.00     0.010 A 
ATOM     37  C   UNL     1       9.170   0.900  -2.752  1.00  0.00     0.010 A 
ATOM     38  C   UNL     1       9.060   0.235  -3.983  1.00  0.00    -0.014 A 
BRANCH  38  39
ATOM     39  C   UNL     1       9.257   0.997  -5.245  1.00  0.00     0.031 A 
ATOM     40  C   UNL     1      10.592   1.620  -5.545  1.00  0.00     0.074 A 
ATOM     41  C   UNL     1       8.222   1.195  -6.085  1.00  0.00     0.049 A 
ATOM     42  N   UNL     1      10.927   2.453  -6.498  1.00  0.00    -0.248 NA
ATOM     43  C   UNL     1      11.694   1.279  -4.631  1.00  0.00     0.031 C 
ATOM     44  C   UNL     1       6.874   0.657  -5.905  1.00  0.00     0.029 A 
ATOM     45  N   UNL     1       8.138   1.924  -7.247  1.00  0.00    -0.354 N 
ATOM     46  C   UNL     1      12.264   2.758  -6.282  1.00  0.00     0.074 A 
ATOM     47  C   UNL     1      12.672   2.047  -5.089  1.00  0.00     0.031 C 
ATOM     48  C   UNL     1       6.098   1.065  -6.923  1.00  0.00     0.029 A 
ATOM     49  C   UNL     1       6.879   1.937  -7.798  1.00  0.00     0.049 A 
ATOM     50  H   UNL     1       8.906   2.392  -7.646  1.00  0.00     0.167 HD
ATOM     51  C   UNL     1      13.080   3.551  -7.016  1.00  0.00     0.037 A 
ATOM     52  C   UNL     1       6.403   2.599  -8.871  1.00  0.00     0.037 A 
ATOM     53  C   UNL     1      12.681   4.233  -8.220  1.00  0.00     0.049 A 
ATOM     54  C   UNL     1       7.325   3.491  -9.660  1.00  0.00     0.074 A 
ATOM     55  C   UNL     1      13.448   5.024  -9.058  1.00  0.00     0.029 A 
ATOM     56  N   UNL     1      11.403   4.202  -8.758  1.00  0.00    -0.354 N 
ATOM     57  N   UNL     1       8.595   3.749  -9.464  1.00  0.00    -0.248 NA
ATOM     58  C   UNL     1       6.746   4.190 -10.818  1.00  0.00     0.031 C 
ATOM     59  C   UNL     1      12.625   5.504 -10.081  1.00  0.00     0.029 A 
ATOM     60  C   UNL     1      11.357   4.973  -9.908  1.00  0.00     0.049 A 
ATOM     61  H   UNL     1      10.643   3.705  -8.379  1.00  0.00     0.167 HD
ATOM     62  C   UNL     1       8.975   4.607 -10.488  1.00  0.00     0.074 A 
ATOM     63  C   UNL     1       7.801   4.827 -11.307  1.00  0.00     0.031 C 
ATOM     64  C   UNL     1      10.188   5.160 -10.728  1.00  0.00     0.037 A 
BRANCH  51  65
ATOM     65  C   UNL     1      14.489   3.735  -6.534  1.00  0.00     0.064 A 
ATOM     66  C   UNL     1      15.433   2.699  -6.604  1.00  0.00     0.173 A 
ATOM     67  C   UNL     1      14.911   4.974  -6.029  1.00  0.00     0.173 A 
ATOM     68  F   UNL     1      15.077   1.492  -7.068  1.00  0.00    -0.203 F 
ATOM     69  C   UNL     1      16.738   2.889  -6.158  1.00  0.00     0.198 A 
ATOM     70  C   UNL     1      16.225   5.169  -5.612  1.00  0.00     0.198 A 
ATOM     71  F   UNL     1      14.050   6.000  -5.947  1.00  0.00    -0.203 F 
ATOM     72  F   UNL     1      17.609   1.871  -6.188  1.00  0.00    -0.200 F 
ATOM     73  C   UNL     1      17.135   4.125  -5.669  1.00  0.00     0.200 A 
ATOM     74  F   UNL     1      16.610   6.367  -5.151  1.00  0.00    -0.200 F 
ATOM     75  F   UNL     1      18.393   4.307  -5.245  1.00  0.00    -0.200 F 
ENDBRANCH  51  65
BRANCH  52  76
ATOM     76  C   UNL     1       4.978   2.445  -9.265  1.00  0.00     0.064 A 
ATOM     77  C   UNL     1       4.627   1.768 -10.442  1.00  0.00     0.173 A 
ATOM     78  C   UNL     1       3.941   2.976  -8.484  1.00  0.00     0.173 A 
ATOM     79  F   UNL     1       5.584   1.266 -11.235  1.00  0.00    -0.203 F 
ATOM     80  C   UNL     1       3.294   1.645 -10.831  1.00  0.00     0.198 A 
ATOM     81  C   UNL     1       2.607   2.828  -8.861  1.00  0.00     0.198 A 
ATOM     82  F   UNL     1       4.223   3.633  -7.349  1.00  0.00    -0.203 F 
ATOM     83  F   UNL     1       2.990   1.034 -11.985  1.00  0.00    -0.200 F 
ATOM     84  C   UNL     1       2.285   2.169 -10.038  1.00  0.00     0.200 A 
ATOM     85  F   UNL     1       1.635   3.329  -8.086  1.00  0.00    -0.200 F 
ATOM     86  F   UNL     1       1.005   2.051 -10.413  1.00  0.00    -0.200 F 
ENDBRANCH  52  76
BRANCH  64  87
ATOM     87  C   UNL     1      10.335   6.014 -11.953  1.00  0.00     0.064 A 
ATOM     88  C   UNL     1       9.811   7.312 -12.015  1.00  0.00     0.173 A 
ATOM     89  C   UNL     1      11.079   5.550 -13.049  1.00  0.00     0.173 A 
ATOM     90  F   UNL     1       9.081   7.795 -10.999  1.00  0.00    -0.203 F 
ATOM     91  C   UNL     1      10.017   8.112 -13.136  1.00  0.00     0.198 A 
ATOM     92  C   UNL     1      11.305   6.362 -14.157  1.00  0.00     0.198 A 
ATOM     93  F   UNL     1      11.608   4.317 -13.034  1.00  0.00    -0.203 F 
ATOM     94  F   UNL     1       9.483   9.340 -13.188  1.00  0.00    -0.200 F 
ATOM     95  C   UNL     1      10.772   7.641 -14.201  1.00  0.00     0.200 A 
ATOM     96  F   UNL     1      12.046   5.909 -15.178  1.00  0.00    -0.200 F 
ATOM     97  F   UNL     1      10.984   8.419 -15.271  1.00  0.00    -0.200 F 
ENDBRANCH  64  87
ENDBRANCH  38  39
ENDBRANCH  30  33
ENDBRANCH  28  29
ENDBRANCH  27  28
ENDBRANCH   1  27
TORSDOF 15
