REMARK SMILES CC(C)[NH2+][C@]1(C(=O)NCCCNC(=O)c2ccc(-c3c4nc(c(-c5c(F)c(F)c(F)c(F)c5F)c5ccc([nH]5)c(-c5c(F)c(F)c(F)c(F)c5F)c5nc(c(-c6c(F)c(F)c(F)c(F)c6F)c6ccc3[nH]6)C=C5)C=C4)cc2)CC[C@H]([N@H+](C)C2CCCC2)C1
REMARK SMILES IDX 10 1 9 2 8 3 6 4 7 5 5 7 78 8 88 9 79 10 80 11 4 12 2 15
REMARK SMILES IDX 1 16 3 17 81 18 82 19 83 21 84 22 87 23 85 24 86 25 11 26
REMARK SMILES IDX 12 27 13 28 14 30 15 31 16 32 77 33 17 34 76 35 18 36 19 37
REMARK SMILES IDX 20 38 70 39 21 40 75 41 69 42 71 43 22 44 74 45 68 46 67 47
REMARK SMILES IDX 23 49 55 50 35 51 54 52 36 53 39 54 53 55 72 56 37 57 38 58
REMARK SMILES IDX 52 60 73 61 40 62 24 63 25 64 33 65 26 66 27 67 31 68 34 69
REMARK SMILES IDX 28 70 29 71 32 72 30 73 56 74 57 75 65 76 58 77 59 78 63 79
REMARK SMILES IDX 66 80 60 81 61 82 64 83 62 84 41 85 42 86 50 87 43 88 44 89
REMARK SMILES IDX 48 90 51 91 45 92 46 93 49 94 47 95
REMARK H PARENT 8 6 4 13 4 14 81 20 12 29 71 48 39 59
REMARK Flexibility Score: inf
ROOT
ATOM      1  C   UNL     1      -0.689   0.764  -3.779  1.00  0.00     0.042 C 
ENDROOT
BRANCH   1   2
ATOM      2  C   UNL     1       0.185  -0.350  -3.213  1.00  0.00     0.118 C 
BRANCH   2   3
ATOM      3  N   UNL     1       0.157  -0.492  -1.761  1.00  0.00    -0.351 N 
ATOM      4  C   UNL     1      -0.295  -1.448  -0.898  1.00  0.00     0.281 C 
ATOM      5  O   UNL     1       0.021  -1.275   0.287  1.00  0.00    -0.268 OA
ATOM      6  H   UNL     1       0.556   0.279  -1.297  1.00  0.00     0.163 HD
BRANCH   4   7
ATOM      7  C   UNL     1      -1.234  -2.624  -1.303  1.00  0.00     0.181 C 
ATOM      8  C   UNL     1      -0.875  -3.306  -2.639  1.00  0.00     0.085 C 
ATOM      9  C   UNL     1      -1.001  -3.801  -0.309  1.00  0.00     0.144 C 
ATOM     10  C   UNL     1      -0.830  -4.825  -2.446  1.00  0.00     0.072 C 
ATOM     11  C   UNL     1      -1.360  -5.108  -1.042  1.00  0.00     0.191 C 
BRANCH   7  12
ATOM     12  N   UNL     1      -2.675  -2.274  -1.191  1.00  0.00    -0.331 N 
ATOM     13  H   UNL     1      -3.165  -2.839  -1.885  1.00  0.00     0.347 HD
ATOM     14  H   UNL     1      -2.871  -2.444  -0.204  1.00  0.00     0.347 HD
BRANCH  12  15
ATOM     15  C   UNL     1      -3.131  -0.903  -1.376  1.00  0.00     0.176 C 
ATOM     16  C   UNL     1      -4.563  -0.974  -1.918  1.00  0.00     0.075 C 
ATOM     17  C   UNL     1      -3.142  -0.096  -0.074  1.00  0.00     0.075 C 
ENDBRANCH  12  15
ENDBRANCH   7  12
BRANCH  11  18
ATOM     18  N   UNL     1      -2.731  -5.652  -0.993  1.00  0.00    -0.332 N 
ATOM     19  C   UNL     1      -3.737  -5.047  -1.860  1.00  0.00     0.333 C 
ATOM     20  H   UNL     1      -2.581  -6.563  -1.427  1.00  0.00     0.348 HD
BRANCH  18  21
ATOM     21  C   UNL     1      -3.234  -5.881   0.368  1.00  0.00     0.184 C 
ATOM     22  C   UNL     1      -4.611  -6.555   0.453  1.00  0.00     0.065 C 
ATOM     23  C   UNL     1      -2.380  -6.854   1.191  1.00  0.00     0.065 C 
ATOM     24  C   UNL     1      -4.710  -6.965   1.915  1.00  0.00     0.006 C 
ATOM     25  C   UNL     1      -3.284  -7.311   2.335  1.00  0.00     0.006 C 
ENDBRANCH  18  21
ENDBRANCH  11  18
ENDBRANCH   4   7
ENDBRANCH   2   3
ENDBRANCH   1   2
BRANCH   1  26
ATOM     26  C   UNL     1      -0.518   2.110  -3.096  1.00  0.00     0.118 C 
BRANCH  26  27
ATOM     27  N   UNL     1       0.764   2.715  -3.416  1.00  0.00    -0.352 N 
ATOM     28  C   UNL     1       1.062   3.737  -4.279  1.00  0.00     0.251 C 
ATOM     29  H   UNL     1       1.537   2.333  -2.941  1.00  0.00     0.163 HD
ATOM     30  O   UNL     1       2.235   3.913  -4.622  1.00  0.00    -0.269 OA
BRANCH  28  31
ATOM     31  C   UNL     1       0.010   4.636  -4.803  1.00  0.00     0.039 A 
ATOM     32  C   UNL     1       0.127   5.124  -6.109  1.00  0.00     0.014 A 
ATOM     33  C   UNL     1      -1.039   5.078  -3.992  1.00  0.00     0.014 A 
ATOM     34  C   UNL     1      -0.810   6.037  -6.602  1.00  0.00     0.010 A 
ATOM     35  C   UNL     1      -2.023   5.915  -4.513  1.00  0.00     0.010 A 
ATOM     36  C   UNL     1      -1.897   6.436  -5.808  1.00  0.00    -0.014 A 
BRANCH  36  37
ATOM     37  C   UNL     1      -2.854   7.472  -6.274  1.00  0.00     0.031 A 
ATOM     38  C   UNL     1      -2.929   8.793  -5.552  1.00  0.00     0.074 A 
ATOM     39  C   UNL     1      -3.678   7.221  -7.308  1.00  0.00     0.049 A 
ATOM     40  N   UNL     1      -3.741   9.801  -5.745  1.00  0.00    -0.248 NA
ATOM     41  C   UNL     1      -1.985   8.992  -4.440  1.00  0.00     0.031 C 
ATOM     42  C   UNL     1      -3.733   5.970  -8.063  1.00  0.00     0.029 A 
ATOM     43  N   UNL     1      -4.635   8.009  -7.897  1.00  0.00    -0.354 N 
ATOM     44  C   UNL     1      -3.427  10.733  -4.763  1.00  0.00     0.074 A 
ATOM     45  C   UNL     1      -2.387  10.151  -3.944  1.00  0.00     0.031 C 
ATOM     46  C   UNL     1      -4.657   6.082  -9.031  1.00  0.00     0.029 A 
ATOM     47  C   UNL     1      -5.277   7.402  -8.948  1.00  0.00     0.049 A 
ATOM     48  H   UNL     1      -4.842   8.923  -7.595  1.00  0.00     0.167 HD
ATOM     49  C   UNL     1      -3.938  11.973  -4.575  1.00  0.00     0.037 A 
ATOM     50  C   UNL     1      -6.252   7.864  -9.754  1.00  0.00     0.037 A 
ATOM     51  C   UNL     1      -4.933  12.572  -5.423  1.00  0.00     0.049 A 
ATOM     52  C   UNL     1      -6.769   9.264  -9.557  1.00  0.00     0.074 A 
ATOM     53  C   UNL     1      -5.482  13.840  -5.350  1.00  0.00     0.029 A 
ATOM     54  N   UNL     1      -5.518  11.944  -6.513  1.00  0.00    -0.354 N 
ATOM     55  N   UNL     1      -6.431  10.152  -8.654  1.00  0.00    -0.248 NA
ATOM     56  C   UNL     1      -7.793   9.730 -10.502  1.00  0.00     0.031 C 
ATOM     57  C   UNL     1      -6.417  13.971  -6.383  1.00  0.00     0.029 A 
ATOM     58  C   UNL     1      -6.421  12.799  -7.121  1.00  0.00     0.049 A 
ATOM     59  H   UNL     1      -5.319  11.026  -6.809  1.00  0.00     0.167 HD
ATOM     60  C   UNL     1      -7.172  11.290  -8.942  1.00  0.00     0.074 A 
ATOM     61  C   UNL     1      -7.972  10.983 -10.109  1.00  0.00     0.031 C 
ATOM     62  C   UNL     1      -7.188  12.482  -8.298  1.00  0.00     0.037 A 
BRANCH  49  63
ATOM     63  C   UNL     1      -3.417  12.767  -3.413  1.00  0.00     0.064 A 
ATOM     64  C   UNL     1      -2.113  13.286  -3.403  1.00  0.00     0.173 A 
ATOM     65  C   UNL     1      -4.236  13.030  -2.305  1.00  0.00     0.173 A 
ATOM     66  F   UNL     1      -1.285  13.050  -4.432  1.00  0.00    -0.203 F 
ATOM     67  C   UNL     1      -1.638  14.009  -2.312  1.00  0.00     0.198 A 
ATOM     68  C   UNL     1      -3.767  13.780  -1.229  1.00  0.00     0.198 A 
ATOM     69  F   UNL     1      -5.492  12.562  -2.265  1.00  0.00    -0.203 F 
ATOM     70  F   UNL     1      -0.371  14.447  -2.302  1.00  0.00    -0.200 F 
ATOM     71  C   UNL     1      -2.466  14.261  -1.229  1.00  0.00     0.200 A 
ATOM     72  F   UNL     1      -4.572  14.031  -0.188  1.00  0.00    -0.200 F 
ATOM     73  F   UNL     1      -2.009  14.960  -0.181  1.00  0.00    -0.200 F 
ENDBRANCH  49  63
BRANCH  50  74
ATOM     74  C   UNL     1      -6.766   7.012 -10.856  1.00  0.00     0.064 A 
ATOM     75  C   UNL     1      -6.459   7.307 -12.192  1.00  0.00     0.173 A 
ATOM     76  C   UNL     1      -7.573   5.894 -10.602  1.00  0.00     0.173 A 
ATOM     77  F   UNL     1      -5.707   8.378 -12.484  1.00  0.00    -0.203 F 
ATOM     78  C   UNL     1      -6.955   6.527 -13.234  1.00  0.00     0.198 A 
ATOM     79  C   UNL     1      -8.048   5.100 -11.644  1.00  0.00     0.198 A 
ATOM     80  F   UNL     1      -7.890   5.567  -9.341  1.00  0.00    -0.203 F 
ATOM     81  F   UNL     1      -6.680   6.856 -14.504  1.00  0.00    -0.200 F 
ATOM     82  C   UNL     1      -7.745   5.421 -12.959  1.00  0.00     0.200 A 
ATOM     83  F   UNL     1      -8.802   4.026 -11.375  1.00  0.00    -0.200 F 
ATOM     84  F   UNL     1      -8.221   4.670 -13.961  1.00  0.00    -0.200 F 
ENDBRANCH  50  74
BRANCH  62  85
ATOM     85  C   UNL     1      -8.056  13.561  -8.872  1.00  0.00     0.064 A 
ATOM     86  C   UNL     1      -9.453  13.526  -8.750  1.00  0.00     0.173 A 
ATOM     87  C   UNL     1      -7.478  14.663  -9.519  1.00  0.00     0.173 A 
ATOM     88  F   UNL     1     -10.052  12.486  -8.151  1.00  0.00    -0.203 F 
ATOM     89  C   UNL     1     -10.241  14.545  -9.278  1.00  0.00     0.198 A 
ATOM     90  C   UNL     1      -8.267  15.693 -10.023  1.00  0.00     0.198 A 
ATOM     91  F   UNL     1      -6.146  14.745  -9.654  1.00  0.00    -0.203 F 
ATOM     92  F   UNL     1     -11.576  14.471  -9.189  1.00  0.00    -0.200 F 
ATOM     93  C   UNL     1      -9.648  15.629  -9.908  1.00  0.00     0.200 A 
ATOM     94  F   UNL     1      -7.692  16.745 -10.621  1.00  0.00    -0.200 F 
ATOM     95  F   UNL     1     -10.408  16.611 -10.411  1.00  0.00    -0.200 F 
ENDBRANCH  62  85
ENDBRANCH  36  37
ENDBRANCH  28  31
ENDBRANCH  26  27
ENDBRANCH   1  26
TORSDOF 14
