REMARK SMILES O=C(NCCCNC(=O)c1c(F)cccc1NS(=O)(=O)C(F)(F)F)c1ccc(-c2c3nc(c(-c4c(F)c(F)c(F)c(F)c4F)c4ccc([nH]4)c(-c4c(F)c(F)c(F)c(F)c4F)c4nc(c(-c5c(F)c(F)c(F)c(F)c5F)c5ccc2[nH]5)C=C4)C=C3)cc1
REMARK SMILES IDX 5 1 4 2 3 3 1 4 2 5 25 7 26 8 87 9 27 10 86 11 28 12 29 13
REMARK SMILES IDX 30 14 80 15 31 16 85 17 79 18 81 19 32 20 84 21 78 22 77 23
REMARK SMILES IDX 33 25 65 26 45 27 64 28 46 29 49 30 63 31 82 32 47 33 48 34
REMARK SMILES IDX 62 36 83 37 50 38 34 39 35 40 43 41 36 42 37 43 41 44 44 45
REMARK SMILES IDX 38 46 39 47 42 48 40 49 66 50 67 51 75 52 68 53 69 54 73 55
REMARK SMILES IDX 76 56 70 57 71 58 74 59 72 60 51 61 52 62 60 63 53 64 54 65
REMARK SMILES IDX 58 66 61 67 55 68 56 69 59 70 57 71 6 72 7 73 8 74 9 76
REMARK SMILES IDX 10 77 11 78 16 79 12 80 13 81 15 82 14 83 17 84 18 86 19 87
REMARK SMILES IDX 20 88 21 89 22 90 23 91 24 92
REMARK H PARENT 3 6 81 24 49 35 7 75 17 85
REMARK Flexibility Score: inf
ROOT
ATOM      1  C   UNL     1       4.942  -1.650  -1.952  1.00  0.00     0.042 C 
ENDROOT
BRANCH   1   2
ATOM      2  C   UNL     1       4.612  -0.281  -1.373  1.00  0.00     0.118 C 
BRANCH   2   3
ATOM      3  N   UNL     1       3.186  -0.097  -1.141  1.00  0.00    -0.352 N 
ATOM      4  O   UNL     1       1.254  -0.009   0.010  1.00  0.00    -0.269 OA
ATOM      5  C   UNL     1       2.482   0.030   0.031  1.00  0.00     0.251 C 
ATOM      6  H   UNL     1       2.637  -0.057  -1.957  1.00  0.00     0.163 HD
BRANCH   5   7
ATOM      7  C   UNL     1       3.186   0.192   1.323  1.00  0.00     0.039 A 
ATOM      8  C   UNL     1       4.309   1.012   1.433  1.00  0.00     0.014 A 
ATOM      9  C   UNL     1       2.688  -0.460   2.456  1.00  0.00     0.014 A 
ATOM     10  C   UNL     1       5.025   1.051   2.623  1.00  0.00     0.010 A 
ATOM     11  C   UNL     1       3.351  -0.337   3.682  1.00  0.00     0.010 A 
ATOM     12  C   UNL     1       4.544   0.394   3.768  1.00  0.00    -0.014 A 
BRANCH  12  13
ATOM     13  C   UNL     1       5.275   0.550   5.051  1.00  0.00     0.031 A 
ATOM     14  C   UNL     1       5.925  -0.623   5.727  1.00  0.00     0.074 A 
ATOM     15  C   UNL     1       5.386   1.783   5.582  1.00  0.00     0.049 A 
ATOM     16  N   UNL     1       6.626  -0.650   6.833  1.00  0.00    -0.248 NA
ATOM     17  C   UNL     1       5.766  -1.938   5.088  1.00  0.00     0.031 C 
ATOM     18  C   UNL     1       4.791   2.996   5.016  1.00  0.00     0.029 A 
ATOM     19  N   UNL     1       6.054   2.230   6.693  1.00  0.00    -0.354 N 
ATOM     20  C   UNL     1       6.980  -1.978   7.029  1.00  0.00     0.074 A 
ATOM     21  C   UNL     1       6.394  -2.735   5.943  1.00  0.00     0.031 C 
ATOM     22  C   UNL     1       5.172   4.054   5.744  1.00  0.00     0.029 A 
ATOM     23  C   UNL     1       5.979   3.590   6.867  1.00  0.00     0.049 A 
ATOM     24  H   UNL     1       6.541   1.633   7.307  1.00  0.00     0.167 HD
ATOM     25  C   UNL     1       7.734  -2.511   8.021  1.00  0.00     0.037 A 
ATOM     26  C   UNL     1       6.492   4.380   7.828  1.00  0.00     0.037 A 
ATOM     27  C   UNL     1       8.329  -1.748   9.088  1.00  0.00     0.049 A 
ATOM     28  C   UNL     1       7.300   3.757   8.929  1.00  0.00     0.074 A 
ATOM     29  C   UNL     1       9.132  -2.197  10.123  1.00  0.00     0.029 A 
ATOM     30  N   UNL     1       8.188  -0.378   9.258  1.00  0.00    -0.354 N 
ATOM     31  N   UNL     1       7.637   2.502   9.095  1.00  0.00    -0.248 NA
ATOM     32  C   UNL     1       7.789   4.657   9.982  1.00  0.00     0.031 C 
ATOM     33  C   UNL     1       9.439  -1.107  10.944  1.00  0.00     0.029 A 
ATOM     34  C   UNL     1       8.871   0.030  10.393  1.00  0.00     0.049 A 
ATOM     35  H   UNL     1       7.679   0.216   8.660  1.00  0.00     0.167 HD
ATOM     36  C   UNL     1       8.384   2.459  10.262  1.00  0.00     0.074 A 
ATOM     37  C   UNL     1       8.470   3.820  10.754  1.00  0.00     0.031 C 
ATOM     38  C   UNL     1       8.944   1.387  10.871  1.00  0.00     0.037 A 
BRANCH  25  39
ATOM     39  C   UNL     1       7.963  -3.994   8.013  1.00  0.00     0.064 A 
ATOM     40  C   UNL     1       7.377  -4.809   8.994  1.00  0.00     0.173 A 
ATOM     41  C   UNL     1       8.830  -4.598   7.091  1.00  0.00     0.173 A 
ATOM     42  F   UNL     1       6.545  -4.279   9.904  1.00  0.00    -0.203 F 
ATOM     43  C   UNL     1       7.663  -6.170   9.062  1.00  0.00     0.198 A 
ATOM     44  C   UNL     1       9.095  -5.965   7.146  1.00  0.00     0.198 A 
ATOM     45  F   UNL     1       9.408  -3.866   6.128  1.00  0.00    -0.203 F 
ATOM     46  F   UNL     1       7.117  -6.921  10.028  1.00  0.00    -0.200 F 
ATOM     47  C   UNL     1       8.520  -6.747   8.137  1.00  0.00     0.200 A 
ATOM     48  F   UNL     1       9.907  -6.525   6.239  1.00  0.00    -0.200 F 
ATOM     49  F   UNL     1       8.791  -8.058   8.199  1.00  0.00    -0.200 F 
ENDBRANCH  25  39
BRANCH  26  50
ATOM     50  C   UNL     1       6.256   5.844   7.771  1.00  0.00     0.064 A 
ATOM     51  C   UNL     1       4.975   6.383   7.965  1.00  0.00     0.173 A 
ATOM     52  C   UNL     1       7.298   6.730   7.470  1.00  0.00     0.173 A 
ATOM     53  F   UNL     1       3.943   5.574   8.250  1.00  0.00    -0.203 F 
ATOM     54  C   UNL     1       4.740   7.748   7.830  1.00  0.00     0.198 A 
ATOM     55  C   UNL     1       7.068   8.100   7.363  1.00  0.00     0.198 A 
ATOM     56  F   UNL     1       8.543   6.264   7.294  1.00  0.00    -0.203 F 
ATOM     57  F   UNL     1       3.498   8.230   7.976  1.00  0.00    -0.200 F 
ATOM     58  C   UNL     1       5.787   8.607   7.533  1.00  0.00     0.200 A 
ATOM     59  F   UNL     1       8.086   8.929   7.096  1.00  0.00    -0.200 F 
ATOM     60  F   UNL     1       5.563   9.922   7.409  1.00  0.00    -0.200 F 
ENDBRANCH  26  50
BRANCH  38  61
ATOM     61  C   UNL     1       9.711   1.636  12.136  1.00  0.00     0.064 A 
ATOM     62  C   UNL     1      11.109   1.517  12.155  1.00  0.00     0.173 A 
ATOM     63  C   UNL     1       9.057   1.925  13.342  1.00  0.00     0.173 A 
ATOM     64  F   UNL     1      11.779   1.235  11.027  1.00  0.00    -0.203 F 
ATOM     65  C   UNL     1      11.823   1.666  13.340  1.00  0.00     0.198 A 
ATOM     66  C   UNL     1       9.777   2.099  14.520  1.00  0.00     0.198 A 
ATOM     67  F   UNL     1       7.723   2.062  13.370  1.00  0.00    -0.203 F 
ATOM     68  F   UNL     1      13.155   1.518  13.341  1.00  0.00    -0.200 F 
ATOM     69  C   UNL     1      11.158   1.960  14.520  1.00  0.00     0.200 A 
ATOM     70  F   UNL     1       9.136   2.406  15.656  1.00  0.00    -0.200 F 
ATOM     71  F   UNL     1      11.847   2.113  15.659  1.00  0.00    -0.200 F 
ENDBRANCH  38  61
ENDBRANCH  12  13
ENDBRANCH   5   7
ENDBRANCH   2   3
ENDBRANCH   1   2
BRANCH   1  72
ATOM     72  C   UNL     1       4.419  -1.859  -3.367  1.00  0.00     0.118 C 
BRANCH  72  73
ATOM     73  N   UNL     1       5.065  -0.958  -4.312  1.00  0.00    -0.352 N 
ATOM     74  C   UNL     1       6.010  -1.234  -5.267  1.00  0.00     0.256 C 
ATOM     75  H   UNL     1       4.784  -0.016  -4.257  1.00  0.00     0.163 HD
ATOM     76  O   UNL     1       6.672  -0.319  -5.748  1.00  0.00    -0.269 OA
BRANCH  74  77
ATOM     77  C   UNL     1       6.306  -2.621  -5.655  1.00  0.00     0.099 A 
ATOM     78  C   UNL     1       5.255  -3.465  -6.027  1.00  0.00     0.138 A 
ATOM     79  C   UNL     1       7.627  -3.103  -5.651  1.00  0.00     0.065 A 
ATOM     80  F   UNL     1       3.993  -3.011  -6.082  1.00  0.00    -0.206 F 
ATOM     81  C   UNL     1       5.478  -4.809  -6.297  1.00  0.00     0.040 A 
ATOM     82  C   UNL     1       7.835  -4.466  -5.893  1.00  0.00     0.028 A 
ATOM     83  C   UNL     1       6.770  -5.314  -6.215  1.00  0.00     0.005 A 
BRANCH  79  84
ATOM     84  N   UNL     1       8.740  -2.268  -5.256  1.00  0.00    -0.275 N 
ATOM     85  H   UNL     1       8.771  -1.864  -4.359  1.00  0.00     0.180 HD
BRANCH  84  86
ATOM     86  S   UNL     1      10.005  -1.996  -6.384  1.00  0.00     0.333 S 
ATOM     87  O   UNL     1       9.383  -1.765  -7.675  1.00  0.00    -0.197 OA
ATOM     88  O   UNL     1      10.782  -0.932  -5.766  1.00  0.00    -0.197 OA
BRANCH  86  89
ATOM     89  C   UNL     1      11.026  -3.555  -6.412  1.00  0.00     0.516 C 
ATOM     90  F   UNL     1      11.042  -4.185  -5.201  1.00  0.00    -0.155 F 
ATOM     91  F   UNL     1      10.543  -4.465  -7.310  1.00  0.00    -0.155 F 
ATOM     92  F   UNL     1      12.324  -3.327  -6.755  1.00  0.00    -0.155 F 
ENDBRANCH  86  89
ENDBRANCH  84  86
ENDBRANCH  79  84
ENDBRANCH  74  77
ENDBRANCH  72  73
ENDBRANCH   1  72
TORSDOF 13
