REMARK SMILES Cc1cc(Br)cc2c1O[C@H](C(F)(F)F)C(C(=O)NCCCNC(=O)c1ccc(-c3c4nc(c(-c5c(F)c(F)c(F)c(F)c5F)c5ccc([nH]5)c(-c5c(F)c(F)c(F)c(F)c5F)c5nc(c(-c6c(F)c(F)c(F)c(F)c6F)c6ccc3[nH]6)C=C5)C=C4)cc1)=C2
REMARK SMILES IDX 20 1 19 2 18 3 16 4 17 5 15 7 1 8 2 9 3 10 8 11 4 12 7 13
REMARK SMILES IDX 9 14 5 15 6 16 88 17 10 18 11 19 12 20 13 21 14 22 21 23
REMARK SMILES IDX 22 24 23 25 24 27 25 28 26 29 87 30 27 31 86 32 28 33 29 34
REMARK SMILES IDX 30 35 80 36 31 37 85 38 79 39 81 40 32 41 84 42 78 43 77 44
REMARK SMILES IDX 33 46 65 47 45 48 64 49 46 50 49 51 63 52 82 53 47 54 48 55
REMARK SMILES IDX 62 57 83 58 50 59 34 60 35 61 43 62 36 63 37 64 41 65 44 66
REMARK SMILES IDX 38 67 39 68 42 69 40 70 66 71 67 72 75 73 68 74 69 75 73 76
REMARK SMILES IDX 76 77 70 78 71 79 74 80 72 81 51 82 52 83 60 84 53 85 54 86
REMARK SMILES IDX 58 87 61 88 55 89 56 90 59 91 57 92
REMARK H PARENT 18 6 22 26 81 45 49 56
REMARK Flexibility Score: inf
ROOT
ATOM      1  C   UNL     1      -4.333  -1.000   5.059  1.00  0.00     0.042 C 
ENDROOT
BRANCH   1   2
ATOM      2  C   UNL     1      -4.751  -0.238   3.810  1.00  0.00     0.118 C 
BRANCH   2   3
ATOM      3  N   UNL     1      -4.599   1.199   3.980  1.00  0.00    -0.352 N 
ATOM      4  C   UNL     1      -3.761   2.170   3.549  1.00  0.00     0.251 C 
ATOM      5  O   UNL     1      -4.007   3.300   3.982  1.00  0.00    -0.270 OA
ATOM      6  H   UNL     1      -5.297   1.566   4.570  1.00  0.00     0.163 HD
BRANCH   4   7
ATOM      7  C   UNL     1      -2.608   1.965   2.626  1.00  0.00     0.067 C 
ATOM      8  C   UNL     1       1.296   0.137  -0.188  1.00  0.00     0.048 C 
ATOM      9  C   UNL     1       0.828   1.497   0.246  1.00  0.00    -0.007 A 
ATOM     10  C   UNL     1       1.466   2.642  -0.251  1.00  0.00     0.023 A 
ATOM     11  C   UNL     1      -0.285   1.658   1.081  1.00  0.00     0.130 A 
ATOM     12  C   UNL     1       1.018   3.912   0.116  1.00  0.00     0.019 A 
ATOM     13  C   UNL     1      -0.732   2.932   1.455  1.00  0.00     0.019 A 
ATOM     14  O   UNL     1      -0.887   0.524   1.554  1.00  0.00    -0.475 OA
ATOM     15  Br  UNL     1       1.902   5.443  -0.554  1.00  0.00    -0.051 Br
ATOM     16  C   UNL     1      -0.072   4.064   0.971  1.00  0.00     0.027 A 
ATOM     17  C   UNL     1      -1.861   3.054   2.369  1.00  0.00     0.025 C 
ATOM     18  C   UNL     1      -2.272   0.658   1.970  1.00  0.00     0.314 C 
BRANCH  18  19
ATOM     19  C   UNL     1      -3.198   0.328   0.784  1.00  0.00     0.429 C 
ATOM     20  F   UNL     1      -3.115  -0.992   0.476  1.00  0.00    -0.167 F 
ATOM     21  F   UNL     1      -4.501   0.574   1.058  1.00  0.00    -0.167 F 
ATOM     22  F   UNL     1      -2.894   1.026  -0.332  1.00  0.00    -0.167 F 
ENDBRANCH  18  19
ENDBRANCH   4   7
ENDBRANCH   2   3
ENDBRANCH   1   2
BRANCH   1  23
ATOM     23  C   UNL     1      -5.389  -0.931   6.155  1.00  0.00     0.118 C 
BRANCH  23  24
ATOM     24  N   UNL     1      -6.609  -1.642   5.779  1.00  0.00    -0.352 N 
ATOM     25  C   UNL     1      -7.085  -2.862   6.187  1.00  0.00     0.251 C 
ATOM     26  H   UNL     1      -7.180  -1.170   5.130  1.00  0.00     0.163 HD
ATOM     27  O   UNL     1      -7.988  -3.411   5.560  1.00  0.00    -0.269 OA
BRANCH  25  28
ATOM     28  C   UNL     1      -6.505  -3.522   7.371  1.00  0.00     0.039 A 
ATOM     29  C   UNL     1      -6.268  -4.899   7.342  1.00  0.00     0.014 A 
ATOM     30  C   UNL     1      -6.210  -2.782   8.518  1.00  0.00     0.014 A 
ATOM     31  C   UNL     1      -5.665  -5.516   8.438  1.00  0.00     0.010 A 
ATOM     32  C   UNL     1      -5.519  -3.376   9.566  1.00  0.00     0.010 A 
ATOM     33  C   UNL     1      -5.249  -4.751   9.541  1.00  0.00    -0.014 A 
BRANCH  33  34
ATOM     34  C   UNL     1      -4.542  -5.373  10.686  1.00  0.00     0.031 A 
ATOM     35  C   UNL     1      -5.166  -5.358  12.053  1.00  0.00     0.074 A 
ATOM     36  C   UNL     1      -3.316  -5.901  10.501  1.00  0.00     0.049 A 
ATOM     37  N   UNL     1      -4.690  -5.817  13.183  1.00  0.00    -0.248 NA
ATOM     38  C   UNL     1      -6.485  -4.714  12.178  1.00  0.00     0.031 C 
ATOM     39  C   UNL     1      -2.587  -5.916   9.231  1.00  0.00     0.029 A 
ATOM     40  N   UNL     1      -2.467  -6.527  11.378  1.00  0.00    -0.354 N 
ATOM     41  C   UNL     1      -5.643  -5.510  14.144  1.00  0.00     0.074 A 
ATOM     42  C   UNL     1      -6.692  -4.767  13.485  1.00  0.00     0.031 C 
ATOM     43  C   UNL     1      -1.421  -6.560   9.401  1.00  0.00     0.029 A 
ATOM     44  C   UNL     1      -1.305  -6.973  10.796  1.00  0.00     0.049 A 
ATOM     45  H   UNL     1      -2.671  -6.646  12.334  1.00  0.00     0.167 HD
ATOM     46  C   UNL     1      -5.659  -5.854  15.453  1.00  0.00     0.037 A 
ATOM     47  C   UNL     1      -0.268  -7.647  11.329  1.00  0.00     0.037 A 
ATOM     48  C   UNL     1      -4.632  -6.630  16.091  1.00  0.00     0.049 A 
ATOM     49  C   UNL     1      -0.311  -8.020  12.786  1.00  0.00     0.074 A 
ATOM     50  C   UNL     1      -4.584  -7.086  17.396  1.00  0.00     0.029 A 
ATOM     51  N   UNL     1      -3.476  -7.072  15.465  1.00  0.00    -0.354 N 
ATOM     52  N   UNL     1      -1.253  -7.788  13.668  1.00  0.00    -0.248 NA
ATOM     53  C   UNL     1       0.847  -8.749  13.322  1.00  0.00     0.031 C 
ATOM     54  C   UNL     1      -3.380  -7.772  17.571  1.00  0.00     0.029 A 
ATOM     55  C   UNL     1      -2.699  -7.781  16.364  1.00  0.00     0.049 A 
ATOM     56  H   UNL     1      -3.243  -6.907  14.523  1.00  0.00     0.167 HD
ATOM     57  C   UNL     1      -0.816  -8.362  14.853  1.00  0.00     0.074 A 
ATOM     58  C   UNL     1       0.472  -8.963  14.577  1.00  0.00     0.031 C 
ATOM     59  C   UNL     1      -1.428  -8.387  16.061  1.00  0.00     0.037 A 
BRANCH  46  60
ATOM     60  C   UNL     1      -6.837  -5.425  16.275  1.00  0.00     0.064 A 
ATOM     61  C   UNL     1      -8.100  -6.010  16.099  1.00  0.00     0.173 A 
ATOM     62  C   UNL     1      -6.691  -4.470  17.292  1.00  0.00     0.173 A 
ATOM     63  F   UNL     1      -8.294  -6.920  15.132  1.00  0.00    -0.203 F 
ATOM     64  C   UNL     1      -9.178  -5.642  16.899  1.00  0.00     0.198 A 
ATOM     65  C   UNL     1      -7.765  -4.125  18.109  1.00  0.00     0.198 A 
ATOM     66  F   UNL     1      -5.503  -3.885  17.506  1.00  0.00    -0.203 F 
ATOM     67  F   UNL     1     -10.384  -6.188  16.687  1.00  0.00    -0.200 F 
ATOM     68  C   UNL     1      -9.008  -4.708  17.909  1.00  0.00     0.200 A 
ATOM     69  F   UNL     1      -7.596  -3.232  19.093  1.00  0.00    -0.200 F 
ATOM     70  F   UNL     1     -10.043  -4.366  18.689  1.00  0.00    -0.200 F 
ENDBRANCH  46  60
BRANCH  47  71
ATOM     71  C   UNL     1       0.867  -8.059  10.463  1.00  0.00     0.064 A 
ATOM     72  C   UNL     1       1.054  -9.407  10.125  1.00  0.00     0.173 A 
ATOM     73  C   UNL     1       1.766  -7.123   9.933  1.00  0.00     0.173 A 
ATOM     74  F   UNL     1       0.228 -10.341  10.619  1.00  0.00    -0.203 F 
ATOM     75  C   UNL     1       2.103  -9.804   9.298  1.00  0.00     0.198 A 
ATOM     76  C   UNL     1       2.801  -7.518   9.087  1.00  0.00     0.198 A 
ATOM     77  F   UNL     1       1.626  -5.820  10.220  1.00  0.00    -0.203 F 
ATOM     78  F   UNL     1       2.276 -11.102   9.015  1.00  0.00    -0.200 F 
ATOM     79  C   UNL     1       2.971  -8.858   8.774  1.00  0.00     0.200 A 
ATOM     80  F   UNL     1       3.628  -6.599   8.569  1.00  0.00    -0.200 F 
ATOM     81  F   UNL     1       3.973  -9.239   7.970  1.00  0.00    -0.200 F 
ENDBRANCH  47  71
BRANCH  59  82
ATOM     82  C   UNL     1      -0.736  -9.101  17.182  1.00  0.00     0.064 A 
ATOM     83  C   UNL     1       0.356  -8.526  17.846  1.00  0.00     0.173 A 
ATOM     84  C   UNL     1      -1.247 -10.312  17.673  1.00  0.00     0.173 A 
ATOM     85  F   UNL     1       0.884  -7.375  17.405  1.00  0.00    -0.203 F 
ATOM     86  C   UNL     1       0.910  -9.138  18.967  1.00  0.00     0.198 A 
ATOM     87  C   UNL     1      -0.707 -10.907  18.808  1.00  0.00     0.198 A 
ATOM     88  F   UNL     1      -2.297 -10.894  17.075  1.00  0.00    -0.203 F 
ATOM     89  F   UNL     1       1.962  -8.579  19.581  1.00  0.00    -0.200 F 
ATOM     90  C   UNL     1       0.370 -10.319  19.454  1.00  0.00     0.200 A 
ATOM     91  F   UNL     1      -1.240 -12.039  19.288  1.00  0.00    -0.200 F 
ATOM     92  F   UNL     1       0.886 -10.890  20.552  1.00  0.00    -0.200 F 
ENDBRANCH  59  82
ENDBRANCH  33  34
ENDBRANCH  25  28
ENDBRANCH  23  24
ENDBRANCH   1  23
TORSDOF 11
