REMARK SMILES O=C(NCCCNC(=O)[C@@]1([NH2+]C2CC2)CC[C@H](SC2CCCC2)C1)c1ccc(-c2c3nc(c(-c4c(F)c(F)c(F)c(F)c4F)c4ccc([nH]4)c(-c4c(F)c(F)c(F)c(F)c4F)c4nc(c(-c5c(F)c(F)c(F)c(F)c5F)c5ccc2[nH]5)C=C4)C=C3)cc1
REMARK SMILES IDX 5 1 4 2 3 3 1 4 2 5 25 7 26 8 87 9 27 10 86 11 28 12 29 13
REMARK SMILES IDX 30 14 80 15 31 16 85 17 79 18 81 19 32 20 84 21 78 22 77 23
REMARK SMILES IDX 33 25 65 26 45 27 64 28 46 29 49 30 63 31 82 32 47 33 48 34
REMARK SMILES IDX 62 36 83 37 50 38 34 39 35 40 43 41 36 42 37 43 41 44 44 45
REMARK SMILES IDX 38 46 39 47 42 48 40 49 66 50 67 51 75 52 68 53 69 54 73 55
REMARK SMILES IDX 76 56 70 57 71 58 74 59 72 60 51 61 52 62 60 63 53 64 54 65
REMARK SMILES IDX 58 66 61 67 55 68 56 69 59 70 57 71 6 72 7 73 8 74 9 76
REMARK SMILES IDX 10 77 15 78 24 79 16 80 17 81 11 82 12 85 13 86 14 87 18 88
REMARK SMILES IDX 19 89 20 90 23 91 21 92 22 93
REMARK H PARENT 3 6 81 24 49 35 7 75 11 83 11 84
REMARK Flexibility Score: inf
ROOT
ATOM      1  C   UNL     1       3.967   2.490   0.783  1.00  0.00     0.042 C 
ENDROOT
BRANCH   1   2
ATOM      2  C   UNL     1       3.994   1.024   1.185  1.00  0.00     0.118 C 
BRANCH   2   3
ATOM      3  N   UNL     1       2.661   0.447   1.118  1.00  0.00    -0.352 N 
ATOM      4  O   UNL     1       0.923  -0.536   0.084  1.00  0.00    -0.269 OA
ATOM      5  C   UNL     1       2.144  -0.412   0.184  1.00  0.00     0.251 C 
ATOM      6  H   UNL     1       2.047   0.709   1.841  1.00  0.00     0.163 HD
BRANCH   5   7
ATOM      7  C   UNL     1       3.035  -1.211  -0.689  1.00  0.00     0.039 A 
ATOM      8  C   UNL     1       4.199  -1.800  -0.183  1.00  0.00     0.014 A 
ATOM      9  C   UNL     1       2.632  -1.484  -2.001  1.00  0.00     0.014 A 
ATOM     10  C   UNL     1       4.982  -2.614  -0.995  1.00  0.00     0.010 A 
ATOM     11  C   UNL     1       3.378  -2.362  -2.794  1.00  0.00     0.010 A 
ATOM     12  C   UNL     1       4.548  -2.948  -2.288  1.00  0.00    -0.014 A 
BRANCH  12  13
ATOM     13  C   UNL     1       5.215  -4.057  -3.011  1.00  0.00     0.031 A 
ATOM     14  C   UNL     1       5.990  -3.826  -4.271  1.00  0.00     0.074 A 
ATOM     15  C   UNL     1       5.076  -5.302  -2.512  1.00  0.00     0.049 A 
ATOM     16  N   UNL     1       6.603  -4.702  -5.028  1.00  0.00    -0.248 NA
ATOM     17  C   UNL     1       6.086  -2.441  -4.754  1.00  0.00     0.031 C 
ATOM     18  C   UNL     1       4.308  -5.644  -1.311  1.00  0.00     0.029 A 
ATOM     19  N   UNL     1       5.565  -6.508  -2.944  1.00  0.00    -0.354 N 
ATOM     20  C   UNL     1       7.142  -3.981  -6.084  1.00  0.00     0.074 A 
ATOM     21  C   UNL     1       6.776  -2.595  -5.879  1.00  0.00     0.031 C 
ATOM     22  C   UNL     1       4.397  -6.962  -1.089  1.00  0.00     0.029 A 
ATOM     23  C   UNL     1       5.178  -7.568  -2.160  1.00  0.00     0.049 A 
ATOM     24  H   UNL     1       6.139  -6.605  -3.738  1.00  0.00     0.167 HD
ATOM     25  C   UNL     1       7.878  -4.444  -7.122  1.00  0.00     0.037 A 
ATOM     26  C   UNL     1       5.401  -8.887  -2.302  1.00  0.00     0.037 A 
ATOM     27  C   UNL     1       8.258  -5.822  -7.300  1.00  0.00     0.049 A 
ATOM     28  C   UNL     1       6.207  -9.364  -3.473  1.00  0.00     0.074 A 
ATOM     29  C   UNL     1       9.084  -6.371  -8.268  1.00  0.00     0.029 A 
ATOM     30  N   UNL     1       7.829  -6.871  -6.501  1.00  0.00    -0.354 N 
ATOM     31  N   UNL     1       6.773  -8.662  -4.423  1.00  0.00    -0.248 NA
ATOM     32  C   UNL     1       6.396 -10.815  -3.599  1.00  0.00     0.031 C 
ATOM     33  C   UNL     1       9.114  -7.757  -8.083  1.00  0.00     0.029 A 
ATOM     34  C   UNL     1       8.339  -8.069  -6.978  1.00  0.00     0.049 A 
ATOM     35  H   UNL     1       7.247  -6.779  -5.712  1.00  0.00     0.167 HD
ATOM     36  C   UNL     1       7.384  -9.582  -5.261  1.00  0.00     0.074 A 
ATOM     37  C   UNL     1       7.145 -10.892  -4.690  1.00  0.00     0.031 C 
ATOM     38  C   UNL     1       8.072  -9.362  -6.407  1.00  0.00     0.037 A 
BRANCH  25  39
ATOM     39  C   UNL     1       8.324  -3.463  -8.165  1.00  0.00     0.064 A 
ATOM     40  C   UNL     1       9.386  -2.579  -7.934  1.00  0.00     0.173 A 
ATOM     41  C   UNL     1       7.745  -3.480  -9.443  1.00  0.00     0.173 A 
ATOM     42  F   UNL     1       9.968  -2.522  -6.727  1.00  0.00    -0.203 F 
ATOM     43  C   UNL     1       9.851  -1.740  -8.945  1.00  0.00     0.198 A 
ATOM     44  C   UNL     1       8.224  -2.654 -10.456  1.00  0.00     0.198 A 
ATOM     45  F   UNL     1       6.731  -4.314  -9.714  1.00  0.00    -0.203 F 
ATOM     46  F   UNL     1      10.857  -0.891  -8.700  1.00  0.00    -0.200 F 
ATOM     47  C   UNL     1       9.276  -1.785 -10.207  1.00  0.00     0.200 A 
ATOM     48  F   UNL     1       7.674  -2.706 -11.678  1.00  0.00    -0.200 F 
ATOM     49  F   UNL     1       9.736  -0.991 -11.183  1.00  0.00    -0.200 F 
ENDBRANCH  25  39
BRANCH  26  50
ATOM     50  C   UNL     1       4.822  -9.843  -1.325  1.00  0.00     0.064 A 
ATOM     51  C   UNL     1       5.638 -10.551  -0.434  1.00  0.00     0.173 A 
ATOM     52  C   UNL     1       3.437 -10.062  -1.260  1.00  0.00     0.173 A 
ATOM     53  F   UNL     1       6.969 -10.389  -0.473  1.00  0.00    -0.203 F 
ATOM     54  C   UNL     1       5.093 -11.455   0.475  1.00  0.00     0.198 A 
ATOM     55  C   UNL     1       2.891 -10.944  -0.332  1.00  0.00     0.198 A 
ATOM     56  F   UNL     1       2.613  -9.405  -2.090  1.00  0.00    -0.203 F 
ATOM     57  F   UNL     1       5.899 -12.150   1.289  1.00  0.00    -0.200 F 
ATOM     58  C   UNL     1       3.720 -11.646   0.530  1.00  0.00     0.200 A 
ATOM     59  F   UNL     1       1.563 -11.114  -0.272  1.00  0.00    -0.200 F 
ATOM     60  F   UNL     1       3.197 -12.511   1.409  1.00  0.00    -0.200 F 
ENDBRANCH  26  50
BRANCH  38  61
ATOM     61  C   UNL     1       8.601 -10.569  -7.119  1.00  0.00     0.064 A 
ATOM     62  C   UNL     1       7.748 -11.417  -7.840  1.00  0.00     0.173 A 
ATOM     63  C   UNL     1       9.971 -10.870  -7.100  1.00  0.00     0.173 A 
ATOM     64  F   UNL     1       6.428 -11.180  -7.867  1.00  0.00    -0.203 F 
ATOM     65  C   UNL     1       8.245 -12.535  -8.502  1.00  0.00     0.198 A 
ATOM     66  C   UNL     1      10.468 -11.975  -7.784  1.00  0.00     0.198 A 
ATOM     67  F   UNL     1      10.826 -10.088  -6.424  1.00  0.00    -0.203 F 
ATOM     68  F   UNL     1       7.407 -13.355  -9.150  1.00  0.00    -0.200 F 
ATOM     69  C   UNL     1       9.604 -12.810  -8.479  1.00  0.00     0.200 A 
ATOM     70  F   UNL     1      11.782 -12.236  -7.767  1.00  0.00    -0.200 F 
ATOM     71  F   UNL     1      10.082 -13.885  -9.120  1.00  0.00    -0.200 F 
ENDBRANCH  38  61
ENDBRANCH  12  13
ENDBRANCH   5   7
ENDBRANCH   2   3
ENDBRANCH   1   2
BRANCH   1  72
ATOM     72  C   UNL     1       3.609   3.419   1.935  1.00  0.00     0.118 C 
BRANCH  72  73
ATOM     73  N   UNL     1       4.617   3.449   2.989  1.00  0.00    -0.351 N 
ATOM     74  C   UNL     1       5.647   4.271   3.340  1.00  0.00     0.281 C 
ATOM     75  H   UNL     1       4.531   2.684   3.602  1.00  0.00     0.163 HD
ATOM     76  O   UNL     1       6.248   3.922   4.367  1.00  0.00    -0.268 OA
BRANCH  74  77
ATOM     77  C   UNL     1       6.081   5.544   2.563  1.00  0.00     0.176 C 
ATOM     78  C   UNL     1       5.029   6.185   1.661  1.00  0.00     0.080 C 
ATOM     79  C   UNL     1       6.194   6.708   3.608  1.00  0.00     0.093 C 
ATOM     80  C   UNL     1       5.452   7.626   1.482  1.00  0.00     0.022 C 
ATOM     81  C   UNL     1       6.105   8.029   2.801  1.00  0.00     0.054 C 
BRANCH  77  82
ATOM     82  N   UNL     1       7.458   5.435   2.035  1.00  0.00    -0.331 N 
ATOM     83  H   UNL     1       8.029   5.221   2.853  1.00  0.00     0.347 HD
ATOM     84  H   UNL     1       7.486   6.309   1.512  1.00  0.00     0.347 HD
BRANCH  82  85
ATOM     85  C   UNL     1       7.962   4.554   1.002  1.00  0.00     0.183 C 
ATOM     86  C   UNL     1       7.595   3.112   0.882  1.00  0.00     0.071 C 
ATOM     87  C   UNL     1       7.188   4.094  -0.186  1.00  0.00     0.071 C 
ENDBRANCH  82  85
ENDBRANCH  77  82
BRANCH  81  88
ATOM     88  S   UNL     1       7.757   8.781   2.513  1.00  0.00    -0.155 SA
BRANCH  88  89
ATOM     89  C   UNL     1       7.396  10.329   1.596  1.00  0.00     0.047 C 
ATOM     90  C   UNL     1       6.919  10.206   0.151  1.00  0.00     0.014 C 
ATOM     91  C   UNL     1       6.371  11.268   2.221  1.00  0.00     0.014 C 
ATOM     92  C   UNL     1       6.531  11.635  -0.203  1.00  0.00     0.001 C 
ATOM     93  C   UNL     1       5.996  12.239   1.095  1.00  0.00     0.001 C 
ENDBRANCH  88  89
ENDBRANCH  81  88
ENDBRANCH  74  77
ENDBRANCH  72  73
ENDBRANCH   1  72
TORSDOF 14
