REMARK SMILES CC(C)(C)OC(=O)Nc1ccc(-c2cccc(Cl)c2C(=O)NCCCNC(=O)c2ccc(-c3c4nc(c(-c5c(F)c(F)c(F)c(F)c5F)c5ccc([nH]5)c(-c5c(F)c(F)c(F)c(F)c5F)c5nc(c(-c6c(F)c(F)c(F)c(F)c6F)c6ccc3[nH]6)C=C5)C=C4)cc2)cc1
REMARK SMILES IDX 23 1 22 2 20 3 21 4 19 6 13 7 14 8 15 9 17 10 16 11 18 12
REMARK SMILES IDX 12 13 9 14 10 15 93 16 11 17 92 18 8 19 6 20 7 21 5 23 2 24
REMARK SMILES IDX 1 25 3 26 4 27 24 28 25 29 26 30 27 31 28 33 29 34 30 35
REMARK SMILES IDX 91 36 31 37 90 38 32 39 33 40 34 41 84 42 35 43 89 44 83 45
REMARK SMILES IDX 85 46 36 47 88 48 82 49 81 50 37 52 69 53 49 54 68 55 50 56
REMARK SMILES IDX 53 57 67 58 86 59 51 60 52 61 66 63 87 64 54 65 38 66 39 67
REMARK SMILES IDX 47 68 40 69 41 70 45 71 48 72 42 73 43 74 46 75 44 76 70 77
REMARK SMILES IDX 71 78 79 79 72 80 73 81 77 82 80 83 74 84 75 85 78 86 76 87
REMARK SMILES IDX 55 88 56 89 64 90 57 91 58 92 62 93 65 94 59 95 60 96 63 97
REMARK SMILES IDX 61 98
REMARK H PARENT 22 5 8 22 26 32 85 51 53 62
REMARK Flexibility Score: inf
ROOT
ATOM      1  C   UNL     1       4.755  -0.913   5.601  1.00  0.00     0.118 C 
ENDROOT
BRANCH   1   2
ATOM      2  N   UNL     1       6.103  -1.362   5.460  1.00  0.00    -0.352 N 
ATOM      3  C   UNL     1       6.455  -2.578   4.891  1.00  0.00     0.253 C 
ATOM      4  O   UNL     1       7.465  -2.574   4.183  1.00  0.00    -0.269 OA
ATOM      5  H   UNL     1       6.824  -0.775   5.784  1.00  0.00     0.163 HD
BRANCH   3   6
ATOM      6  C   UNL     1       5.768  -3.902   5.153  1.00  0.00     0.066 A 
ATOM      7  C   UNL     1       4.403  -4.252   4.899  1.00  0.00    -0.004 A 
ATOM      8  C   UNL     1       4.007  -5.608   5.032  1.00  0.00     0.009 A 
ATOM      9  C   UNL     1       4.893  -6.609   5.406  1.00  0.00     0.002 A 
ATOM     10  C   UNL     1       6.637  -4.942   5.584  1.00  0.00     0.054 A 
ATOM     11  C   UNL     1       6.204  -6.272   5.695  1.00  0.00     0.021 A 
ATOM     12  Cl  UNL     1       8.279  -4.675   6.097  1.00  0.00    -0.083 Cl
BRANCH   7  13
ATOM     13  C   UNL     1       3.293  -3.335   4.582  1.00  0.00    -0.017 A 
ATOM     14  C   UNL     1       1.367  -1.278   4.256  1.00  0.00     0.044 A 
ATOM     15  C   UNL     1       1.370  -2.060   5.412  1.00  0.00     0.027 A 
ATOM     16  C   UNL     1       2.265  -1.601   3.230  1.00  0.00     0.027 A 
ATOM     17  C   UNL     1       2.300  -3.094   5.560  1.00  0.00     0.011 A 
ATOM     18  C   UNL     1       3.217  -2.624   3.385  1.00  0.00     0.011 A 
BRANCH  14  19
ATOM     19  N   UNL     1       0.493  -0.174   4.247  1.00  0.00    -0.291 N 
ATOM     20  C   UNL     1       0.133   0.680   3.236  1.00  0.00     0.412 C 
ATOM     21  O   UNL     1      -0.624   1.615   3.456  1.00  0.00    -0.224 OA
ATOM     22  H   UNL     1       0.068   0.017   5.115  1.00  0.00     0.173 HD
BRANCH  20  23
ATOM     23  O   UNL     1       0.606   0.314   2.030  1.00  0.00    -0.444 OA
BRANCH  23  24
ATOM     24  C   UNL     1       0.204   0.954   0.800  1.00  0.00     0.106 C 
ATOM     25  C   UNL     1       0.829   0.061  -0.282  1.00  0.00     0.056 C 
ATOM     26  C   UNL     1       0.785   2.363   0.691  1.00  0.00     0.056 C 
ATOM     27  C   UNL     1      -1.318   0.943   0.637  1.00  0.00     0.056 C 
ENDBRANCH  23  24
ENDBRANCH  20  23
ENDBRANCH  14  19
ENDBRANCH   7  13
ENDBRANCH   3   6
ENDBRANCH   1   2
BRANCH   1  28
ATOM     28  C   UNL     1       4.396   0.162   6.590  1.00  0.00     0.042 C 
BRANCH  28  29
ATOM     29  C   UNL     1       4.558   1.599   6.139  1.00  0.00     0.118 C 
BRANCH  29  30
ATOM     30  N   UNL     1       3.899   1.963   4.887  1.00  0.00    -0.352 N 
ATOM     31  C   UNL     1       2.926   2.889   4.576  1.00  0.00     0.251 C 
ATOM     32  H   UNL     1       4.213   1.446   4.111  1.00  0.00     0.163 HD
ATOM     33  O   UNL     1       2.592   3.026   3.401  1.00  0.00    -0.269 OA
BRANCH  31  34
ATOM     34  C   UNL     1       2.238   3.684   5.621  1.00  0.00     0.039 A 
ATOM     35  C   UNL     1       0.885   4.007   5.461  1.00  0.00     0.014 A 
ATOM     36  C   UNL     1       2.902   4.115   6.765  1.00  0.00     0.014 A 
ATOM     37  C   UNL     1       0.197   4.667   6.484  1.00  0.00     0.010 A 
ATOM     38  C   UNL     1       2.187   4.612   7.844  1.00  0.00     0.010 A 
ATOM     39  C   UNL     1       0.833   4.932   7.705  1.00  0.00    -0.014 A 
BRANCH  39  40
ATOM     40  C   UNL     1       0.135   5.611   8.825  1.00  0.00     0.031 A 
ATOM     41  C   UNL     1       0.666   6.922   9.347  1.00  0.00     0.074 A 
ATOM     42  C   UNL     1      -0.933   5.028   9.403  1.00  0.00     0.049 A 
ATOM     43  N   UNL     1       0.237   7.655  10.343  1.00  0.00    -0.248 NA
ATOM     44  C   UNL     1       1.869   7.463   8.689  1.00  0.00     0.031 C 
ATOM     45  C   UNL     1      -1.496   3.730   9.027  1.00  0.00     0.029 A 
ATOM     46  N   UNL     1      -1.737   5.453  10.430  1.00  0.00    -0.354 N 
ATOM     47  C   UNL     1       1.124   8.721  10.434  1.00  0.00     0.074 A 
ATOM     48  C   UNL     1       2.164   8.497   9.459  1.00  0.00     0.031 C 
ATOM     49  C   UNL     1      -2.581   3.486   9.780  1.00  0.00     0.029 A 
ATOM     50  C   UNL     1      -2.767   4.590  10.715  1.00  0.00     0.049 A 
ATOM     51  H   UNL     1      -1.589   6.296  10.917  1.00  0.00     0.167 HD
ATOM     52  C   UNL     1       1.055   9.815  11.229  1.00  0.00     0.037 A 
ATOM     53  C   UNL     1      -3.754   4.690  11.626  1.00  0.00     0.037 A 
ATOM     54  C   UNL     1      -0.004  10.046  12.174  1.00  0.00     0.049 A 
ATOM     55  C   UNL     1      -3.814   5.920  12.492  1.00  0.00     0.074 A 
ATOM     56  C   UNL     1      -0.208  11.141  12.993  1.00  0.00     0.029 A 
ATOM     57  N   UNL     1      -1.042   9.159  12.422  1.00  0.00    -0.354 N 
ATOM     58  N   UNL     1      -3.013   6.959  12.518  1.00  0.00    -0.248 NA
ATOM     59  C   UNL     1      -4.928   5.998  13.446  1.00  0.00     0.031 C 
ATOM     60  C   UNL     1      -1.339  10.892  13.778  1.00  0.00     0.029 A 
ATOM     61  C   UNL     1      -1.877   9.671  13.401  1.00  0.00     0.049 A 
ATOM     62  H   UNL     1      -1.166   8.294  11.970  1.00  0.00     0.167 HD
ATOM     63  C   UNL     1      -3.539   7.824  13.467  1.00  0.00     0.074 A 
ATOM     64  C   UNL     1      -4.745   7.199  13.972  1.00  0.00     0.031 C 
ATOM     65  C   UNL     1      -3.069   9.025  13.890  1.00  0.00     0.037 A 
BRANCH  52  66
ATOM     66  C   UNL     1       2.149  10.838  11.099  1.00  0.00     0.064 A 
ATOM     67  C   UNL     1       2.312  11.604   9.932  1.00  0.00     0.173 A 
ATOM     68  C   UNL     1       3.042  11.065  12.157  1.00  0.00     0.173 A 
ATOM     69  F   UNL     1       1.499  11.416   8.882  1.00  0.00    -0.203 F 
ATOM     70  C   UNL     1       3.348  12.527   9.817  1.00  0.00     0.198 A 
ATOM     71  C   UNL     1       4.053  12.017  12.052  1.00  0.00     0.198 A 
ATOM     72  F   UNL     1       2.935  10.364  13.296  1.00  0.00    -0.203 F 
ATOM     73  F   UNL     1       3.522  13.197   8.669  1.00  0.00    -0.200 F 
ATOM     74  C   UNL     1       4.212  12.739  10.879  1.00  0.00     0.200 A 
ATOM     75  F   UNL     1       4.880  12.230  13.085  1.00  0.00    -0.200 F 
ATOM     76  F   UNL     1       5.205  13.633  10.770  1.00  0.00    -0.200 F 
ENDBRANCH  52  66
BRANCH  53  77
ATOM     77  C   UNL     1      -4.782   3.620  11.737  1.00  0.00     0.064 A 
ATOM     78  C   UNL     1      -6.118   3.864  11.385  1.00  0.00     0.173 A 
ATOM     79  C   UNL     1      -4.458   2.339  12.205  1.00  0.00     0.173 A 
ATOM     80  F   UNL     1      -6.485   5.078  10.948  1.00  0.00    -0.203 F 
ATOM     81  C   UNL     1      -7.093   2.878  11.524  1.00  0.00     0.198 A 
ATOM     82  C   UNL     1      -5.428   1.343  12.312  1.00  0.00     0.198 A 
ATOM     83  F   UNL     1      -3.195   2.048  12.548  1.00  0.00    -0.203 F 
ATOM     84  F   UNL     1      -8.371   3.157  11.233  1.00  0.00    -0.200 F 
ATOM     85  C   UNL     1      -6.747   1.616  11.982  1.00  0.00     0.200 A 
ATOM     86  F   UNL     1      -5.084   0.120  12.737  1.00  0.00    -0.200 F 
ATOM     87  F   UNL     1      -7.683   0.667  12.113  1.00  0.00    -0.200 F 
ENDBRANCH  53  77
BRANCH  65  88
ATOM     88  C   UNL     1      -3.882   9.745  14.928  1.00  0.00     0.064 A 
ATOM     89  C   UNL     1      -3.999   9.262  16.241  1.00  0.00     0.173 A 
ATOM     90  C   UNL     1      -4.550  10.936  14.605  1.00  0.00     0.173 A 
ATOM     91  F   UNL     1      -3.388   8.122  16.598  1.00  0.00    -0.203 F 
ATOM     92  C   UNL     1      -4.795   9.917  17.175  1.00  0.00     0.198 A 
ATOM     93  C   UNL     1      -5.312  11.610  15.555  1.00  0.00     0.198 A 
ATOM     94  F   UNL     1      -4.462  11.449  13.369  1.00  0.00    -0.203 F 
ATOM     95  F   UNL     1      -4.953   9.395  18.400  1.00  0.00    -0.200 F 
ATOM     96  C   UNL     1      -5.447  11.092  16.834  1.00  0.00     0.200 A 
ATOM     97  F   UNL     1      -5.925  12.757  15.228  1.00  0.00    -0.200 F 
ATOM     98  F   UNL     1      -6.216  11.720  17.734  1.00  0.00    -0.200 F 
ENDBRANCH  65  88
ENDBRANCH  39  40
ENDBRANCH  31  34
ENDBRANCH  29  30
ENDBRANCH  28  29
ENDBRANCH   1  28
TORSDOF 14
