REMARK SMILES O=C(Cn1cc(/C=C(/Cl)c2nnc(C(=O)Nc3ccc(Cl)cc3)s2)nn1)NCCCNC(=O)c1ccc(-c2c3nc(c(-c4c(F)c(F)c(F)c(F)c4F)c4ccc([nH]4)c(-c4c(F)c(F)c(F)c(F)c4F)c4nc(c(-c5c(F)c(F)c(F)c(F)c5F)c5ccc2[nH]5)C=C4)C=C3)cc1
REMARK SMILES IDX 1 1 2 2 27 3 3 5 4 6 5 7 26 8 6 9 25 10 7 11 8 12 9 13 10 14
REMARK SMILES IDX 11 15 24 16 12 17 13 18 14 19 15 20 16 21 17 23 18 24 23 25
REMARK SMILES IDX 19 26 22 27 20 28 21 29 28 30 29 31 30 32 31 33 32 34 33 36
REMARK SMILES IDX 34 37 35 38 96 39 36 40 95 41 37 42 38 43 39 44 89 45 40 46
REMARK SMILES IDX 94 47 88 48 90 49 41 50 93 51 87 52 86 53 42 55 74 56 54 57
REMARK SMILES IDX 73 58 55 59 58 60 72 61 91 62 56 63 57 64 71 66 92 67 59 68
REMARK SMILES IDX 43 69 44 70 52 71 45 72 46 73 50 74 53 75 47 76 48 77 51 78
REMARK SMILES IDX 49 79 75 80 76 81 84 82 77 83 78 84 82 85 85 86 79 87 80 88
REMARK SMILES IDX 83 89 81 90 60 91 61 92 69 93 62 94 63 95 67 96 70 97 64 98
REMARK SMILES IDX 65 99 68 100 66 101
REMARK H PARENT 27 4 16 22 31 35 90 54 58 65
REMARK Flexibility Score: inf
ROOT
ATOM      1  O   UNL     1       1.150  -0.401   0.181  1.00  0.00    -0.273 OA
ATOM      2  C   UNL     1       2.302   0.016   0.091  1.00  0.00     0.241 C 
ATOM      3  N   UNL     1       2.794   0.569  -1.086  1.00  0.00    -0.354 N 
ATOM      4  H   UNL     1       3.709   0.932  -1.102  1.00  0.00     0.163 HD
ENDROOT
BRANCH   2   5
ATOM      5  C   UNL     1       3.267  -0.017   1.262  1.00  0.00     0.245 C 
BRANCH   5   6
ATOM      6  N   UNL     1       4.040  -1.243   1.338  1.00  0.00    -0.242 N 
ATOM      7  C   UNL     1       5.393  -1.402   1.178  1.00  0.00     0.139 A 
ATOM      8  N   UNL     1       3.480  -2.370   1.810  1.00  0.00    -0.066 NA
ATOM      9  C   UNL     1       5.625  -2.696   1.591  1.00  0.00     0.107 A 
ATOM     10  N   UNL     1       4.445  -3.265   1.973  1.00  0.00    -0.131 NA
BRANCH   9  11
ATOM     11  C   UNL     1       6.875  -3.381   1.687  1.00  0.00     0.055 C 
ATOM     12  C   UNL     1       7.098  -4.713   1.702  1.00  0.00     0.081 C 
ATOM     13  Cl  UNL     1       8.724  -5.311   1.799  1.00  0.00    -0.081 Cl
BRANCH  12  14
ATOM     14  C   UNL     1       6.083  -5.680   1.454  1.00  0.00     0.159 A 
ATOM     15  N   UNL     1       5.623  -6.664   2.203  1.00  0.00    -0.137 NA
ATOM     16  S   UNL     1       5.369  -5.699  -0.096  1.00  0.00    -0.086 S 
ATOM     17  N   UNL     1       4.491  -7.267   1.643  1.00  0.00    -0.133 NA
ATOM     18  C   UNL     1       4.152  -6.735   0.478  1.00  0.00     0.206 A 
BRANCH  18  19
ATOM     19  C   UNL     1       2.863  -7.015  -0.179  1.00  0.00     0.286 C 
ATOM     20  O   UNL     1       2.089  -7.884   0.245  1.00  0.00    -0.266 OA
ATOM     21  N   UNL     1       2.330  -6.258  -1.236  1.00  0.00    -0.320 N 
ATOM     22  H   UNL     1       1.420  -6.502  -1.519  1.00  0.00     0.170 HD
BRANCH  21  23
ATOM     23  C   UNL     1       2.920  -5.205  -1.937  1.00  0.00     0.041 A 
ATOM     24  C   UNL     1       4.037  -5.420  -2.753  1.00  0.00     0.027 A 
ATOM     25  C   UNL     1       2.473  -3.915  -1.676  1.00  0.00     0.027 A 
ATOM     26  C   UNL     1       4.852  -4.343  -3.105  1.00  0.00     0.022 A 
ATOM     27  C   UNL     1       3.298  -2.850  -2.020  1.00  0.00     0.022 A 
ATOM     28  C   UNL     1       4.508  -3.072  -2.671  1.00  0.00     0.041 A 
ATOM     29  Cl  UNL     1       5.649  -1.807  -2.803  1.00  0.00    -0.084 Cl
ENDBRANCH  21  23
ENDBRANCH  18  19
ENDBRANCH  12  14
ENDBRANCH   9  11
ENDBRANCH   5   6
ENDBRANCH   2   5
BRANCH   3  30
ATOM     30  C   UNL     1       1.980   0.625  -2.304  1.00  0.00     0.117 C 
BRANCH  30  31
ATOM     31  C   UNL     1       2.205   1.863  -3.174  1.00  0.00     0.042 C 
BRANCH  31  32
ATOM     32  C   UNL     1       3.608   1.984  -3.748  1.00  0.00     0.118 C 
BRANCH  32  33
ATOM     33  N   UNL     1       3.927   1.037  -4.819  1.00  0.00    -0.352 N 
ATOM     34  C   UNL     1       5.097   0.992  -5.562  1.00  0.00     0.251 C 
ATOM     35  H   UNL     1       3.241   0.364  -5.034  1.00  0.00     0.163 HD
ATOM     36  O   UNL     1       5.143   0.433  -6.657  1.00  0.00    -0.269 OA
BRANCH  34  37
ATOM     37  C   UNL     1       6.309   1.613  -4.998  1.00  0.00     0.039 A 
ATOM     38  C   UNL     1       7.186   2.401  -5.748  1.00  0.00     0.014 A 
ATOM     39  C   UNL     1       6.523   1.421  -3.639  1.00  0.00     0.014 A 
ATOM     40  C   UNL     1       8.224   3.064  -5.089  1.00  0.00     0.010 A 
ATOM     41  C   UNL     1       7.446   2.171  -2.971  1.00  0.00     0.010 A 
ATOM     42  C   UNL     1       8.333   2.956  -3.694  1.00  0.00    -0.014 A 
BRANCH  42  43
ATOM     43  C   UNL     1       9.217   3.812  -2.906  1.00  0.00     0.031 A 
ATOM     44  C   UNL     1       8.921   5.264  -3.077  1.00  0.00     0.074 A 
ATOM     45  C   UNL     1       9.965   3.300  -1.898  1.00  0.00     0.049 A 
ATOM     46  N   UNL     1       9.719   6.190  -3.490  1.00  0.00    -0.248 NA
ATOM     47  C   UNL     1       7.529   5.729  -2.908  1.00  0.00     0.031 C 
ATOM     48  C   UNL     1      10.033   1.889  -1.480  1.00  0.00     0.029 A 
ATOM     49  N   UNL     1      10.709   3.922  -0.936  1.00  0.00    -0.354 N 
ATOM     50  C   UNL     1       9.001   7.383  -3.394  1.00  0.00     0.074 A 
ATOM     51  C   UNL     1       7.623   7.016  -3.250  1.00  0.00     0.031 C 
ATOM     52  C   UNL     1      10.552   1.799  -0.237  1.00  0.00     0.029 A 
ATOM     53  C   UNL     1      11.019   3.112   0.160  1.00  0.00     0.049 A 
ATOM     54  H   UNL     1      11.001   4.859  -1.009  1.00  0.00     0.167 HD
ATOM     55  C   UNL     1       9.652   8.542  -3.091  1.00  0.00     0.037 A 
ATOM     56  C   UNL     1      11.610   3.496   1.319  1.00  0.00     0.037 A 
ATOM     57  C   UNL     1      11.069   8.373  -3.289  1.00  0.00     0.049 A 
ATOM     58  C   UNL     1      12.293   4.779   1.051  1.00  0.00     0.074 A 
ATOM     59  C   UNL     1      11.928   8.281  -4.361  1.00  0.00     0.029 A 
ATOM     60  N   UNL     1      11.705   7.835  -2.203  1.00  0.00    -0.354 N 
ATOM     61  N   UNL     1      13.320   4.886   0.255  1.00  0.00    -0.248 NA
ATOM     62  C   UNL     1      11.615   6.027   1.376  1.00  0.00     0.031 C 
ATOM     63  C   UNL     1      13.046   7.518  -3.907  1.00  0.00     0.029 A 
ATOM     64  C   UNL     1      12.871   7.219  -2.558  1.00  0.00     0.049 A 
ATOM     65  H   UNL     1      11.365   7.887  -1.281  1.00  0.00     0.167 HD
ATOM     66  C   UNL     1      13.145   6.112  -0.355  1.00  0.00     0.074 A 
ATOM     67  C   UNL     1      12.204   6.836   0.491  1.00  0.00     0.031 C 
ATOM     68  C   UNL     1      13.507   6.286  -1.658  1.00  0.00     0.037 A 
BRANCH  55  69
ATOM     69  C   UNL     1       9.142   9.599  -2.121  1.00  0.00     0.064 A 
ATOM     70  C   UNL     1       9.938  10.744  -1.891  1.00  0.00     0.173 A 
ATOM     71  C   UNL     1       8.113   9.389  -1.176  1.00  0.00     0.173 A 
ATOM     72  F   UNL     1      10.955  11.045  -2.713  1.00  0.00    -0.203 F 
ATOM     73  C   UNL     1       9.774  11.552  -0.760  1.00  0.00     0.198 A 
ATOM     74  C   UNL     1       7.924  10.225  -0.074  1.00  0.00     0.198 A 
ATOM     75  F   UNL     1       7.319   8.315  -1.202  1.00  0.00    -0.203 F 
ATOM     76  F   UNL     1      10.637  12.549  -0.522  1.00  0.00    -0.200 F 
ATOM     77  C   UNL     1       8.772  11.286   0.153  1.00  0.00     0.200 A 
ATOM     78  F   UNL     1       6.960   9.933   0.812  1.00  0.00    -0.200 F 
ATOM     79  F   UNL     1       8.652  12.015   1.270  1.00  0.00    -0.200 F 
ENDBRANCH  55  69
BRANCH  56  80
ATOM     80  C   UNL     1      11.463   2.966   2.697  1.00  0.00     0.064 A 
ATOM     81  C   UNL     1      12.415   3.253   3.693  1.00  0.00     0.173 A 
ATOM     82  C   UNL     1      10.238   2.433   3.139  1.00  0.00     0.173 A 
ATOM     83  F   UNL     1      13.596   3.792   3.360  1.00  0.00    -0.203 F 
ATOM     84  C   UNL     1      12.138   3.064   5.052  1.00  0.00     0.198 A 
ATOM     85  C   UNL     1       9.964   2.244   4.496  1.00  0.00     0.198 A 
ATOM     86  F   UNL     1       9.248   2.180   2.270  1.00  0.00    -0.203 F 
ATOM     87  F   UNL     1      13.043   3.420   5.975  1.00  0.00    -0.200 F 
ATOM     88  C   UNL     1      10.906   2.577   5.453  1.00  0.00     0.200 A 
ATOM     89  F   UNL     1       8.754   1.806   4.872  1.00  0.00    -0.200 F 
ATOM     90  F   UNL     1      10.609   2.470   6.756  1.00  0.00    -0.200 F 
ENDBRANCH  56  80
BRANCH  68  91
ATOM     91  C   UNL     1      14.523   5.344  -2.222  1.00  0.00     0.064 A 
ATOM     92  C   UNL     1      14.309   3.975  -2.449  1.00  0.00     0.173 A 
ATOM     93  C   UNL     1      15.751   5.884  -2.621  1.00  0.00     0.173 A 
ATOM     94  F   UNL     1      13.133   3.403  -2.162  1.00  0.00    -0.203 F 
ATOM     95  C   UNL     1      15.300   3.178  -3.018  1.00  0.00     0.198 A 
ATOM     96  C   UNL     1      16.724   5.095  -3.222  1.00  0.00     0.198 A 
ATOM     97  F   UNL     1      15.990   7.195  -2.462  1.00  0.00    -0.203 F 
ATOM     98  F   UNL     1      15.083   1.868  -3.209  1.00  0.00    -0.200 F 
ATOM     99  C   UNL     1      16.504   3.741  -3.410  1.00  0.00     0.200 A 
ATOM    100  F   UNL     1      17.868   5.655  -3.638  1.00  0.00    -0.200 F 
ATOM    101  F   UNL     1      17.445   2.982  -3.989  1.00  0.00    -0.200 F 
ENDBRANCH  68  91
ENDBRANCH  42  43
ENDBRANCH  34  37
ENDBRANCH  32  33
ENDBRANCH  31  32
ENDBRANCH  30  31
ENDBRANCH   3  30
TORSDOF 15
