REMARK SMILES CC1(C)CCN(C(=O)CC(C)(C)C(=O)NCCCNC(=O)c2ccc(-c3c4nc(c(-c5c(F)c(F)c(F)c(F)c5F)c5ccc([nH]5)c(-c5c(F)c(F)c(F)c(F)c5F)c5nc(c(-c6c(F)c(F)c(F)c(F)c6F)c6ccc3[nH]6)C=C5)C=C4)cc2)C1
REMARK SMILES IDX 16 1 15 2 13 3 14 4 10 6 11 7 12 8 9 9 7 10 8 11 6 12 1 13
REMARK SMILES IDX 2 14 3 15 4 16 85 17 5 18 17 19 18 20 19 21 20 22 21 24
REMARK SMILES IDX 22 25 23 26 84 27 24 28 83 29 25 30 26 31 27 32 77 33 28 34
REMARK SMILES IDX 82 35 76 36 78 37 29 38 81 39 75 40 74 41 30 43 62 44 42 45
REMARK SMILES IDX 61 46 43 47 46 48 60 49 79 50 44 51 45 52 59 54 80 55 47 56
REMARK SMILES IDX 31 57 32 58 40 59 33 60 34 61 38 62 41 63 35 64 36 65 39 66
REMARK SMILES IDX 37 67 63 68 64 69 72 70 65 71 66 72 70 73 73 74 67 75 68 76
REMARK SMILES IDX 71 77 69 78 48 79 49 80 57 81 50 82 51 83 55 84 58 85 52 86
REMARK SMILES IDX 53 87 56 88 54 89
REMARK H PARENT 15 5 19 23 78 42 46 53
REMARK Flexibility Score: inf
ROOT
ATOM      1  C   UNL     1      -0.571   4.018  -3.882  1.00  0.00     0.117 C 
ENDROOT
BRANCH   1   2
ATOM      2  N   UNL     1       0.689   3.319  -3.728  1.00  0.00    -0.356 N 
ATOM      3  C   UNL     1       1.520   3.107  -2.675  1.00  0.00     0.226 C 
ATOM      4  O   UNL     1       2.583   2.557  -2.967  1.00  0.00    -0.274 OA
ATOM      5  H   UNL     1       1.011   2.910  -4.564  1.00  0.00     0.163 HD
BRANCH   3   6
ATOM      6  C   UNL     1       1.240   3.624  -1.251  1.00  0.00     0.052 C 
ATOM      7  C   UNL     1      -0.215   3.478  -0.801  1.00  0.00     0.022 C 
ATOM      8  C   UNL     1       1.565   5.132  -1.244  1.00  0.00     0.022 C 
BRANCH   6   9
ATOM      9  C   UNL     1       2.175   2.913  -0.210  1.00  0.00     0.116 C 
BRANCH   9  10
ATOM     10  C   UNL     1       2.421   1.398  -0.295  1.00  0.00     0.223 C 
ATOM     11  O   UNL     1       3.488   0.976  -0.751  1.00  0.00    -0.275 OA
BRANCH  10  12
ATOM     12  N   UNL     1       1.498   0.510   0.208  1.00  0.00    -0.342 N 
ATOM     13  C   UNL     1      -1.053  -0.192  -1.132  1.00  0.00     0.013 C 
ATOM     14  C   UNL     1      -0.647  -0.392   0.344  1.00  0.00    -0.016 C 
ATOM     15  C   UNL     1      -1.911  -0.553   1.183  1.00  0.00     0.013 C 
ATOM     16  C   UNL     1       0.349  -1.560   0.458  1.00  0.00     0.030 C 
ATOM     17  C   UNL     1       0.239   0.738   0.881  1.00  0.00     0.126 C 
ATOM     18  C   UNL     1       1.686  -0.929   0.033  1.00  0.00     0.120 C 
ENDBRANCH  10  12
ENDBRANCH   9  10
ENDBRANCH   6   9
ENDBRANCH   3   6
ENDBRANCH   1   2
BRANCH   1  19
ATOM     19  C   UNL     1      -0.489   5.151  -4.888  1.00  0.00     0.042 C 
BRANCH  19  20
ATOM     20  C   UNL     1      -0.252   4.675  -6.309  1.00  0.00     0.118 C 
BRANCH  20  21
ATOM     21  N   UNL     1      -1.381   3.920  -6.841  1.00  0.00    -0.352 N 
ATOM     22  C   UNL     1      -2.338   4.284  -7.762  1.00  0.00     0.251 C 
ATOM     23  H   UNL     1      -1.474   3.006  -6.485  1.00  0.00     0.163 HD
ATOM     24  O   UNL     1      -3.331   3.595  -7.928  1.00  0.00    -0.269 OA
BRANCH  22  25
ATOM     25  C   UNL     1      -2.165   5.536  -8.529  1.00  0.00     0.039 A 
ATOM     26  C   UNL     1      -3.256   6.390  -8.712  1.00  0.00     0.014 A 
ATOM     27  C   UNL     1      -0.915   5.875  -9.046  1.00  0.00     0.014 A 
ATOM     28  C   UNL     1      -3.066   7.628  -9.332  1.00  0.00     0.010 A 
ATOM     29  C   UNL     1      -0.703   7.149  -9.548  1.00  0.00     0.010 A 
ATOM     30  C   UNL     1      -1.777   8.038  -9.708  1.00  0.00    -0.014 A 
BRANCH  30  31
ATOM     31  C   UNL     1      -1.503   9.363 -10.317  1.00  0.00     0.031 A 
ATOM     32  C   UNL     1      -0.870   9.420 -11.682  1.00  0.00     0.074 A 
ATOM     33  C   UNL     1      -1.714  10.495  -9.616  1.00  0.00     0.049 A 
ATOM     34  N   UNL     1      -0.345  10.438 -12.314  1.00  0.00    -0.248 NA
ATOM     35  C   UNL     1      -0.778   8.146 -12.418  1.00  0.00     0.031 C 
ATOM     36  C   UNL     1      -2.294  10.570  -8.274  1.00  0.00     0.029 A 
ATOM     37  N   UNL     1      -1.436  11.803  -9.930  1.00  0.00    -0.354 N 
ATOM     38  C   UNL     1       0.161   9.921 -13.500  1.00  0.00     0.074 A 
ATOM     39  C   UNL     1      -0.062   8.494 -13.476  1.00  0.00     0.031 C 
ATOM     40  C   UNL     1      -2.341  11.855  -7.886  1.00  0.00     0.029 A 
ATOM     41  C   UNL     1      -1.744  12.689  -8.925  1.00  0.00     0.049 A 
ATOM     42  H   UNL     1      -1.053  12.080 -10.793  1.00  0.00     0.167 HD
ATOM     43  C   UNL     1       0.733  10.584 -14.531  1.00  0.00     0.037 A 
ATOM     44  C   UNL     1      -1.543  14.019  -8.845  1.00  0.00     0.037 A 
ATOM     45  C   UNL     1       0.915  12.009 -14.567  1.00  0.00     0.049 A 
ATOM     46  C   UNL     1      -0.885  14.728 -10.002  1.00  0.00     0.074 A 
ATOM     47  C   UNL     1       1.458  12.784 -15.576  1.00  0.00     0.029 A 
ATOM     48  N   UNL     1       0.543  12.874 -13.550  1.00  0.00    -0.354 N 
ATOM     49  N   UNL     1      -0.442  14.235 -11.133  1.00  0.00    -0.248 NA
ATOM     50  C   UNL     1      -0.702  16.181  -9.873  1.00  0.00     0.031 C 
ATOM     51  C   UNL     1       1.446  14.116 -15.155  1.00  0.00     0.029 A 
ATOM     52  C   UNL     1       0.846  14.176 -13.908  1.00  0.00     0.049 A 
ATOM     53  H   UNL     1       0.126  12.603 -12.700  1.00  0.00     0.167 HD
ATOM     54  C   UNL     1       0.021  15.319 -11.867  1.00  0.00     0.074 A 
ATOM     55  C   UNL     1      -0.192  16.497 -11.055  1.00  0.00     0.031 C 
ATOM     56  C   UNL     1       0.574  15.338 -13.104  1.00  0.00     0.037 A 
BRANCH  43  57
ATOM     57  C   UNL     1       1.180   9.781 -15.717  1.00  0.00     0.064 A 
ATOM     58  C   UNL     1       0.254   9.183 -16.585  1.00  0.00     0.173 A 
ATOM     59  C   UNL     1       2.543   9.657 -16.024  1.00  0.00     0.173 A 
ATOM     60  F   UNL     1      -1.061   9.260 -16.328  1.00  0.00    -0.203 F 
ATOM     61  C   UNL     1       0.677   8.473 -17.706  1.00  0.00     0.198 A 
ATOM     62  C   UNL     1       2.961   8.974 -17.163  1.00  0.00     0.198 A 
ATOM     63  F   UNL     1       3.469  10.213 -15.229  1.00  0.00    -0.203 F 
ATOM     64  F   UNL     1      -0.225   7.875 -18.497  1.00  0.00    -0.200 F 
ATOM     65  C   UNL     1       2.028   8.379 -18.000  1.00  0.00     0.200 A 
ATOM     66  F   UNL     1       4.266   8.896 -17.455  1.00  0.00    -0.200 F 
ATOM     67  F   UNL     1       2.433   7.711 -19.089  1.00  0.00    -0.200 F 
ENDBRANCH  43  57
BRANCH  44  68
ATOM     68  C   UNL     1      -1.968  14.779  -7.639  1.00  0.00     0.064 A 
ATOM     69  C   UNL     1      -2.994  15.733  -7.715  1.00  0.00     0.173 A 
ATOM     70  C   UNL     1      -1.333  14.608  -6.400  1.00  0.00     0.173 A 
ATOM     71  F   UNL     1      -3.622  15.948  -8.881  1.00  0.00    -0.203 F 
ATOM     72  C   UNL     1      -3.339  16.513  -6.614  1.00  0.00     0.198 A 
ATOM     73  C   UNL     1      -1.702  15.365  -5.290  1.00  0.00     0.198 A 
ATOM     74  F   UNL     1      -0.351  13.704  -6.267  1.00  0.00    -0.203 F 
ATOM     75  F   UNL     1      -4.275  17.464  -6.736  1.00  0.00    -0.200 F 
ATOM     76  C   UNL     1      -2.694  16.327  -5.401  1.00  0.00     0.200 A 
ATOM     77  F   UNL     1      -1.087  15.171  -4.115  1.00  0.00    -0.200 F 
ATOM     78  F   UNL     1      -3.019  17.084  -4.344  1.00  0.00    -0.200 F 
ENDBRANCH  44  68
BRANCH  56  79
ATOM     79  C   UNL     1       0.902  16.674 -13.701  1.00  0.00     0.064 A 
ATOM     80  C   UNL     1       1.993  17.436 -13.261  1.00  0.00     0.173 A 
ATOM     81  C   UNL     1       0.155  17.157 -14.787  1.00  0.00     0.173 A 
ATOM     82  F   UNL     1       2.728  17.023 -12.218  1.00  0.00    -0.203 F 
ATOM     83  C   UNL     1       2.315  18.641 -13.877  1.00  0.00     0.198 A 
ATOM     84  C   UNL     1       0.499  18.346 -15.421  1.00  0.00     0.198 A 
ATOM     85  F   UNL     1      -0.893  16.459 -15.250  1.00  0.00    -0.203 F 
ATOM     86  F   UNL     1       3.341  19.372 -13.419  1.00  0.00    -0.200 F 
ATOM     87  C   UNL     1       1.576  19.090 -14.963  1.00  0.00     0.200 A 
ATOM     88  F   UNL     1      -0.206  18.768 -16.479  1.00  0.00    -0.200 F 
ATOM     89  F   UNL     1       1.901  20.241 -15.567  1.00  0.00    -0.200 F 
ENDBRANCH  56  79
ENDBRANCH  30  31
ENDBRANCH  22  25
ENDBRANCH  20  21
ENDBRANCH  19  20
ENDBRANCH   1  19
TORSDOF 13
