REMARK SMILES Cc1nn(-c2nc3ccccc3o2)c2c1[C@H](c1ccc(C(=O)NCCCNC(=O)c3ccc(-c4c5nc(c(-c6c(F)c(F)c(F)c(F)c6F)c6ccc([nH]6)c(-c6c(F)c(F)c(F)c(F)c6F)c6nc(c(-c7c(F)c(F)c(F)c(F)c7F)c7ccc4[nH]7)C=C6)C=C5)cc3)cc1)CC(=O)N2
REMARK SMILES IDX 25 1 24 2 23 3 21 4 22 5 20 7 17 8 18 9 94 10 19 11 93 12
REMARK SMILES IDX 16 13 1 14 2 15 3 16 15 17 4 18 14 19 98 20 95 21 96 22
REMARK SMILES IDX 97 24 5 25 6 26 13 27 7 28 12 29 8 30 11 31 9 32 10 33 26 34
REMARK SMILES IDX 27 35 28 36 29 38 30 39 31 40 92 41 32 42 91 43 33 44 34 45
REMARK SMILES IDX 35 46 85 47 36 48 90 49 84 50 86 51 37 52 89 53 83 54 82 55
REMARK SMILES IDX 38 57 70 58 50 59 69 60 51 61 54 62 68 63 87 64 52 65 53 66
REMARK SMILES IDX 67 68 88 69 55 70 39 71 40 72 48 73 41 74 42 75 46 76 49 77
REMARK SMILES IDX 43 78 44 79 47 80 45 81 71 82 72 83 80 84 73 85 74 86 78 87
REMARK SMILES IDX 81 88 75 89 76 90 79 91 77 92 56 93 57 94 65 95 58 96 59 97
REMARK SMILES IDX 63 98 66 99 60 100 61 101 64 102 62 103
REMARK H PARENT 23 6 98 23 27 37 86 56 54 67
REMARK Flexibility Score: inf
ROOT
ATOM      1  C   UNL     1      -4.274   6.170   1.646  1.00  0.00     0.042 C 
ENDROOT
BRANCH   1   2
ATOM      2  C   UNL     1      -2.925   6.263   2.377  1.00  0.00     0.118 C 
BRANCH   2   3
ATOM      3  N   UNL     1      -2.668   5.111   3.234  1.00  0.00    -0.352 N 
ATOM      4  C   UNL     1      -1.868   4.009   3.029  1.00  0.00     0.251 C 
ATOM      5  O   UNL     1      -1.665   3.237   3.964  1.00  0.00    -0.269 OA
ATOM      6  H   UNL     1      -3.143   5.122   4.097  1.00  0.00     0.163 HD
BRANCH   4   7
ATOM      7  C   UNL     1      -1.223   3.748   1.716  1.00  0.00     0.039 A 
ATOM      8  C   UNL     1       0.043   3.233  -0.773  1.00  0.00    -0.040 A 
ATOM      9  C   UNL     1       0.682   2.937   0.446  1.00  0.00     0.005 A 
ATOM     10  C   UNL     1      -1.250   3.768  -0.707  1.00  0.00     0.005 A 
ATOM     11  C   UNL     1       0.046   3.166   1.676  1.00  0.00     0.014 A 
ATOM     12  C   UNL     1      -1.870   4.010   0.514  1.00  0.00     0.014 A 
BRANCH   8  13
ATOM     13  C   UNL     1       0.719   2.929  -2.106  1.00  0.00     0.064 C 
ATOM     14  C   UNL     1       0.629  -0.147  -0.515  1.00  0.00     0.069 C 
ATOM     15  C   UNL     1       0.193   0.286  -1.869  1.00  0.00     0.066 A 
ATOM     16  N   UNL     1      -0.336  -0.639  -2.683  1.00  0.00    -0.167 NA
ATOM     17  C   UNL     1       0.272   1.559  -2.507  1.00  0.00     0.026 A 
ATOM     18  N   UNL     1      -0.489  -0.006  -3.867  1.00  0.00    -0.166 N 
ATOM     19  C   UNL     1      -0.034   1.284  -3.820  1.00  0.00     0.145 A 
ATOM     20  N   UNL     1       0.095   2.153  -4.876  1.00  0.00    -0.310 N 
ATOM     21  C   UNL     1       0.370   3.959  -3.214  1.00  0.00     0.113 C 
ATOM     22  C   UNL     1       0.475   3.451  -4.644  1.00  0.00     0.226 C 
ATOM     23  H   UNL     1      -0.084   1.847  -5.794  1.00  0.00     0.171 HD
ATOM     24  O   UNL     1       0.732   4.204  -5.581  1.00  0.00    -0.275 OA
BRANCH  18  25
ATOM     25  C   UNL     1      -1.042  -0.706  -4.930  1.00  0.00     0.325 A 
ATOM     26  N   UNL     1      -2.342  -0.961  -4.982  1.00  0.00    -0.191 NA
ATOM     27  O   UNL     1      -0.329  -1.177  -6.010  1.00  0.00    -0.422 OA
ATOM     28  C   UNL     1      -2.474  -1.754  -6.085  1.00  0.00     0.111 A 
ATOM     29  C   UNL     1      -1.242  -1.923  -6.695  1.00  0.00     0.156 A 
ATOM     30  C   UNL     1      -3.594  -2.403  -6.610  1.00  0.00     0.032 A 
ATOM     31  C   UNL     1      -1.009  -2.751  -7.784  1.00  0.00     0.049 A 
ATOM     32  C   UNL     1      -3.393  -3.291  -7.675  1.00  0.00     0.003 A 
ATOM     33  C   UNL     1      -2.122  -3.470  -8.239  1.00  0.00     0.004 A 
ENDBRANCH  18  25
ENDBRANCH   8  13
ENDBRANCH   4   7
ENDBRANCH   2   3
ENDBRANCH   1   2
BRANCH   1  34
ATOM     34  C   UNL     1      -5.426   6.680   2.485  1.00  0.00     0.118 C 
BRANCH  34  35
ATOM     35  N   UNL     1      -5.387   8.137   2.679  1.00  0.00    -0.352 N 
ATOM     36  C   UNL     1      -6.247   8.959   3.400  1.00  0.00     0.251 C 
ATOM     37  H   UNL     1      -4.642   8.600   2.232  1.00  0.00     0.163 HD
ATOM     38  O   UNL     1      -6.297  10.155   3.192  1.00  0.00    -0.269 OA
BRANCH  36  39
ATOM     39  C   UNL     1      -7.091   8.346   4.443  1.00  0.00     0.039 A 
ATOM     40  C   UNL     1      -8.384   8.776   4.763  1.00  0.00     0.014 A 
ATOM     41  C   UNL     1      -6.554   7.242   5.072  1.00  0.00     0.014 A 
ATOM     42  C   UNL     1      -9.095   8.065   5.732  1.00  0.00     0.010 A 
ATOM     43  C   UNL     1      -7.412   6.344   5.606  1.00  0.00     0.010 A 
ATOM     44  C   UNL     1      -8.564   6.851   6.169  1.00  0.00    -0.014 A 
BRANCH  44  45
ATOM     45  C   UNL     1      -9.147   5.977   7.171  1.00  0.00     0.031 A 
ATOM     46  C   UNL     1     -10.334   5.243   6.681  1.00  0.00     0.074 A 
ATOM     47  C   UNL     1      -8.424   5.608   8.258  1.00  0.00     0.049 A 
ATOM     48  N   UNL     1     -11.564   5.406   7.035  1.00  0.00    -0.248 NA
ATOM     49  C   UNL     1     -10.165   4.370   5.505  1.00  0.00     0.031 C 
ATOM     50  C   UNL     1      -7.055   6.003   8.628  1.00  0.00     0.029 A 
ATOM     51  N   UNL     1      -8.723   4.680   9.209  1.00  0.00    -0.354 N 
ATOM     52  C   UNL     1     -12.284   4.481   6.286  1.00  0.00     0.074 A 
ATOM     53  C   UNL     1     -11.435   4.120   5.187  1.00  0.00     0.031 C 
ATOM     54  C   UNL     1      -6.575   5.170   9.580  1.00  0.00     0.029 A 
ATOM     55  C   UNL     1      -7.637   4.273   9.989  1.00  0.00     0.049 A 
ATOM     56  H   UNL     1      -9.632   4.325   9.338  1.00  0.00     0.167 HD
ATOM     57  C   UNL     1     -13.363   3.839   6.817  1.00  0.00     0.037 A 
ATOM     58  C   UNL     1      -7.637   3.225  10.856  1.00  0.00     0.037 A 
ATOM     59  C   UNL     1     -13.792   4.506   8.027  1.00  0.00     0.049 A 
ATOM     60  C   UNL     1      -9.066   2.899  11.129  1.00  0.00     0.074 A 
ATOM     61  C   UNL     1     -14.197   5.793   8.327  1.00  0.00     0.029 A 
ATOM     62  N   UNL     1     -13.432   3.940   9.228  1.00  0.00    -0.354 N 
ATOM     63  N   UNL     1      -9.874   3.701  11.770  1.00  0.00    -0.248 NA
ATOM     64  C   UNL     1      -9.710   1.945  10.236  1.00  0.00     0.031 C 
ATOM     65  C   UNL     1     -13.582   6.086   9.581  1.00  0.00     0.029 A 
ATOM     66  C   UNL     1     -12.931   4.935  10.025  1.00  0.00     0.049 A 
ATOM     67  H   UNL     1     -13.518   2.990   9.471  1.00  0.00     0.167 HD
ATOM     68  C   UNL     1     -11.063   3.650  11.055  1.00  0.00     0.074 A 
ATOM     69  C   UNL     1     -10.919   2.509  10.151  1.00  0.00     0.031 C 
ATOM     70  C   UNL     1     -11.918   4.716  11.031  1.00  0.00     0.037 A 
BRANCH  57  71
ATOM     71  C   UNL     1     -13.760   2.406   6.514  1.00  0.00     0.064 A 
ATOM     72  C   UNL     1     -14.918   1.895   7.136  1.00  0.00     0.173 A 
ATOM     73  C   UNL     1     -12.934   1.435   5.904  1.00  0.00     0.173 A 
ATOM     74  F   UNL     1     -15.795   2.718   7.731  1.00  0.00    -0.203 F 
ATOM     75  C   UNL     1     -15.156   0.523   7.253  1.00  0.00     0.198 A 
ATOM     76  C   UNL     1     -13.202   0.069   5.979  1.00  0.00     0.198 A 
ATOM     77  F   UNL     1     -11.784   1.731   5.294  1.00  0.00    -0.203 F 
ATOM     78  F   UNL     1     -16.194   0.090   7.980  1.00  0.00    -0.200 F 
ATOM     79  C   UNL     1     -14.288  -0.390   6.688  1.00  0.00     0.200 A 
ATOM     80  F   UNL     1     -12.343  -0.799   5.424  1.00  0.00    -0.200 F 
ATOM     81  F   UNL     1     -14.471  -1.705   6.860  1.00  0.00    -0.200 F 
ENDBRANCH  57  71
BRANCH  58  82
ATOM     82  C   UNL     1      -6.526   2.299  11.202  1.00  0.00     0.064 A 
ATOM     83  C   UNL     1      -6.588   1.465  12.332  1.00  0.00     0.173 A 
ATOM     84  C   UNL     1      -5.496   2.019  10.282  1.00  0.00     0.173 A 
ATOM     85  F   UNL     1      -7.564   1.627  13.237  1.00  0.00    -0.203 F 
ATOM     86  C   UNL     1      -5.688   0.406  12.519  1.00  0.00     0.198 A 
ATOM     87  C   UNL     1      -4.596   0.967  10.471  1.00  0.00     0.198 A 
ATOM     88  F   UNL     1      -5.400   2.703   9.133  1.00  0.00    -0.203 F 
ATOM     89  F   UNL     1      -5.813  -0.402  13.581  1.00  0.00    -0.200 F 
ATOM     90  C   UNL     1      -4.699   0.153  11.583  1.00  0.00     0.200 A 
ATOM     91  F   UNL     1      -3.670   0.710   9.537  1.00  0.00    -0.200 F 
ATOM     92  F   UNL     1      -3.875  -0.895  11.729  1.00  0.00    -0.200 F 
ENDBRANCH  58  82
BRANCH  70  93
ATOM     93  C   UNL     1     -11.656   5.861  11.972  1.00  0.00     0.064 A 
ATOM     94  C   UNL     1     -10.522   6.691  11.909  1.00  0.00     0.173 A 
ATOM     95  C   UNL     1     -12.683   6.245  12.842  1.00  0.00     0.173 A 
ATOM     96  F   UNL     1      -9.540   6.450  11.034  1.00  0.00    -0.203 F 
ATOM     97  C   UNL     1     -10.413   7.833  12.701  1.00  0.00     0.198 A 
ATOM     98  C   UNL     1     -12.588   7.404  13.606  1.00  0.00     0.198 A 
ATOM     99  F   UNL     1     -13.813   5.524  12.903  1.00  0.00    -0.203 F 
ATOM    100  F   UNL     1      -9.321   8.608  12.617  1.00  0.00    -0.200 F 
ATOM    101  C   UNL     1     -11.451   8.194  13.541  1.00  0.00     0.200 A 
ATOM    102  F   UNL     1     -13.618   7.777  14.378  1.00  0.00    -0.200 F 
ATOM    103  F   UNL     1     -11.371   9.319  14.266  1.00  0.00    -0.200 F 
ENDBRANCH  70  93
ENDBRANCH  44  45
ENDBRANCH  36  39
ENDBRANCH  34  35
ENDBRANCH   1  34
TORSDOF 12
