REMARK SMILES C[C@H]1[C@H](C(=O)NCCCNC(=O)c2ccc(-c3c4nc(c(-c5c(F)c(F)c(F)c(F)c5F)c5ccc([nH]5)c(-c5c(F)c(F)c(F)c(F)c5F)c5nc(c(-c6c(F)c(F)c(F)c(F)c6F)c6ccc3[nH]6)C=C5)C=C4)cc2)CCN1C(=O)CC[NH2+]C1CC1
REMARK SMILES IDX 4 1 5 2 6 3 3 5 1 6 2 7 78 8 76 9 77 10 79 11 80 12 81 13
REMARK SMILES IDX 82 14 83 15 84 18 85 19 86 20 7 21 8 22 9 23 10 24 11 25
REMARK SMILES IDX 12 27 13 28 14 29 75 30 15 31 74 32 16 33 17 34 18 35 68 36
REMARK SMILES IDX 19 37 73 38 67 39 69 40 20 41 72 42 66 43 65 44 21 46 53 47
REMARK SMILES IDX 33 48 52 49 34 50 37 51 51 52 70 53 35 54 36 55 50 57 71 58
REMARK SMILES IDX 38 59 22 60 23 61 31 62 24 63 25 64 29 65 32 66 26 67 27 68
REMARK SMILES IDX 30 69 28 70 54 71 55 72 63 73 56 74 57 75 61 76 64 77 58 78
REMARK SMILES IDX 59 79 62 80 60 81 39 82 40 83 48 84 41 85 42 86 46 87 49 88
REMARK SMILES IDX 43 89 44 90 47 91 45 92
REMARK H PARENT 6 4 83 16 83 17 10 26 69 45 37 56
REMARK Flexibility Score: inf
ROOT
ATOM      1  C   UNL     1      -0.642   2.279   1.300  1.00  0.00     0.225 C 
ATOM      2  O   UNL     1      -0.293   3.459   1.206  1.00  0.00    -0.275 OA
ATOM      3  N   UNL     1      -0.918   1.816   2.542  1.00  0.00    -0.356 N 
ATOM      4  H   UNL     1      -0.858   2.495   3.252  1.00  0.00     0.163 HD
ENDROOT
BRANCH   1   5
ATOM      5  C   UNL     1      -0.696   1.405   0.062  1.00  0.00     0.102 C 
ATOM      6  C   UNL     1       1.236   0.556  -1.245  1.00  0.00     0.032 C 
ATOM      7  C   UNL     1       0.435   0.369   0.043  1.00  0.00     0.094 C 
ATOM      8  N   UNL     1      -0.234  -0.929   0.035  1.00  0.00    -0.339 N 
ATOM      9  C   UNL     1      -1.997   0.638  -0.184  1.00  0.00     0.037 C 
ATOM     10  C   UNL     1      -1.579  -0.796  -0.491  1.00  0.00     0.120 C 
BRANCH   8  11
ATOM     11  C   UNL     1       0.274  -2.170   0.365  1.00  0.00     0.228 C 
ATOM     12  O   UNL     1      -0.354  -3.203   0.118  1.00  0.00    -0.275 OA
BRANCH  11  13
ATOM     13  C   UNL     1       1.603  -2.262   1.103  1.00  0.00     0.161 C 
BRANCH  13  14
ATOM     14  C   UNL     1       2.808  -2.421   0.174  1.00  0.00     0.270 C 
BRANCH  14  15
ATOM     15  N   UNL     1       3.684  -1.244   0.224  1.00  0.00    -0.343 N 
ATOM     16  H   UNL     1       4.143  -1.224   1.135  1.00  0.00     0.346 HD
ATOM     17  H   UNL     1       3.091  -0.430   0.062  1.00  0.00     0.346 HD
BRANCH  15  18
ATOM     18  C   UNL     1       4.721  -1.222  -0.814  1.00  0.00     0.182 C 
ATOM     19  C   UNL     1       4.396  -1.252  -2.284  1.00  0.00     0.071 C 
ATOM     20  C   UNL     1       4.865   0.024  -1.655  1.00  0.00     0.071 C 
ENDBRANCH  15  18
ENDBRANCH  14  15
ENDBRANCH  13  14
ENDBRANCH  11  13
ENDBRANCH   8  11
ENDBRANCH   1   5
BRANCH   3  21
ATOM     21  C   UNL     1      -1.286   0.494   3.007  1.00  0.00     0.117 C 
BRANCH  21  22
ATOM     22  C   UNL     1      -0.270  -0.067   3.990  1.00  0.00     0.042 C 
BRANCH  22  23
ATOM     23  C   UNL     1      -0.135   0.750   5.267  1.00  0.00     0.118 C 
BRANCH  23  24
ATOM     24  N   UNL     1      -1.402   0.903   5.969  1.00  0.00    -0.352 N 
ATOM     25  C   UNL     1      -1.788   0.456   7.204  1.00  0.00     0.251 C 
ATOM     26  H   UNL     1      -2.090   1.407   5.477  1.00  0.00     0.163 HD
ATOM     27  O   UNL     1      -2.978   0.487   7.519  1.00  0.00    -0.269 OA
BRANCH  25  28
ATOM     28  C   UNL     1      -0.789  -0.071   8.153  1.00  0.00     0.039 A 
ATOM     29  C   UNL     1      -1.119  -1.180   8.935  1.00  0.00     0.014 A 
ATOM     30  C   UNL     1       0.459   0.541   8.295  1.00  0.00     0.014 A 
ATOM     31  C   UNL     1      -0.175  -1.709   9.815  1.00  0.00     0.010 A 
ATOM     32  C   UNL     1       1.431  -0.045   9.098  1.00  0.00     0.010 A 
ATOM     33  C   UNL     1       1.120  -1.168   9.876  1.00  0.00    -0.014 A 
BRANCH  33  34
ATOM     34  C   UNL     1       2.157  -1.765  10.753  1.00  0.00     0.031 A 
ATOM     35  C   UNL     1       2.753  -0.964  11.877  1.00  0.00     0.074 A 
ATOM     36  C   UNL     1       2.595  -3.013  10.501  1.00  0.00     0.049 A 
ATOM     37  N   UNL     1       3.690  -1.302  12.727  1.00  0.00    -0.248 NA
ATOM     38  C   UNL     1       2.252   0.408  12.053  1.00  0.00     0.031 C 
ATOM     39  C   UNL     1       2.137  -3.863   9.401  1.00  0.00     0.029 A 
ATOM     40  N   UNL     1       3.529  -3.782  11.149  1.00  0.00    -0.354 N 
ATOM     41  C   UNL     1       3.891  -0.186  13.530  1.00  0.00     0.074 A 
ATOM     42  C   UNL     1       3.032   0.861  13.023  1.00  0.00     0.031 C 
ATOM     43  C   UNL     1       2.768  -5.045   9.467  1.00  0.00     0.029 A 
ATOM     44  C   UNL     1       3.702  -5.023  10.587  1.00  0.00     0.049 A 
ATOM     45  H   UNL     1       4.026  -3.473  11.940  1.00  0.00     0.167 HD
ATOM     46  C   UNL     1       4.697  -0.057  14.610  1.00  0.00     0.037 A 
ATOM     47  C   UNL     1       4.527  -6.028  10.935  1.00  0.00     0.037 A 
ATOM     48  C   UNL     1       5.542  -1.107  15.116  1.00  0.00     0.049 A 
ATOM     49  C   UNL     1       5.417  -5.857  12.136  1.00  0.00     0.074 A 
ATOM     50  C   UNL     1       6.361  -1.097  16.231  1.00  0.00     0.029 A 
ATOM     51  N   UNL     1       5.681  -2.359  14.531  1.00  0.00    -0.354 N 
ATOM     52  N   UNL     1       5.545  -4.824  12.933  1.00  0.00    -0.248 NA
ATOM     53  C   UNL     1       6.270  -6.999  12.492  1.00  0.00     0.031 C 
ATOM     54  C   UNL     1       7.035  -2.321  16.291  1.00  0.00     0.029 A 
ATOM     55  C   UNL     1       6.591  -3.119  15.249  1.00  0.00     0.049 A 
ATOM     56  H   UNL     1       5.204  -2.661  13.725  1.00  0.00     0.167 HD
ATOM     57  C   UNL     1       6.472  -5.197  13.897  1.00  0.00     0.074 A 
ATOM     58  C   UNL     1       6.854  -6.562  13.598  1.00  0.00     0.031 C 
ATOM     59  C   UNL     1       6.964  -4.476  14.934  1.00  0.00     0.037 A 
BRANCH  46  60
ATOM     60  C   UNL     1       4.699   1.268  15.319  1.00  0.00     0.064 A 
ATOM     61  C   UNL     1       3.576   1.726  16.028  1.00  0.00     0.173 A 
ATOM     62  C   UNL     1       5.842   2.081  15.315  1.00  0.00     0.173 A 
ATOM     63  F   UNL     1       2.451   0.995  16.056  1.00  0.00    -0.203 F 
ATOM     64  C   UNL     1       3.587   2.959  16.674  1.00  0.00     0.198 A 
ATOM     65  C   UNL     1       5.862   3.298  15.992  1.00  0.00     0.198 A 
ATOM     66  F   UNL     1       6.946   1.693  14.658  1.00  0.00    -0.203 F 
ATOM     67  F   UNL     1       2.483   3.398  17.294  1.00  0.00    -0.200 F 
ATOM     68  C   UNL     1       4.731   3.741  16.662  1.00  0.00     0.200 A 
ATOM     69  F   UNL     1       6.974   4.046  15.991  1.00  0.00    -0.200 F 
ATOM     70  F   UNL     1       4.743   4.925  17.290  1.00  0.00    -0.200 F 
ENDBRANCH  46  60
BRANCH  47  71
ATOM     71  C   UNL     1       4.531  -7.289  10.148  1.00  0.00     0.064 A 
ATOM     72  C   UNL     1       4.049  -8.485  10.696  1.00  0.00     0.173 A 
ATOM     73  C   UNL     1       5.014  -7.323   8.831  1.00  0.00     0.173 A 
ATOM     74  F   UNL     1       3.594  -8.508  11.958  1.00  0.00    -0.203 F 
ATOM     75  C   UNL     1       4.072  -9.672   9.967  1.00  0.00     0.198 A 
ATOM     76  C   UNL     1       5.006  -8.504   8.092  1.00  0.00     0.198 A 
ATOM     77  F   UNL     1       5.479  -6.204   8.257  1.00  0.00    -0.203 F 
ATOM     78  F   UNL     1       3.651 -10.812  10.534  1.00  0.00    -0.200 F 
ATOM     79  C   UNL     1       4.545  -9.680   8.664  1.00  0.00     0.200 A 
ATOM     80  F   UNL     1       5.447  -8.502   6.827  1.00  0.00    -0.200 F 
ATOM     81  F   UNL     1       4.561 -10.820   7.961  1.00  0.00    -0.200 F 
ENDBRANCH  47  71
BRANCH  59  82
ATOM     82  C   UNL     1       7.950  -5.161  15.837  1.00  0.00     0.064 A 
ATOM     83  C   UNL     1       9.245  -5.486  15.404  1.00  0.00     0.173 A 
ATOM     84  C   UNL     1       7.601  -5.480  17.158  1.00  0.00     0.173 A 
ATOM     85  F   UNL     1       9.625  -5.215  14.146  1.00  0.00    -0.203 F 
ATOM     86  C   UNL     1      10.140  -6.138  16.249  1.00  0.00     0.198 A 
ATOM     87  C   UNL     1       8.511  -6.099  18.011  1.00  0.00     0.198 A 
ATOM     88  F   UNL     1       6.379  -5.184  17.626  1.00  0.00    -0.203 F 
ATOM     89  F   UNL     1      11.349  -6.494  15.794  1.00  0.00    -0.200 F 
ATOM     90  C   UNL     1       9.774  -6.438  17.552  1.00  0.00     0.200 A 
ATOM     91  F   UNL     1       8.162  -6.373  19.276  1.00  0.00    -0.200 F 
ATOM     92  F   UNL     1      10.638  -7.063  18.365  1.00  0.00    -0.200 F 
ENDBRANCH  59  82
ENDBRANCH  33  34
ENDBRANCH  25  28
ENDBRANCH  23  24
ENDBRANCH  22  23
ENDBRANCH  21  22
ENDBRANCH   3  21
TORSDOF 15
