REMARK SMILES Cc1nn(CC(=O)NCCCNC(=O)c2ccc(-c3c4nc(c(-c5c(F)c(F)c(F)c(F)c5F)c5ccc([nH]5)c(-c5c(F)c(F)c(F)c(F)c5F)c5nc(c(-c6c(F)c(F)c(F)c(F)c6F)c6ccc3[nH]6)C=C5)C=C4)cc2)c(C)c1NC(=O)C(=O)Nc1ccc(F)cc1
REMARK SMILES IDX 9 1 8 2 6 3 7 4 5 6 4 7 1 8 2 9 3 10 80 11 78 12 79 13 81 14
REMARK SMILES IDX 82 15 83 17 84 18 85 19 86 20 87 22 88 23 93 24 89 25 92 26
REMARK SMILES IDX 90 27 91 28 10 29 11 30 12 31 13 32 14 34 15 35 16 36 77 37
REMARK SMILES IDX 17 38 76 39 18 40 19 41 20 42 70 43 21 44 75 45 69 46 71 47
REMARK SMILES IDX 22 48 74 49 68 50 67 51 23 53 55 54 35 55 54 56 36 57 39 58
REMARK SMILES IDX 53 59 72 60 37 61 38 62 52 64 73 65 40 66 24 67 25 68 33 69
REMARK SMILES IDX 26 70 27 71 31 72 34 73 28 74 29 75 32 76 30 77 56 78 57 79
REMARK SMILES IDX 65 80 58 81 59 82 63 83 66 84 60 85 61 86 64 87 62 88 41 89
REMARK SMILES IDX 42 90 50 91 43 92 44 93 48 94 51 95 45 96 46 97 49 98 47 99
REMARK H PARENT 8 5 81 16 86 21 12 33 71 52 39 63
REMARK Flexibility Score: inf
ROOT
ATOM      1  C   UNL     1      -0.154  -5.263  -3.069  1.00  0.00     0.117 C 
ENDROOT
BRANCH   1   2
ATOM      2  N   UNL     1       1.089  -5.708  -2.461  1.00  0.00    -0.354 N 
ATOM      3  C   UNL     1       1.502  -5.731  -1.159  1.00  0.00     0.241 C 
ATOM      4  O   UNL     1       2.591  -6.278  -0.944  1.00  0.00    -0.273 OA
ATOM      5  H   UNL     1       1.751  -6.055  -3.101  1.00  0.00     0.163 HD
BRANCH   3   6
ATOM      6  C   UNL     1       0.643  -5.269   0.000  1.00  0.00     0.244 C 
BRANCH   6   7
ATOM      7  N   UNL     1       0.103  -3.926  -0.129  1.00  0.00    -0.258 N 
ATOM      8  C   UNL     1       0.819  -0.470  -0.017  1.00  0.00     0.071 C 
ATOM      9  C   UNL     1       0.193  -1.814  -0.133  1.00  0.00     0.083 A 
ATOM     10  N   UNL     1       0.956  -2.897  -0.007  1.00  0.00    -0.175 NA
ATOM     11  C   UNL     1      -1.182  -2.145  -0.363  1.00  0.00     0.086 A 
ATOM     12  C   UNL     1      -1.214  -3.532  -0.304  1.00  0.00     0.060 A 
ATOM     13  C   UNL     1      -2.299  -4.540  -0.432  1.00  0.00     0.069 C 
BRANCH  11  14
ATOM     14  N   UNL     1      -2.136  -1.168  -0.603  1.00  0.00    -0.315 N 
ATOM     15  C   UNL     1      -3.502  -1.140  -0.737  1.00  0.00     0.314 C 
ATOM     16  H   UNL     1      -1.736  -0.274  -0.701  1.00  0.00     0.170 HD
ATOM     17  O   UNL     1      -4.057  -0.083  -1.026  1.00  0.00    -0.263 OA
BRANCH  15  18
ATOM     18  C   UNL     1      -4.342  -2.361  -0.422  1.00  0.00     0.314 C 
ATOM     19  O   UNL     1      -4.338  -2.815   0.718  1.00  0.00    -0.263 OA
ATOM     20  N   UNL     1      -5.088  -2.969  -1.425  1.00  0.00    -0.318 N 
ATOM     21  H   UNL     1      -4.869  -3.886  -1.710  1.00  0.00     0.170 HD
BRANCH  20  22
ATOM     22  C   UNL     1      -6.155  -2.281  -2.035  1.00  0.00     0.041 A 
ATOM     23  C   UNL     1      -7.446  -2.667  -1.651  1.00  0.00     0.029 A 
ATOM     24  C   UNL     1      -5.974  -1.220  -2.920  1.00  0.00     0.029 A 
ATOM     25  C   UNL     1      -8.547  -1.921  -2.061  1.00  0.00     0.041 A 
ATOM     26  C   UNL     1      -7.083  -0.485  -3.346  1.00  0.00     0.041 A 
ATOM     27  C   UNL     1      -8.354  -0.826  -2.892  1.00  0.00     0.123 A 
ATOM     28  F   UNL     1      -9.408  -0.081  -3.251  1.00  0.00    -0.207 F 
ENDBRANCH  20  22
ENDBRANCH  15  18
ENDBRANCH  11  14
ENDBRANCH   6   7
ENDBRANCH   3   6
ENDBRANCH   1   2
BRANCH   1  29
ATOM     29  C   UNL     1      -0.135  -3.799  -3.521  1.00  0.00     0.042 C 
BRANCH  29  30
ATOM     30  C   UNL     1       0.544  -3.629  -4.865  1.00  0.00     0.118 C 
BRANCH  30  31
ATOM     31  N   UNL     1      -0.238  -4.162  -5.999  1.00  0.00    -0.352 N 
ATOM     32  C   UNL     1       0.128  -4.222  -7.339  1.00  0.00     0.251 C 
ATOM     33  H   UNL     1      -1.129  -4.519  -5.778  1.00  0.00     0.163 HD
ATOM     34  O   UNL     1      -0.705  -4.363  -8.232  1.00  0.00    -0.269 OA
BRANCH  32  35
ATOM     35  C   UNL     1       1.561  -4.152  -7.655  1.00  0.00     0.039 A 
ATOM     36  C   UNL     1       2.127  -3.377  -8.671  1.00  0.00     0.014 A 
ATOM     37  C   UNL     1       2.360  -4.800  -6.735  1.00  0.00     0.014 A 
ATOM     38  C   UNL     1       3.516  -3.244  -8.687  1.00  0.00     0.010 A 
ATOM     39  C   UNL     1       3.575  -4.253  -6.500  1.00  0.00     0.010 A 
ATOM     40  C   UNL     1       4.234  -3.704  -7.574  1.00  0.00    -0.014 A 
BRANCH  40  41
ATOM     41  C   UNL     1       5.668  -3.589  -7.385  1.00  0.00     0.031 A 
ATOM     42  C   UNL     1       6.144  -2.192  -7.444  1.00  0.00     0.074 A 
ATOM     43  C   UNL     1       6.411  -4.627  -6.923  1.00  0.00     0.049 A 
ATOM     44  N   UNL     1       6.777  -1.624  -8.413  1.00  0.00    -0.248 NA
ATOM     45  C   UNL     1       5.688  -1.257  -6.402  1.00  0.00     0.031 C 
ATOM     46  C   UNL     1       5.962  -5.966  -6.488  1.00  0.00     0.029 A 
ATOM     47  N   UNL     1       7.747  -4.681  -6.663  1.00  0.00    -0.354 N 
ATOM     48  C   UNL     1       7.030  -0.327  -7.979  1.00  0.00     0.074 A 
ATOM     49  C   UNL     1       6.142  -0.093  -6.875  1.00  0.00     0.031 C 
ATOM     50  C   UNL     1       6.953  -6.602  -5.825  1.00  0.00     0.029 A 
ATOM     51  C   UNL     1       8.159  -5.812  -5.956  1.00  0.00     0.049 A 
ATOM     52  H   UNL     1       8.373  -3.978  -6.952  1.00  0.00     0.167 HD
ATOM     53  C   UNL     1       8.183   0.299  -8.351  1.00  0.00     0.037 A 
ATOM     54  C   UNL     1       9.418  -6.076  -5.529  1.00  0.00     0.037 A 
ATOM     55  C   UNL     1       8.831  -0.447  -9.405  1.00  0.00     0.049 A 
ATOM     56  C   UNL     1      10.320  -5.244  -6.358  1.00  0.00     0.074 A 
ATOM     57  C   UNL     1       8.602  -0.693 -10.741  1.00  0.00     0.029 A 
ATOM     58  N   UNL     1       9.646  -1.447  -8.941  1.00  0.00    -0.354 N 
ATOM     59  N   UNL     1      10.460  -5.407  -7.646  1.00  0.00    -0.248 NA
ATOM     60  C   UNL     1      10.744  -3.951  -5.841  1.00  0.00     0.031 C 
ATOM     61  C   UNL     1       9.111  -2.007 -10.988  1.00  0.00     0.029 A 
ATOM     62  C   UNL     1       9.698  -2.494  -9.820  1.00  0.00     0.049 A 
ATOM     63  H   UNL     1      10.132  -1.415  -8.085  1.00  0.00     0.167 HD
ATOM     64  C   UNL     1      10.584  -4.123  -8.149  1.00  0.00     0.074 A 
ATOM     65  C   UNL     1      10.909  -3.293  -6.992  1.00  0.00     0.031 C 
ATOM     66  C   UNL     1      10.099  -3.817  -9.390  1.00  0.00     0.037 A 
BRANCH  53  67
ATOM     67  C   UNL     1       8.991   1.224  -7.460  1.00  0.00     0.064 A 
ATOM     68  C   UNL     1      10.122   1.868  -8.005  1.00  0.00     0.173 A 
ATOM     69  C   UNL     1       8.903   1.253  -6.051  1.00  0.00     0.173 A 
ATOM     70  F   UNL     1      10.323   1.886  -9.331  1.00  0.00    -0.203 F 
ATOM     71  C   UNL     1      11.116   2.430  -7.197  1.00  0.00     0.198 A 
ATOM     72  C   UNL     1       9.872   1.857  -5.251  1.00  0.00     0.198 A 
ATOM     73  F   UNL     1       7.949   0.603  -5.377  1.00  0.00    -0.203 F 
ATOM     74  F   UNL     1      12.229   2.925  -7.756  1.00  0.00    -0.200 F 
ATOM     75  C   UNL     1      10.993   2.419  -5.820  1.00  0.00     0.200 A 
ATOM     76  F   UNL     1       9.744   1.812  -3.917  1.00  0.00    -0.200 F 
ATOM     77  F   UNL     1      11.970   2.902  -5.042  1.00  0.00    -0.200 F 
ENDBRANCH  53  67
BRANCH  54  78
ATOM     78  C   UNL     1       9.854  -6.692  -4.251  1.00  0.00     0.064 A 
ATOM     79  C   UNL     1      11.152  -7.204  -4.086  1.00  0.00     0.173 A 
ATOM     80  C   UNL     1       9.103  -6.500  -3.075  1.00  0.00     0.173 A 
ATOM     81  F   UNL     1      11.948  -7.373  -5.152  1.00  0.00    -0.203 F 
ATOM     82  C   UNL     1      11.679  -7.476  -2.817  1.00  0.00     0.198 A 
ATOM     83  C   UNL     1       9.631  -6.768  -1.810  1.00  0.00     0.198 A 
ATOM     84  F   UNL     1       7.883  -5.947  -3.130  1.00  0.00    -0.203 F 
ATOM     85  F   UNL     1      12.944  -7.902  -2.693  1.00  0.00    -0.200 F 
ATOM     86  C   UNL     1      10.923  -7.244  -1.680  1.00  0.00     0.200 A 
ATOM     87  F   UNL     1       8.906  -6.495  -0.716  1.00  0.00    -0.200 F 
ATOM     88  F   UNL     1      11.451  -7.433  -0.462  1.00  0.00    -0.200 F 
ENDBRANCH  54  78
BRANCH  66  89
ATOM     89  C   UNL     1       9.835  -4.965 -10.323  1.00  0.00     0.064 A 
ATOM     90  C   UNL     1       8.821  -5.923 -10.153  1.00  0.00     0.173 A 
ATOM     91  C   UNL     1      10.602  -5.045 -11.491  1.00  0.00     0.173 A 
ATOM     92  F   UNL     1       7.991  -5.870  -9.106  1.00  0.00    -0.203 F 
ATOM     93  C   UNL     1       8.617  -6.938 -11.089  1.00  0.00     0.198 A 
ATOM     94  C   UNL     1      10.377  -6.037 -12.440  1.00  0.00     0.198 A 
ATOM     95  F   UNL     1      11.554  -4.130 -11.730  1.00  0.00    -0.203 F 
ATOM     96  F   UNL     1       7.653  -7.850 -10.894  1.00  0.00    -0.200 F 
ATOM     97  C   UNL     1       9.393  -6.990 -12.234  1.00  0.00     0.200 A 
ATOM     98  F   UNL     1      11.103  -6.056 -13.566  1.00  0.00    -0.200 F 
ATOM     99  F   UNL     1       9.181  -7.947 -13.149  1.00  0.00    -0.200 F 
ENDBRANCH  66  89
ENDBRANCH  40  41
ENDBRANCH  32  35
ENDBRANCH  30  31
ENDBRANCH  29  30
ENDBRANCH   1  29
TORSDOF 14
