REMARK SMILES COc1ccc(CNC(=O)[C@H]2CC(C)=C(C)C[C@@H]2C(=O)NCCCNC(=O)c2ccc(-c3c4nc(c(-c5c(F)c(F)c(F)c(F)c5F)c5ccc([nH]5)c(-c5c(F)c(F)c(F)c(F)c5F)c5nc(c(-c6c(F)c(F)c(F)c(F)c6F)c6ccc3[nH]6)C=C5)C=C4)cc2)cc1OC
REMARK SMILES IDX 22 1 21 2 19 3 20 4 18 6 11 7 12 8 13 9 17 10 14 11 15 12
REMARK SMILES IDX 16 13 9 14 8 15 10 17 7 18 6 19 3 20 4 21 92 22 5 23 91 24
REMARK SMILES IDX 2 25 1 26 93 27 94 28 23 29 24 30 25 31 26 32 27 34 28 35
REMARK SMILES IDX 29 36 90 37 30 38 89 39 31 40 32 41 33 42 83 43 34 44 88 45
REMARK SMILES IDX 82 46 84 47 35 48 87 49 81 50 80 51 36 53 68 54 48 55 67 56
REMARK SMILES IDX 49 57 52 58 66 59 85 60 50 61 51 62 65 64 86 65 53 66 37 67
REMARK SMILES IDX 38 68 46 69 39 70 40 71 44 72 47 73 41 74 42 75 45 76 43 77
REMARK SMILES IDX 69 78 70 79 78 80 71 81 72 82 76 83 79 84 73 85 74 86 77 87
REMARK SMILES IDX 75 88 54 89 55 90 63 91 56 92 57 93 61 94 64 95 58 96 59 97
REMARK SMILES IDX 62 98 60 99
REMARK H PARENT 21 5 8 16 25 33 84 52 52 63
REMARK Flexibility Score: inf
ROOT
ATOM      1  C   UNL     1      -0.456 -12.865  -2.254  1.00  0.00     0.117 C 
ENDROOT
BRANCH   1   2
ATOM      2  N   UNL     1      -1.555 -11.914  -2.263  1.00  0.00    -0.356 N 
ATOM      3  C   UNL     1      -1.530 -10.553  -2.128  1.00  0.00     0.224 C 
ATOM      4  O   UNL     1      -2.598  -9.947  -2.195  1.00  0.00    -0.275 OA
ATOM      5  H   UNL     1      -2.449 -12.307  -2.384  1.00  0.00     0.163 HD
BRANCH   3   6
ATOM      6  C   UNL     1      -0.186  -9.860  -1.924  1.00  0.00     0.095 C 
ATOM      7  C   UNL     1      -0.373  -8.451  -1.321  1.00  0.00     0.095 C 
ATOM      8  C   UNL     1      -0.499  -7.339  -2.360  1.00  0.00     0.045 C 
ATOM      9  C   UNL     1       0.348  -7.467  -3.603  1.00  0.00    -0.074 C 
ATOM     10  C   UNL     1       0.634  -9.921  -3.223  1.00  0.00     0.045 C 
ATOM     11  C   UNL     1       0.563  -6.171  -4.346  1.00  0.00     0.039 C 
ATOM     12  C   UNL     1       0.847  -8.652  -4.001  1.00  0.00    -0.074 C 
ATOM     13  C   UNL     1       1.630  -8.838  -5.277  1.00  0.00     0.039 C 
BRANCH   7  14
ATOM     14  C   UNL     1       0.517  -8.305  -0.083  1.00  0.00     0.224 C 
ATOM     15  N   UNL     1       1.469  -7.376   0.122  1.00  0.00    -0.352 N 
ATOM     16  H   UNL     1       1.810  -7.371   1.046  1.00  0.00     0.163 HD
ATOM     17  O   UNL     1       0.357  -9.106   0.852  1.00  0.00    -0.275 OA
BRANCH  15  18
ATOM     18  C   UNL     1       2.097  -6.385  -0.718  1.00  0.00     0.151 C 
BRANCH  18  19
ATOM     19  C   UNL     1       1.762  -4.967  -0.322  1.00  0.00    -0.025 A 
ATOM     20  C   UNL     1       1.258  -2.278   0.383  1.00  0.00     0.160 A 
ATOM     21  C   UNL     1       0.235  -3.233   0.439  1.00  0.00     0.051 A 
ATOM     22  C   UNL     1       2.540  -2.653  -0.027  1.00  0.00     0.161 A 
ATOM     23  C   UNL     1       0.485  -4.566   0.088  1.00  0.00     0.009 A 
ATOM     24  C   UNL     1       2.767  -3.989  -0.393  1.00  0.00     0.056 A 
BRANCH  20  25
ATOM     25  O   UNL     1       0.986  -1.027   0.869  1.00  0.00    -0.493 OA
ATOM     26  C   UNL     1       0.293  -0.219  -0.081  1.00  0.00     0.278 C 
ENDBRANCH  20  25
BRANCH  22  27
ATOM     27  O   UNL     1       3.676  -1.897  -0.110  1.00  0.00    -0.493 OA
ATOM     28  C   UNL     1       3.587  -0.498   0.100  1.00  0.00     0.278 C 
ENDBRANCH  22  27
ENDBRANCH  18  19
ENDBRANCH  15  18
ENDBRANCH   7  14
ENDBRANCH   3   6
ENDBRANCH   1   2
BRANCH   1  29
ATOM     29  C   UNL     1      -0.460 -13.754  -1.020  1.00  0.00     0.042 C 
BRANCH  29  30
ATOM     30  C   UNL     1      -1.717 -14.600  -0.866  1.00  0.00     0.118 C 
BRANCH  30  31
ATOM     31  N   UNL     1      -1.954 -15.479  -2.004  1.00  0.00    -0.352 N 
ATOM     32  C   UNL     1      -2.095 -16.841  -2.064  1.00  0.00     0.251 C 
ATOM     33  H   UNL     1      -2.023 -15.020  -2.872  1.00  0.00     0.163 HD
ATOM     34  O   UNL     1      -2.122 -17.398  -3.163  1.00  0.00    -0.269 OA
BRANCH  32  35
ATOM     35  C   UNL     1      -2.193 -17.651  -0.832  1.00  0.00     0.039 A 
ATOM     36  C   UNL     1      -1.552 -18.892  -0.795  1.00  0.00     0.014 A 
ATOM     37  C   UNL     1      -2.932 -17.216   0.271  1.00  0.00     0.014 A 
ATOM     38  C   UNL     1      -1.605 -19.667   0.365  1.00  0.00     0.010 A 
ATOM     39  C   UNL     1      -2.905 -17.944   1.457  1.00  0.00     0.010 A 
ATOM     40  C   UNL     1      -2.254 -19.183   1.513  1.00  0.00    -0.014 A 
BRANCH  40  41
ATOM     41  C   UNL     1      -2.262 -19.972   2.771  1.00  0.00     0.031 A 
ATOM     42  C   UNL     1      -3.554 -20.486   3.343  1.00  0.00     0.074 A 
ATOM     43  C   UNL     1      -1.103 -20.200   3.418  1.00  0.00     0.049 A 
ATOM     44  N   UNL     1      -3.757 -21.203   4.420  1.00  0.00    -0.248 NA
ATOM     45  C   UNL     1      -4.785 -20.123   2.625  1.00  0.00     0.031 C 
ATOM     46  C   UNL     1       0.210 -19.712   2.994  1.00  0.00     0.029 A 
ATOM     47  N   UNL     1      -0.842 -20.905   4.566  1.00  0.00    -0.354 N 
ATOM     48  C   UNL     1      -5.133 -21.373   4.507  1.00  0.00     0.074 A 
ATOM     49  C   UNL     1      -5.719 -20.621   3.419  1.00  0.00     0.031 C 
ATOM     50  C   UNL     1       1.143 -20.174   3.841  1.00  0.00     0.029 A 
ATOM     51  C   UNL     1       0.492 -20.957   4.886  1.00  0.00     0.049 A 
ATOM     52  H   UNL     1      -1.544 -21.333   5.107  1.00  0.00     0.167 HD
ATOM     53  C   UNL     1      -5.843 -22.113   5.393  1.00  0.00     0.037 A 
ATOM     54  C   UNL     1       1.119 -21.576   5.904  1.00  0.00     0.037 A 
ATOM     55  C   UNL     1      -5.256 -22.859   6.477  1.00  0.00     0.049 A 
ATOM     56  C   UNL     1       0.308 -22.369   6.891  1.00  0.00     0.074 A 
ATOM     57  C   UNL     1      -5.881 -23.669   7.409  1.00  0.00     0.029 A 
ATOM     58  N   UNL     1      -3.901 -22.877   6.780  1.00  0.00    -0.354 N 
ATOM     59  N   UNL     1      -0.985 -22.584   6.923  1.00  0.00    -0.248 NA
ATOM     60  C   UNL     1       1.052 -23.017   7.978  1.00  0.00     0.031 C 
ATOM     61  C   UNL     1      -4.912 -24.133   8.307  1.00  0.00     0.029 A 
ATOM     62  C   UNL     1      -3.674 -23.665   7.899  1.00  0.00     0.049 A 
ATOM     63  H   UNL     1      -3.204 -22.399   6.275  1.00  0.00     0.167 HD
ATOM     64  C   UNL     1      -1.207 -23.418   8.011  1.00  0.00     0.074 A 
ATOM     65  C   UNL     1       0.090 -23.684   8.600  1.00  0.00     0.031 C 
ATOM     66  C   UNL     1      -2.378 -23.919   8.479  1.00  0.00     0.037 A 
BRANCH  53  67
ATOM     67  C   UNL     1      -7.337 -22.139   5.221  1.00  0.00     0.064 A 
ATOM     68  C   UNL     1      -7.940 -22.738   4.101  1.00  0.00     0.173 A 
ATOM     69  C   UNL     1      -8.179 -21.552   6.177  1.00  0.00     0.173 A 
ATOM     70  F   UNL     1      -7.183 -23.305   3.150  1.00  0.00    -0.203 F 
ATOM     71  C   UNL     1      -9.320 -22.702   3.922  1.00  0.00     0.198 A 
ATOM     72  C   UNL     1      -9.562 -21.552   6.013  1.00  0.00     0.198 A 
ATOM     73  F   UNL     1      -7.662 -20.972   7.270  1.00  0.00    -0.203 F 
ATOM     74  F   UNL     1      -9.863 -23.214   2.809  1.00  0.00    -0.200 F 
ATOM     75  C   UNL     1     -10.131 -22.113   4.880  1.00  0.00     0.200 A 
ATOM     76  F   UNL     1     -10.346 -20.996   6.948  1.00  0.00    -0.200 F 
ATOM     77  F   UNL     1     -11.459 -22.076   4.705  1.00  0.00    -0.200 F 
ENDBRANCH  53  67
BRANCH  54  78
ATOM     78  C   UNL     1       2.600 -21.518   6.004  1.00  0.00     0.064 A 
ATOM     79  C   UNL     1       3.377 -22.662   5.769  1.00  0.00     0.173 A 
ATOM     80  C   UNL     1       3.269 -20.329   6.327  1.00  0.00     0.173 A 
ATOM     81  F   UNL     1       2.780 -23.827   5.476  1.00  0.00    -0.203 F 
ATOM     82  C   UNL     1       4.765 -22.623   5.870  1.00  0.00     0.198 A 
ATOM     83  C   UNL     1       4.660 -20.285   6.399  1.00  0.00     0.198 A 
ATOM     84  F   UNL     1       2.573 -19.207   6.556  1.00  0.00    -0.203 F 
ATOM     85  F   UNL     1       5.480 -23.740   5.683  1.00  0.00    -0.200 F 
ATOM     86  C   UNL     1       5.406 -21.433   6.179  1.00  0.00     0.200 A 
ATOM     87  F   UNL     1       5.277 -19.129   6.682  1.00  0.00    -0.200 F 
ATOM     88  F   UNL     1       6.743 -21.393   6.269  1.00  0.00    -0.200 F 
ENDBRANCH  54  78
BRANCH  66  89
ATOM     89  C   UNL     1      -2.300 -24.841   9.665  1.00  0.00     0.064 A 
ATOM     90  C   UNL     1      -1.930 -24.382  10.938  1.00  0.00     0.173 A 
ATOM     91  C   UNL     1      -2.598 -26.205   9.522  1.00  0.00     0.173 A 
ATOM     92  F   UNL     1      -1.620 -23.090  11.127  1.00  0.00    -0.203 F 
ATOM     93  C   UNL     1      -1.815 -25.262  12.012  1.00  0.00     0.198 A 
ATOM     94  C   UNL     1      -2.519 -27.075  10.607  1.00  0.00     0.198 A 
ATOM     95  F   UNL     1      -2.966 -26.697   8.330  1.00  0.00    -0.203 F 
ATOM     96  F   UNL     1      -1.388 -24.812  13.200  1.00  0.00    -0.200 F 
ATOM     97  C   UNL     1      -2.114 -26.605  11.847  1.00  0.00     0.200 A 
ATOM     98  F   UNL     1      -2.824 -28.370  10.448  1.00  0.00    -0.200 F 
ATOM     99  F   UNL     1      -1.999 -27.451  12.880  1.00  0.00    -0.200 F 
ENDBRANCH  66  89
ENDBRANCH  40  41
ENDBRANCH  32  35
ENDBRANCH  30  31
ENDBRANCH  29  30
ENDBRANCH   1  29
TORSDOF 15
