REMARK SMILES CC1=C(C)C[C@H](C(=O)Nc2sc3c(c2C(=O)NC2CCCC2)CCCC3)[C@@H](C(=O)NCCCNC(=O)c2ccc(-c3c4nc(c(-c5c(F)c(F)c(F)c(F)c5F)c5ccc([nH]5)c(-c5c(F)c(F)c(F)c(F)c5F)c5nc(c(-c6c(F)c(F)c(F)c(F)c6F)c6ccc3[nH]6)C=C5)C=C4)cc2)C1
REMARK SMILES IDX 31 1 30 2 28 3 29 4 27 6 1 7 2 8 3 9 100 10 4 11 5 12 6 13
REMARK SMILES IDX 7 14 8 15 9 16 10 18 11 19 14 20 12 21 13 22 26 23 23 24
REMARK SMILES IDX 25 25 24 26 15 27 16 28 17 29 18 31 19 32 22 33 20 34 21 35
REMARK SMILES IDX 32 36 33 37 34 38 35 39 36 41 37 42 38 43 99 44 39 45 98 46
REMARK SMILES IDX 40 47 41 48 42 49 92 50 43 51 97 52 91 53 93 54 44 55 96 56
REMARK SMILES IDX 90 57 89 58 45 60 77 61 57 62 76 63 58 64 61 65 75 66 94 67
REMARK SMILES IDX 59 68 60 69 74 71 95 72 62 73 46 74 47 75 55 76 48 77 49 78
REMARK SMILES IDX 53 79 56 80 50 81 51 82 54 83 52 84 78 85 79 86 87 87 80 88
REMARK SMILES IDX 81 89 85 90 88 91 82 92 83 93 86 94 84 95 63 96 64 97 72 98
REMARK SMILES IDX 65 99 66 100 70 101 73 102 67 103 68 104 71 105 69 106
REMARK H PARENT 30 5 9 17 17 30 34 40 93 59 61 70
REMARK Flexibility Score: inf
ROOT
ATOM      1  C   UNL     1       1.110   6.364  -0.429  1.00  0.00     0.117 C 
ENDROOT
BRANCH   1   2
ATOM      2  N   UNL     1       1.954   5.536   0.416  1.00  0.00    -0.356 N 
ATOM      3  C   UNL     1       1.807   4.276   0.911  1.00  0.00     0.224 C 
ATOM      4  O   UNL     1       2.805   3.786   1.452  1.00  0.00    -0.275 OA
ATOM      5  H   UNL     1       2.796   5.971   0.683  1.00  0.00     0.163 HD
BRANCH   3   6
ATOM      6  C   UNL     1       0.495   3.487   0.808  1.00  0.00     0.095 C 
ATOM      7  C   UNL     1       1.008  -0.280  -0.298  1.00  0.00     0.039 C 
ATOM      8  C   UNL     1       0.486   0.852   0.555  1.00  0.00    -0.074 C 
ATOM      9  C   UNL     1      -0.225   0.695   1.688  1.00  0.00    -0.074 C 
ATOM     10  C   UNL     1       0.821   2.215  -0.012  1.00  0.00     0.045 C 
ATOM     11  C   UNL     1      -0.646  -0.622   2.293  1.00  0.00     0.039 C 
ATOM     12  C   UNL     1      -0.751   1.877   2.453  1.00  0.00     0.045 C 
ATOM     13  C   UNL     1      -0.055   3.235   2.233  1.00  0.00     0.095 C 
BRANCH  13  14
ATOM     14  C   UNL     1      -1.102   4.305   2.562  1.00  0.00     0.229 C 
ATOM     15  O   UNL     1      -2.231   4.211   2.053  1.00  0.00    -0.274 OA
ATOM     16  N   UNL     1      -0.914   5.419   3.314  1.00  0.00    -0.317 N 
ATOM     17  H   UNL     1      -1.755   5.898   3.493  1.00  0.00     0.170 HD
BRANCH  16  18
ATOM     18  C   UNL     1       0.178   6.041   3.887  1.00  0.00     0.108 A 
ATOM     19  S   UNL     1       1.636   5.237   4.125  1.00  0.00    -0.122 S 
ATOM     20  C   UNL     1       0.220   7.354   4.385  1.00  0.00     0.078 A 
ATOM     21  C   UNL     1       2.472   6.688   4.224  1.00  0.00     0.011 A 
ATOM     22  C   UNL     1       1.626   7.771   4.407  1.00  0.00    -0.019 A 
ATOM     23  C   UNL     1       3.961   6.720   4.070  1.00  0.00     0.047 C 
ATOM     24  C   UNL     1       2.238   9.137   4.544  1.00  0.00     0.037 C 
ATOM     25  C   UNL     1       4.520   8.037   4.604  1.00  0.00     0.006 C 
ATOM     26  C   UNL     1       3.693   9.200   4.065  1.00  0.00     0.005 C 
BRANCH  20  27
ATOM     27  C   UNL     1      -1.062   8.065   4.609  1.00  0.00     0.254 C 
ATOM     28  O   UNL     1      -2.078   7.727   3.992  1.00  0.00    -0.269 OA
ATOM     29  N   UNL     1      -1.250   9.036   5.563  1.00  0.00    -0.349 N 
ATOM     30  H   UNL     1      -2.192   9.262   5.739  1.00  0.00     0.164 HD
BRANCH  29  31
ATOM     31  C   UNL     1      -0.304   9.772   6.343  1.00  0.00     0.082 C 
ATOM     32  C   UNL     1      -0.834  11.020   7.040  1.00  0.00     0.025 C 
ATOM     33  C   UNL     1       0.333   9.019   7.504  1.00  0.00     0.025 C 
ATOM     34  C   UNL     1       0.396  11.438   7.846  1.00  0.00     0.002 C 
ATOM     35  C   UNL     1       1.051  10.122   8.286  1.00  0.00     0.002 C 
ENDBRANCH  29  31
ENDBRANCH  20  27
ENDBRANCH  16  18
ENDBRANCH  13  14
ENDBRANCH   3   6
ENDBRANCH   1   2
BRANCH   1  36
ATOM     36  C   UNL     1       0.703   7.691   0.223  1.00  0.00     0.042 C 
BRANCH  36  37
ATOM     37  C   UNL     1       1.844   8.654   0.581  1.00  0.00     0.118 C 
BRANCH  37  38
ATOM     38  N   UNL     1       2.453   9.309  -0.572  1.00  0.00    -0.352 N 
ATOM     39  C   UNL     1       2.747  10.640  -0.792  1.00  0.00     0.251 C 
ATOM     40  H   UNL     1       2.693   8.706  -1.311  1.00  0.00     0.163 HD
ATOM     41  O   UNL     1       3.193  10.995  -1.878  1.00  0.00    -0.269 OA
BRANCH  39  42
ATOM     42  C   UNL     1       2.519  11.661   0.259  1.00  0.00     0.039 A 
ATOM     43  C   UNL     1       1.792  12.813  -0.037  1.00  0.00     0.014 A 
ATOM     44  C   UNL     1       3.074  11.521   1.528  1.00  0.00     0.014 A 
ATOM     45  C   UNL     1       1.541  13.762   0.966  1.00  0.00     0.010 A 
ATOM     46  C   UNL     1       2.753  12.424   2.552  1.00  0.00     0.010 A 
ATOM     47  C   UNL     1       1.963  13.553   2.294  1.00  0.00    -0.014 A 
BRANCH  47  48
ATOM     48  C   UNL     1       1.535  14.477   3.395  1.00  0.00     0.031 A 
ATOM     49  C   UNL     1       2.526  15.191   4.286  1.00  0.00     0.074 A 
ATOM     50  C   UNL     1       0.217  14.654   3.637  1.00  0.00     0.049 A 
ATOM     51  N   UNL     1       2.297  16.022   5.278  1.00  0.00    -0.248 NA
ATOM     52  C   UNL     1       3.952  14.915   4.066  1.00  0.00     0.031 C 
ATOM     53  C   UNL     1      -0.872  13.971   2.937  1.00  0.00     0.029 A 
ATOM     54  N   UNL     1      -0.434  15.475   4.530  1.00  0.00    -0.354 N 
ATOM     55  C   UNL     1       3.542  16.351   5.804  1.00  0.00     0.074 A 
ATOM     56  C   UNL     1       4.520  15.585   5.060  1.00  0.00     0.031 C 
ATOM     57  C   UNL     1      -2.048  14.449   3.372  1.00  0.00     0.029 A 
ATOM     58  C   UNL     1      -1.804  15.445   4.410  1.00  0.00     0.049 A 
ATOM     59  H   UNL     1       0.036  16.031   5.192  1.00  0.00     0.167 HD
ATOM     60  C   UNL     1       3.852  17.230   6.790  1.00  0.00     0.037 A 
ATOM     61  C   UNL     1      -2.762  16.148   5.046  1.00  0.00     0.037 A 
ATOM     62  C   UNL     1       2.903  18.047   7.503  1.00  0.00     0.049 A 
ATOM     63  C   UNL     1      -2.386  17.164   6.090  1.00  0.00     0.074 A 
ATOM     64  C   UNL     1       3.147  19.007   8.473  1.00  0.00     0.029 A 
ATOM     65  N   UNL     1       1.531  18.017   7.314  1.00  0.00    -0.354 N 
ATOM     66  N   UNL     1      -1.199  17.508   6.520  1.00  0.00    -0.248 NA
ATOM     67  C   UNL     1      -3.491  17.895   6.731  1.00  0.00     0.031 C 
ATOM     68  C   UNL     1       1.922  19.542   8.887  1.00  0.00     0.029 A 
ATOM     69  C   UNL     1       0.918  18.940   8.150  1.00  0.00     0.049 A 
ATOM     70  H   UNL     1       1.060  17.429   6.681  1.00  0.00     0.167 HD
ATOM     71  C   UNL     1      -1.411  18.512   7.455  1.00  0.00     0.074 A 
ATOM     72  C   UNL     1      -2.838  18.735   7.521  1.00  0.00     0.031 C 
ATOM     73  C   UNL     1      -0.498  19.183   8.197  1.00  0.00     0.037 A 
BRANCH  60  74
ATOM     74  C   UNL     1       5.303  17.400   7.144  1.00  0.00     0.064 A 
ATOM     75  C   UNL     1       6.187  18.073   6.287  1.00  0.00     0.173 A 
ATOM     76  C   UNL     1       5.794  16.967   8.385  1.00  0.00     0.173 A 
ATOM     77  F   UNL     1       5.766  18.504   5.088  1.00  0.00    -0.203 F 
ATOM     78  C   UNL     1       7.514  18.286   6.650  1.00  0.00     0.198 A 
ATOM     79  C   UNL     1       7.115  17.208   8.757  1.00  0.00     0.198 A 
ATOM     80  F   UNL     1       4.987  16.333   9.249  1.00  0.00    -0.203 F 
ATOM     81  F   UNL     1       8.348  18.900   5.799  1.00  0.00    -0.200 F 
ATOM     82  C   UNL     1       7.974  17.862   7.887  1.00  0.00     0.200 A 
ATOM     83  F   UNL     1       7.554  16.812   9.960  1.00  0.00    -0.200 F 
ATOM     84  F   UNL     1       9.248  18.082   8.240  1.00  0.00    -0.200 F 
ENDBRANCH  60  74
BRANCH  61  85
ATOM     85  C   UNL     1      -4.191  15.956   4.683  1.00  0.00     0.064 A 
ATOM     86  C   UNL     1      -4.896  16.961   4.006  1.00  0.00     0.173 A 
ATOM     87  C   UNL     1      -4.885  14.791   5.034  1.00  0.00     0.173 A 
ATOM     88  F   UNL     1      -4.278  18.104   3.671  1.00  0.00    -0.203 F 
ATOM     89  C   UNL     1      -6.252  16.821   3.721  1.00  0.00     0.198 A 
ATOM     90  C   UNL     1      -6.235  14.640   4.724  1.00  0.00     0.198 A 
ATOM     91  F   UNL     1      -4.251  13.800   5.679  1.00  0.00    -0.203 F 
ATOM     92  F   UNL     1      -6.916  17.821   3.126  1.00  0.00    -0.200 F 
ATOM     93  C   UNL     1      -6.920  15.659   4.078  1.00  0.00     0.200 A 
ATOM     94  F   UNL     1      -6.875  13.513   5.062  1.00  0.00    -0.200 F 
ATOM     95  F   UNL     1      -8.226  15.527   3.812  1.00  0.00    -0.200 F 
ENDBRANCH  61  85
BRANCH  73  96
ATOM     96  C   UNL     1      -1.005  20.257   9.115  1.00  0.00     0.064 A 
ATOM     97  C   UNL     1      -1.693  19.950  10.298  1.00  0.00     0.173 A 
ATOM     98  C   UNL     1      -0.773  21.609   8.821  1.00  0.00     0.173 A 
ATOM     99  F   UNL     1      -1.952  18.672  10.615  1.00  0.00    -0.203 F 
ATOM    100  C   UNL     1      -2.153  20.958  11.141  1.00  0.00     0.198 A 
ATOM    101  C   UNL     1      -1.214  22.614   9.679  1.00  0.00     0.198 A 
ATOM    102  F   UNL     1      -0.116  21.956   7.705  1.00  0.00    -0.203 F 
ATOM    103  F   UNL     1      -2.847  20.643  12.243  1.00  0.00    -0.200 F 
ATOM    104  C   UNL     1      -1.908  22.289  10.834  1.00  0.00     0.200 A 
ATOM    105  F   UNL     1      -0.969  23.899   9.386  1.00  0.00    -0.200 F 
ATOM    106  F   UNL     1      -2.349  23.258  11.648  1.00  0.00    -0.200 F 
ENDBRANCH  73  96
ENDBRANCH  47  48
ENDBRANCH  39  42
ENDBRANCH  37  38
ENDBRANCH  36  37
ENDBRANCH   1  36
TORSDOF 14
