REMARK SMILES O=C(NCCCNC(=O)c1cc(-c2ccccn2)nc2ccc(F)cc12)c1ccc(-c2c3nc(c(-c4c(F)c(F)c(F)c(F)c4F)c4ccc([nH]4)c(-c4c(F)c(F)c(F)c(F)c4F)c4nc(c(-c5c(F)c(F)c(F)c(F)c5F)c5ccc2[nH]5)C=C4)C=C3)cc1
REMARK SMILES IDX 4 1 3 2 1 3 2 4 27 6 28 7 89 8 29 9 88 10 30 11 31 12 32 13
REMARK SMILES IDX 82 14 33 15 87 16 81 17 83 18 34 19 86 20 80 21 79 22 35 24
REMARK SMILES IDX 67 25 47 26 66 27 48 28 51 29 65 30 84 31 49 32 50 33 64 35
REMARK SMILES IDX 85 36 52 37 36 38 37 39 45 40 38 41 39 42 43 43 46 44 40 45
REMARK SMILES IDX 41 46 44 47 42 48 68 49 69 50 77 51 70 52 71 53 75 54 78 55
REMARK SMILES IDX 72 56 73 57 76 58 74 59 53 60 54 61 62 62 55 63 56 64 60 65
REMARK SMILES IDX 63 66 57 67 58 68 61 69 59 70 5 71 6 72 7 73 8 74 9 76 10 77
REMARK SMILES IDX 11 78 26 79 12 80 20 81 25 82 19 83 21 84 23 85 22 86 24 87
REMARK SMILES IDX 13 88 14 89 18 90 15 91 17 92 16 93
REMARK H PARENT 3 5 83 23 51 34 7 75
REMARK Flexibility Score: inf
ROOT
ATOM      1  C   UNL     1       4.598   1.308  -0.239  1.00  0.00     0.118 C 
ENDROOT
BRANCH   1   2
ATOM      2  N   UNL     1       3.159   1.164  -0.083  1.00  0.00    -0.352 N 
ATOM      3  O   UNL     1       1.153   0.170   0.017  1.00  0.00    -0.269 OA
ATOM      4  C   UNL     1       2.375   0.048   0.060  1.00  0.00     0.251 C 
ATOM      5  H   UNL     1       2.663   2.014  -0.078  1.00  0.00     0.163 HD
BRANCH   4   6
ATOM      6  C   UNL     1       2.965  -1.298   0.250  1.00  0.00     0.039 A 
ATOM      7  C   UNL     1       2.318  -2.395  -0.331  1.00  0.00     0.014 A 
ATOM      8  C   UNL     1       4.093  -1.507   1.047  1.00  0.00     0.014 A 
ATOM      9  C   UNL     1       2.821  -3.686  -0.145  1.00  0.00     0.010 A 
ATOM     10  C   UNL     1       4.643  -2.783   1.163  1.00  0.00     0.010 A 
ATOM     11  C   UNL     1       3.999  -3.889   0.589  1.00  0.00    -0.014 A 
BRANCH  11  12
ATOM     12  C   UNL     1       4.532  -5.255   0.824  1.00  0.00     0.031 A 
ATOM     13  C   UNL     1       4.565  -5.815   2.220  1.00  0.00     0.074 A 
ATOM     14  C   UNL     1       5.009  -5.981  -0.204  1.00  0.00     0.049 A 
ATOM     15  N   UNL     1       5.048  -6.956   2.645  1.00  0.00    -0.248 NA
ATOM     16  C   UNL     1       4.002  -4.971   3.287  1.00  0.00     0.031 C 
ATOM     17  C   UNL     1       5.058  -5.543  -1.599  1.00  0.00     0.029 A 
ATOM     18  N   UNL     1       5.544  -7.245  -0.234  1.00  0.00    -0.354 N 
ATOM     19  C   UNL     1       4.866  -6.954   4.021  1.00  0.00     0.074 A 
ATOM     20  C   UNL     1       4.272  -5.683   4.371  1.00  0.00     0.031 C 
ATOM     21  C   UNL     1       5.559  -6.535  -2.354  1.00  0.00     0.029 A 
ATOM     22  C   UNL     1       5.899  -7.665  -1.492  1.00  0.00     0.049 A 
ATOM     23  H   UNL     1       5.662  -7.799   0.572  1.00  0.00     0.167 HD
ATOM     24  C   UNL     1       5.144  -7.934   4.912  1.00  0.00     0.037 A 
ATOM     25  C   UNL     1       6.435  -8.830  -1.904  1.00  0.00     0.037 A 
ATOM     26  C   UNL     1       5.687  -9.218   4.561  1.00  0.00     0.049 A 
ATOM     27  C   UNL     1       6.724  -9.908  -0.895  1.00  0.00     0.074 A 
ATOM     28  C   UNL     1       5.961 -10.293   5.388  1.00  0.00     0.029 A 
ATOM     29  N   UNL     1       6.024  -9.605   3.274  1.00  0.00    -0.354 N 
ATOM     30  N   UNL     1       6.523  -9.903   0.399  1.00  0.00    -0.248 NA
ATOM     31  C   UNL     1       7.315 -11.154  -1.406  1.00  0.00     0.031 C 
ATOM     32  C   UNL     1       6.486 -11.325   4.604  1.00  0.00     0.029 A 
ATOM     33  C   UNL     1       6.509 -10.902   3.285  1.00  0.00     0.049 A 
ATOM     34  H   UNL     1       5.932  -9.042   2.471  1.00  0.00     0.167 HD
ATOM     35  C   UNL     1       6.939 -11.146   0.855  1.00  0.00     0.074 A 
ATOM     36  C   UNL     1       7.397 -11.886  -0.302  1.00  0.00     0.031 C 
ATOM     37  C   UNL     1       6.944 -11.628   2.120  1.00  0.00     0.037 A 
BRANCH  24  38
ATOM     38  C   UNL     1       4.845  -7.668   6.356  1.00  0.00     0.064 A 
ATOM     39  C   UNL     1       3.527  -7.652   6.837  1.00  0.00     0.173 A 
ATOM     40  C   UNL     1       5.885  -7.484   7.279  1.00  0.00     0.173 A 
ATOM     41  F   UNL     1       2.498  -7.810   5.990  1.00  0.00    -0.203 F 
ATOM     42  C   UNL     1       3.261  -7.444   8.187  1.00  0.00     0.198 A 
ATOM     43  C   UNL     1       5.616  -7.301   8.632  1.00  0.00     0.198 A 
ATOM     44  F   UNL     1       7.162  -7.495   6.869  1.00  0.00    -0.203 F 
ATOM     45  F   UNL     1       1.993  -7.398   8.619  1.00  0.00    -0.200 F 
ATOM     46  C   UNL     1       4.305  -7.277   9.085  1.00  0.00     0.200 A 
ATOM     47  F   UNL     1       6.626  -7.150   9.500  1.00  0.00    -0.200 F 
ATOM     48  F   UNL     1       4.047  -7.089  10.386  1.00  0.00    -0.200 F 
ENDBRANCH  24  38
BRANCH  25  49
ATOM     49  C   UNL     1       6.690  -9.053  -3.349  1.00  0.00     0.064 A 
ATOM     50  C   UNL     1       5.879  -9.924  -4.090  1.00  0.00     0.173 A 
ATOM     51  C   UNL     1       7.729  -8.396  -4.021  1.00  0.00     0.173 A 
ATOM     52  F   UNL     1       4.885 -10.590  -3.484  1.00  0.00    -0.203 F 
ATOM     53  C   UNL     1       6.104 -10.136  -5.448  1.00  0.00     0.198 A 
ATOM     54  C   UNL     1       7.941  -8.592  -5.384  1.00  0.00     0.198 A 
ATOM     55  F   UNL     1       8.531  -7.551  -3.355  1.00  0.00    -0.203 F 
ATOM     56  F   UNL     1       5.333 -10.997  -6.126  1.00  0.00    -0.200 F 
ATOM     57  C   UNL     1       7.131  -9.465  -6.095  1.00  0.00     0.200 A 
ATOM     58  F   UNL     1       8.927  -7.935  -6.009  1.00  0.00    -0.200 F 
ATOM     59  F   UNL     1       7.342  -9.664  -7.403  1.00  0.00    -0.200 F 
ENDBRANCH  25  49
BRANCH  37  60
ATOM     60  C   UNL     1       7.432 -13.029   2.329  1.00  0.00     0.064 A 
ATOM     61  C   UNL     1       8.799 -13.334   2.312  1.00  0.00     0.173 A 
ATOM     62  C   UNL     1       6.527 -14.057   2.633  1.00  0.00     0.173 A 
ATOM     63  F   UNL     1       9.699 -12.385   2.015  1.00  0.00    -0.203 F 
ATOM     64  C   UNL     1       9.245 -14.624   2.587  1.00  0.00     0.198 A 
ATOM     65  C   UNL     1       6.978 -15.340   2.928  1.00  0.00     0.198 A 
ATOM     66  F   UNL     1       5.209 -13.810   2.668  1.00  0.00    -0.203 F 
ATOM     67  F   UNL     1      10.556 -14.901   2.546  1.00  0.00    -0.200 F 
ATOM     68  C   UNL     1       8.335 -15.623   2.904  1.00  0.00     0.200 A 
ATOM     69  F   UNL     1       6.099 -16.301   3.245  1.00  0.00    -0.200 F 
ATOM     70  F   UNL     1       8.768 -16.859   3.185  1.00  0.00    -0.200 F 
ENDBRANCH  37  60
ENDBRANCH  11  12
ENDBRANCH   4   6
ENDBRANCH   1   2
BRANCH   1  71
ATOM     71  C   UNL     1       4.995   1.953  -1.560  1.00  0.00     0.042 C 
BRANCH  71  72
ATOM     72  C   UNL     1       4.450   3.357  -1.779  1.00  0.00     0.118 C 
BRANCH  72  73
ATOM     73  N   UNL     1       4.873   4.301  -0.752  1.00  0.00    -0.352 N 
ATOM     74  C   UNL     1       5.596   5.465  -0.855  1.00  0.00     0.252 C 
ATOM     75  H   UNL     1       4.596   4.067   0.163  1.00  0.00     0.163 HD
ATOM     76  O   UNL     1       5.898   6.081   0.164  1.00  0.00    -0.269 OA
BRANCH  74  77
ATOM     77  C   UNL     1       5.983   5.988  -2.182  1.00  0.00     0.051 A 
ATOM     78  C   UNL     1       4.973   6.126  -3.132  1.00  0.00     0.045 A 
ATOM     79  C   UNL     1       7.311   6.356  -2.486  1.00  0.00     0.016 A 
ATOM     80  C   UNL     1       5.316   6.496  -4.419  1.00  0.00     0.090 A 
ATOM     81  C   UNL     1       7.548   6.788  -3.808  1.00  0.00     0.072 A 
ATOM     82  C   UNL     1       8.396   6.314  -1.574  1.00  0.00     0.050 A 
ATOM     83  N   UNL     1       6.587   6.833  -4.746  1.00  0.00    -0.246 NA
ATOM     84  C   UNL     1       8.834   7.175  -4.168  1.00  0.00     0.032 A 
ATOM     85  C   UNL     1       9.665   6.716  -1.968  1.00  0.00     0.123 A 
ATOM     86  C   UNL     1       9.895   7.150  -3.261  1.00  0.00     0.041 A 
ATOM     87  F   UNL     1      10.675   6.684  -1.090  1.00  0.00    -0.207 F 
BRANCH  80  88
ATOM     88  C   UNL     1       4.315   6.441  -5.498  1.00  0.00     0.089 A 
ATOM     89  C   UNL     1       3.081   7.084  -5.389  1.00  0.00     0.030 A 
ATOM     90  N   UNL     1       4.604   5.616  -6.539  1.00  0.00    -0.255 NA
ATOM     91  C   UNL     1       2.117   6.875  -6.372  1.00  0.00     0.004 A 
ATOM     92  C   UNL     1       3.655   5.442  -7.485  1.00  0.00     0.112 A 
ATOM     93  C   UNL     1       2.406   6.037  -7.440  1.00  0.00     0.020 A 
ENDBRANCH  80  88
ENDBRANCH  74  77
ENDBRANCH  72  73
ENDBRANCH  71  72
ENDBRANCH   1  71
TORSDOF 11
