REMARK SMILES O=C(NCCCNC(=O)[C@H](CO)NC(=O)[C@H](CS)NC(=O)c1ccc(F)cc1)c1ccc(-c2c3nc(c(-c4c(F)c(F)c(F)c(F)c4F)c4ccc([nH]4)c(-c4c(F)c(F)c(F)c(F)c4F)c4nc(c(-c5c(F)c(F)c(F)c(F)c5F)c5ccc2[nH]5)C=C4)C=C3)cc1
REMARK SMILES IDX 6 1 5 2 4 3 3 4 1 5 2 6 29 8 30 9 91 10 31 11 90 12 32 13
REMARK SMILES IDX 33 14 34 15 84 16 35 17 89 18 83 19 85 20 36 21 88 22 82 23
REMARK SMILES IDX 81 24 37 26 69 27 49 28 68 29 50 30 53 31 67 32 86 33 51 34
REMARK SMILES IDX 52 35 66 37 87 38 54 39 38 40 39 41 47 42 40 43 41 44 45 45
REMARK SMILES IDX 48 46 42 47 43 48 46 49 44 50 70 51 71 52 79 53 72 54 73 55
REMARK SMILES IDX 77 56 80 57 74 58 75 59 78 60 76 61 55 62 56 63 64 64 57 65
REMARK SMILES IDX 58 66 62 67 65 68 59 69 60 70 63 71 61 72 7 73 8 74 9 76
REMARK SMILES IDX 10 77 13 78 14 79 15 81 16 82 19 83 20 84 21 86 22 87 23 88
REMARK SMILES IDX 28 89 24 90 27 91 25 92 26 93 17 94 18 95 11 97 12 98
REMARK H PARENT 3 7 85 25 53 36 7 75 13 80 19 85 18 96 12 99
REMARK Flexibility Score: inf
ROOT
ATOM      1  C   UNL     1       8.468   1.915  13.630  1.00  0.00     0.117 C 
ENDROOT
BRANCH   1   2
ATOM      2  C   UNL     1       9.004   0.607  14.196  1.00  0.00     0.042 C 
BRANCH   2   3
ATOM      3  C   UNL     1      10.514   0.629  14.386  1.00  0.00     0.118 C 
BRANCH   3   4
ATOM      4  N   UNL     1      10.897   1.280  15.628  1.00  0.00    -0.352 N 
ATOM      5  O   UNL     1      11.427   1.398  17.816  1.00  0.00    -0.269 OA
ATOM      6  C   UNL     1      11.385   0.724  16.783  1.00  0.00     0.251 C 
ATOM      7  H   UNL     1      10.791   2.259  15.643  1.00  0.00     0.163 HD
BRANCH   6   8
ATOM      8  C   UNL     1      11.847  -0.680  16.804  1.00  0.00     0.039 A 
ATOM      9  C   UNL     1      12.589  -1.202  15.742  1.00  0.00     0.014 A 
ATOM     10  C   UNL     1      11.572  -1.478  17.918  1.00  0.00     0.014 A 
ATOM     11  C   UNL     1      12.922  -2.550  15.723  1.00  0.00     0.010 A 
ATOM     12  C   UNL     1      12.009  -2.806  17.949  1.00  0.00     0.010 A 
ATOM     13  C   UNL     1      12.673  -3.359  16.843  1.00  0.00    -0.014 A 
BRANCH  13  14
ATOM     14  C   UNL     1      13.217  -4.740  16.872  1.00  0.00     0.031 A 
ATOM     15  C   UNL     1      12.316  -5.937  16.963  1.00  0.00     0.074 A 
ATOM     16  C   UNL     1      14.553  -4.900  16.797  1.00  0.00     0.049 A 
ATOM     17  N   UNL     1      12.638  -7.205  17.006  1.00  0.00    -0.248 NA
ATOM     18  C   UNL     1      10.868  -5.684  17.020  1.00  0.00     0.031 C 
ATOM     19  C   UNL     1      15.525  -3.806  16.713  1.00  0.00     0.029 A 
ATOM     20  N   UNL     1      15.328  -6.031  16.759  1.00  0.00    -0.354 N 
ATOM     21  C   UNL     1      11.441  -7.900  17.110  1.00  0.00     0.074 A 
ATOM     22  C   UNL     1      10.383  -6.913  17.151  1.00  0.00     0.031 C 
ATOM     23  C   UNL     1      16.755  -4.317  16.578  1.00  0.00     0.029 A 
ATOM     24  C   UNL     1      16.672  -5.770  16.648  1.00  0.00     0.049 A 
ATOM     25  H   UNL     1      14.957  -6.941  16.806  1.00  0.00     0.167 HD
ATOM     26  C   UNL     1      11.249  -9.240  17.156  1.00  0.00     0.037 A 
ATOM     27  C   UNL     1      17.728  -6.604  16.628  1.00  0.00     0.037 A 
ATOM     28  C   UNL     1      12.312 -10.212  17.099  1.00  0.00     0.049 A 
ATOM     29  C   UNL     1      17.487  -8.081  16.724  1.00  0.00     0.074 A 
ATOM     30  C   UNL     1      12.216 -11.593  17.106  1.00  0.00     0.029 A 
ATOM     31  N   UNL     1      13.665  -9.908  17.031  1.00  0.00    -0.354 N 
ATOM     32  N   UNL     1      16.348  -8.726  16.798  1.00  0.00    -0.248 NA
ATOM     33  C   UNL     1      18.672  -8.947  16.742  1.00  0.00     0.031 C 
ATOM     34  C   UNL     1      13.508 -12.123  17.103  1.00  0.00     0.029 A 
ATOM     35  C   UNL     1      14.412 -11.076  17.026  1.00  0.00     0.049 A 
ATOM     36  H   UNL     1      14.038  -8.998  16.992  1.00  0.00     0.167 HD
ATOM     37  C   UNL     1      16.676 -10.072  16.855  1.00  0.00     0.074 A 
ATOM     38  C   UNL     1      18.121 -10.153  16.789  1.00  0.00     0.031 C 
ATOM     39  C   UNL     1      15.851 -11.142  16.958  1.00  0.00     0.037 A 
BRANCH  26  40
ATOM     40  C   UNL     1       9.843  -9.752  17.282  1.00  0.00     0.064 A 
ATOM     41  C   UNL     1       9.430 -10.410  18.452  1.00  0.00     0.173 A 
ATOM     42  C   UNL     1       8.933  -9.679  16.218  1.00  0.00     0.173 A 
ATOM     43  F   UNL     1      10.262 -10.516  19.499  1.00  0.00    -0.203 F 
ATOM     44  C   UNL     1       8.167 -10.991  18.543  1.00  0.00     0.198 A 
ATOM     45  C   UNL     1       7.660 -10.236  16.322  1.00  0.00     0.198 A 
ATOM     46  F   UNL     1       9.273  -9.054  15.080  1.00  0.00    -0.203 F 
ATOM     47  F   UNL     1       7.811 -11.648  19.656  1.00  0.00    -0.200 F 
ATOM     48  C   UNL     1       7.283 -10.901  17.479  1.00  0.00     0.200 A 
ATOM     49  F   UNL     1       6.798 -10.129  15.302  1.00  0.00    -0.200 F 
ATOM     50  F   UNL     1       6.066 -11.455  17.569  1.00  0.00    -0.200 F 
ENDBRANCH  26  40
BRANCH  27  51
ATOM     51  C   UNL     1      19.099  -6.042  16.514  1.00  0.00     0.064 A 
ATOM     52  C   UNL     1      19.655  -5.263  17.541  1.00  0.00     0.173 A 
ATOM     53  C   UNL     1      19.858  -6.226  15.352  1.00  0.00     0.173 A 
ATOM     54  F   UNL     1      18.964  -5.050  18.671  1.00  0.00    -0.203 F 
ATOM     55  C   UNL     1      20.904  -4.665  17.396  1.00  0.00     0.198 A 
ATOM     56  C   UNL     1      21.122  -5.654  15.221  1.00  0.00     0.198 A 
ATOM     57  F   UNL     1      19.377  -6.975  14.349  1.00  0.00    -0.203 F 
ATOM     58  F   UNL     1      21.388  -3.885  18.372  1.00  0.00    -0.200 F 
ATOM     59  C   UNL     1      21.639  -4.865  16.238  1.00  0.00     0.200 A 
ATOM     60  F   UNL     1      21.840  -5.868  14.110  1.00  0.00    -0.200 F 
ATOM     61  F   UNL     1      22.845  -4.297  16.102  1.00  0.00    -0.200 F 
ENDBRANCH  27  51
BRANCH  39  62
ATOM     62  C   UNL     1      16.482 -12.503  16.984  1.00  0.00     0.064 A 
ATOM     63  C   UNL     1      16.313 -13.385  15.905  1.00  0.00     0.173 A 
ATOM     64  C   UNL     1      17.186 -12.965  18.106  1.00  0.00     0.173 A 
ATOM     65  F   UNL     1      15.641 -12.993  14.811  1.00  0.00    -0.203 F 
ATOM     66  C   UNL     1      16.807 -14.684  15.957  1.00  0.00     0.198 A 
ATOM     67  C   UNL     1      17.707 -14.255  18.141  1.00  0.00     0.198 A 
ATOM     68  F   UNL     1      17.388 -12.155  19.156  1.00  0.00    -0.203 F 
ATOM     69  F   UNL     1      16.597 -15.521  14.932  1.00  0.00    -0.200 F 
ATOM     70  C   UNL     1      17.506 -15.117  17.073  1.00  0.00     0.200 A 
ATOM     71  F   UNL     1      18.405 -14.664  19.209  1.00  0.00    -0.200 F 
ATOM     72  F   UNL     1      17.989 -16.366  17.119  1.00  0.00    -0.200 F 
ENDBRANCH  39  62
ENDBRANCH  13  14
ENDBRANCH   6   8
ENDBRANCH   3   4
ENDBRANCH   2   3
ENDBRANCH   1   2
BRANCH   1  73
ATOM     73  N   UNL     1       8.869   2.060  12.244  1.00  0.00    -0.354 N 
ATOM     74  C   UNL     1       8.358   1.495  11.116  1.00  0.00     0.244 C 
ATOM     75  H   UNL     1       9.633   2.664  12.095  1.00  0.00     0.163 HD
ATOM     76  O   UNL     1       9.128   1.447  10.149  1.00  0.00    -0.273 OA
BRANCH  74  77
ATOM     77  C   UNL     1       6.857   1.119  10.964  1.00  0.00     0.197 C 
BRANCH  77  78
ATOM     78  N   UNL     1       6.643   0.570   9.629  1.00  0.00    -0.340 N 
ATOM     79  C   UNL     1       6.194   1.231   8.519  1.00  0.00     0.244 C 
ATOM     80  H   UNL     1       6.844  -0.387   9.515  1.00  0.00     0.164 HD
ATOM     81  O   UNL     1       6.067   0.558   7.497  1.00  0.00    -0.273 OA
BRANCH  79  82
ATOM     82  C   UNL     1       5.889   2.764   8.586  1.00  0.00     0.181 C 
BRANCH  82  83
ATOM     83  N   UNL     1       7.149   3.532   8.606  1.00  0.00    -0.339 N 
ATOM     84  C   UNL     1       7.518   4.739   9.147  1.00  0.00     0.251 C 
ATOM     85  H   UNL     1       7.882   3.083   8.128  1.00  0.00     0.164 HD
ATOM     86  O   UNL     1       8.508   5.308   8.687  1.00  0.00    -0.269 OA
BRANCH  84  87
ATOM     87  C   UNL     1       6.819   5.394  10.286  1.00  0.00     0.040 A 
ATOM     88  C   UNL     1       6.536   4.711  11.471  1.00  0.00     0.017 A 
ATOM     89  C   UNL     1       6.670   6.787  10.285  1.00  0.00     0.017 A 
ATOM     90  C   UNL     1       6.011   5.356  12.592  1.00  0.00     0.040 A 
ATOM     91  C   UNL     1       6.178   7.452  11.419  1.00  0.00     0.040 A 
ATOM     92  C   UNL     1       5.835   6.728  12.554  1.00  0.00     0.123 A 
ATOM     93  F   UNL     1       5.379   7.360  13.643  1.00  0.00    -0.207 F 
ENDBRANCH  84  87
ENDBRANCH  82  83
BRANCH  82  94
ATOM     94  C   UNL     1       4.967   3.185   7.419  1.00  0.00     0.101 C 
BRANCH  94  95
ATOM     95  S   UNL     1       5.703   3.190   5.745  1.00  0.00    -0.177 SA
ATOM     96  H   UNL     1       6.697   4.117   5.690  1.00  0.00     0.102 HD
ENDBRANCH  94  95
ENDBRANCH  82  94
ENDBRANCH  79  82
ENDBRANCH  77  78
BRANCH  77  97
ATOM     97  C   UNL     1       6.124   0.289  12.013  1.00  0.00     0.191 C 
BRANCH  97  98
ATOM     98  O   UNL     1       6.824  -0.866  12.428  1.00  0.00    -0.394 OA
ATOM     99  H   UNL     1       6.947  -1.460  11.671  1.00  0.00     0.210 HD
ENDBRANCH  97  98
ENDBRANCH  77  97
ENDBRANCH  74  77
ENDBRANCH   1  73
TORSDOF 18
