REMARK SMILES C[C@H](NC(=O)N1CC[C@@H](C(=O)NCCCNC(=O)c2ccc(-c3c4nc(c(-c5c(F)c(F)c(F)c(F)c5F)c5ccc([nH]5)c(-c5c(F)c(F)c(F)c(F)c5F)c5nc(c(-c6c(F)c(F)c(F)c(F)c6F)c6ccc3[nH]6)C=C5)C=C4)cc2)[C@H]1C)c1ccc(Cl)cc1
REMARK SMILES IDX 13 1 12 2 10 3 11 4 9 6 6 7 7 8 82 9 8 10 83 11 4 12 3 13
REMARK SMILES IDX 5 15 2 16 1 17 84 18 85 19 90 20 86 21 89 22 87 23 88 24
REMARK SMILES IDX 14 25 15 26 16 27 17 28 18 30 19 31 20 32 81 33 21 34 80 35
REMARK SMILES IDX 22 36 23 37 24 38 74 39 25 40 79 41 73 42 75 43 26 44 78 45
REMARK SMILES IDX 72 46 71 47 27 49 59 50 39 51 58 52 40 53 43 54 57 55 76 56
REMARK SMILES IDX 41 57 42 58 56 60 77 61 44 62 28 63 29 64 37 65 30 66 31 67
REMARK SMILES IDX 35 68 38 69 32 70 33 71 36 72 34 73 60 74 61 75 69 76 62 77
REMARK SMILES IDX 63 78 67 79 70 80 64 81 65 82 68 83 66 84 45 85 46 86 54 87
REMARK SMILES IDX 47 88 48 89 52 90 55 91 49 92 50 93 53 94 51 95
REMARK H PARENT 12 5 3 14 16 29 75 48 43 59
REMARK Flexibility Score: inf
ROOT
ATOM      1  C   UNL     1       3.011   3.948  -2.995  1.00  0.00     0.117 C 
ENDROOT
BRANCH   1   2
ATOM      2  N   UNL     1       3.365   4.956  -2.009  1.00  0.00    -0.356 N 
ATOM      3  C   UNL     1       3.843   4.889  -0.742  1.00  0.00     0.225 C 
ATOM      4  O   UNL     1       4.042   5.973  -0.181  1.00  0.00    -0.275 OA
ATOM      5  H   UNL     1       3.231   5.878  -2.327  1.00  0.00     0.163 HD
BRANCH   3   6
ATOM      6  C   UNL     1       4.108   3.600   0.017  1.00  0.00     0.102 C 
ATOM      7  N   UNL     1       2.958   1.506  -0.105  1.00  0.00    -0.321 N 
ATOM      8  C   UNL     1       4.360   1.239  -0.384  1.00  0.00     0.122 C 
ATOM      9  C   UNL     1       2.882   2.824   0.535  1.00  0.00     0.096 C 
ATOM     10  C   UNL     1       4.990   2.581  -0.706  1.00  0.00     0.037 C 
ATOM     11  C   UNL     1       1.548   3.552   0.459  1.00  0.00     0.032 C 
BRANCH   7  12
ATOM     12  C   UNL     1       2.259   0.457   0.455  1.00  0.00     0.318 C 
ATOM     13  N   UNL     1       0.986   0.250   0.041  1.00  0.00    -0.331 N 
ATOM     14  H   UNL     1       0.446  -0.339   0.616  1.00  0.00     0.165 HD
ATOM     15  O   UNL     1       2.751  -0.315   1.274  1.00  0.00    -0.249 OA
BRANCH  13  16
ATOM     16  C   UNL     1       0.306   0.772  -1.129  1.00  0.00     0.111 C 
ATOM     17  C   UNL     1       0.746   0.040  -2.399  1.00  0.00     0.036 C 
BRANCH  16  18
ATOM     18  C   UNL     1      -1.201   0.705  -0.932  1.00  0.00    -0.026 A 
ATOM     19  C   UNL     1      -1.948   1.890  -0.831  1.00  0.00     0.007 A 
ATOM     20  C   UNL     1      -1.878  -0.524  -0.835  1.00  0.00     0.007 A 
ATOM     21  C   UNL     1      -3.336   1.848  -0.664  1.00  0.00     0.021 A 
ATOM     22  C   UNL     1      -3.265  -0.566  -0.666  1.00  0.00     0.021 A 
ATOM     23  C   UNL     1      -3.989   0.620  -0.588  1.00  0.00     0.041 A 
ATOM     24  Cl  UNL     1      -5.698   0.570  -0.400  1.00  0.00    -0.084 Cl
ENDBRANCH  16  18
ENDBRANCH  13  16
ENDBRANCH   7  12
ENDBRANCH   3   6
ENDBRANCH   1   2
BRANCH   1  25
ATOM     25  C   UNL     1       1.571   4.066  -3.491  1.00  0.00     0.042 C 
BRANCH  25  26
ATOM     26  C   UNL     1       1.183   5.425  -4.064  1.00  0.00     0.118 C 
BRANCH  26  27
ATOM     27  N   UNL     1       1.599   5.595  -5.445  1.00  0.00    -0.352 N 
ATOM     28  C   UNL     1       0.869   5.587  -6.609  1.00  0.00     0.251 C 
ATOM     29  H   UNL     1       2.565   5.740  -5.568  1.00  0.00     0.163 HD
ATOM     30  O   UNL     1       1.466   5.564  -7.683  1.00  0.00    -0.269 OA
BRANCH  28  31
ATOM     31  C   UNL     1      -0.617   5.589  -6.609  1.00  0.00     0.039 A 
ATOM     32  C   UNL     1      -1.282   4.871  -7.610  1.00  0.00     0.014 A 
ATOM     33  C   UNL     1      -1.365   6.354  -5.711  1.00  0.00     0.014 A 
ATOM     34  C   UNL     1      -2.679   4.895  -7.690  1.00  0.00     0.010 A 
ATOM     35  C   UNL     1      -2.761   6.307  -5.734  1.00  0.00     0.010 A 
ATOM     36  C   UNL     1      -3.434   5.604  -6.744  1.00  0.00    -0.014 A 
BRANCH  36  37
ATOM     37  C   UNL     1      -4.917   5.684  -6.845  1.00  0.00     0.031 A 
ATOM     38  C   UNL     1      -5.585   7.012  -7.098  1.00  0.00     0.074 A 
ATOM     39  C   UNL     1      -5.672   4.581  -6.681  1.00  0.00     0.049 A 
ATOM     40  N   UNL     1      -6.861   7.302  -7.169  1.00  0.00    -0.248 NA
ATOM     41  C   UNL     1      -4.700   8.175  -7.267  1.00  0.00     0.031 C 
ATOM     42  C   UNL     1      -5.162   3.241  -6.393  1.00  0.00     0.029 A 
ATOM     43  N   UNL     1      -7.035   4.414  -6.734  1.00  0.00    -0.354 N 
ATOM     44  C   UNL     1      -6.928   8.677  -7.360  1.00  0.00     0.074 A 
ATOM     45  C   UNL     1      -5.569   9.171  -7.345  1.00  0.00     0.031 C 
ATOM     46  C   UNL     1      -6.194   2.384  -6.321  1.00  0.00     0.029 A 
ATOM     47  C   UNL     1      -7.439   3.117  -6.531  1.00  0.00     0.049 A 
ATOM     48  H   UNL     1      -7.662   5.154  -6.900  1.00  0.00     0.167 HD
ATOM     49  C   UNL     1      -8.018   9.456  -7.556  1.00  0.00     0.037 A 
ATOM     50  C   UNL     1      -8.675   2.580  -6.523  1.00  0.00     0.037 A 
ATOM     51  C   UNL     1      -9.369   8.964  -7.621  1.00  0.00     0.049 A 
ATOM     52  C   UNL     1      -9.868   3.460  -6.781  1.00  0.00     0.074 A 
ATOM     53  C   UNL     1     -10.536   9.669  -7.863  1.00  0.00     0.029 A 
ATOM     54  N   UNL     1      -9.731   7.637  -7.452  1.00  0.00    -0.354 N 
ATOM     55  N   UNL     1      -9.912   4.750  -7.008  1.00  0.00    -0.248 NA
ATOM     56  C   UNL     1     -11.183   2.804  -6.793  1.00  0.00     0.031 C 
ATOM     57  C   UNL     1     -11.608   8.770  -7.817  1.00  0.00     0.029 A 
ATOM     58  C   UNL     1     -11.104   7.501  -7.583  1.00  0.00     0.049 A 
ATOM     59  H   UNL     1      -9.106   6.899  -7.268  1.00  0.00     0.167 HD
ATOM     60  C   UNL     1     -11.250   5.054  -7.222  1.00  0.00     0.074 A 
ATOM     61  C   UNL     1     -11.985   3.811  -7.108  1.00  0.00     0.031 C 
ATOM     62  C   UNL     1     -11.819   6.255  -7.488  1.00  0.00     0.037 A 
BRANCH  49  63
ATOM     63  C   UNL     1      -7.791  10.931  -7.725  1.00  0.00     0.064 A 
ATOM     64  C   UNL     1      -7.195  11.454  -8.883  1.00  0.00     0.173 A 
ATOM     65  C   UNL     1      -8.190  11.833  -6.728  1.00  0.00     0.173 A 
ATOM     66  F   UNL     1      -6.783  10.632  -9.860  1.00  0.00    -0.203 F 
ATOM     67  C   UNL     1      -6.977  12.822  -9.021  1.00  0.00     0.198 A 
ATOM     68  C   UNL     1      -7.997  13.204  -6.883  1.00  0.00     0.198 A 
ATOM     69  F   UNL     1      -8.769  11.386  -5.604  1.00  0.00    -0.203 F 
ATOM     70  F   UNL     1      -6.357  13.293 -10.112  1.00  0.00    -0.200 F 
ATOM     71  C   UNL     1      -7.383  13.696  -8.024  1.00  0.00     0.200 A 
ATOM     72  F   UNL     1      -8.399  14.048  -5.923  1.00  0.00    -0.200 F 
ATOM     73  F   UNL     1      -7.173  15.013  -8.159  1.00  0.00    -0.200 F 
ENDBRANCH  49  63
BRANCH  50  74
ATOM     74  C   UNL     1      -8.844   1.120  -6.311  1.00  0.00     0.064 A 
ATOM     75  C   UNL     1      -9.224   0.283  -7.369  1.00  0.00     0.173 A 
ATOM     76  C   UNL     1      -8.633   0.533  -5.055  1.00  0.00     0.173 A 
ATOM     77  F   UNL     1      -9.457   0.804  -8.583  1.00  0.00    -0.203 F 
ATOM     78  C   UNL     1      -9.404  -1.085  -7.176  1.00  0.00     0.198 A 
ATOM     79  C   UNL     1      -8.790  -0.839  -4.869  1.00  0.00     0.198 A 
ATOM     80  F   UNL     1      -8.266   1.291  -4.013  1.00  0.00    -0.203 F 
ATOM     81  F   UNL     1      -9.807  -1.855  -8.196  1.00  0.00    -0.200 F 
ATOM     82  C   UNL     1      -9.182  -1.645  -5.928  1.00  0.00     0.200 A 
ATOM     83  F   UNL     1      -8.564  -1.381  -3.665  1.00  0.00    -0.200 F 
ATOM     84  F   UNL     1      -9.352  -2.962  -5.744  1.00  0.00    -0.200 F 
ENDBRANCH  50  74
BRANCH  62  85
ATOM     85  C   UNL     1     -13.300   6.278  -7.723  1.00  0.00     0.064 A 
ATOM     86  C   UNL     1     -14.215   6.123  -6.672  1.00  0.00     0.173 A 
ATOM     87  C   UNL     1     -13.808   6.491  -9.013  1.00  0.00     0.173 A 
ATOM     88  F   UNL     1     -13.777   5.903  -5.423  1.00  0.00    -0.203 F 
ATOM     89  C   UNL     1     -15.587   6.153  -6.909  1.00  0.00     0.198 A 
ATOM     90  C   UNL     1     -15.180   6.547  -9.243  1.00  0.00     0.198 A 
ATOM     91  F   UNL     1     -12.973   6.652 -10.051  1.00  0.00    -0.203 F 
ATOM     92  F   UNL     1     -16.444   5.958  -5.898  1.00  0.00    -0.200 F 
ATOM     93  C   UNL     1     -16.067   6.371  -8.192  1.00  0.00     0.200 A 
ATOM     94  F   UNL     1     -15.643   6.767 -10.481  1.00  0.00    -0.200 F 
ATOM     95  F   UNL     1     -17.388   6.402  -8.418  1.00  0.00    -0.200 F 
ENDBRANCH  62  85
ENDBRANCH  36  37
ENDBRANCH  28  31
ENDBRANCH  26  27
ENDBRANCH  25  26
ENDBRANCH   1  25
TORSDOF 13
