REMARK SMILES CCC(CC)N(CCOC)C(=O)N1CC[C@H](C(=O)NCCCNC(=O)c2ccc(-c3c4nc(c(-c5c(F)c(F)c(F)c(F)c5F)c5ccc([nH]5)c(-c5c(F)c(F)c(F)c(F)c5F)c5nc(c(-c6c(F)c(F)c(F)c(F)c6F)c6ccc3[nH]6)C=C5)C=C4)cc2)[C@@H]1C
REMARK SMILES IDX 17 1 18 2 19 3 16 5 13 6 14 7 89 8 15 9 90 10 11 11 12 12
REMARK SMILES IDX 6 13 3 14 2 15 1 16 4 17 5 18 7 19 8 20 9 21 10 22 20 23
REMARK SMILES IDX 21 24 22 25 23 26 24 27 25 29 26 30 27 31 88 32 28 33 87 34
REMARK SMILES IDX 29 35 30 36 31 37 81 38 32 39 86 40 80 41 82 42 33 43 85 44
REMARK SMILES IDX 79 45 78 46 34 48 66 49 46 50 65 51 47 52 50 53 64 54 83 55
REMARK SMILES IDX 48 56 49 57 63 59 84 60 51 61 35 62 36 63 44 64 37 65 38 66
REMARK SMILES IDX 42 67 45 68 39 69 40 70 43 71 41 72 67 73 68 74 76 75 69 76
REMARK SMILES IDX 70 77 74 78 77 79 71 80 72 81 75 82 73 83 52 84 53 85 61 86
REMARK SMILES IDX 54 87 55 88 59 89 62 90 56 91 57 92 60 93 58 94
REMARK H PARENT 19 4 23 28 82 47 50 58
REMARK Flexibility Score: inf
ROOT
ATOM      1  C   UNL     1      -2.586  -7.218   4.841  1.00  0.00     0.225 C 
ATOM      2  O   UNL     1      -2.221  -7.353   6.009  1.00  0.00    -0.275 OA
ATOM      3  N   UNL     1      -3.830  -7.665   4.519  1.00  0.00    -0.356 N 
ATOM      4  H   UNL     1      -4.605  -7.262   4.975  1.00  0.00     0.163 HD
ENDROOT
BRANCH   1   5
ATOM      5  C   UNL     1      -1.717  -6.565   3.766  1.00  0.00     0.102 C 
ATOM      6  N   UNL     1      -1.461  -4.276   3.014  1.00  0.00    -0.321 N 
ATOM      7  C   UNL     1      -2.645  -4.813   2.387  1.00  0.00     0.122 C 
ATOM      8  C   UNL     1      -1.157  -5.156   4.184  1.00  0.00     0.096 C 
ATOM      9  C   UNL     1      -2.385  -6.297   2.408  1.00  0.00     0.037 C 
ATOM     10  C   UNL     1      -1.830  -4.614   5.454  1.00  0.00     0.032 C 
BRANCH   6  11
ATOM     11  C   UNL     1      -0.992  -3.097   2.476  1.00  0.00     0.320 C 
ATOM     12  O   UNL     1      -1.789  -2.421   1.812  1.00  0.00    -0.248 OA
BRANCH  11  13
ATOM     13  N   UNL     1       0.333  -2.702   2.551  1.00  0.00    -0.319 N 
BRANCH  13  14
ATOM     14  C   UNL     1       0.788  -1.444   1.845  1.00  0.00     0.086 C 
BRANCH  14  15
ATOM     15  C   UNL     1       0.454  -1.399   0.328  1.00  0.00     0.022 C 
ATOM     16  C   UNL     1       1.041  -0.187  -0.396  1.00  0.00     0.006 C 
ENDBRANCH  14  15
BRANCH  14  17
ATOM     17  C   UNL     1       0.475  -0.119   2.581  1.00  0.00     0.022 C 
ATOM     18  C   UNL     1      -0.991   0.266   2.697  1.00  0.00     0.006 C 
ENDBRANCH  14  17
ENDBRANCH  13  14
BRANCH  13  19
ATOM     19  C   UNL     1       1.403  -3.504   3.148  1.00  0.00     0.150 C 
BRANCH  19  20
ATOM     20  C   UNL     1       1.833  -3.063   4.560  1.00  0.00     0.181 C 
BRANCH  20  21
ATOM     21  O   UNL     1       0.784  -3.076   5.528  1.00  0.00    -0.383 OA
ATOM     22  C   UNL     1       0.165  -1.807   5.698  1.00  0.00     0.194 C 
ENDBRANCH  20  21
ENDBRANCH  19  20
ENDBRANCH  13  19
ENDBRANCH  11  13
ENDBRANCH   6  11
ENDBRANCH   1   5
BRANCH   3  23
ATOM     23  C   UNL     1      -4.073  -8.707   3.538  1.00  0.00     0.117 C 
BRANCH  23  24
ATOM     24  C   UNL     1      -4.107 -10.080   4.188  1.00  0.00     0.042 C 
BRANCH  24  25
ATOM     25  C   UNL     1      -5.119 -10.187   5.317  1.00  0.00     0.118 C 
BRANCH  25  26
ATOM     26  N   UNL     1      -6.475  -9.864   4.886  1.00  0.00    -0.352 N 
ATOM     27  C   UNL     1      -7.524 -10.697   4.575  1.00  0.00     0.251 C 
ATOM     28  H   UNL     1      -6.668  -8.902   4.804  1.00  0.00     0.163 HD
ATOM     29  O   UNL     1      -8.510 -10.267   3.999  1.00  0.00    -0.269 OA
BRANCH  27  30
ATOM     30  C   UNL     1      -7.426 -12.128   4.924  1.00  0.00     0.039 A 
ATOM     31  C   UNL     1      -7.829 -13.091   3.998  1.00  0.00     0.014 A 
ATOM     32  C   UNL     1      -6.902 -12.510   6.158  1.00  0.00     0.014 A 
ATOM     33  C   UNL     1      -7.623 -14.441   4.285  1.00  0.00     0.010 A 
ATOM     34  C   UNL     1      -6.570 -13.836   6.380  1.00  0.00     0.010 A 
ATOM     35  C   UNL     1      -6.949 -14.820   5.458  1.00  0.00    -0.014 A 
BRANCH  35  36
ATOM     36  C   UNL     1      -6.663 -16.241   5.773  1.00  0.00     0.031 A 
ATOM     37  C   UNL     1      -7.213 -16.846   7.037  1.00  0.00     0.074 A 
ATOM     38  C   UNL     1      -5.854 -16.958   4.969  1.00  0.00     0.049 A 
ATOM     39  N   UNL     1      -7.008 -18.034   7.545  1.00  0.00    -0.248 NA
ATOM     40  C   UNL     1      -8.076 -15.985   7.862  1.00  0.00     0.031 C 
ATOM     41  C   UNL     1      -5.215 -16.463   3.748  1.00  0.00     0.029 A 
ATOM     42  N   UNL     1      -5.424 -18.257   5.064  1.00  0.00    -0.354 N 
ATOM     43  C   UNL     1      -7.696 -18.049   8.751  1.00  0.00     0.074 A 
ATOM     44  C   UNL     1      -8.257 -16.731   8.940  1.00  0.00     0.031 C 
ATOM     45  C   UNL     1      -4.508 -17.457   3.188  1.00  0.00     0.029 A 
ATOM     46  C   UNL     1      -4.604 -18.643   4.032  1.00  0.00     0.049 A 
ATOM     47  H   UNL     1      -5.680 -18.856   5.802  1.00  0.00     0.167 HD
ATOM     48  C   UNL     1      -7.878 -19.081   9.608  1.00  0.00     0.037 A 
ATOM     49  C   UNL     1      -3.997 -19.822   3.800  1.00  0.00     0.037 A 
ATOM     50  C   UNL     1      -7.344 -20.399   9.397  1.00  0.00     0.049 A 
ATOM     51  C   UNL     1      -4.206 -20.952   4.773  1.00  0.00     0.074 A 
ATOM     52  C   UNL     1      -7.513 -21.533  10.170  1.00  0.00     0.029 A 
ATOM     53  N   UNL     1      -6.533 -20.757   8.330  1.00  0.00    -0.354 N 
ATOM     54  N   UNL     1      -4.919 -20.978   5.874  1.00  0.00    -0.248 NA
ATOM     55  C   UNL     1      -3.530 -22.220   4.467  1.00  0.00     0.031 C 
ATOM     56  C   UNL     1      -6.761 -22.564   9.600  1.00  0.00     0.029 A 
ATOM     57  C   UNL     1      -6.175 -22.091   8.437  1.00  0.00     0.049 A 
ATOM     58  H   UNL     1      -6.254 -20.153   7.604  1.00  0.00     0.167 HD
ATOM     59  C   UNL     1      -4.808 -22.269   6.371  1.00  0.00     0.074 A 
ATOM     60  C   UNL     1      -3.970 -23.001   5.444  1.00  0.00     0.031 C 
ATOM     61  C   UNL     1      -5.351 -22.803   7.493  1.00  0.00     0.037 A 
BRANCH  48  62
ATOM     62  C   UNL     1      -8.694 -18.822  10.843  1.00  0.00     0.064 A 
ATOM     63  C   UNL     1     -10.069 -18.544  10.774  1.00  0.00     0.173 A 
ATOM     64  C   UNL     1      -8.100 -18.866  12.113  1.00  0.00     0.173 A 
ATOM     65  F   UNL     1     -10.686 -18.475   9.584  1.00  0.00    -0.203 F 
ATOM     66  C   UNL     1     -10.808 -18.284  11.925  1.00  0.00     0.198 A 
ATOM     67  C   UNL     1      -8.850 -18.643  13.264  1.00  0.00     0.198 A 
ATOM     68  F   UNL     1      -6.791 -19.130  12.239  1.00  0.00    -0.203 F 
ATOM     69  F   UNL     1     -12.105 -17.959  11.827  1.00  0.00    -0.200 F 
ATOM     70  C   UNL     1     -10.200 -18.341  13.169  1.00  0.00     0.200 A 
ATOM     71  F   UNL     1      -8.264 -18.713  14.468  1.00  0.00    -0.200 F 
ATOM     72  F   UNL     1     -10.914 -18.097  14.277  1.00  0.00    -0.200 F 
ENDBRANCH  48  62
BRANCH  49  73
ATOM     73  C   UNL     1      -3.165 -20.008   2.582  1.00  0.00     0.064 A 
ATOM     74  C   UNL     1      -3.576 -20.870   1.555  1.00  0.00     0.173 A 
ATOM     75  C   UNL     1      -1.942 -19.340   2.419  1.00  0.00     0.173 A 
ATOM     76  F   UNL     1      -4.729 -21.546   1.671  1.00  0.00    -0.203 F 
ATOM     77  C   UNL     1      -2.785 -21.078   0.427  1.00  0.00     0.198 A 
ATOM     78  C   UNL     1      -1.167 -19.524   1.275  1.00  0.00     0.198 A 
ATOM     79  F   UNL     1      -1.506 -18.497   3.366  1.00  0.00    -0.203 F 
ATOM     80  F   UNL     1      -3.179 -21.949  -0.513  1.00  0.00    -0.200 F 
ATOM     81  C   UNL     1      -1.584 -20.401   0.285  1.00  0.00     0.200 A 
ATOM     82  F   UNL     1      -0.016 -18.854   1.134  1.00  0.00    -0.200 F 
ATOM     83  F   UNL     1      -0.825 -20.599  -0.801  1.00  0.00    -0.200 F 
ENDBRANCH  49  73
BRANCH  61  84
ATOM     84  C   UNL     1      -5.097 -24.260   7.755  1.00  0.00     0.064 A 
ATOM     85  C   UNL     1      -3.833 -24.736   8.130  1.00  0.00     0.173 A 
ATOM     86  C   UNL     1      -6.150 -25.185   7.672  1.00  0.00     0.173 A 
ATOM     87  F   UNL     1      -2.791 -23.895   8.211  1.00  0.00    -0.203 F 
ATOM     88  C   UNL     1      -3.624 -26.089   8.383  1.00  0.00     0.198 A 
ATOM     89  C   UNL     1      -5.946 -26.531   7.961  1.00  0.00     0.198 A 
ATOM     90  F   UNL     1      -7.381 -24.780   7.327  1.00  0.00    -0.203 F 
ATOM     91  F   UNL     1      -2.396 -26.530   8.686  1.00  0.00    -0.200 F 
ATOM     92  C   UNL     1      -4.682 -26.983   8.307  1.00  0.00     0.200 A 
ATOM     93  F   UNL     1      -6.973 -27.389   7.905  1.00  0.00    -0.200 F 
ATOM     94  F   UNL     1      -4.482 -28.284   8.560  1.00  0.00    -0.200 F 
ENDBRANCH  61  84
ENDBRANCH  35  36
ENDBRANCH  27  30
ENDBRANCH  25  26
ENDBRANCH  24  25
ENDBRANCH  23  24
ENDBRANCH   3  23
TORSDOF 18
