REMARK SMILES C[C@@H](CN1C(=O)C(C)(C)S1(=O)=O)C(=O)NCCCNC(=O)c1ccc(-c2c3nc(c(-c4c(F)c(F)c(F)c(F)c4F)c4ccc([nH]4)c(-c4c(F)c(F)c(F)c(F)c4F)c4nc(c(-c5c(F)c(F)c(F)c(F)c5F)c5ccc2[nH]5)C=C4)C=C3)cc1
REMARK SMILES IDX 17 1 16 2 15 3 13 4 14 5 2 7 1 8 3 9 4 10 5 11 10 12 6 13
REMARK SMILES IDX 7 14 11 15 12 16 8 17 9 18 18 19 19 20 20 21 21 23 22 24
REMARK SMILES IDX 23 25 84 26 24 27 83 28 25 29 26 30 27 31 77 32 28 33 82 34
REMARK SMILES IDX 76 35 78 36 29 37 81 38 75 39 74 40 30 42 62 43 42 44 61 45
REMARK SMILES IDX 43 46 46 47 60 48 79 49 44 50 45 51 59 53 80 54 47 55 31 56
REMARK SMILES IDX 32 57 40 58 33 59 34 60 38 61 41 62 35 63 36 64 39 65 37 66
REMARK SMILES IDX 63 67 64 68 72 69 65 70 66 71 70 72 73 73 67 74 68 75 71 76
REMARK SMILES IDX 69 77 48 78 49 79 57 80 50 81 51 82 55 83 58 84 52 85 53 86
REMARK SMILES IDX 56 87 54 88
REMARK H PARENT 15 6 19 22 78 41 46 52
REMARK Flexibility Score: inf
ROOT
ATOM      1  C   UNL     1      -2.344  -0.018   1.671  1.00  0.00     0.042 C 
ENDROOT
BRANCH   1   2
ATOM      2  C   UNL     1      -1.728  -0.999   0.697  1.00  0.00     0.117 C 
BRANCH   2   3
ATOM      3  N   UNL     1      -1.595  -0.583  -0.666  1.00  0.00    -0.356 N 
ATOM      4  C   UNL     1      -0.531  -0.907  -1.463  1.00  0.00     0.224 C 
ATOM      5  O   UNL     1      -0.719  -0.942  -2.681  1.00  0.00    -0.275 OA
ATOM      6  H   UNL     1      -2.311  -0.030  -1.054  1.00  0.00     0.163 HD
BRANCH   4   7
ATOM      7  C   UNL     1       0.868  -1.168  -0.877  1.00  0.00     0.096 C 
ATOM      8  C   UNL     1       1.356  -0.105   0.110  1.00  0.00     0.020 C 
BRANCH   7   9
ATOM      9  C   UNL     1       1.258  -2.610  -0.514  1.00  0.00     0.151 C 
BRANCH   9  10
ATOM     10  N   UNL     1       0.428  -3.383   0.443  1.00  0.00    -0.236 N 
ATOM     11  C   UNL     1       0.608  -4.811   0.530  1.00  0.00     0.258 C 
ATOM     12  S   UNL     1       0.605  -3.321   2.121  1.00  0.00     0.251 S 
ATOM     13  O   UNL     1       1.057  -5.547  -0.306  1.00  0.00    -0.272 OA
ATOM     14  C   UNL     1      -0.086  -4.940   1.907  1.00  0.00     0.165 C 
ATOM     15  O   UNL     1       2.013  -3.327   2.447  1.00  0.00    -0.205 OA
ATOM     16  O   UNL     1      -0.343  -2.442   2.752  1.00  0.00    -0.205 OA
ATOM     17  C   UNL     1       0.445  -5.968   2.896  1.00  0.00     0.041 C 
ATOM     18  C   UNL     1      -1.603  -5.083   1.740  1.00  0.00     0.041 C 
ENDBRANCH   9  10
ENDBRANCH   7   9
ENDBRANCH   4   7
ENDBRANCH   2   3
ENDBRANCH   1   2
BRANCH   1  19
ATOM     19  C   UNL     1      -3.605  -0.507   2.382  1.00  0.00     0.118 C 
BRANCH  19  20
ATOM     20  N   UNL     1      -3.618  -1.904   2.809  1.00  0.00    -0.352 N 
ATOM     21  C   UNL     1      -4.066  -2.530   3.945  1.00  0.00     0.251 C 
ATOM     22  H   UNL     1      -3.227  -2.520   2.148  1.00  0.00     0.163 HD
ATOM     23  O   UNL     1      -3.975  -3.756   4.016  1.00  0.00    -0.269 OA
BRANCH  21  24
ATOM     24  C   UNL     1      -4.605  -1.780   5.100  1.00  0.00     0.039 A 
ATOM     25  C   UNL     1      -4.416  -2.308   6.383  1.00  0.00     0.014 A 
ATOM     26  C   UNL     1      -5.280  -0.572   4.954  1.00  0.00     0.014 A 
ATOM     27  C   UNL     1      -4.817  -1.582   7.506  1.00  0.00     0.010 A 
ATOM     28  C   UNL     1      -5.552   0.211   6.067  1.00  0.00     0.010 A 
ATOM     29  C   UNL     1      -5.335  -0.287   7.358  1.00  0.00    -0.014 A 
BRANCH  29  30
ATOM     30  C   UNL     1      -5.666   0.564   8.528  1.00  0.00     0.031 A 
ATOM     31  C   UNL     1      -7.060   1.107   8.695  1.00  0.00     0.074 A 
ATOM     32  C   UNL     1      -4.690   0.925   9.384  1.00  0.00     0.049 A 
ATOM     33  N   UNL     1      -7.518   1.962   9.574  1.00  0.00    -0.248 NA
ATOM     34  C   UNL     1      -8.062   0.676   7.706  1.00  0.00     0.031 C 
ATOM     35  C   UNL     1      -3.282   0.537   9.282  1.00  0.00     0.029 A 
ATOM     36  N   UNL     1      -4.734   1.712  10.508  1.00  0.00    -0.354 N 
ATOM     37  C   UNL     1      -8.839   2.200   9.216  1.00  0.00     0.074 A 
ATOM     38  C   UNL     1      -9.091   1.452   8.005  1.00  0.00     0.031 C 
ATOM     39  C   UNL     1      -2.605   1.049  10.322  1.00  0.00     0.029 A 
ATOM     40  C   UNL     1      -3.522   1.831  11.143  1.00  0.00     0.049 A 
ATOM     41  H   UNL     1      -5.556   2.149  10.828  1.00  0.00     0.167 HD
ATOM     42  C   UNL     1      -9.768   2.949   9.856  1.00  0.00     0.037 A 
ATOM     43  C   UNL     1      -3.193   2.494  12.267  1.00  0.00     0.037 A 
ATOM     44  C   UNL     1      -9.528   3.635  11.097  1.00  0.00     0.049 A 
ATOM     45  C   UNL     1      -4.264   3.242  13.010  1.00  0.00     0.074 A 
ATOM     46  C   UNL     1     -10.417   4.358  11.873  1.00  0.00     0.029 A 
ATOM     47  N   UNL     1      -8.306   3.665  11.754  1.00  0.00    -0.354 N 
ATOM     48  N   UNL     1      -5.526   3.408  12.696  1.00  0.00    -0.248 NA
ATOM     49  C   UNL     1      -3.869   3.881  14.271  1.00  0.00     0.031 C 
ATOM     50  C   UNL     1      -9.727   4.845  12.989  1.00  0.00     0.029 A 
ATOM     51  C   UNL     1      -8.418   4.392  12.928  1.00  0.00     0.049 A 
ATOM     52  H   UNL     1      -7.482   3.233  11.434  1.00  0.00     0.167 HD
ATOM     53  C   UNL     1      -6.082   4.147  13.731  1.00  0.00     0.074 A 
ATOM     54  C   UNL     1      -5.022   4.378  14.692  1.00  0.00     0.031 C 
ATOM     55  C   UNL     1      -7.352   4.599  13.873  1.00  0.00     0.037 A 
BRANCH  42  56
ATOM     56  C   UNL     1     -11.131   3.043   9.232  1.00  0.00     0.064 A 
ATOM     57  C   UNL     1     -11.993   1.936   9.175  1.00  0.00     0.173 A 
ATOM     58  C   UNL     1     -11.588   4.256   8.695  1.00  0.00     0.173 A 
ATOM     59  F   UNL     1     -11.599   0.749   9.660  1.00  0.00    -0.203 F 
ATOM     60  C   UNL     1     -13.243   2.030   8.570  1.00  0.00     0.198 A 
ATOM     61  C   UNL     1     -12.853   4.354   8.121  1.00  0.00     0.198 A 
ATOM     62  F   UNL     1     -10.808   5.347   8.726  1.00  0.00    -0.203 F 
ATOM     63  F   UNL     1     -14.021   0.943   8.473  1.00  0.00    -0.200 F 
ATOM     64  C   UNL     1     -13.675   3.240   8.049  1.00  0.00     0.200 A 
ATOM     65  F   UNL     1     -13.275   5.527   7.627  1.00  0.00    -0.200 F 
ATOM     66  F   UNL     1     -14.880   3.329   7.469  1.00  0.00    -0.200 F 
ENDBRANCH  42  56
BRANCH  43  67
ATOM     67  C   UNL     1      -1.805   2.422  12.791  1.00  0.00     0.064 A 
ATOM     68  C   UNL     1      -1.516   1.683  13.947  1.00  0.00     0.173 A 
ATOM     69  C   UNL     1      -0.743   3.079  12.154  1.00  0.00     0.173 A 
ATOM     70  F   UNL     1      -2.503   1.051  14.600  1.00  0.00    -0.203 F 
ATOM     71  C   UNL     1      -0.223   1.622  14.459  1.00  0.00     0.198 A 
ATOM     72  C   UNL     1       0.556   2.995  12.652  1.00  0.00     0.198 A 
ATOM     73  F   UNL     1      -0.965   3.791  11.040  1.00  0.00    -0.203 F 
ATOM     74  F   UNL     1       0.016   0.944  15.590  1.00  0.00    -0.200 F 
ATOM     75  C   UNL     1       0.814   2.274  13.809  1.00  0.00     0.200 A 
ATOM     76  F   UNL     1       1.558   3.615  12.014  1.00  0.00    -0.200 F 
ATOM     77  F   UNL     1       2.059   2.213  14.300  1.00  0.00    -0.200 F 
ENDBRANCH  43  67
BRANCH  55  78
ATOM     78  C   UNL     1      -7.667   5.353  15.130  1.00  0.00     0.064 A 
ATOM     79  C   UNL     1      -7.188   6.653  15.347  1.00  0.00     0.173 A 
ATOM     80  C   UNL     1      -8.469   4.771  16.122  1.00  0.00     0.173 A 
ATOM     81  F   UNL     1      -6.404   7.245  14.432  1.00  0.00    -0.203 F 
ATOM     82  C   UNL     1      -7.472   7.331  16.529  1.00  0.00     0.198 A 
ATOM     83  C   UNL     1      -8.776   5.463  17.290  1.00  0.00     0.198 A 
ATOM     84  F   UNL     1      -8.957   3.533  15.958  1.00  0.00    -0.203 F 
ATOM     85  F   UNL     1      -6.957   8.550  16.740  1.00  0.00    -0.200 F 
ATOM     86  C   UNL     1      -8.269   6.737  17.497  1.00  0.00     0.200 A 
ATOM     87  F   UNL     1      -9.555   4.893  18.220  1.00  0.00    -0.200 F 
ATOM     88  F   UNL     1      -8.540   7.390  18.635  1.00  0.00    -0.200 F 
ENDBRANCH  55  78
ENDBRANCH  29  30
ENDBRANCH  21  24
ENDBRANCH  19  20
ENDBRANCH   1  19
TORSDOF 12
