REMARK SMILES Cc1ccc(NS(=O)(=O)c2cc(C(=O)Nc3ccccc3C(=O)NCCCNC(=O)c3ccc(-c4c5nc(c(-c6c(F)c(F)c(F)c(F)c6F)c6ccc([nH]6)c(-c6c(F)c(F)c(F)c(F)c6F)c6nc(c(-c7c(F)c(F)c(F)c(F)c7F)c7ccc4[nH]7)C=C6)C=C5)cc3)ccc2Br)cc1
REMARK SMILES IDX 22 1 23 2 24 3 21 5 16 6 17 7 18 8 20 9 19 10 15 11 13 12
REMARK SMILES IDX 14 13 12 15 10 16 11 17 96 18 95 19 97 20 94 21 7 22 8 23
REMARK SMILES IDX 9 24 6 25 5 27 1 28 2 29 3 30 99 31 4 32 98 33 25 34 26 35
REMARK SMILES IDX 27 36 28 37 29 38 30 40 31 41 32 42 93 43 33 44 92 45 34 46
REMARK SMILES IDX 35 47 36 48 86 49 37 50 91 51 85 52 87 53 38 54 90 55 84 56
REMARK SMILES IDX 83 57 39 59 71 60 51 61 70 62 52 63 55 64 69 65 88 66 53 67
REMARK SMILES IDX 54 68 68 70 89 71 56 72 40 73 41 74 49 75 42 76 43 77 47 78
REMARK SMILES IDX 50 79 44 80 45 81 48 82 46 83 72 84 73 85 81 86 74 87 75 88
REMARK SMILES IDX 79 89 82 90 76 91 77 92 80 93 78 94 57 95 58 96 66 97 59 98
REMARK SMILES IDX 60 99 64 100 67 101 61 102 62 103 65 104 63 105
REMARK H PARENT 24 4 15 14 6 26 28 39 87 58 55 69
REMARK Flexibility Score: inf
ROOT
ATOM      1  C   UNL     1      -0.995  -1.097   2.840  1.00  0.00     0.253 C 
ATOM      2  O   UNL     1       0.069  -1.582   3.209  1.00  0.00    -0.269 OA
ATOM      3  N   UNL     1      -2.135  -1.465   3.506  1.00  0.00    -0.352 N 
ATOM      4  H   UNL     1      -2.050  -2.281   4.050  1.00  0.00     0.163 HD
ENDROOT
BRANCH   1   5
ATOM      5  C   UNL     1      -1.050  -0.259   1.611  1.00  0.00     0.063 A 
ATOM      6  C   UNL     1       0.107  -0.639   0.253  1.00  0.00     0.054 A 
ATOM      7  C   UNL     1       0.080   0.624  -1.337  1.00  0.00     0.027 A 
ATOM      8  C   UNL     1      -1.138   1.949  -1.393  1.00  0.00     0.002 A 
ATOM      9  C   UNL     1      -2.154   1.114   1.415  1.00  0.00     0.016 A 
ATOM     10  C   UNL     1      -2.208   2.146  -0.030  1.00  0.00     0.001 A 
BRANCH   6  11
ATOM     11  N   UNL     1       0.837  -1.932   0.549  1.00  0.00    -0.321 N 
ATOM     12  C   UNL     1       0.460  -3.288   0.673  1.00  0.00     0.255 C 
ATOM     13  O   UNL     1       1.347  -4.124   0.870  1.00  0.00    -0.269 OA
ATOM     14  H   UNL     1       1.802  -1.796   0.690  1.00  0.00     0.170 HD
BRANCH  12  15
ATOM     15  C   UNL     1      -0.918  -3.830   0.421  1.00  0.00     0.041 A 
ATOM     16  C   UNL     1      -3.145  -3.183  -0.319  1.00  0.00     0.102 A 
ATOM     17  C   UNL     1      -1.960  -2.956   0.336  1.00  0.00     0.037 A 
ATOM     18  C   UNL     1      -3.509  -4.495  -0.525  1.00  0.00     0.038 A 
ATOM     19  C   UNL     1      -2.560  -5.498  -0.232  1.00  0.00     0.018 A 
ATOM     20  Br  UNL     1      -5.250  -5.000  -1.047  1.00  0.00    -0.049 Br
ATOM     21  C   UNL     1      -1.239  -5.159   0.159  1.00  0.00     0.015 A 
BRANCH  16  22
ATOM     22  S   UNL     1      -3.883  -1.722  -1.033  1.00  0.00     0.263 S 
ATOM     23  O   UNL     1      -5.201  -1.596  -0.445  1.00  0.00    -0.201 OA
ATOM     24  O   UNL     1      -3.701  -1.800  -2.465  1.00  0.00    -0.201 OA
BRANCH  22  25
ATOM     25  N   UNL     1      -3.014  -0.357  -0.443  1.00  0.00    -0.280 N 
ATOM     26  H   UNL     1      -3.551   0.312   0.041  1.00  0.00     0.180 HD
BRANCH  25  27
ATOM     27  C   UNL     1      -1.517  -0.039  -0.568  1.00  0.00     0.049 A 
ATOM     28  C   UNL     1       3.590  -0.410  -0.852  1.00  0.00     0.044 C 
ATOM     29  C   UNL     1       2.105  -0.187  -0.892  1.00  0.00    -0.051 A 
ATOM     30  C   UNL     1       1.043  -1.295  -1.796  1.00  0.00     0.005 A 
ATOM     31  C   UNL     1       1.516   1.054   0.178  1.00  0.00     0.005 A 
ATOM     32  C   UNL     1      -0.728  -1.252  -1.676  1.00  0.00     0.027 A 
ATOM     33  C   UNL     1      -0.248   1.222   0.390  1.00  0.00     0.027 A 
ENDBRANCH  25  27
ENDBRANCH  22  25
ENDBRANCH  16  22
ENDBRANCH  12  15
ENDBRANCH   6  11
ENDBRANCH   1   5
BRANCH   3  34
ATOM     34  C   UNL     1      -3.436  -0.847   3.538  1.00  0.00     0.118 C 
BRANCH  34  35
ATOM     35  C   UNL     1      -4.443  -1.487   2.620  1.00  0.00     0.042 C 
BRANCH  35  36
ATOM     36  C   UNL     1      -5.436  -2.311   3.392  1.00  0.00     0.118 C 
BRANCH  36  37
ATOM     37  N   UNL     1      -6.396  -1.492   4.130  1.00  0.00    -0.352 N 
ATOM     38  C   UNL     1      -7.638  -1.805   4.656  1.00  0.00     0.251 C 
ATOM     39  H   UNL     1      -6.112  -0.561   4.276  1.00  0.00     0.163 HD
ATOM     40  O   UNL     1      -8.298  -0.943   5.226  1.00  0.00    -0.269 OA
BRANCH  38  41
ATOM     41  C   UNL     1      -8.068  -3.225   4.716  1.00  0.00     0.039 A 
ATOM     42  C   UNL     1      -8.166  -3.705   6.028  1.00  0.00     0.014 A 
ATOM     43  C   UNL     1      -7.646  -4.053   3.691  1.00  0.00     0.014 A 
ATOM     44  C   UNL     1      -7.420  -4.812   6.379  1.00  0.00     0.010 A 
ATOM     45  C   UNL     1      -6.747  -5.021   4.047  1.00  0.00     0.010 A 
ATOM     46  C   UNL     1      -6.599  -5.349   5.397  1.00  0.00    -0.014 A 
BRANCH  46  47
ATOM     47  C   UNL     1      -5.721  -6.471   5.606  1.00  0.00     0.031 A 
ATOM     48  C   UNL     1      -6.442  -7.743   5.405  1.00  0.00     0.074 A 
ATOM     49  C   UNL     1      -4.407  -6.216   5.809  1.00  0.00     0.049 A 
ATOM     50  N   UNL     1      -6.277  -8.808   6.093  1.00  0.00    -0.248 NA
ATOM     51  C   UNL     1      -7.587  -7.874   4.483  1.00  0.00     0.031 C 
ATOM     52  C   UNL     1      -3.258  -7.114   5.846  1.00  0.00     0.029 A 
ATOM     53  N   UNL     1      -3.854  -4.980   6.217  1.00  0.00    -0.354 N 
ATOM     54  C   UNL     1      -6.889  -9.819   5.373  1.00  0.00     0.074 A 
ATOM     55  C   UNL     1      -7.880  -9.171   4.571  1.00  0.00     0.031 C 
ATOM     56  C   UNL     1      -2.293  -6.556   6.605  1.00  0.00     0.029 A 
ATOM     57  C   UNL     1      -2.820  -5.305   7.128  1.00  0.00     0.049 A 
ATOM     58  H   UNL     1      -4.131  -4.081   5.928  1.00  0.00     0.167 HD
ATOM     59  C   UNL     1      -6.271 -11.032   5.345  1.00  0.00     0.037 A 
ATOM     60  C   UNL     1      -2.975  -5.002   8.450  1.00  0.00     0.037 A 
ATOM     61  C   UNL     1      -5.062 -10.935   6.165  1.00  0.00     0.049 A 
ATOM     62  C   UNL     1      -3.201  -6.261   9.251  1.00  0.00     0.074 A 
ATOM     63  C   UNL     1      -3.741 -10.681   5.833  1.00  0.00     0.029 A 
ATOM     64  N   UNL     1      -5.200 -10.617   7.509  1.00  0.00    -0.354 N 
ATOM     65  N   UNL     1      -3.751  -7.343   8.758  1.00  0.00    -0.248 NA
ATOM     66  C   UNL     1      -2.695  -6.446  10.606  1.00  0.00     0.031 C 
ATOM     67  C   UNL     1      -3.101 -10.154   6.991  1.00  0.00     0.029 A 
ATOM     68  C   UNL     1      -4.037 -10.067   8.010  1.00  0.00     0.049 A 
ATOM     69  H   UNL     1      -6.019 -10.765   8.036  1.00  0.00     0.167 HD
ATOM     70  C   UNL     1      -3.602  -8.368   9.655  1.00  0.00     0.074 A 
ATOM     71  C   UNL     1      -2.941  -7.753  10.794  1.00  0.00     0.031 C 
ATOM     72  C   UNL     1      -3.975  -9.661   9.405  1.00  0.00     0.037 A 
BRANCH  59  73
ATOM     73  C   UNL     1      -6.525 -12.178   4.391  1.00  0.00     0.064 A 
ATOM     74  C   UNL     1      -5.573 -13.220   4.300  1.00  0.00     0.173 A 
ATOM     75  C   UNL     1      -7.641 -12.336   3.545  1.00  0.00     0.173 A 
ATOM     76  F   UNL     1      -4.479 -13.238   5.074  1.00  0.00    -0.203 F 
ATOM     77  C   UNL     1      -5.703 -14.294   3.417  1.00  0.00     0.198 A 
ATOM     78  C   UNL     1      -7.768 -13.411   2.654  1.00  0.00     0.198 A 
ATOM     79  F   UNL     1      -8.673 -11.490   3.559  1.00  0.00    -0.203 F 
ATOM     80  F   UNL     1      -4.754 -15.239   3.381  1.00  0.00    -0.200 F 
ATOM     81  C   UNL     1      -6.799 -14.388   2.589  1.00  0.00     0.200 A 
ATOM     82  F   UNL     1      -8.849 -13.494   1.864  1.00  0.00    -0.200 F 
ATOM     83  F   UNL     1      -6.929 -15.423   1.749  1.00  0.00    -0.200 F 
ENDBRANCH  59  73
BRANCH  60  84
ATOM     84  C   UNL     1      -3.605  -3.657   8.617  1.00  0.00     0.064 A 
ATOM     85  C   UNL     1      -2.859  -2.567   8.114  1.00  0.00     0.173 A 
ATOM     86  C   UNL     1      -4.990  -3.486   8.725  1.00  0.00     0.173 A 
ATOM     87  F   UNL     1      -1.523  -2.661   8.016  1.00  0.00    -0.203 F 
ATOM     88  C   UNL     1      -3.483  -1.461   7.543  1.00  0.00     0.198 A 
ATOM     89  C   UNL     1      -5.608  -2.347   8.192  1.00  0.00     0.198 A 
ATOM     90  F   UNL     1      -5.757  -4.468   9.216  1.00  0.00    -0.203 F 
ATOM     91  F   UNL     1      -2.754  -0.542   6.891  1.00  0.00    -0.200 F 
ATOM     92  C   UNL     1      -4.862  -1.373   7.544  1.00  0.00     0.200 A 
ATOM     93  F   UNL     1      -6.942  -2.229   8.234  1.00  0.00    -0.200 F 
ATOM     94  F   UNL     1      -5.462  -0.374   6.879  1.00  0.00    -0.200 F 
ENDBRANCH  60  84
BRANCH  72  95
ATOM     95  C   UNL     1      -4.224 -10.710  10.467  1.00  0.00     0.064 A 
ATOM     96  C   UNL     1      -4.444 -10.407  11.819  1.00  0.00     0.173 A 
ATOM     97  C   UNL     1      -4.400 -12.076  10.124  1.00  0.00     0.173 A 
ATOM     98  F   UNL     1      -4.516  -9.144  12.258  1.00  0.00    -0.203 F 
ATOM     99  C   UNL     1      -4.668 -11.399  12.772  1.00  0.00     0.198 A 
ATOM    100  C   UNL     1      -4.742 -13.046  11.060  1.00  0.00     0.198 A 
ATOM    101  F   UNL     1      -4.280 -12.524   8.867  1.00  0.00    -0.203 F 
ATOM    102  F   UNL     1      -4.755 -11.061  14.065  1.00  0.00    -0.200 F 
ATOM    103  C   UNL     1      -4.829 -12.716  12.392  1.00  0.00     0.200 A 
ATOM    104  F   UNL     1      -4.997 -14.298  10.653  1.00  0.00    -0.200 F 
ATOM    105  F   UNL     1      -5.091 -13.659  13.304  1.00  0.00    -0.200 F 
ENDBRANCH  72  95
ENDBRANCH  46  47
ENDBRANCH  38  41
ENDBRANCH  36  37
ENDBRANCH  35  36
ENDBRANCH  34  35
ENDBRANCH   3  34
TORSDOF 15
