REMARK SMILES CC1([C@](C)(Nc2cccc(Cl)c2)C(=O)NCCCNC(=O)c2ccc(-c3c4nc(c(-c5c(F)c(F)c(F)c(F)c5F)c5ccc([nH]5)c(-c5c(F)c(F)c(F)c(F)c5F)c5nc(c(-c6c(F)c(F)c(F)c(F)c6F)c6ccc3[nH]6)C=C5)C=C4)cc2)CC1
REMARK SMILES IDX 17 1 16 2 15 3 13 4 14 5 3 7 4 8 2 9 1 10 85 11 86 12 5 13
REMARK SMILES IDX 6 15 7 16 12 17 8 18 10 19 9 20 11 21 18 22 19 23 20 24
REMARK SMILES IDX 21 26 22 27 23 28 84 29 24 30 83 31 25 32 26 33 27 34 77 35
REMARK SMILES IDX 28 36 82 37 76 38 78 39 29 40 81 41 75 42 74 43 30 45 62 46
REMARK SMILES IDX 42 47 61 48 43 49 46 50 60 51 79 52 44 53 45 54 59 56 80 57
REMARK SMILES IDX 47 58 31 59 32 60 40 61 33 62 34 63 38 64 41 65 35 66 36 67
REMARK SMILES IDX 39 68 37 69 63 70 64 71 72 72 65 73 66 74 70 75 73 76 67 77
REMARK SMILES IDX 68 78 71 79 69 80 48 81 49 82 57 83 50 84 51 85 55 86 58 87
REMARK SMILES IDX 52 88 53 89 56 90 54 91
REMARK H PARENT 15 6 5 14 19 25 78 44 46 55
REMARK Flexibility Score: inf
ROOT
ATOM      1  C   UNL     1      -1.550   2.687   3.340  1.00  0.00     0.042 C 
ENDROOT
BRANCH   1   2
ATOM      2  C   UNL     1      -0.358   1.744   3.413  1.00  0.00     0.117 C 
BRANCH   2   3
ATOM      3  N   UNL     1      -0.689   0.332   3.478  1.00  0.00    -0.354 N 
ATOM      4  C   UNL     1      -0.482  -0.671   2.566  1.00  0.00     0.245 C 
ATOM      5  O   UNL     1      -0.754  -1.815   2.951  1.00  0.00    -0.272 OA
ATOM      6  H   UNL     1      -1.133   0.049   4.310  1.00  0.00     0.163 HD
BRANCH   4   7
ATOM      7  C   UNL     1       0.048  -0.384   1.122  1.00  0.00     0.119 C 
ATOM      8  C   UNL     1       0.030  -1.705   0.306  1.00  0.00     0.046 C 
BRANCH   7   9
ATOM      9  C   UNL     1       1.552   0.150   1.133  1.00  0.00    -0.001 C 
ATOM     10  C   UNL     1       1.930   1.086  -0.000  1.00  0.00     0.014 C 
ATOM     11  C   UNL     1       2.667  -0.797   1.582  1.00  0.00     0.010 C 
ATOM     12  C   UNL     1       2.320   0.367   2.443  1.00  0.00     0.010 C 
ENDBRANCH   7   9
BRANCH   7  13
ATOM     13  N   UNL     1      -0.819   0.561   0.357  1.00  0.00    -0.371 N 
ATOM     14  H   UNL     1      -0.317   1.158  -0.244  1.00  0.00     0.161 HD
BRANCH  13  15
ATOM     15  C   UNL     1      -2.188   0.765   0.323  1.00  0.00     0.036 A 
ATOM     16  C   UNL     1      -3.107   0.345   1.288  1.00  0.00     0.026 A 
ATOM     17  C   UNL     1      -2.694   1.586  -0.704  1.00  0.00     0.046 A 
ATOM     18  C   UNL     1      -4.436   0.803   1.296  1.00  0.00     0.004 A 
ATOM     19  C   UNL     1      -4.027   2.006  -0.728  1.00  0.00     0.043 A 
ATOM     20  C   UNL     1      -4.896   1.645   0.292  1.00  0.00     0.020 A 
ATOM     21  Cl  UNL     1      -4.589   3.000  -2.016  1.00  0.00    -0.084 Cl
ENDBRANCH  13  15
ENDBRANCH   7  13
ENDBRANCH   4   7
ENDBRANCH   2   3
ENDBRANCH   1   2
BRANCH   1  22
ATOM     22  C   UNL     1      -2.692   2.366   4.289  1.00  0.00     0.118 C 
BRANCH  22  23
ATOM     23  N   UNL     1      -2.360   2.630   5.680  1.00  0.00    -0.352 N 
ATOM     24  C   UNL     1      -2.899   3.545   6.552  1.00  0.00     0.251 C 
ATOM     25  H   UNL     1      -1.642   2.069   6.053  1.00  0.00     0.163 HD
ATOM     26  O   UNL     1      -2.366   3.740   7.639  1.00  0.00    -0.269 OA
BRANCH  24  27
ATOM     27  C   UNL     1      -4.102   4.321   6.176  1.00  0.00     0.039 A 
ATOM     28  C   UNL     1      -4.130   5.689   6.457  1.00  0.00     0.014 A 
ATOM     29  C   UNL     1      -5.205   3.711   5.570  1.00  0.00     0.014 A 
ATOM     30  C   UNL     1      -5.234   6.455   6.078  1.00  0.00     0.010 A 
ATOM     31  C   UNL     1      -6.271   4.489   5.120  1.00  0.00     0.010 A 
ATOM     32  C   UNL     1      -6.300   5.868   5.377  1.00  0.00    -0.014 A 
BRANCH  32  33
ATOM     33  C   UNL     1      -7.447   6.690   4.910  1.00  0.00     0.031 A 
ATOM     34  C   UNL     1      -8.828   6.451   5.452  1.00  0.00     0.074 A 
ATOM     35  C   UNL     1      -7.253   7.623   3.958  1.00  0.00     0.049 A 
ATOM     36  N   UNL     1      -9.952   7.053   5.151  1.00  0.00    -0.248 NA
ATOM     37  C   UNL     1      -8.972   5.377   6.446  1.00  0.00     0.031 C 
ATOM     38  C   UNL     1      -5.973   7.913   3.311  1.00  0.00     0.029 A 
ATOM     39  N   UNL     1      -8.132   8.494   3.363  1.00  0.00    -0.354 N 
ATOM     40  C   UNL     1     -10.933   6.424   5.906  1.00  0.00     0.074 A 
ATOM     41  C   UNL     1     -10.282   5.359   6.638  1.00  0.00     0.031 C 
ATOM     42  C   UNL     1      -6.144   8.907   2.425  1.00  0.00     0.029 A 
ATOM     43  C   UNL     1      -7.551   9.299   2.414  1.00  0.00     0.049 A 
ATOM     44  H   UNL     1      -9.088   8.538   3.595  1.00  0.00     0.167 HD
ATOM     45  C   UNL     1     -12.252   6.721   5.997  1.00  0.00     0.037 A 
ATOM     46  C   UNL     1      -8.091  10.242   1.618  1.00  0.00     0.037 A 
ATOM     47  C   UNL     1     -12.892   7.794   5.281  1.00  0.00     0.049 A 
ATOM     48  C   UNL     1      -9.558  10.553   1.734  1.00  0.00     0.074 A 
ATOM     49  C   UNL     1     -14.203   8.227   5.368  1.00  0.00     0.029 A 
ATOM     50  N   UNL     1     -12.269   8.595   4.334  1.00  0.00    -0.354 N 
ATOM     51  N   UNL     1     -10.458  10.014   2.520  1.00  0.00    -0.248 NA
ATOM     52  C   UNL     1     -10.082  11.611   0.859  1.00  0.00     0.031 C 
ATOM     53  C   UNL     1     -14.391   9.247   4.429  1.00  0.00     0.029 A 
ATOM     54  C   UNL     1     -13.181   9.494   3.801  1.00  0.00     0.049 A 
ATOM     55  H   UNL     1     -11.321   8.534   4.079  1.00  0.00     0.167 HD
ATOM     56  C   UNL     1     -11.648  10.676   2.250  1.00  0.00     0.074 A 
ATOM     57  C   UNL     1     -11.351  11.671   1.241  1.00  0.00     0.031 C 
ATOM     58  C   UNL     1     -12.876  10.475   2.789  1.00  0.00     0.037 A 
BRANCH  45  59
ATOM     59  C   UNL     1     -13.096   5.863   6.897  1.00  0.00     0.064 A 
ATOM     60  C   UNL     1     -12.947   5.881   8.293  1.00  0.00     0.173 A 
ATOM     61  C   UNL     1     -14.085   5.027   6.357  1.00  0.00     0.173 A 
ATOM     62  F   UNL     1     -12.011   6.656   8.862  1.00  0.00    -0.203 F 
ATOM     63  C   UNL     1     -13.729   5.067   9.109  1.00  0.00     0.198 A 
ATOM     64  C   UNL     1     -14.888   4.240   7.179  1.00  0.00     0.198 A 
ATOM     65  F   UNL     1     -14.277   4.974   5.030  1.00  0.00    -0.203 F 
ATOM     66  F   UNL     1     -13.527   5.059  10.434  1.00  0.00    -0.200 F 
ATOM     67  C   UNL     1     -14.702   4.253   8.553  1.00  0.00     0.200 A 
ATOM     68  F   UNL     1     -15.839   3.465   6.640  1.00  0.00    -0.200 F 
ATOM     69  F   UNL     1     -15.456   3.472   9.339  1.00  0.00    -0.200 F 
ENDBRANCH  45  59
BRANCH  46  70
ATOM     70  C   UNL     1      -7.226  10.967   0.651  1.00  0.00     0.064 A 
ATOM     71  C   UNL     1      -6.911  12.320   0.836  1.00  0.00     0.173 A 
ATOM     72  C   UNL     1      -6.681  10.316  -0.466  1.00  0.00     0.173 A 
ATOM     73  F   UNL     1      -7.425  12.991   1.877  1.00  0.00    -0.203 F 
ATOM     74  C   UNL     1      -6.092  12.997  -0.065  1.00  0.00     0.198 A 
ATOM     75  C   UNL     1      -5.838  10.986  -1.350  1.00  0.00     0.198 A 
ATOM     76  F   UNL     1      -6.949   9.021  -0.685  1.00  0.00    -0.203 F 
ATOM     77  F   UNL     1      -5.835  14.300   0.115  1.00  0.00    -0.200 F 
ATOM     78  C   UNL     1      -5.549  12.328  -1.152  1.00  0.00     0.200 A 
ATOM     79  F   UNL     1      -5.303  10.332  -2.389  1.00  0.00    -0.200 F 
ATOM     80  F   UNL     1      -4.751  12.977  -2.011  1.00  0.00    -0.200 F 
ENDBRANCH  46  70
BRANCH  58  81
ATOM     81  C   UNL     1     -13.992  11.361   2.312  1.00  0.00     0.064 A 
ATOM     82  C   UNL     1     -14.529  11.240   1.022  1.00  0.00     0.173 A 
ATOM     83  C   UNL     1     -14.558  12.317   3.171  1.00  0.00     0.173 A 
ATOM     84  F   UNL     1     -14.015  10.353   0.157  1.00  0.00    -0.203 F 
ATOM     85  C   UNL     1     -15.573  12.059   0.601  1.00  0.00     0.198 A 
ATOM     86  C   UNL     1     -15.624  13.111   2.757  1.00  0.00     0.198 A 
ATOM     87  F   UNL     1     -14.087  12.470   4.417  1.00  0.00    -0.203 F 
ATOM     88  F   UNL     1     -16.037  11.959  -0.653  1.00  0.00    -0.200 F 
ATOM     89  C   UNL     1     -16.125  12.988   1.471  1.00  0.00     0.200 A 
ATOM     90  F   UNL     1     -16.165  13.997   3.605  1.00  0.00    -0.200 F 
ATOM     91  F   UNL     1     -17.136  13.770   1.066  1.00  0.00    -0.200 F 
ENDBRANCH  58  81
ENDBRANCH  32  33
ENDBRANCH  24  27
ENDBRANCH  22  23
ENDBRANCH   1  22
TORSDOF 13
