REMARK SMILES C[C@H]1[C@H](C(=O)NCCCNC(=O)c2ccc(-c3c4nc(c(-c5c(F)c(F)c(F)c(F)c5F)c5ccc([nH]5)c(-c5c(F)c(F)c(F)c(F)c5F)c5nc(c(-c6c(F)c(F)c(F)c(F)c6F)c6ccc3[nH]6)C=C5)C=C4)cc2)CCN1c1ncnc2sccc12
REMARK SMILES IDX 8 1 7 2 6 3 4 4 5 5 3 7 1 8 2 9 78 10 76 11 77 12 79 13
REMARK SMILES IDX 80 14 87 15 81 16 83 17 86 18 82 19 84 20 85 21 9 22 10 23
REMARK SMILES IDX 11 24 12 26 13 27 14 28 75 29 15 30 74 31 16 32 17 33 18 34
REMARK SMILES IDX 68 35 19 36 73 37 67 38 69 39 20 40 72 41 66 42 65 43 21 45
REMARK SMILES IDX 53 46 33 47 52 48 34 49 37 50 51 51 70 52 35 53 36 54 50 56
REMARK SMILES IDX 71 57 38 58 22 59 23 60 31 61 24 62 25 63 29 64 32 65 26 66
REMARK SMILES IDX 27 67 30 68 28 69 54 70 55 71 63 72 56 73 57 74 61 75 64 76
REMARK SMILES IDX 58 77 59 78 62 79 60 80 39 81 40 82 48 83 41 84 42 85 46 86
REMARK SMILES IDX 49 87 43 88 44 89 47 90 45 91
REMARK H PARENT 6 6 10 25 69 44 37 55
REMARK Flexibility Score: inf
ROOT
ATOM      1  C   UNL     1      -0.291  -0.057   3.894  1.00  0.00     0.042 C 
ENDROOT
BRANCH   1   2
ATOM      2  C   UNL     1      -1.162   0.633   2.852  1.00  0.00     0.117 C 
BRANCH   2   3
ATOM      3  N   UNL     1      -0.568   1.864   2.359  1.00  0.00    -0.356 N 
ATOM      4  C   UNL     1      -0.025   2.181   1.155  1.00  0.00     0.225 C 
ATOM      5  O   UNL     1       0.447   3.315   1.035  1.00  0.00    -0.275 OA
ATOM      6  H   UNL     1      -0.557   2.599   3.014  1.00  0.00     0.163 HD
BRANCH   4   7
ATOM      7  C   UNL     1       0.004   1.219  -0.022  1.00  0.00     0.102 C 
ATOM      8  C   UNL     1       2.014  -0.129  -0.717  1.00  0.00     0.032 C 
ATOM      9  C   UNL     1       0.836  -0.039   0.257  1.00  0.00     0.093 C 
ATOM     10  N   UNL     1      -0.098  -1.155   0.066  1.00  0.00    -0.352 N 
ATOM     11  C   UNL     1      -1.379   0.766  -0.475  1.00  0.00     0.037 C 
ATOM     12  C   UNL     1      -1.329  -0.753  -0.580  1.00  0.00     0.119 C 
BRANCH  10  13
ATOM     13  C   UNL     1       0.205  -2.422   0.517  1.00  0.00     0.141 A 
ATOM     14  N   UNL     1       1.371  -2.564   1.206  1.00  0.00    -0.219 NA
ATOM     15  C   UNL     1      -0.590  -3.592   0.356  1.00  0.00     0.054 A 
ATOM     16  C   UNL     1       1.736  -3.761   1.683  1.00  0.00     0.225 A 
ATOM     17  C   UNL     1      -0.095  -4.757   0.934  1.00  0.00     0.128 A 
ATOM     18  C   UNL     1      -1.845  -3.883  -0.295  1.00  0.00     0.026 A 
ATOM     19  N   UNL     1       1.058  -4.900   1.604  1.00  0.00    -0.225 NA
ATOM     20  S   UNL     1      -1.121  -6.106   0.736  1.00  0.00    -0.124 S 
ATOM     21  C   UNL     1      -2.252  -5.191  -0.149  1.00  0.00     0.068 A 
ENDBRANCH  10  13
ENDBRANCH   4   7
ENDBRANCH   2   3
ENDBRANCH   1   2
BRANCH   1  22
ATOM     22  C   UNL     1      -0.141   0.728   5.191  1.00  0.00     0.118 C 
BRANCH  22  23
ATOM     23  N   UNL     1      -1.402   0.882   5.904  1.00  0.00    -0.352 N 
ATOM     24  C   UNL     1      -1.767   0.474   7.160  1.00  0.00     0.251 C 
ATOM     25  H   UNL     1      -2.105   1.356   5.402  1.00  0.00     0.163 HD
ATOM     26  O   UNL     1      -2.951   0.537   7.497  1.00  0.00    -0.269 OA
BRANCH  24  27
ATOM     27  C   UNL     1      -0.766  -0.054   8.110  1.00  0.00     0.039 A 
ATOM     28  C   UNL     1      -1.115  -1.140   8.919  1.00  0.00     0.014 A 
ATOM     29  C   UNL     1       0.496   0.531   8.239  1.00  0.00     0.014 A 
ATOM     30  C   UNL     1      -0.181  -1.674   9.809  1.00  0.00     0.010 A 
ATOM     31  C   UNL     1       1.453  -0.052   9.066  1.00  0.00     0.010 A 
ATOM     32  C   UNL     1       1.123  -1.156   9.864  1.00  0.00    -0.014 A 
BRANCH  32  33
ATOM     33  C   UNL     1       2.149  -1.761  10.752  1.00  0.00     0.031 A 
ATOM     34  C   UNL     1       2.741  -0.966  11.882  1.00  0.00     0.074 A 
ATOM     35  C   UNL     1       2.589  -3.009  10.501  1.00  0.00     0.049 A 
ATOM     36  N   UNL     1       3.680  -1.306  12.731  1.00  0.00    -0.248 NA
ATOM     37  C   UNL     1       2.233   0.402  12.067  1.00  0.00     0.031 C 
ATOM     38  C   UNL     1       2.136  -3.859   9.399  1.00  0.00     0.029 A 
ATOM     39  N   UNL     1       3.522  -3.777  11.152  1.00  0.00    -0.354 N 
ATOM     40  C   UNL     1       3.879  -0.194  13.539  1.00  0.00     0.074 A 
ATOM     41  C   UNL     1       3.008   0.850  13.044  1.00  0.00     0.031 C 
ATOM     42  C   UNL     1       2.775  -5.037   9.462  1.00  0.00     0.029 A 
ATOM     43  C   UNL     1       3.704  -5.015  10.587  1.00  0.00     0.049 A 
ATOM     44  H   UNL     1       4.013  -3.469  11.947  1.00  0.00     0.167 HD
ATOM     45  C   UNL     1       4.696  -0.063  14.612  1.00  0.00     0.037 A 
ATOM     46  C   UNL     1       4.531  -6.019  10.936  1.00  0.00     0.037 A 
ATOM     47  C   UNL     1       5.546  -1.110  15.115  1.00  0.00     0.049 A 
ATOM     48  C   UNL     1       5.417  -5.855  12.140  1.00  0.00     0.074 A 
ATOM     49  C   UNL     1       6.370  -1.096  16.227  1.00  0.00     0.029 A 
ATOM     50  N   UNL     1       5.683  -2.363  14.534  1.00  0.00    -0.354 N 
ATOM     51  N   UNL     1       5.547  -4.823  12.938  1.00  0.00    -0.248 NA
ATOM     52  C   UNL     1       6.263  -7.001  12.499  1.00  0.00     0.031 C 
ATOM     53  C   UNL     1       7.035  -2.325  16.296  1.00  0.00     0.029 A 
ATOM     54  C   UNL     1       6.590  -3.123  15.255  1.00  0.00     0.049 A 
ATOM     55  H   UNL     1       5.206  -2.667  13.728  1.00  0.00     0.167 HD
ATOM     56  C   UNL     1       6.471  -5.199  13.902  1.00  0.00     0.074 A 
ATOM     57  C   UNL     1       6.853  -6.564  13.603  1.00  0.00     0.031 C 
ATOM     58  C   UNL     1       6.961  -4.480  14.941  1.00  0.00     0.037 A 
BRANCH  45  59
ATOM     59  C   UNL     1       4.699   1.261  15.320  1.00  0.00     0.064 A 
ATOM     60  C   UNL     1       3.594   1.697  16.068  1.00  0.00     0.173 A 
ATOM     61  C   UNL     1       5.829   2.092  15.277  1.00  0.00     0.173 A 
ATOM     62  F   UNL     1       2.484   0.946  16.132  1.00  0.00    -0.203 F 
ATOM     63  C   UNL     1       3.607   2.928  16.718  1.00  0.00     0.198 A 
ATOM     64  C   UNL     1       5.850   3.309  15.954  1.00  0.00     0.198 A 
ATOM     65  F   UNL     1       6.916   1.722  14.583  1.00  0.00    -0.203 F 
ATOM     66  F   UNL     1       2.520   3.345  17.381  1.00  0.00    -0.200 F 
ATOM     67  C   UNL     1       4.737   3.730  16.666  1.00  0.00     0.200 A 
ATOM     68  F   UNL     1       6.948   4.077  15.914  1.00  0.00    -0.200 F 
ATOM     69  F   UNL     1       4.750   4.912  17.296  1.00  0.00    -0.200 F 
ENDBRANCH  45  59
BRANCH  46  70
ATOM     70  C   UNL     1       4.536  -7.279  10.149  1.00  0.00     0.064 A 
ATOM     71  C   UNL     1       4.013  -8.464  10.685  1.00  0.00     0.173 A 
ATOM     72  C   UNL     1       5.055  -7.323   8.847  1.00  0.00     0.173 A 
ATOM     73  F   UNL     1       3.524  -8.476  11.933  1.00  0.00    -0.203 F 
ATOM     74  C   UNL     1       4.028  -9.651   9.955  1.00  0.00     0.198 A 
ATOM     75  C   UNL     1       5.044  -8.504   8.108  1.00  0.00     0.198 A 
ATOM     76  F   UNL     1       5.561  -6.214   8.288  1.00  0.00    -0.203 F 
ATOM     77  F   UNL     1       3.562 -10.779  10.507  1.00  0.00    -0.200 F 
ATOM     78  C   UNL     1       4.537  -9.668   8.665  1.00  0.00     0.200 A 
ATOM     79  F   UNL     1       5.524  -8.513   6.858  1.00  0.00    -0.200 F 
ATOM     80  F   UNL     1       4.547 -10.809   7.962  1.00  0.00    -0.200 F 
ENDBRANCH  46  70
BRANCH  58  81
ATOM     81  C   UNL     1       7.948  -5.164  15.841  1.00  0.00     0.064 A 
ATOM     82  C   UNL     1       9.256  -5.446  15.419  1.00  0.00     0.173 A 
ATOM     83  C   UNL     1       7.589  -5.521  17.150  1.00  0.00     0.173 A 
ATOM     84  F   UNL     1       9.644  -5.138  14.172  1.00  0.00    -0.203 F 
ATOM     85  C   UNL     1      10.158  -6.088  16.263  1.00  0.00     0.198 A 
ATOM     86  C   UNL     1       8.502  -6.136  18.001  1.00  0.00     0.198 A 
ATOM     87  F   UNL     1       6.352  -5.268  17.605  1.00  0.00    -0.203 F 
ATOM     88  F   UNL     1      11.385  -6.396  15.821  1.00  0.00    -0.200 F 
ATOM     89  C   UNL     1       9.782  -6.427  17.555  1.00  0.00     0.200 A 
ATOM     90  F   UNL     1       8.142  -6.452  19.253  1.00  0.00    -0.200 F 
ATOM     91  F   UNL     1      10.652  -7.043  18.367  1.00  0.00    -0.200 F 
ENDBRANCH  58  81
ENDBRANCH  32  33
ENDBRANCH  24  27
ENDBRANCH  22  23
ENDBRANCH   1  22
TORSDOF 11
