REMARK SMILES O=C(Cn1cc(/C=C2\SC(N3CCOCC3)=[NH+]C2=O)c2ccccc21)NCCCNC(=O)c1ccc(-c2c3nc(c(-c4c(F)c(F)c(F)c(F)c4F)c4ccc([nH]4)c(-c4c(F)c(F)c(F)c(F)c4F)c4nc(c(-c5c(F)c(F)c(F)c(F)c5F)c5ccc2[nH]5)C=C4)C=C3)cc1
REMARK SMILES IDX 28 1 27 2 26 3 1 4 2 5 3 7 4 8 5 9 25 10 6 11 20 12 24 13
REMARK SMILES IDX 21 14 23 15 22 16 7 17 8 18 9 19 18 20 10 21 17 22 19 23
REMARK SMILES IDX 11 24 12 26 16 27 13 28 15 29 14 30 29 31 30 32 31 33 32 35
REMARK SMILES IDX 33 36 34 37 95 38 35 39 94 40 36 41 37 42 38 43 88 44 39 45
REMARK SMILES IDX 93 46 87 47 89 48 40 49 92 50 86 51 85 52 41 54 73 55 53 56
REMARK SMILES IDX 72 57 54 58 57 59 71 60 90 61 55 62 56 63 70 65 91 66 58 67
REMARK SMILES IDX 42 68 43 69 51 70 44 71 45 72 49 73 52 74 46 75 47 76 50 77
REMARK SMILES IDX 48 78 74 79 75 80 83 81 76 82 77 83 81 84 84 85 78 86 79 87
REMARK SMILES IDX 82 88 80 89 59 90 60 91 68 92 61 93 62 94 66 95 69 96 63 97
REMARK SMILES IDX 64 98 67 99 65 100
REMARK H PARENT 26 6 17 25 30 34 89 53 57 64
REMARK Flexibility Score: inf
ROOT
ATOM      1  C   UNL     1       2.729   2.464   2.280  1.00  0.00     0.042 C 
ENDROOT
BRANCH   1   2
ATOM      2  C   UNL     1       2.158   2.069   0.925  1.00  0.00     0.117 C 
BRANCH   2   3
ATOM      3  N   UNL     1       2.787   0.874   0.414  1.00  0.00    -0.354 N 
ATOM      4  O   UNL     1       0.853  -0.190  -0.214  1.00  0.00    -0.273 OA
ATOM      5  C   UNL     1       2.079  -0.146  -0.183  1.00  0.00     0.239 C 
ATOM      6  H   UNL     1       3.764   0.783   0.497  1.00  0.00     0.163 HD
BRANCH   5   7
ATOM      7  C   UNL     1       2.949  -1.246  -0.746  1.00  0.00     0.222 C 
BRANCH   7   8
ATOM      8  N   UNL     1       3.776  -0.872  -1.892  1.00  0.00    -0.337 N 
ATOM      9  C   UNL     1       3.981   0.384  -2.401  1.00  0.00     0.095 A 
ATOM     10  C   UNL     1       4.526  -1.790  -2.611  1.00  0.00     0.049 A 
ATOM     11  C   UNL     1       4.919   0.295  -3.404  1.00  0.00     0.001 A 
ATOM     12  C   UNL     1       5.233  -1.079  -3.587  1.00  0.00     0.007 A 
ATOM     13  C   UNL     1       4.633  -3.185  -2.481  1.00  0.00     0.027 A 
ATOM     14  C   UNL     1       6.061  -1.792  -4.477  1.00  0.00     0.011 A 
ATOM     15  C   UNL     1       5.457  -3.867  -3.379  1.00  0.00     0.002 A 
ATOM     16  C   UNL     1       6.157  -3.183  -4.368  1.00  0.00     0.001 A 
BRANCH  11  17
ATOM     17  C   UNL     1       5.409   1.421  -4.128  1.00  0.00     0.034 C 
ATOM     18  C   UNL     1       6.155   2.417  -3.626  1.00  0.00     0.110 C 
ATOM     19  S   UNL     1       6.806   2.553  -2.042  1.00  0.00     0.006 SA
ATOM     20  C   UNL     1       6.550   3.613  -4.417  1.00  0.00     0.346 C 
ATOM     21  C   UNL     1       7.479   4.122  -2.459  1.00  0.00     0.319 C 
ATOM     22  N   UNL     1       7.242   4.529  -3.667  1.00  0.00    -0.200 N 
ATOM     23  O   UNL     1       6.278   3.745  -5.614  1.00  0.00    -0.240 OA
ATOM     24  N   UNL     1       8.155   4.823  -1.499  1.00  0.00    -0.251 N 
ATOM     25  H   UNL     1       7.530   5.406  -4.010  1.00  0.00     0.316 HD
ATOM     26  C   UNL     1       9.180   4.244  -0.627  1.00  0.00     0.265 C 
ATOM     27  C   UNL     1       8.102   6.289  -1.449  1.00  0.00     0.265 C 
ATOM     28  C   UNL     1       8.995   4.758   0.804  1.00  0.00     0.206 C 
ATOM     29  C   UNL     1       8.013   6.741   0.015  1.00  0.00     0.206 C 
ATOM     30  O   UNL     1       9.061   6.195   0.832  1.00  0.00    -0.373 OA
ENDBRANCH  11  17
ENDBRANCH   7   8
ENDBRANCH   5   7
ENDBRANCH   2   3
ENDBRANCH   1   2
BRANCH   1  31
ATOM     31  C   UNL     1       4.255   2.634   2.284  1.00  0.00     0.118 C 
BRANCH  31  32
ATOM     32  N   UNL     1       4.702   3.543   1.253  1.00  0.00    -0.352 N 
ATOM     33  C   UNL     1       4.778   4.901   1.178  1.00  0.00     0.251 C 
ATOM     34  H   UNL     1       5.014   3.088   0.438  1.00  0.00     0.163 HD
ATOM     35  O   UNL     1       5.036   5.373   0.069  1.00  0.00    -0.269 OA
BRANCH  33  36
ATOM     36  C   UNL     1       4.532   5.830   2.308  1.00  0.00     0.039 A 
ATOM     37  C   UNL     1       3.792   5.525   3.450  1.00  0.00     0.014 A 
ATOM     38  C   UNL     1       4.948   7.158   2.106  1.00  0.00     0.014 A 
ATOM     39  C   UNL     1       3.303   6.541   4.251  1.00  0.00     0.010 A 
ATOM     40  C   UNL     1       4.520   8.173   2.936  1.00  0.00     0.010 A 
ATOM     41  C   UNL     1       3.602   7.860   3.926  1.00  0.00    -0.014 A 
BRANCH  41  42
ATOM     42  C   UNL     1       2.830   8.903   4.571  1.00  0.00     0.031 A 
ATOM     43  C   UNL     1       3.093   9.119   6.013  1.00  0.00     0.074 A 
ATOM     44  C   UNL     1       1.981   9.655   3.844  1.00  0.00     0.049 A 
ATOM     45  N   UNL     1       2.246   9.124   6.990  1.00  0.00    -0.248 NA
ATOM     46  C   UNL     1       4.495   9.274   6.426  1.00  0.00     0.031 C 
ATOM     47  C   UNL     1       1.820   9.690   2.385  1.00  0.00     0.029 A 
ATOM     48  N   UNL     1       1.155  10.647   4.265  1.00  0.00    -0.354 N 
ATOM     49  C   UNL     1       2.985   9.418   8.132  1.00  0.00     0.074 A 
ATOM     50  C   UNL     1       4.373   9.400   7.747  1.00  0.00     0.031 C 
ATOM     51  C   UNL     1       1.143  10.807   2.042  1.00  0.00     0.029 A 
ATOM     52  C   UNL     1       0.728  11.492   3.253  1.00  0.00     0.049 A 
ATOM     53  H   UNL     1       0.883  10.755   5.205  1.00  0.00     0.167 HD
ATOM     54  C   UNL     1       2.404   9.825   9.293  1.00  0.00     0.037 A 
ATOM     55  C   UNL     1       0.167  12.713   3.417  1.00  0.00     0.037 A 
ATOM     56  C   UNL     1       1.009   9.499   9.349  1.00  0.00     0.049 A 
ATOM     57  C   UNL     1      -0.332  12.788   4.816  1.00  0.00     0.074 A 
ATOM     58  C   UNL     1       0.303   8.311   9.366  1.00  0.00     0.029 A 
ATOM     59  N   UNL     1       0.089  10.475   9.058  1.00  0.00    -0.354 N 
ATOM     60  N   UNL     1      -1.349  12.106   5.266  1.00  0.00    -0.248 NA
ATOM     61  C   UNL     1       0.581  13.290   5.835  1.00  0.00     0.031 C 
ATOM     62  C   UNL     1      -0.881   8.572   8.620  1.00  0.00     0.029 A 
ATOM     63  C   UNL     1      -0.841   9.908   8.223  1.00  0.00     0.049 A 
ATOM     64  H   UNL     1       0.095  11.403   9.385  1.00  0.00     0.167 HD
ATOM     65  C   UNL     1      -0.992  11.746   6.558  1.00  0.00     0.074 A 
ATOM     66  C   UNL     1       0.160  12.579   6.885  1.00  0.00     0.031 C 
ATOM     67  C   UNL     1      -1.480  10.610   7.136  1.00  0.00     0.037 A 
BRANCH  54  68
ATOM     68  C   UNL     1       3.066  10.751  10.267  1.00  0.00     0.064 A 
ATOM     69  C   UNL     1       2.592  10.855  11.586  1.00  0.00     0.173 A 
ATOM     70  C   UNL     1       3.998  11.731   9.865  1.00  0.00     0.173 A 
ATOM     71  F   UNL     1       1.670   9.998  12.050  1.00  0.00    -0.203 F 
ATOM     72  C   UNL     1       3.006  11.887  12.433  1.00  0.00     0.198 A 
ATOM     73  C   UNL     1       4.450  12.725  10.727  1.00  0.00     0.198 A 
ATOM     74  F   UNL     1       4.423  11.815   8.596  1.00  0.00    -0.203 F 
ATOM     75  F   UNL     1       2.461  12.008  13.651  1.00  0.00    -0.200 F 
ATOM     76  C   UNL     1       3.937  12.818  12.005  1.00  0.00     0.200 A 
ATOM     77  F   UNL     1       5.335  13.630  10.286  1.00  0.00    -0.200 F 
ATOM     78  F   UNL     1       4.305  13.829  12.802  1.00  0.00    -0.200 F 
ENDBRANCH  54  68
BRANCH  55  79
ATOM     79  C   UNL     1       0.302  13.899   2.539  1.00  0.00     0.064 A 
ATOM     80  C   UNL     1      -0.563  14.996   2.668  1.00  0.00     0.173 A 
ATOM     81  C   UNL     1       1.430  14.088   1.715  1.00  0.00     0.173 A 
ATOM     82  F   UNL     1      -1.633  14.921   3.473  1.00  0.00    -0.203 F 
ATOM     83  C   UNL     1      -0.308  16.211   2.023  1.00  0.00     0.198 A 
ATOM     84  C   UNL     1       1.675  15.294   1.058  1.00  0.00     0.198 A 
ATOM     85  F   UNL     1       2.371  13.141   1.599  1.00  0.00    -0.203 F 
ATOM     86  F   UNL     1      -1.124  17.256   2.219  1.00  0.00    -0.200 F 
ATOM     87  C   UNL     1       0.813  16.360   1.222  1.00  0.00     0.200 A 
ATOM     88  F   UNL     1       2.782  15.433   0.315  1.00  0.00    -0.200 F 
ATOM     89  F   UNL     1       1.084  17.539   0.645  1.00  0.00    -0.200 F 
ENDBRANCH  55  79
BRANCH  67  90
ATOM     90  C   UNL     1      -2.583   9.880   6.421  1.00  0.00     0.064 A 
ATOM     91  C   UNL     1      -2.416   9.277   5.162  1.00  0.00     0.173 A 
ATOM     92  C   UNL     1      -3.781   9.628   7.102  1.00  0.00     0.173 A 
ATOM     93  F   UNL     1      -1.257   9.375   4.500  1.00  0.00    -0.203 F 
ATOM     94  C   UNL     1      -3.420   8.496   4.593  1.00  0.00     0.198 A 
ATOM     95  C   UNL     1      -4.768   8.816   6.548  1.00  0.00     0.198 A 
ATOM     96  F   UNL     1      -3.969  10.122   8.336  1.00  0.00    -0.203 F 
ATOM     97  F   UNL     1      -3.234   7.935   3.389  1.00  0.00    -0.200 F 
ATOM     98  C   UNL     1      -4.591   8.259   5.291  1.00  0.00     0.200 A 
ATOM     99  F   UNL     1      -5.876   8.543   7.250  1.00  0.00    -0.200 F 
ATOM    100  F   UNL     1      -5.536   7.464   4.769  1.00  0.00    -0.200 F 
ENDBRANCH  67  90
ENDBRANCH  41  42
ENDBRANCH  33  36
ENDBRANCH  31  32
ENDBRANCH   1  31
TORSDOF 12
