REMARK SMILES CCCc1nsc(N2CCO[C@H](CC(=O)NCCCNC(=O)c3ccc(-c4c5nc(c(-c6c(F)c(F)c(F)c(F)c6F)c6ccc([nH]6)c(-c6c(F)c(F)c(F)c(F)c6F)c6nc(c(-c7c(F)c(F)c(F)c(F)c7F)c7ccc4[nH]7)C=C6)C=C5)cc3)C2)n1
REMARK SMILES IDX 17 1 16 2 14 3 15 4 13 6 12 7 8 8 9 9 86 10 10 11 11 12 7 13
REMARK SMILES IDX 4 14 5 15 87 16 6 17 3 18 2 19 1 20 18 21 19 22 20 23 21 24
REMARK SMILES IDX 22 26 23 27 24 28 85 29 25 30 84 31 26 32 27 33 28 34 78 35
REMARK SMILES IDX 29 36 83 37 77 38 79 39 30 40 82 41 76 42 75 43 31 45 63 46
REMARK SMILES IDX 43 47 62 48 44 49 47 50 61 51 80 52 45 53 46 54 60 56 81 57
REMARK SMILES IDX 48 58 32 59 33 60 41 61 34 62 35 63 39 64 42 65 36 66 37 67
REMARK SMILES IDX 40 68 38 69 64 70 65 71 73 72 66 73 67 74 71 75 74 76 68 77
REMARK SMILES IDX 69 78 72 79 70 80 49 81 50 82 58 83 51 84 52 85 56 86 59 87
REMARK SMILES IDX 53 88 54 89 57 90 55 91
REMARK H PARENT 16 5 20 25 79 44 47 55
REMARK Flexibility Score: inf
ROOT
ATOM      1  C   UNL     1      -6.245   3.225   2.596  1.00  0.00     0.117 C 
ENDROOT
BRANCH   1   2
ATOM      2  N   UNL     1      -5.084   2.529   2.079  1.00  0.00    -0.356 N 
ATOM      3  C   UNL     1      -4.138   1.799   2.723  1.00  0.00     0.222 C 
ATOM      4  O   UNL     1      -3.205   1.355   2.054  1.00  0.00    -0.275 OA
ATOM      5  H   UNL     1      -4.962   2.596   1.105  1.00  0.00     0.163 HD
BRANCH   3   6
ATOM      6  C   UNL     1      -4.242   1.537   4.203  1.00  0.00     0.133 C 
BRANCH   6   7
ATOM      7  C   UNL     1      -3.891   2.736   5.090  1.00  0.00     0.147 C 
ATOM      8  N   UNL     1      -1.442   2.562   5.162  1.00  0.00    -0.342 N 
ATOM      9  C   UNL     1      -1.481   2.045   6.525  1.00  0.00     0.147 C 
ATOM     10  C   UNL     1      -2.546   3.424   4.771  1.00  0.00     0.151 C 
ATOM     11  C   UNL     1      -2.869   1.491   6.876  1.00  0.00     0.182 C 
ATOM     12  O   UNL     1      -3.944   2.368   6.490  1.00  0.00    -0.374 OA
BRANCH   8  13
ATOM     13  C   UNL     1      -0.580   2.064   4.243  1.00  0.00     0.205 A 
ATOM     14  C   UNL     1       0.598   0.673   3.010  1.00  0.00     0.144 A 
ATOM     15  N   UNL     1       1.054   1.768   2.397  1.00  0.00    -0.174 NA
ATOM     16  N   UNL     1      -0.235   0.801   4.119  1.00  0.00    -0.203 NA
ATOM     17  S   UNL     1       0.248   3.052   3.077  1.00  0.00     0.004 S 
BRANCH  14  18
ATOM     18  C   UNL     1       1.000  -0.679   2.524  1.00  0.00     0.078 C 
BRANCH  18  19
ATOM     19  C   UNL     1       0.376  -1.068   1.177  1.00  0.00     0.005 C 
ATOM     20  C   UNL     1       0.905  -0.267  -0.007  1.00  0.00     0.004 C 
ENDBRANCH  18  19
ENDBRANCH  14  18
ENDBRANCH   8  13
ENDBRANCH   6   7
ENDBRANCH   3   6
ENDBRANCH   1   2
BRANCH   1  21
ATOM     21  C   UNL     1      -6.030   4.737   2.608  1.00  0.00     0.042 C 
BRANCH  21  22
ATOM     22  C   UNL     1      -5.742   5.345   1.236  1.00  0.00     0.118 C 
BRANCH  22  23
ATOM     23  N   UNL     1      -6.845   5.181   0.301  1.00  0.00    -0.352 N 
ATOM     24  C   UNL     1      -7.568   6.119  -0.389  1.00  0.00     0.251 C 
ATOM     25  H   UNL     1      -7.115   4.248   0.138  1.00  0.00     0.163 HD
ATOM     26  O   UNL     1      -8.577   5.772  -1.005  1.00  0.00    -0.269 OA
BRANCH  24  27
ATOM     27  C   UNL     1      -7.172   7.543  -0.384  1.00  0.00     0.039 A 
ATOM     28  C   UNL     1      -8.170   8.514  -0.247  1.00  0.00     0.014 A 
ATOM     29  C   UNL     1      -5.840   7.932  -0.547  1.00  0.00     0.014 A 
ATOM     30  C   UNL     1      -7.825   9.866  -0.201  1.00  0.00     0.010 A 
ATOM     31  C   UNL     1      -5.489   9.278  -0.436  1.00  0.00     0.010 A 
ATOM     32  C   UNL     1      -6.478  10.257  -0.256  1.00  0.00    -0.014 A 
BRANCH  32  33
ATOM     33  C   UNL     1      -6.087  11.682  -0.102  1.00  0.00     0.031 A 
ATOM     34  C   UNL     1      -5.442  12.425  -1.237  1.00  0.00     0.074 A 
ATOM     35  C   UNL     1      -6.257  12.288   1.090  1.00  0.00     0.049 A 
ATOM     36  N   UNL     1      -4.967  13.646  -1.264  1.00  0.00    -0.248 NA
ATOM     37  C   UNL     1      -5.289  11.694  -2.505  1.00  0.00     0.031 C 
ATOM     38  C   UNL     1      -6.833  11.662   2.281  1.00  0.00     0.029 A 
ATOM     39  N   UNL     1      -5.951  13.562   1.500  1.00  0.00    -0.354 N 
ATOM     40  C   UNL     1      -4.452  13.824  -2.541  1.00  0.00     0.074 A 
ATOM     41  C   UNL     1      -4.631  12.574  -3.247  1.00  0.00     0.031 C 
ATOM     42  C   UNL     1      -6.853  12.556   3.282  1.00  0.00     0.029 A 
ATOM     43  C   UNL     1      -6.258  13.805   2.816  1.00  0.00     0.049 A 
ATOM     44  H   UNL     1      -5.549  14.237   0.906  1.00  0.00     0.167 HD
ATOM     45  C   UNL     1      -3.899  14.937  -3.080  1.00  0.00     0.037 A 
ATOM     46  C   UNL     1      -6.071  14.907   3.567  1.00  0.00     0.037 A 
ATOM     47  C   UNL     1      -3.743  16.188  -2.384  1.00  0.00     0.049 A 
ATOM     48  C   UNL     1      -5.445  16.125   2.944  1.00  0.00     0.074 A 
ATOM     49  C   UNL     1      -3.247  17.387  -2.866  1.00  0.00     0.029 A 
ATOM     50  N   UNL     1      -4.080  16.400  -1.056  1.00  0.00    -0.354 N 
ATOM     51  N   UNL     1      -5.020  16.300   1.717  1.00  0.00    -0.248 NA
ATOM     52  C   UNL     1      -5.278  17.300   3.811  1.00  0.00     0.031 C 
ATOM     53  C   UNL     1      -3.246  18.314  -1.817  1.00  0.00     0.029 A 
ATOM     54  C   UNL     1      -3.783  17.705  -0.695  1.00  0.00     0.049 A 
ATOM     55  H   UNL     1      -4.472  15.723  -0.457  1.00  0.00     0.167 HD
ATOM     56  C   UNL     1      -4.558  17.608   1.657  1.00  0.00     0.074 A 
ATOM     57  C   UNL     1      -4.771  18.187   2.967  1.00  0.00     0.031 C 
ATOM     58  C   UNL     1      -4.005  18.268   0.611  1.00  0.00     0.037 A 
BRANCH  45  59
ATOM     59  C   UNL     1      -3.424  14.859  -4.502  1.00  0.00     0.064 A 
ATOM     60  C   UNL     1      -4.327  14.798  -5.574  1.00  0.00     0.173 A 
ATOM     61  C   UNL     1      -2.054  14.902  -4.800  1.00  0.00     0.173 A 
ATOM     62  F   UNL     1      -5.648  14.744  -5.341  1.00  0.00    -0.203 F 
ATOM     63  C   UNL     1      -3.876  14.761  -6.890  1.00  0.00     0.198 A 
ATOM     64  C   UNL     1      -1.607  14.893  -6.118  1.00  0.00     0.198 A 
ATOM     65  F   UNL     1      -1.149  14.969  -3.812  1.00  0.00    -0.203 F 
ATOM     66  F   UNL     1      -4.756  14.663  -7.896  1.00  0.00    -0.200 F 
ATOM     67  C   UNL     1      -2.517  14.816  -7.162  1.00  0.00     0.200 A 
ATOM     68  F   UNL     1      -0.294  14.960  -6.380  1.00  0.00    -0.200 F 
ATOM     69  F   UNL     1      -2.084  14.792  -8.430  1.00  0.00    -0.200 F 
ENDBRANCH  45  59
BRANCH  46  70
ATOM     70  C   UNL     1      -6.494  14.916   4.992  1.00  0.00     0.064 A 
ATOM     71  C   UNL     1      -7.580  15.694   5.414  1.00  0.00     0.173 A 
ATOM     72  C   UNL     1      -5.817  14.159   5.958  1.00  0.00     0.173 A 
ATOM     73  F   UNL     1      -8.245  16.451   4.529  1.00  0.00    -0.203 F 
ATOM     74  C   UNL     1      -7.961  15.731   6.753  1.00  0.00     0.198 A 
ATOM     75  C   UNL     1      -6.216  14.175   7.293  1.00  0.00     0.198 A 
ATOM     76  F   UNL     1      -4.774  13.394   5.604  1.00  0.00    -0.203 F 
ATOM     77  F   UNL     1      -8.974  16.519   7.138  1.00  0.00    -0.200 F 
ATOM     78  C   UNL     1      -7.282  14.968   7.691  1.00  0.00     0.200 A 
ATOM     79  F   UNL     1      -5.566  13.425   8.194  1.00  0.00    -0.200 F 
ATOM     80  F   UNL     1      -7.650  15.002   8.979  1.00  0.00    -0.200 F 
ENDBRANCH  46  70
BRANCH  58  81
ATOM     81  C   UNL     1      -3.618  19.701   0.832  1.00  0.00     0.064 A 
ATOM     82  C   UNL     1      -2.504  20.049   1.610  1.00  0.00     0.173 A 
ATOM     83  C   UNL     1      -4.350  20.736   0.230  1.00  0.00     0.173 A 
ATOM     84  F   UNL     1      -1.783  19.096   2.220  1.00  0.00    -0.203 F 
ATOM     85  C   UNL     1      -2.151  21.382   1.797  1.00  0.00     0.198 A 
ATOM     86  C   UNL     1      -3.977  22.067   0.396  1.00  0.00     0.198 A 
ATOM     87  F   UNL     1      -5.420  20.455  -0.527  1.00  0.00    -0.203 F 
ATOM     88  F   UNL     1      -1.110  21.694   2.582  1.00  0.00    -0.200 F 
ATOM     89  C   UNL     1      -2.883  22.389   1.185  1.00  0.00     0.200 A 
ATOM     90  F   UNL     1      -4.678  23.038  -0.205  1.00  0.00    -0.200 F 
ATOM     91  F   UNL     1      -2.538  23.672   1.362  1.00  0.00    -0.200 F 
ENDBRANCH  58  81
ENDBRANCH  32  33
ENDBRANCH  24  27
ENDBRANCH  22  23
ENDBRANCH  21  22
ENDBRANCH   1  21
TORSDOF 14
