REMARK SMILES CS(=O)(=O)c1ccc(C(=O)NCCCNC(=O)c2ccc(-c3c4nc(c(-c5c(F)c(F)c(F)c(F)c5F)c5ccc([nH]5)c(-c5c(F)c(F)c(F)c(F)c5F)c5nc(c(-c6c(F)c(F)c(F)c(F)c6F)c6ccc3[nH]6)C=C5)C=C4)cc2)o1
REMARK SMILES IDX 13 1 12 2 11 3 9 4 10 5 8 7 5 8 6 9 81 10 7 11 2 12 1 13
REMARK SMILES IDX 3 14 4 15 14 16 15 17 16 18 17 20 18 21 19 22 80 23 20 24
REMARK SMILES IDX 79 25 21 26 22 27 23 28 73 29 24 30 78 31 72 32 74 33 25 34
REMARK SMILES IDX 77 35 71 36 70 37 26 39 58 40 38 41 57 42 39 43 42 44 56 45
REMARK SMILES IDX 75 46 40 47 41 48 55 50 76 51 43 52 27 53 28 54 36 55 29 56
REMARK SMILES IDX 30 57 34 58 37 59 31 60 32 61 35 62 33 63 59 64 60 65 68 66
REMARK SMILES IDX 61 67 62 68 66 69 69 70 63 71 64 72 67 73 65 74 44 75 45 76
REMARK SMILES IDX 53 77 46 78 47 79 51 80 54 81 48 82 49 83 52 84 50 85
REMARK H PARENT 11 6 15 19 74 38 42 49
REMARK Flexibility Score: inf
ROOT
ATOM      1  C   UNL     1       1.913  -3.357   7.584  1.00  0.00     0.042 C 
ENDROOT
BRANCH   1   2
ATOM      2  C   UNL     1       2.639  -3.595   6.262  1.00  0.00     0.118 C 
BRANCH   2   3
ATOM      3  N   UNL     1       1.757  -4.121   5.239  1.00  0.00    -0.349 N 
ATOM      4  C   UNL     1       1.126  -3.519   4.176  1.00  0.00     0.287 C 
ATOM      5  O   UNL     1       0.547  -4.288   3.404  1.00  0.00    -0.266 OA
ATOM      6  H   UNL     1       1.577  -5.086   5.320  1.00  0.00     0.163 HD
BRANCH   4   7
ATOM      7  C   UNL     1       1.149  -2.080   3.973  1.00  0.00     0.193 A 
ATOM      8  C   UNL     1       0.766  -0.263   2.712  1.00  0.00     0.218 A 
ATOM      9  C   UNL     1       1.247   0.169   3.938  1.00  0.00     0.064 A 
ATOM     10  O   UNL     1       0.727  -1.637   2.742  1.00  0.00    -0.440 OA
ATOM     11  C   UNL     1       1.469  -0.977   4.740  1.00  0.00     0.058 A 
BRANCH   8  12
ATOM     12  S   UNL     1       0.237   0.654   1.272  1.00  0.00     0.208 S 
ATOM     13  C   UNL     1       0.954  -0.241  -0.078  1.00  0.00     0.167 C 
ATOM     14  O   UNL     1       0.890   1.944   1.389  1.00  0.00    -0.221 OA
ATOM     15  O   UNL     1      -1.204   0.519   1.238  1.00  0.00    -0.221 OA
ENDBRANCH   8  12
ENDBRANCH   4   7
ENDBRANCH   2   3
ENDBRANCH   1   2
BRANCH   1  16
ATOM     16  C   UNL     1       1.591  -4.641   8.353  1.00  0.00     0.118 C 
BRANCH  16  17
ATOM     17  N   UNL     1       2.791  -5.305   8.846  1.00  0.00    -0.352 N 
ATOM     18  C   UNL     1       3.176  -5.634  10.121  1.00  0.00     0.251 C 
ATOM     19  H   UNL     1       3.434  -5.561   8.146  1.00  0.00     0.163 HD
ATOM     20  O   UNL     1       4.330  -6.008  10.319  1.00  0.00    -0.269 OA
BRANCH  18  21
ATOM     21  C   UNL     1       2.237  -5.544  11.262  1.00  0.00     0.039 A 
ATOM     22  C   UNL     1       2.725  -5.091  12.493  1.00  0.00     0.014 A 
ATOM     23  C   UNL     1       0.911  -5.970  11.156  1.00  0.00     0.014 A 
ATOM     24  C   UNL     1       1.874  -5.015  13.600  1.00  0.00     0.010 A 
ATOM     25  C   UNL     1       0.047  -5.841  12.245  1.00  0.00     0.010 A 
ATOM     26  C   UNL     1       0.520  -5.364  13.477  1.00  0.00    -0.014 A 
BRANCH  26  27
ATOM     27  C   UNL     1      -0.414  -5.233  14.625  1.00  0.00     0.031 A 
ATOM     28  C   UNL     1      -1.031  -6.454  15.248  1.00  0.00     0.074 A 
ATOM     29  C   UNL     1      -0.753  -4.007  15.069  1.00  0.00     0.049 A 
ATOM     30  N   UNL     1      -1.934  -6.535  16.193  1.00  0.00    -0.248 NA
ATOM     31  C   UNL     1      -0.590  -7.756  14.725  1.00  0.00     0.031 C 
ATOM     32  C   UNL     1      -0.245  -2.744  14.531  1.00  0.00     0.029 A 
ATOM     33  N   UNL     1      -1.613  -3.622  16.067  1.00  0.00    -0.354 N 
ATOM     34  C   UNL     1      -2.183  -7.891  16.363  1.00  0.00     0.074 A 
ATOM     35  C   UNL     1      -1.363  -8.595  15.401  1.00  0.00     0.031 C 
ATOM     36  C   UNL     1      -0.787  -1.726  15.218  1.00  0.00     0.029 A 
ATOM     37  C   UNL     1      -1.707  -2.261  16.217  1.00  0.00     0.049 A 
ATOM     38  H   UNL     1      -2.115  -4.262  16.622  1.00  0.00     0.167 HD
ATOM     39  C   UNL     1      -3.008  -8.493  17.253  1.00  0.00     0.037 A 
ATOM     40  C   UNL     1      -2.456  -1.526  17.061  1.00  0.00     0.037 A 
ATOM     41  C   UNL     1      -3.801  -7.795  18.231  1.00  0.00     0.049 A 
ATOM     42  C   UNL     1      -3.364  -2.220  18.037  1.00  0.00     0.074 A 
ATOM     43  C   UNL     1      -4.631  -8.321  19.206  1.00  0.00     0.029 A 
ATOM     44  N   UNL     1      -3.857  -6.415  18.361  1.00  0.00    -0.354 N 
ATOM     45  N   UNL     1      -3.562  -3.504  18.214  1.00  0.00    -0.248 NA
ATOM     46  C   UNL     1      -4.152  -1.362  18.933  1.00  0.00     0.031 C 
ATOM     47  C   UNL     1      -5.214  -7.259  19.906  1.00  0.00     0.029 A 
ATOM     48  C   UNL     1      -4.717  -6.072  19.393  1.00  0.00     0.049 A 
ATOM     49  H   UNL     1      -3.360  -5.774  17.804  1.00  0.00     0.167 HD
ATOM     50  C   UNL     1      -4.473  -3.609  19.255  1.00  0.00     0.074 A 
ATOM     51  C   UNL     1      -4.783  -2.259  19.679  1.00  0.00     0.031 C 
ATOM     52  C   UNL     1      -5.006  -4.725  19.810  1.00  0.00     0.037 A 
BRANCH  39  53
ATOM     53  C   UNL     1      -3.096  -9.990  17.214  1.00  0.00     0.064 A 
ATOM     54  C   UNL     1      -2.045 -10.798  17.673  1.00  0.00     0.173 A 
ATOM     55  C   UNL     1      -4.261 -10.624  16.757  1.00  0.00     0.173 A 
ATOM     56  F   UNL     1      -0.906 -10.240  18.110  1.00  0.00    -0.203 F 
ATOM     57  C   UNL     1      -2.148 -12.187  17.654  1.00  0.00     0.198 A 
ATOM     58  C   UNL     1      -4.370 -12.013  16.763  1.00  0.00     0.198 A 
ATOM     59  F   UNL     1      -5.297  -9.898  16.313  1.00  0.00    -0.203 F 
ATOM     60  F   UNL     1      -1.116 -12.939  18.060  1.00  0.00    -0.200 F 
ATOM     61  C   UNL     1      -3.312 -12.792  17.206  1.00  0.00     0.200 A 
ATOM     62  F   UNL     1      -5.500 -12.597  16.340  1.00  0.00    -0.200 F 
ATOM     63  F   UNL     1      -3.413 -14.129  17.195  1.00  0.00    -0.200 F 
ENDBRANCH  39  53
BRANCH  40  64
ATOM     64  C   UNL     1      -2.354  -0.045  17.041  1.00  0.00     0.064 A 
ATOM     65  C   UNL     1      -1.723   0.641  18.087  1.00  0.00     0.173 A 
ATOM     66  C   UNL     1      -2.878   0.711  15.983  1.00  0.00     0.173 A 
ATOM     67  F   UNL     1      -1.227  -0.040  19.130  1.00  0.00    -0.203 F 
ATOM     68  C   UNL     1      -1.631   2.031  18.083  1.00  0.00     0.198 A 
ATOM     69  C   UNL     1      -2.764   2.099  15.968  1.00  0.00     0.198 A 
ATOM     70  F   UNL     1      -3.487   0.099  14.957  1.00  0.00    -0.203 F 
ATOM     71  F   UNL     1      -1.055   2.665  19.113  1.00  0.00    -0.200 F 
ATOM     72  C   UNL     1      -2.147   2.759  17.020  1.00  0.00     0.200 A 
ATOM     73  F   UNL     1      -3.252   2.799  14.934  1.00  0.00    -0.200 F 
ATOM     74  F   UNL     1      -2.053   4.095  17.014  1.00  0.00    -0.200 F 
ENDBRANCH  40  64
BRANCH  52  75
ATOM     75  C   UNL     1      -5.949  -4.536  20.960  1.00  0.00     0.064 A 
ATOM     76  C   UNL     1      -7.257  -4.069  20.767  1.00  0.00     0.173 A 
ATOM     77  C   UNL     1      -5.551  -4.864  22.265  1.00  0.00     0.173 A 
ATOM     78  F   UNL     1      -7.678  -3.728  19.540  1.00  0.00    -0.203 F 
ATOM     79  C   UNL     1      -8.127  -3.918  21.843  1.00  0.00     0.198 A 
ATOM     80  C   UNL     1      -6.431  -4.734  23.335  1.00  0.00     0.198 A 
ATOM     81  F   UNL     1      -4.311  -5.318  22.499  1.00  0.00    -0.203 F 
ATOM     82  F   UNL     1      -9.360  -3.432  21.643  1.00  0.00    -0.200 F 
ATOM     83  C   UNL     1      -7.716  -4.256  23.124  1.00  0.00     0.200 A 
ATOM     84  F   UNL     1      -6.036  -5.070  24.570  1.00  0.00    -0.200 F 
ATOM     85  F   UNL     1      -8.557  -4.114  24.158  1.00  0.00    -0.200 F 
ENDBRANCH  52  75
ENDBRANCH  26  27
ENDBRANCH  18  21
ENDBRANCH  16  17
ENDBRANCH   1  16
TORSDOF 11
