REMARK SMILES Cn1ccnc1NCCOCC(=O)NCCCNC(=O)c1ccc(-c2c3nc(c(-c4c(F)c(F)c(F)c(F)c4F)c4ccc([nH]4)c(-c4c(F)c(F)c(F)c(F)c4F)c4nc(c(-c5c(F)c(F)c(F)c(F)c5F)c5ccc2[nH]5)C=C4)C=C3)cc1
REMARK SMILES IDX 12 1 13 2 14 3 11 5 10 6 9 7 8 8 7 9 6 11 1 12 2 13 3 14
REMARK SMILES IDX 4 15 5 16 15 17 16 18 17 19 18 20 19 21 20 23 21 24 22 25
REMARK SMILES IDX 83 26 23 27 82 28 24 29 25 30 26 31 76 32 27 33 81 34 75 35
REMARK SMILES IDX 77 36 28 37 80 38 74 39 73 40 29 42 61 43 41 44 60 45 42 46
REMARK SMILES IDX 45 47 59 48 78 49 43 50 44 51 58 53 79 54 46 55 30 56 31 57
REMARK SMILES IDX 39 58 32 59 33 60 37 61 40 62 34 63 35 64 38 65 36 66 62 67
REMARK SMILES IDX 63 68 71 69 64 70 65 71 69 72 72 73 66 74 67 75 70 76 68 77
REMARK SMILES IDX 47 78 48 79 56 80 49 81 50 82 54 83 57 84 51 85 52 86 55 87
REMARK SMILES IDX 53 88
REMARK H PARENT 14 4 7 10 18 22 77 41 45 52
REMARK Flexibility Score: inf
ROOT
ATOM      1  C   UNL     1       2.120   3.178   2.555  1.00  0.00     0.245 C 
ATOM      2  O   UNL     1       2.157   1.948   2.498  1.00  0.00    -0.272 OA
ATOM      3  N   UNL     1       2.212   3.787   3.775  1.00  0.00    -0.354 N 
ATOM      4  H   UNL     1       2.203   3.190   4.557  1.00  0.00     0.163 HD
ENDROOT
BRANCH   1   5
ATOM      5  C   UNL     1       2.002   4.046   1.298  1.00  0.00     0.260 C 
BRANCH   5   6
ATOM      6  O   UNL     1       0.820   4.818   1.159  1.00  0.00    -0.370 OA
BRANCH   6   7
ATOM      7  C   UNL     1      -0.394   4.050   1.089  1.00  0.00     0.182 C 
BRANCH   7   8
ATOM      8  C   UNL     1      -0.669   3.441  -0.297  1.00  0.00     0.144 C 
BRANCH   8   9
ATOM      9  N   UNL     1       0.151   2.266  -0.542  1.00  0.00    -0.353 N 
ATOM     10  H   UNL     1       1.040   2.371  -0.953  1.00  0.00     0.163 HD
BRANCH   9  11
ATOM     11  C   UNL     1      -0.286   1.036  -0.216  1.00  0.00     0.202 A 
ATOM     12  C   UNL     1       2.005  -0.043  -0.153  1.00  0.00     0.153 C 
ATOM     13  N   UNL     1       0.564  -0.041  -0.117  1.00  0.00    -0.321 N 
ATOM     14  C   UNL     1      -0.198  -1.158   0.110  1.00  0.00     0.109 A 
ATOM     15  C   UNL     1      -1.485  -0.692   0.203  1.00  0.00     0.133 A 
ATOM     16  N   UNL     1      -1.523   0.668   0.034  1.00  0.00    -0.222 NA
ENDBRANCH   9  11
ENDBRANCH   8   9
ENDBRANCH   7   8
ENDBRANCH   6   7
ENDBRANCH   5   6
ENDBRANCH   1   5
BRANCH   3  17
ATOM     17  C   UNL     1       2.320   5.205   4.058  1.00  0.00     0.117 C 
BRANCH  17  18
ATOM     18  C   UNL     1       1.079   5.774   4.732  1.00  0.00     0.042 C 
BRANCH  18  19
ATOM     19  C   UNL     1       0.730   5.131   6.071  1.00  0.00     0.118 C 
BRANCH  19  20
ATOM     20  N   UNL     1       1.808   5.217   7.048  1.00  0.00    -0.352 N 
ATOM     21  C   UNL     1       1.865   5.818   8.280  1.00  0.00     0.251 C 
ATOM     22  H   UNL     1       2.640   4.766   6.776  1.00  0.00     0.163 HD
ATOM     23  O   UNL     1       2.943   5.897   8.862  1.00  0.00    -0.269 OA
BRANCH  21  24
ATOM     24  C   UNL     1       0.654   6.391   8.909  1.00  0.00     0.039 A 
ATOM     25  C   UNL     1       0.771   7.603   9.598  1.00  0.00     0.014 A 
ATOM     26  C   UNL     1      -0.577   5.734   8.863  1.00  0.00     0.014 A 
ATOM     27  C   UNL     1      -0.358   8.187  10.178  1.00  0.00     0.010 A 
ATOM     28  C   UNL     1      -1.716   6.353   9.373  1.00  0.00     0.010 A 
ATOM     29  C   UNL     1      -1.618   7.585  10.036  1.00  0.00    -0.014 A 
BRANCH  29  30
ATOM     30  C   UNL     1      -2.844   8.237  10.564  1.00  0.00     0.031 A 
ATOM     31  C   UNL     1      -3.647   7.583  11.652  1.00  0.00     0.074 A 
ATOM     32  C   UNL     1      -3.273   9.387  10.009  1.00  0.00     0.049 A 
ATOM     33  N   UNL     1      -4.779   7.965  12.190  1.00  0.00    -0.248 NA
ATOM     34  C   UNL     1      -3.125   6.317  12.186  1.00  0.00     0.031 C 
ATOM     35  C   UNL     1      -2.615  10.089   8.906  1.00  0.00     0.029 A 
ATOM     36  N   UNL     1      -4.373  10.159  10.287  1.00  0.00    -0.354 N 
ATOM     37  C   UNL     1      -5.107   6.983  13.114  1.00  0.00     0.074 A 
ATOM     38  C   UNL     1      -4.087   5.960  13.023  1.00  0.00     0.031 C 
ATOM     39  C   UNL     1      -3.317  11.193   8.608  1.00  0.00     0.029 A 
ATOM     40  C   UNL     1      -4.489  11.260   9.475  1.00  0.00     0.049 A 
ATOM     41  H   UNL     1      -5.018   9.943  10.999  1.00  0.00     0.167 HD
ATOM     42  C   UNL     1      -6.151   6.948  13.978  1.00  0.00     0.037 A 
ATOM     43  C   UNL     1      -5.439  12.214   9.428  1.00  0.00     0.037 A 
ATOM     44  C   UNL     1      -7.156   7.974  14.077  1.00  0.00     0.049 A 
ATOM     45  C   UNL     1      -6.582  12.162  10.403  1.00  0.00     0.074 A 
ATOM     46  C   UNL     1      -8.221   8.060  14.957  1.00  0.00     0.029 A 
ATOM     47  N   UNL     1      -7.223   9.094  13.260  1.00  0.00    -0.354 N 
ATOM     48  N   UNL     1      -6.845  11.265  11.321  1.00  0.00    -0.248 NA
ATOM     49  C   UNL     1      -7.554  13.262  10.342  1.00  0.00     0.031 C 
ATOM     50  C   UNL     1      -8.955   9.211  14.646  1.00  0.00     0.029 A 
ATOM     51  C   UNL     1      -8.321   9.867  13.603  1.00  0.00     0.049 A 
ATOM     52  H   UNL     1      -6.583   9.309  12.543  1.00  0.00     0.167 HD
ATOM     53  C   UNL     1      -8.000  11.696  11.957  1.00  0.00     0.074 A 
ATOM     54  C   UNL     1      -8.377  12.948  11.333  1.00  0.00     0.031 C 
ATOM     55  C   UNL     1      -8.688  11.107  12.967  1.00  0.00     0.037 A 
BRANCH  42  56
ATOM     56  C   UNL     1      -6.251   5.757  14.888  1.00  0.00     0.064 A 
ATOM     57  C   UNL     1      -5.328   5.546  15.925  1.00  0.00     0.173 A 
ATOM     58  C   UNL     1      -7.284   4.821  14.731  1.00  0.00     0.173 A 
ATOM     59  F   UNL     1      -4.314   6.404  16.111  1.00  0.00    -0.203 F 
ATOM     60  C   UNL     1      -5.413   4.423  16.744  1.00  0.00     0.198 A 
ATOM     61  C   UNL     1      -7.385   3.716  15.572  1.00  0.00     0.198 A 
ATOM     62  F   UNL     1      -8.197   4.978  13.761  1.00  0.00    -0.203 F 
ATOM     63  F   UNL     1      -4.486   4.213  17.688  1.00  0.00    -0.200 F 
ATOM     64  C   UNL     1      -6.444   3.512  16.570  1.00  0.00     0.200 A 
ATOM     65  F   UNL     1      -8.389   2.842  15.412  1.00  0.00    -0.200 F 
ATOM     66  F   UNL     1      -6.524   2.431  17.359  1.00  0.00    -0.200 F 
ENDBRANCH  42  56
BRANCH  43  67
ATOM     67  C   UNL     1      -5.326  13.309   8.433  1.00  0.00     0.064 A 
ATOM     68  C   UNL     1      -4.991  14.611   8.829  1.00  0.00     0.173 A 
ATOM     69  C   UNL     1      -5.522  13.072   7.064  1.00  0.00     0.173 A 
ATOM     70  F   UNL     1      -4.813  14.890  10.129  1.00  0.00    -0.203 F 
ATOM     71  C   UNL     1      -4.867  15.637   7.895  1.00  0.00     0.198 A 
ATOM     72  C   UNL     1      -5.372  14.092   6.129  1.00  0.00     0.198 A 
ATOM     73  F   UNL     1      -5.836  11.841   6.635  1.00  0.00    -0.203 F 
ATOM     74  F   UNL     1      -4.577  16.880   8.303  1.00  0.00    -0.200 F 
ATOM     75  C   UNL     1      -5.049  15.375   6.545  1.00  0.00     0.200 A 
ATOM     76  F   UNL     1      -5.533  13.832   4.824  1.00  0.00    -0.200 F 
ATOM     77  F   UNL     1      -4.917  16.360   5.646  1.00  0.00    -0.200 F 
ENDBRANCH  43  67
BRANCH  55  78
ATOM     78  C   UNL     1      -9.910  11.819  13.469  1.00  0.00     0.064 A 
ATOM     79  C   UNL     1     -11.091  11.872  12.713  1.00  0.00     0.173 A 
ATOM     80  C   UNL     1      -9.910  12.428  14.733  1.00  0.00     0.173 A 
ATOM     81  F   UNL     1     -11.136  11.319  11.492  1.00  0.00    -0.203 F 
ATOM     82  C   UNL     1     -12.219  12.530  13.195  1.00  0.00     0.198 A 
ATOM     83  C   UNL     1     -11.049  13.060  15.223  1.00  0.00     0.198 A 
ATOM     84  F   UNL     1      -8.808  12.401  15.497  1.00  0.00    -0.203 F 
ATOM     85  F   UNL     1     -13.322  12.608  12.437  1.00  0.00    -0.200 F 
ATOM     86  C   UNL     1     -12.200  13.117  14.451  1.00  0.00     0.200 A 
ATOM     87  F   UNL     1     -11.032  13.618  16.442  1.00  0.00    -0.200 F 
ATOM     88  F   UNL     1     -13.289  13.746  14.915  1.00  0.00    -0.200 F 
ENDBRANCH  55  78
ENDBRANCH  29  30
ENDBRANCH  21  24
ENDBRANCH  19  20
ENDBRANCH  18  19
ENDBRANCH  17  18
ENDBRANCH   3  17
TORSDOF 15
