REMARK SMILES O=C(NCCCNC(=O)[C@@H]1CCCC[C@H]1C(=O)Nc1cccc(-c2nnc(-c3ccccc3)o2)c1)c1ccc(-c2c3nc(c(-c4c(F)c(F)c(F)c(F)c4F)c4ccc([nH]4)c(-c4c(F)c(F)c(F)c(F)c4F)c4nc(c(-c5c(F)c(F)c(F)c(F)c5F)c5ccc2[nH]5)C=C4)C=C3)cc1
REMARK SMILES IDX 6 1 5 2 4 3 3 4 1 5 2 6 36 8 37 9 98 10 38 11 97 12 39 13
REMARK SMILES IDX 40 14 41 15 91 16 42 17 96 18 90 19 92 20 43 21 95 22 89 23
REMARK SMILES IDX 88 24 44 26 76 27 56 28 75 29 57 30 60 31 74 32 93 33 58 34
REMARK SMILES IDX 59 35 73 37 94 38 61 39 45 40 46 41 54 42 47 43 48 44 52 45
REMARK SMILES IDX 55 46 49 47 50 48 53 49 51 50 77 51 78 52 86 53 79 54 80 55
REMARK SMILES IDX 84 56 87 57 81 58 82 59 85 60 83 61 62 62 63 63 71 64 64 65
REMARK SMILES IDX 65 66 69 67 72 68 66 69 67 70 70 71 68 72 7 73 8 74 9 76
REMARK SMILES IDX 10 77 11 78 15 79 12 80 14 81 13 82 16 83 17 84 18 85 19 87
REMARK SMILES IDX 20 88 35 89 21 90 23 91 22 92 24 93 25 94 34 95 26 96 27 97
REMARK SMILES IDX 28 98 29 99 33 100 30 101 32 102 31 103
REMARK H PARENT 3 7 92 25 60 36 7 75 18 86
REMARK Flexibility Score: inf
ROOT
ATOM      1  C   UNL     1       4.074   1.986  -3.320  1.00  0.00     0.117 C 
ENDROOT
BRANCH   1   2
ATOM      2  C   UNL     1       4.423   0.770  -2.470  1.00  0.00     0.042 C 
BRANCH   2   3
ATOM      3  C   UNL     1       4.289   1.033  -0.979  1.00  0.00     0.118 C 
BRANCH   3   4
ATOM      4  N   UNL     1       2.906   0.973  -0.531  1.00  0.00    -0.352 N 
ATOM      5  O   UNL     1       1.088   0.061   0.444  1.00  0.00    -0.269 OA
ATOM      6  C   UNL     1       2.312   0.093   0.341  1.00  0.00     0.251 C 
ATOM      7  H   UNL     1       2.311   1.662  -0.906  1.00  0.00     0.163 HD
BRANCH   6   8
ATOM      8  C   UNL     1       3.141  -0.834   1.143  1.00  0.00     0.039 A 
ATOM      9  C   UNL     1       4.336  -0.402   1.718  1.00  0.00     0.014 A 
ATOM     10  C   UNL     1       2.706  -2.149   1.346  1.00  0.00     0.014 A 
ATOM     11  C   UNL     1       5.167  -1.313   2.353  1.00  0.00     0.010 A 
ATOM     12  C   UNL     1       3.490  -3.038   2.090  1.00  0.00     0.010 A 
ATOM     13  C   UNL     1       4.739  -2.632   2.582  1.00  0.00    -0.014 A 
BRANCH  13  14
ATOM     14  C   UNL     1       5.585  -3.504   3.435  1.00  0.00     0.031 A 
ATOM     15  C   UNL     1       6.233  -4.748   2.901  1.00  0.00     0.074 A 
ATOM     16  C   UNL     1       5.821  -3.101   4.700  1.00  0.00     0.049 A 
ATOM     17  N   UNL     1       7.073  -5.556   3.498  1.00  0.00    -0.248 NA
ATOM     18  C   UNL     1       5.891  -5.147   1.528  1.00  0.00     0.031 C 
ATOM     19  C   UNL     1       5.213  -1.925   5.330  1.00  0.00     0.029 A 
ATOM     20  N   UNL     1       6.656  -3.596   5.666  1.00  0.00    -0.354 N 
ATOM     21  C   UNL     1       7.354  -6.561   2.582  1.00  0.00     0.074 A 
ATOM     22  C   UNL     1       6.571  -6.279   1.397  1.00  0.00     0.031 C 
ATOM     23  C   UNL     1       5.753  -1.744   6.542  1.00  0.00     0.029 A 
ATOM     24  C   UNL     1       6.690  -2.829   6.805  1.00  0.00     0.049 A 
ATOM     25  H   UNL     1       7.182  -4.422   5.555  1.00  0.00     0.167 HD
ATOM     26  C   UNL     1       8.197  -7.613   2.719  1.00  0.00     0.037 A 
ATOM     27  C   UNL     1       7.391  -2.983   7.942  1.00  0.00     0.037 A 
ATOM     28  C   UNL     1       8.976  -7.879   3.904  1.00  0.00     0.049 A 
ATOM     29  C   UNL     1       8.325  -4.151   8.056  1.00  0.00     0.074 A 
ATOM     30  C   UNL     1       9.858  -8.918   4.144  1.00  0.00     0.029 A 
ATOM     31  N   UNL     1       8.966  -7.093   5.048  1.00  0.00    -0.354 N 
ATOM     32  N   UNL     1       8.592  -5.083   7.174  1.00  0.00    -0.248 NA
ATOM     33  C   UNL     1       9.054  -4.291   9.323  1.00  0.00     0.031 C 
ATOM     34  C   UNL     1      10.354  -8.782   5.446  1.00  0.00     0.029 A 
ATOM     35  C   UNL     1       9.818  -7.631   6.001  1.00  0.00     0.049 A 
ATOM     36  H   UNL     1       8.432  -6.274   5.167  1.00  0.00     0.167 HD
ATOM     37  C   UNL     1       9.515  -5.922   7.777  1.00  0.00     0.074 A 
ATOM     38  C   UNL     1       9.796  -5.362   9.084  1.00  0.00     0.031 C 
ATOM     39  C   UNL     1      10.070  -7.064   7.301  1.00  0.00     0.037 A 
BRANCH  26  40
ATOM     40  C   UNL     1       8.322  -8.566   1.564  1.00  0.00     0.064 A 
ATOM     41  C   UNL     1       8.997  -8.209   0.388  1.00  0.00     0.173 A 
ATOM     42  C   UNL     1       7.815  -9.871   1.658  1.00  0.00     0.173 A 
ATOM     43  F   UNL     1       9.491  -6.970   0.242  1.00  0.00    -0.203 F 
ATOM     44  C   UNL     1       9.146  -9.117  -0.658  1.00  0.00     0.198 A 
ATOM     45  C   UNL     1       7.988 -10.785   0.621  1.00  0.00     0.198 A 
ATOM     46  F   UNL     1       7.166 -10.267   2.763  1.00  0.00    -0.203 F 
ATOM     47  F   UNL     1       9.766  -8.742  -1.786  1.00  0.00    -0.200 F 
ATOM     48  C   UNL     1       8.650 -10.406  -0.538  1.00  0.00     0.200 A 
ATOM     49  F   UNL     1       7.518 -12.034   0.744  1.00  0.00    -0.200 F 
ATOM     50  F   UNL     1       8.805 -11.283  -1.540  1.00  0.00    -0.200 F 
ENDBRANCH  26  40
BRANCH  27  51
ATOM     51  C   UNL     1       7.218  -2.013   9.055  1.00  0.00     0.064 A 
ATOM     52  C   UNL     1       8.258  -1.158   9.445  1.00  0.00     0.173 A 
ATOM     53  C   UNL     1       6.000  -1.914   9.744  1.00  0.00     0.173 A 
ATOM     54  F   UNL     1       9.447  -1.225   8.829  1.00  0.00    -0.203 F 
ATOM     55  C   UNL     1       8.091  -0.255  10.493  1.00  0.00     0.198 A 
ATOM     56  C   UNL     1       5.823  -0.986  10.767  1.00  0.00     0.198 A 
ATOM     57  F   UNL     1       4.970  -2.703   9.405  1.00  0.00    -0.203 F 
ATOM     58  F   UNL     1       9.116   0.519  10.876  1.00  0.00    -0.200 F 
ATOM     59  C   UNL     1       6.872  -0.164  11.147  1.00  0.00     0.200 A 
ATOM     60  F   UNL     1       4.636  -0.888  11.381  1.00  0.00    -0.200 F 
ATOM     61  F   UNL     1       6.709   0.712  12.148  1.00  0.00    -0.200 F 
ENDBRANCH  27  51
BRANCH  39  62
ATOM     62  C   UNL     1      11.033  -7.770   8.208  1.00  0.00     0.064 A 
ATOM     63  C   UNL     1      10.593  -8.442   9.359  1.00  0.00     0.173 A 
ATOM     64  C   UNL     1      12.407  -7.770   7.929  1.00  0.00     0.173 A 
ATOM     65  F   UNL     1       9.289  -8.453   9.677  1.00  0.00    -0.203 F 
ATOM     66  C   UNL     1      11.499  -9.057  10.217  1.00  0.00     0.198 A 
ATOM     67  C   UNL     1      13.307  -8.412   8.774  1.00  0.00     0.198 A 
ATOM     68  F   UNL     1      12.876  -7.145   6.839  1.00  0.00    -0.203 F 
ATOM     69  F   UNL     1      11.063  -9.639  11.343  1.00  0.00    -0.200 F 
ATOM     70  C   UNL     1      12.854  -9.045   9.922  1.00  0.00     0.200 A 
ATOM     71  F   UNL     1      14.615  -8.408   8.484  1.00  0.00    -0.200 F 
ATOM     72  F   UNL     1      13.726  -9.633  10.753  1.00  0.00    -0.200 F 
ENDBRANCH  39  62
ENDBRANCH  13  14
ENDBRANCH   6   8
ENDBRANCH   3   4
ENDBRANCH   2   3
ENDBRANCH   1   2
BRANCH   1  73
ATOM     73  N   UNL     1       5.077   3.017  -3.169  1.00  0.00    -0.356 N 
ATOM     74  C   UNL     1       6.244   3.215  -3.837  1.00  0.00     0.223 C 
ATOM     75  H   UNL     1       4.884   3.682  -2.469  1.00  0.00     0.163 HD
ATOM     76  O   UNL     1       7.026   4.019  -3.332  1.00  0.00    -0.275 OA
BRANCH  74  77
ATOM     77  C   UNL     1       6.516   2.530  -5.181  1.00  0.00     0.091 C 
ATOM     78  C   UNL     1       6.682   1.006  -5.098  1.00  0.00     0.014 C 
ATOM     79  C   UNL     1       7.732   3.195  -5.867  1.00  0.00     0.091 C 
ATOM     80  C   UNL     1       7.000   0.403  -6.463  1.00  0.00     0.001 C 
ATOM     81  C   UNL     1       8.184   2.493  -7.159  1.00  0.00     0.014 C 
ATOM     82  C   UNL     1       8.293   0.980  -7.007  1.00  0.00     0.001 C 
BRANCH  79  83
ATOM     83  C   UNL     1       7.689   4.725  -6.093  1.00  0.00     0.228 C 
ATOM     84  O   UNL     1       8.594   5.428  -5.623  1.00  0.00    -0.274 OA
ATOM     85  N   UNL     1       6.822   5.366  -6.940  1.00  0.00    -0.326 N 
ATOM     86  H   UNL     1       6.942   6.342  -6.996  1.00  0.00     0.169 HD
BRANCH  85  87
ATOM     87  C   UNL     1       5.797   4.853  -7.736  1.00  0.00     0.041 A 
ATOM     88  C   UNL     1       5.926   4.938  -9.122  1.00  0.00     0.026 A 
ATOM     89  C   UNL     1       4.679   4.238  -7.180  1.00  0.00     0.040 A 
ATOM     90  C   UNL     1       5.029   4.254  -9.941  1.00  0.00     0.003 A 
ATOM     91  C   UNL     1       3.836   3.459  -7.981  1.00  0.00     0.041 A 
ATOM     92  C   UNL     1       4.018   3.477  -9.370  1.00  0.00     0.014 A 
BRANCH  91  93
ATOM     93  C   UNL     1       2.971   2.459  -7.377  1.00  0.00     0.248 A 
ATOM     94  N   UNL     1       3.006   1.155  -7.558  1.00  0.00    -0.107 NA
ATOM     95  O   UNL     1       2.105   2.838  -6.382  1.00  0.00    -0.416 OA
ATOM     96  N   UNL     1       2.150   0.608  -6.632  1.00  0.00    -0.107 NA
ATOM     97  C   UNL     1       1.607   1.618  -5.984  1.00  0.00     0.248 A 
BRANCH  97  98
ATOM     98  C   UNL     1       0.664   1.590  -4.878  1.00  0.00     0.039 A 
ATOM     99  C   UNL     1       0.766   0.582  -3.905  1.00  0.00     0.014 A 
ATOM    100  C   UNL     1      -0.379   2.518  -4.783  1.00  0.00     0.014 A 
ATOM    101  C   UNL     1      -0.146   0.512  -2.851  1.00  0.00     0.001 A 
ATOM    102  C   UNL     1      -1.309   2.429  -3.743  1.00  0.00     0.001 A 
ATOM    103  C   UNL     1      -1.189   1.432  -2.777  1.00  0.00     0.000 A 
ENDBRANCH  97  98
ENDBRANCH  91  93
ENDBRANCH  85  87
ENDBRANCH  79  83
ENDBRANCH  74  77
ENDBRANCH   1  73
TORSDOF 14
