REMARK SMILES CS(=O)(=O)N1CCC[C@@H]1C(=O)N1CCC[C@@H]1C(=O)NCCCNC(=O)c1ccc(-c2c3nc(c(-c4c(F)c(F)c(F)c(F)c4F)c4ccc([nH]4)c(-c4c(F)c(F)c(F)c(F)c4F)c4nc(c(-c5c(F)c(F)c(F)c(F)c5F)c5ccc2[nH]5)C=C4)C=C3)cc1
REMARK SMILES IDX 20 1 19 2 17 3 18 4 16 6 12 7 13 8 14 9 15 10 10 11 11 12
REMARK SMILES IDX 9 13 5 14 6 15 7 16 8 17 2 18 1 19 3 20 4 21 21 22 22 23
REMARK SMILES IDX 23 24 24 25 25 27 26 28 27 29 88 30 28 31 87 32 29 33 30 34
REMARK SMILES IDX 31 35 81 36 32 37 86 38 80 39 82 40 33 41 85 42 79 43 78 44
REMARK SMILES IDX 34 46 66 47 46 48 65 49 47 50 50 51 64 52 83 53 48 54 49 55
REMARK SMILES IDX 63 57 84 58 51 59 35 60 36 61 44 62 37 63 38 64 42 65 45 66
REMARK SMILES IDX 39 67 40 68 43 69 41 70 67 71 68 72 76 73 69 74 70 75 74 76
REMARK SMILES IDX 77 77 71 78 72 79 75 80 73 81 52 82 53 83 61 84 54 85 55 86
REMARK SMILES IDX 59 87 62 88 56 89 57 90 60 91 58 92
REMARK H PARENT 19 5 23 26 82 45 50 56
REMARK Flexibility Score: inf
ROOT
ATOM      1  C   UNL     1      -1.688   0.704   0.386  1.00  0.00     0.117 C 
ENDROOT
BRANCH   1   2
ATOM      2  N   UNL     1      -2.342   0.649   1.667  1.00  0.00    -0.354 N 
ATOM      3  C   UNL     1      -2.902  -0.422   2.301  1.00  0.00     0.242 C 
ATOM      4  O   UNL     1      -3.490  -0.183   3.363  1.00  0.00    -0.273 OA
ATOM      5  H   UNL     1      -2.394   1.503   2.153  1.00  0.00     0.163 HD
BRANCH   3   6
ATOM      6  C   UNL     1      -2.980  -1.829   1.657  1.00  0.00     0.174 C 
ATOM      7  N   UNL     1      -1.717  -2.488   1.273  1.00  0.00    -0.329 N 
ATOM      8  C   UNL     1      -1.870  -3.131  -0.013  1.00  0.00     0.120 C 
ATOM      9  C   UNL     1      -2.947  -2.340  -0.728  1.00  0.00     0.024 C 
ATOM     10  C   UNL     1      -3.855  -1.843   0.393  1.00  0.00     0.037 C 
BRANCH   7  11
ATOM     11  C   UNL     1      -0.894  -2.945   2.294  1.00  0.00     0.241 C 
ATOM     12  O   UNL     1      -1.302  -2.903   3.462  1.00  0.00    -0.273 OA
BRANCH  11  13
ATOM     13  C   UNL     1       0.526  -3.484   2.048  1.00  0.00     0.162 C 
ATOM     14  N   UNL     1       1.699  -2.583   1.881  1.00  0.00    -0.190 NA
ATOM     15  C   UNL     1       2.687  -3.232   1.003  1.00  0.00     0.103 C 
ATOM     16  C   UNL     1       1.801  -4.034   0.064  1.00  0.00     0.019 C 
ATOM     17  C   UNL     1       0.755  -4.600   1.015  1.00  0.00     0.032 C 
BRANCH  14  18
ATOM     18  S   UNL     1       1.660  -0.917   1.937  1.00  0.00     0.211 S 
ATOM     19  C   UNL     1       1.613  -0.513   0.197  1.00  0.00     0.176 C 
ATOM     20  O   UNL     1       2.942  -0.475   2.444  1.00  0.00    -0.212 OA
ATOM     21  O   UNL     1       0.438  -0.464   2.547  1.00  0.00    -0.212 OA
ENDBRANCH  14  18
ENDBRANCH  11  13
ENDBRANCH   7  11
ENDBRANCH   3   6
ENDBRANCH   1   2
BRANCH   1  22
ATOM     22  C   UNL     1      -1.163   2.076  -0.042  1.00  0.00     0.042 C 
BRANCH  22  23
ATOM     23  C   UNL     1      -0.413   2.914   0.997  1.00  0.00     0.118 C 
BRANCH  23  24
ATOM     24  N   UNL     1       1.006   2.612   1.151  1.00  0.00    -0.352 N 
ATOM     25  C   UNL     1       2.113   2.978   0.415  1.00  0.00     0.251 C 
ATOM     26  H   UNL     1       1.211   2.040   1.926  1.00  0.00     0.163 HD
ATOM     27  O   UNL     1       3.179   2.389   0.574  1.00  0.00    -0.269 OA
BRANCH  25  28
ATOM     28  C   UNL     1       2.029   4.027  -0.622  1.00  0.00     0.039 A 
ATOM     29  C   UNL     1       2.750   3.890  -1.815  1.00  0.00     0.014 A 
ATOM     30  C   UNL     1       1.261   5.166  -0.411  1.00  0.00     0.014 A 
ATOM     31  C   UNL     1       2.597   4.834  -2.835  1.00  0.00     0.010 A 
ATOM     32  C   UNL     1       1.010   6.034  -1.462  1.00  0.00     0.010 A 
ATOM     33  C   UNL     1       1.668   5.874  -2.691  1.00  0.00    -0.014 A 
BRANCH  33  34
ATOM     34  C   UNL     1       1.319   6.805  -3.794  1.00  0.00     0.031 A 
ATOM     35  C   UNL     1       1.453   8.288  -3.590  1.00  0.00     0.074 A 
ATOM     36  C   UNL     1       0.717   6.323  -4.899  1.00  0.00     0.049 A 
ATOM     37  N   UNL     1       0.984   9.272  -4.313  1.00  0.00    -0.248 NA
ATOM     38  C   UNL     1       2.165   8.719  -2.377  1.00  0.00     0.031 C 
ATOM     39  C   UNL     1       0.475   4.907  -5.180  1.00  0.00     0.029 A 
ATOM     40  N   UNL     1       0.157   6.974  -5.970  1.00  0.00    -0.354 N 
ATOM     41  C   UNL     1       1.309  10.432  -3.623  1.00  0.00     0.074 A 
ATOM     42  C   UNL     1       1.963  10.027  -2.398  1.00  0.00     0.031 C 
ATOM     43  C   UNL     1      -0.184   4.795  -6.342  1.00  0.00     0.029 A 
ATOM     44  C   UNL     1      -0.465   6.131  -6.858  1.00  0.00     0.049 A 
ATOM     45  H   UNL     1       0.198   7.950  -6.090  1.00  0.00     0.167 HD
ATOM     46  C   UNL     1       1.095  11.719  -3.989  1.00  0.00     0.037 A 
ATOM     47  C   UNL     1      -1.211   6.401  -7.946  1.00  0.00     0.037 A 
ATOM     48  C   UNL     1       0.464  12.104  -5.224  1.00  0.00     0.049 A 
ATOM     49  C   UNL     1      -1.441   7.834  -8.336  1.00  0.00     0.074 A 
ATOM     50  C   UNL     1       0.290  13.373  -5.746  1.00  0.00     0.029 A 
ATOM     51  N   UNL     1      -0.113  11.218  -6.124  1.00  0.00    -0.354 N 
ATOM     52  N   UNL     1      -1.044   8.927  -7.730  1.00  0.00    -0.248 NA
ATOM     53  C   UNL     1      -2.221   8.073  -9.557  1.00  0.00     0.031 C 
ATOM     54  C   UNL     1      -0.454  13.260  -6.925  1.00  0.00     0.029 A 
ATOM     55  C   UNL     1      -0.689  11.916  -7.173  1.00  0.00     0.049 A 
ATOM     56  H   UNL     1      -0.113  10.238  -6.030  1.00  0.00     0.167 HD
ATOM     57  C   UNL     1      -1.518   9.983  -8.496  1.00  0.00     0.074 A 
ATOM     58  C   UNL     1      -2.211   9.397  -9.626  1.00  0.00     0.031 C 
ATOM     59  C   UNL     1      -1.393  11.316  -8.280  1.00  0.00     0.037 A 
BRANCH  46  60
ATOM     60  C   UNL     1       1.530  12.795  -3.032  1.00  0.00     0.064 A 
ATOM     61  C   UNL     1       2.882  13.012  -2.719  1.00  0.00     0.173 A 
ATOM     62  C   UNL     1       0.579  13.623  -2.415  1.00  0.00     0.173 A 
ATOM     63  F   UNL     1       3.835  12.248  -3.274  1.00  0.00    -0.203 F 
ATOM     64  C   UNL     1       3.259  13.976  -1.787  1.00  0.00     0.198 A 
ATOM     65  C   UNL     1       0.963  14.613  -1.514  1.00  0.00     0.198 A 
ATOM     66  F   UNL     1      -0.727  13.470  -2.682  1.00  0.00    -0.203 F 
ATOM     67  F   UNL     1       4.549  14.109  -1.449  1.00  0.00    -0.200 F 
ATOM     68  C   UNL     1       2.300  14.778  -1.188  1.00  0.00     0.200 A 
ATOM     69  F   UNL     1       0.035  15.400  -0.950  1.00  0.00    -0.200 F 
ATOM     70  F   UNL     1       2.664  15.704  -0.290  1.00  0.00    -0.200 F 
ENDBRANCH  46  60
BRANCH  47  71
ATOM     71  C   UNL     1      -1.793   5.278  -8.727  1.00  0.00     0.064 A 
ATOM     72  C   UNL     1      -1.301   4.954  -9.998  1.00  0.00     0.173 A 
ATOM     73  C   UNL     1      -2.812   4.471  -8.196  1.00  0.00     0.173 A 
ATOM     74  F   UNL     1      -0.339   5.704 -10.554  1.00  0.00    -0.203 F 
ATOM     75  C   UNL     1      -1.807   3.868 -10.710  1.00  0.00     0.198 A 
ATOM     76  C   UNL     1      -3.296   3.368  -8.896  1.00  0.00     0.198 A 
ATOM     77  F   UNL     1      -3.309   4.731  -6.978  1.00  0.00    -0.203 F 
ATOM     78  F   UNL     1      -1.335   3.594 -11.934  1.00  0.00    -0.200 F 
ATOM     79  C   UNL     1      -2.796   3.070 -10.155  1.00  0.00     0.200 A 
ATOM     80  F   UNL     1      -4.233   2.585  -8.345  1.00  0.00    -0.200 F 
ATOM     81  F   UNL     1      -3.264   2.011 -10.829  1.00  0.00    -0.200 F 
ENDBRANCH  47  71
BRANCH  59  82
ATOM     82  C   UNL     1      -2.026  12.238  -9.282  1.00  0.00     0.064 A 
ATOM     83  C   UNL     1      -3.418  12.385  -9.363  1.00  0.00     0.173 A 
ATOM     84  C   UNL     1      -1.231  13.031 -10.124  1.00  0.00     0.173 A 
ATOM     85  F   UNL     1      -4.223  11.637  -8.592  1.00  0.00    -0.203 F 
ATOM     86  C   UNL     1      -3.992  13.282 -10.260  1.00  0.00     0.198 A 
ATOM     87  C   UNL     1      -1.807  13.950 -10.995  1.00  0.00     0.198 A 
ATOM     88  F   UNL     1       0.106  12.932 -10.083  1.00  0.00    -0.203 F 
ATOM     89  F   UNL     1      -5.326  13.377 -10.348  1.00  0.00    -0.200 F 
ATOM     90  C   UNL     1      -3.187  14.072 -11.066  1.00  0.00     0.200 A 
ATOM     91  F   UNL     1      -1.026  14.724 -11.762  1.00  0.00    -0.200 F 
ATOM     92  F   UNL     1      -3.740  14.948 -11.916  1.00  0.00    -0.200 F 
ENDBRANCH  59  82
ENDBRANCH  33  34
ENDBRANCH  25  28
ENDBRANCH  23  24
ENDBRANCH  22  23
ENDBRANCH   1  22
TORSDOF 13
