REMARK SMILES Cc1c(C(=O)NCCCNC(=O)c2ccc(-c3c4nc(c(-c5c(F)c(F)c(F)c(F)c5F)c5ccc([nH]5)c(-c5c(F)c(F)c(F)c(F)c5F)c5nc(c(-c6c(F)c(F)c(F)c(F)c6F)c6ccc3[nH]6)C=C5)C=C4)cc2)sc2ncnc(NCc3cn4c(n3)SCC4)c12
REMARK SMILES IDX 7 1 6 2 4 3 5 4 3 6 1 7 2 8 92 9 76 10 77 11 81 12 78 13
REMARK SMILES IDX 80 14 79 15 82 16 83 18 84 19 85 20 88 21 86 22 87 23 91 24
REMARK SMILES IDX 89 25 90 26 8 27 9 28 10 29 11 30 12 32 13 33 14 34 75 35
REMARK SMILES IDX 15 36 74 37 16 38 17 39 18 40 68 41 19 42 73 43 67 44 69 45
REMARK SMILES IDX 20 46 72 47 66 48 65 49 21 51 53 52 33 53 52 54 34 55 37 56
REMARK SMILES IDX 51 57 70 58 35 59 36 60 50 62 71 63 38 64 22 65 23 66 31 67
REMARK SMILES IDX 24 68 25 69 29 70 32 71 26 72 27 73 30 74 28 75 54 76 55 77
REMARK SMILES IDX 63 78 56 79 57 80 61 81 64 82 58 83 59 84 62 85 60 86 39 87
REMARK SMILES IDX 40 88 48 89 41 90 42 91 46 92 49 93 43 94 44 95 47 96 45 97
REMARK H PARENT 6 5 82 17 10 31 69 50 37 61
REMARK Flexibility Score: inf
ROOT
ATOM      1  C   UNL     1      -1.594   1.401   4.798  1.00  0.00     0.118 C 
ENDROOT
BRANCH   1   2
ATOM      2  N   UNL     1      -0.986   2.067   3.658  1.00  0.00    -0.351 N 
ATOM      3  C   UNL     1      -0.136   1.630   2.668  1.00  0.00     0.261 C 
ATOM      4  O   UNL     1       0.256   2.522   1.910  1.00  0.00    -0.268 OA
ATOM      5  H   UNL     1      -1.229   3.018   3.579  1.00  0.00     0.163 HD
BRANCH   3   6
ATOM      6  C   UNL     1       0.222   0.221   2.489  1.00  0.00     0.098 A 
ATOM      7  C   UNL     1       0.540   0.251  -0.032  1.00  0.00     0.047 C 
ATOM      8  C   UNL     1       0.516  -0.445   1.290  1.00  0.00    -0.014 A 
ATOM      9  C   UNL     1       0.725  -1.891   1.488  1.00  0.00     0.057 A 
ATOM     10  S   UNL     1       0.470  -0.810   3.817  1.00  0.00    -0.110 S 
ATOM     11  C   UNL     1       0.628  -2.175   2.845  1.00  0.00     0.129 A 
ATOM     12  C   UNL     1       0.959  -3.035   0.677  1.00  0.00     0.138 A 
ATOM     13  N   UNL     1       0.668  -3.369   3.454  1.00  0.00    -0.225 NA
ATOM     14  N   UNL     1       0.965  -4.257   1.276  1.00  0.00    -0.219 NA
ATOM     15  C   UNL     1       0.822  -4.364   2.596  1.00  0.00     0.225 A 
BRANCH  12  16
ATOM     16  N   UNL     1       1.139  -3.182  -0.670  1.00  0.00    -0.364 N 
ATOM     17  H   UNL     1       0.863  -4.059  -1.023  1.00  0.00     0.162 HD
BRANCH  16  18
ATOM     18  C   UNL     1       1.660  -2.282  -1.661  1.00  0.00     0.172 C 
BRANCH  18  19
ATOM     19  C   UNL     1       3.105  -1.893  -1.616  1.00  0.00     0.079 A 
ATOM     20  C   UNL     1       3.720  -0.873  -2.335  1.00  0.00     0.113 A 
ATOM     21  N   UNL     1       4.049  -2.706  -1.002  1.00  0.00    -0.226 NA
ATOM     22  N   UNL     1       5.042  -1.151  -2.226  1.00  0.00    -0.325 N 
ATOM     23  C   UNL     1       5.192  -2.228  -1.407  1.00  0.00     0.168 A 
ATOM     24  C   UNL     1       6.162  -0.839  -3.093  1.00  0.00     0.135 C 
ATOM     25  S   UNL     1       6.740  -2.971  -1.578  1.00  0.00    -0.086 SA
ATOM     26  C   UNL     1       6.946  -2.148  -3.211  1.00  0.00     0.100 C 
ENDBRANCH  18  19
ENDBRANCH  16  18
ENDBRANCH  12  16
ENDBRANCH   3   6
ENDBRANCH   1   2
BRANCH   1  27
ATOM     27  C   UNL     1      -0.693   1.484   6.036  1.00  0.00     0.042 C 
BRANCH  27  28
ATOM     28  C   UNL     1      -0.705   2.871   6.654  1.00  0.00     0.118 C 
BRANCH  28  29
ATOM     29  N   UNL     1      -1.996   3.195   7.255  1.00  0.00    -0.352 N 
ATOM     30  C   UNL     1      -2.399   4.378   7.842  1.00  0.00     0.251 C 
ATOM     31  H   UNL     1      -2.667   2.475   7.240  1.00  0.00     0.163 HD
ATOM     32  O   UNL     1      -3.378   4.425   8.562  1.00  0.00    -0.269 OA
BRANCH  30  33
ATOM     33  C   UNL     1      -1.595   5.585   7.591  1.00  0.00     0.039 A 
ATOM     34  C   UNL     1      -1.246   6.435   8.642  1.00  0.00     0.014 A 
ATOM     35  C   UNL     1      -1.139   5.820   6.297  1.00  0.00     0.014 A 
ATOM     36  C   UNL     1      -0.360   7.477   8.392  1.00  0.00     0.010 A 
ATOM     37  C   UNL     1      -0.145   6.742   6.088  1.00  0.00     0.010 A 
ATOM     38  C   UNL     1       0.211   7.610   7.115  1.00  0.00    -0.014 A 
BRANCH  38  39
ATOM     39  C   UNL     1       1.236   8.618   6.870  1.00  0.00     0.031 A 
ATOM     40  C   UNL     1       2.372   8.636   7.835  1.00  0.00     0.074 A 
ATOM     41  C   UNL     1       1.266   9.384   5.760  1.00  0.00     0.049 A 
ATOM     42  N   UNL     1       2.697   9.587   8.649  1.00  0.00    -0.248 NA
ATOM     43  C   UNL     1       3.192   7.424   7.979  1.00  0.00     0.031 C 
ATOM     44  C   UNL     1       0.410   9.323   4.569  1.00  0.00     0.029 A 
ATOM     45  N   UNL     1       2.167  10.348   5.430  1.00  0.00    -0.354 N 
ATOM     46  C   UNL     1       3.850   9.167   9.306  1.00  0.00     0.074 A 
ATOM     47  C   UNL     1       4.038   7.784   8.947  1.00  0.00     0.031 C 
ATOM     48  C   UNL     1       0.971  10.037   3.570  1.00  0.00     0.029 A 
ATOM     49  C   UNL     1       2.112  10.752   4.105  1.00  0.00     0.049 A 
ATOM     50  H   UNL     1       2.804  10.727   6.077  1.00  0.00     0.167 HD
ATOM     51  C   UNL     1       4.665  10.053   9.944  1.00  0.00     0.037 A 
ATOM     52  C   UNL     1       2.960  11.606   3.486  1.00  0.00     0.037 A 
ATOM     53  C   UNL     1       3.996  11.305  10.183  1.00  0.00     0.049 A 
ATOM     54  C   UNL     1       3.596  12.429   4.543  1.00  0.00     0.074 A 
ATOM     55  C   UNL     1       2.878  11.682  10.902  1.00  0.00     0.029 A 
ATOM     56  N   UNL     1       4.256  12.352   9.334  1.00  0.00    -0.354 N 
ATOM     57  N   UNL     1       2.948  13.292   5.277  1.00  0.00    -0.248 NA
ATOM     58  C   UNL     1       4.862  11.969   5.090  1.00  0.00     0.031 C 
ATOM     59  C   UNL     1       2.245  12.678  10.100  1.00  0.00     0.029 A 
ATOM     60  C   UNL     1       3.046  12.888   8.976  1.00  0.00     0.049 A 
ATOM     61  H   UNL     1       5.144  12.661   9.039  1.00  0.00     0.167 HD
ATOM     62  C   UNL     1       3.494  13.154   6.545  1.00  0.00     0.074 A 
ATOM     63  C   UNL     1       4.729  12.399   6.347  1.00  0.00     0.031 C 
ATOM     64  C   UNL     1       2.759  13.420   7.664  1.00  0.00     0.037 A 
BRANCH  51  65
ATOM     65  C   UNL     1       6.161   9.913  10.062  1.00  0.00     0.064 A 
ATOM     66  C   UNL     1       6.878  10.792  10.899  1.00  0.00     0.173 A 
ATOM     67  C   UNL     1       6.941   9.156   9.163  1.00  0.00     0.173 A 
ATOM     68  F   UNL     1       6.235  11.578  11.776  1.00  0.00    -0.203 F 
ATOM     69  C   UNL     1       8.263  10.951  10.790  1.00  0.00     0.198 A 
ATOM     70  C   UNL     1       8.328   9.279   9.094  1.00  0.00     0.198 A 
ATOM     71  F   UNL     1       6.387   8.359   8.242  1.00  0.00    -0.203 F 
ATOM     72  F   UNL     1       8.885  11.888  11.519  1.00  0.00    -0.200 F 
ATOM     73  C   UNL     1       8.986  10.198   9.884  1.00  0.00     0.200 A 
ATOM     74  F   UNL     1       9.009   8.556   8.193  1.00  0.00    -0.200 F 
ATOM     75  F   UNL     1      10.302  10.392   9.733  1.00  0.00    -0.200 F 
ENDBRANCH  51  65
BRANCH  52  76
ATOM     76  C   UNL     1       3.475  11.519   2.102  1.00  0.00     0.064 A 
ATOM     77  C   UNL     1       4.112  12.614   1.499  1.00  0.00     0.173 A 
ATOM     78  C   UNL     1       3.607  10.277   1.449  1.00  0.00     0.173 A 
ATOM     79  F   UNL     1       4.067  13.822   2.080  1.00  0.00    -0.203 F 
ATOM     80  C   UNL     1       4.865  12.469   0.330  1.00  0.00     0.198 A 
ATOM     81  C   UNL     1       4.354  10.135   0.279  1.00  0.00     0.198 A 
ATOM     82  F   UNL     1       3.096   9.159   1.984  1.00  0.00    -0.203 F 
ATOM     83  F   UNL     1       5.515  13.524  -0.181  1.00  0.00    -0.200 F 
ATOM     84  C   UNL     1       4.996  11.228  -0.272  1.00  0.00     0.200 A 
ATOM     85  F   UNL     1       4.502   8.922  -0.273  1.00  0.00    -0.200 F 
ATOM     86  F   UNL     1       5.772  11.077  -1.353  1.00  0.00    -0.200 F 
ENDBRANCH  52  76
BRANCH  64  87
ATOM     87  C   UNL     1       1.429  14.101   7.491  1.00  0.00     0.064 A 
ATOM     88  C   UNL     1       0.333  13.528   6.822  1.00  0.00     0.173 A 
ATOM     89  C   UNL     1       1.205  15.304   8.173  1.00  0.00     0.173 A 
ATOM     90  F   UNL     1       0.435  12.334   6.227  1.00  0.00    -0.203 F 
ATOM     91  C   UNL     1      -0.915  14.148   6.808  1.00  0.00     0.198 A 
ATOM     92  C   UNL     1      -0.052  15.905   8.188  1.00  0.00     0.198 A 
ATOM     93  F   UNL     1       2.197  15.872   8.877  1.00  0.00    -0.203 F 
ATOM     94  F   UNL     1      -1.942  13.581   6.158  1.00  0.00    -0.200 F 
ATOM     95  C   UNL     1      -1.109  15.332   7.500  1.00  0.00     0.200 A 
ATOM     96  F   UNL     1      -0.246  17.024   8.899  1.00  0.00    -0.200 F 
ATOM     97  F   UNL     1      -2.320  15.905   7.527  1.00  0.00    -0.200 F 
ENDBRANCH  64  87
ENDBRANCH  38  39
ENDBRANCH  30  33
ENDBRANCH  28  29
ENDBRANCH  27  28
ENDBRANCH   1  27
TORSDOF 13
