REMARK SMILES CC[C@H](C)N1C(=O)c2ccccc2[C@@H](C(=O)NCCCNC(=O)c2ccc(-c3c4nc(c(-c5c(F)c(F)c(F)c(F)c5F)c5ccc([nH]5)c(-c5c(F)c(F)c(F)c(F)c5F)c5nc(c(-c6c(F)c(F)c(F)c(F)c6F)c6ccc3[nH]6)C=C5)C=C4)cc2)C12CCCCC2
REMARK SMILES IDX 19 1 18 2 17 3 15 4 16 5 14 7 5 8 6 9 87 10 7 11 8 12 88 13
REMARK SMILES IDX 92 14 9 15 13 16 89 17 91 18 10 19 12 20 90 21 11 22 3 23
REMARK SMILES IDX 4 24 2 25 1 26 20 27 21 28 22 29 23 31 24 32 25 33 86 34
REMARK SMILES IDX 26 35 85 36 27 37 28 38 29 39 79 40 30 41 84 42 78 43 80 44
REMARK SMILES IDX 31 45 83 46 77 47 76 48 32 50 64 51 44 52 63 53 45 54 48 55
REMARK SMILES IDX 62 56 81 57 46 58 47 59 61 61 82 62 49 63 33 64 34 65 42 66
REMARK SMILES IDX 35 67 36 68 40 69 43 70 37 71 38 72 41 73 39 74 65 75 66 76
REMARK SMILES IDX 74 77 67 78 68 79 72 80 75 81 69 82 70 83 73 84 71 85 50 86
REMARK SMILES IDX 51 87 59 88 52 89 53 90 57 91 60 92 54 93 55 94 58 95 56 96
REMARK H PARENT 17 6 21 30 80 49 48 60
REMARK Flexibility Score: inf
ROOT
ATOM      1  C   UNL     1      -2.660   1.173   7.108  1.00  0.00     0.042 C 
ENDROOT
BRANCH   1   2
ATOM      2  C   UNL     1      -1.391   1.980   7.394  1.00  0.00     0.117 C 
BRANCH   2   3
ATOM      3  N   UNL     1      -0.202   1.181   7.684  1.00  0.00    -0.355 N 
ATOM      4  C   UNL     1       1.007   1.002   7.077  1.00  0.00     0.229 C 
ATOM      5  O   UNL     1       1.813   0.298   7.698  1.00  0.00    -0.274 OA
ATOM      6  H   UNL     1      -0.295   0.649   8.508  1.00  0.00     0.163 HD
BRANCH   4   7
ATOM      7  C   UNL     1       1.417   1.640   5.728  1.00  0.00     0.135 C 
ATOM      8  N   UNL     1       0.679   1.915   3.269  1.00  0.00    -0.329 N 
ATOM      9  C   UNL     1      -0.027   3.083   3.614  1.00  0.00     0.254 C 
ATOM     10  C   UNL     1       0.941   0.893   4.397  1.00  0.00     0.059 C 
ATOM     11  O   UNL     1      -0.890   3.615   2.923  1.00  0.00    -0.269 OA
ATOM     12  C   UNL     1       0.378   3.771   4.864  1.00  0.00     0.044 A 
ATOM     13  C   UNL     1      -0.388   0.115   4.585  1.00  0.00     0.030 C 
ATOM     14  C   UNL     1       2.037  -0.146   4.002  1.00  0.00     0.030 C 
ATOM     15  C   UNL     1      -0.034   5.094   5.097  1.00  0.00     0.014 A 
ATOM     16  C   UNL     1       1.166   3.128   5.810  1.00  0.00    -0.020 A 
ATOM     17  C   UNL     1      -0.367  -1.171   5.409  1.00  0.00     0.002 C 
ATOM     18  C   UNL     1       2.106  -1.383   4.902  1.00  0.00     0.002 C 
ATOM     19  C   UNL     1       0.361   5.775   6.253  1.00  0.00     0.001 A 
ATOM     20  C   UNL     1       1.626   3.850   6.935  1.00  0.00     0.005 A 
ATOM     21  C   UNL     1       0.764  -2.099   5.004  1.00  0.00     0.000 C 
ATOM     22  C   UNL     1       1.211   5.158   7.164  1.00  0.00     0.000 A 
BRANCH   8  23
ATOM     23  C   UNL     1       0.892   1.599   1.793  1.00  0.00     0.082 C 
ATOM     24  C   UNL     1       0.123   0.378   1.257  1.00  0.00     0.031 C 
BRANCH  23  25
ATOM     25  C   UNL     1       0.668   2.807   0.831  1.00  0.00     0.021 C 
ATOM     26  C   UNL     1       1.125   2.590  -0.611  1.00  0.00     0.006 C 
ENDBRANCH  23  25
ENDBRANCH   8  23
ENDBRANCH   4   7
ENDBRANCH   2   3
ENDBRANCH   1   2
BRANCH   1  27
ATOM     27  C   UNL     1      -2.891  -0.022   8.017  1.00  0.00     0.118 C 
BRANCH  27  28
ATOM     28  N   UNL     1      -3.747   0.319   9.137  1.00  0.00    -0.352 N 
ATOM     29  C   UNL     1      -5.057  -0.033   9.341  1.00  0.00     0.251 C 
ATOM     30  H   UNL     1      -3.336   0.873   9.840  1.00  0.00     0.163 HD
ATOM     31  O   UNL     1      -5.730   0.558  10.189  1.00  0.00    -0.269 OA
BRANCH  29  32
ATOM     32  C   UNL     1      -5.673  -1.101   8.524  1.00  0.00     0.039 A 
ATOM     33  C   UNL     1      -4.998  -2.303   8.285  1.00  0.00     0.014 A 
ATOM     34  C   UNL     1      -6.946  -0.898   7.987  1.00  0.00     0.014 A 
ATOM     35  C   UNL     1      -5.527  -3.233   7.394  1.00  0.00     0.010 A 
ATOM     36  C   UNL     1      -7.512  -1.870   7.158  1.00  0.00     0.010 A 
ATOM     37  C   UNL     1      -6.792  -3.029   6.822  1.00  0.00    -0.014 A 
BRANCH  37  38
ATOM     38  C   UNL     1      -7.359  -4.016   5.866  1.00  0.00     0.031 A 
ATOM     39  C   UNL     1      -7.640  -3.619   4.442  1.00  0.00     0.074 A 
ATOM     40  C   UNL     1      -7.621  -5.273   6.274  1.00  0.00     0.049 A 
ATOM     41  N   UNL     1      -8.243  -4.294   3.495  1.00  0.00    -0.248 NA
ATOM     42  C   UNL     1      -7.187  -2.282   4.028  1.00  0.00     0.031 C 
ATOM     43  C   UNL     1      -7.360  -5.798   7.614  1.00  0.00     0.029 A 
ATOM     44  N   UNL     1      -8.168  -6.337   5.600  1.00  0.00    -0.354 N 
ATOM     45  C   UNL     1      -8.262  -3.459   2.385  1.00  0.00     0.074 A 
ATOM     46  C   UNL     1      -7.638  -2.215   2.783  1.00  0.00     0.031 C 
ATOM     47  C   UNL     1      -7.723  -7.088   7.658  1.00  0.00     0.029 A 
ATOM     48  C   UNL     1      -8.309  -7.461   6.375  1.00  0.00     0.049 A 
ATOM     49  H   UNL     1      -8.433  -6.297   4.652  1.00  0.00     0.167 HD
ATOM     50  C   UNL     1      -8.748  -3.712   1.145  1.00  0.00     0.037 A 
ATOM     51  C   UNL     1      -8.879  -8.649   6.097  1.00  0.00     0.037 A 
ATOM     52  C   UNL     1      -9.355  -4.957   0.748  1.00  0.00     0.049 A 
ATOM     53  C   UNL     1      -9.481  -8.876   4.738  1.00  0.00     0.074 A 
ATOM     54  C   UNL     1      -9.868  -5.311  -0.488  1.00  0.00     0.029 A 
ATOM     55  N   UNL     1      -9.528  -6.054   1.580  1.00  0.00    -0.354 N 
ATOM     56  N   UNL     1      -9.511  -8.075   3.701  1.00  0.00    -0.248 NA
ATOM     57  C   UNL     1     -10.137 -10.171   4.516  1.00  0.00     0.031 C 
ATOM     58  C   UNL     1     -10.397  -6.603  -0.390  1.00  0.00     0.029 A 
ATOM     59  C   UNL     1     -10.162  -7.077   0.890  1.00  0.00     0.049 A 
ATOM     60  H   UNL     1      -9.243  -6.100   2.521  1.00  0.00     0.167 HD
ATOM     61  C   UNL     1     -10.177  -8.770   2.701  1.00  0.00     0.074 A 
ATOM     62  C   UNL     1     -10.505 -10.071   3.247  1.00  0.00     0.031 C 
ATOM     63  C   UNL     1     -10.496  -8.364   1.447  1.00  0.00     0.037 A 
BRANCH  50  64
ATOM     64  C   UNL     1      -8.658  -2.614   0.123  1.00  0.00     0.064 A 
ATOM     65  C   UNL     1      -7.431  -2.224  -0.435  1.00  0.00     0.173 A 
ATOM     66  C   UNL     1      -9.820  -1.982  -0.347  1.00  0.00     0.173 A 
ATOM     67  F   UNL     1      -6.288  -2.787  -0.013  1.00  0.00    -0.203 F 
ATOM     68  C   UNL     1      -7.369  -1.230  -1.409  1.00  0.00     0.198 A 
ATOM     69  C   UNL     1      -9.757  -1.011  -1.344  1.00  0.00     0.198 A 
ATOM     70  F   UNL     1     -11.021  -2.321   0.146  1.00  0.00    -0.203 F 
ATOM     71  F   UNL     1      -6.181  -0.847  -1.898  1.00  0.00    -0.200 F 
ATOM     72  C   UNL     1      -8.532  -0.632  -1.869  1.00  0.00     0.200 A 
ATOM     73  F   UNL     1     -10.884  -0.446  -1.798  1.00  0.00    -0.200 F 
ATOM     74  F   UNL     1      -8.472   0.313  -2.818  1.00  0.00    -0.200 F 
ENDBRANCH  50  64
BRANCH  51  75
ATOM     75  C   UNL     1      -8.913  -9.710   7.137  1.00  0.00     0.064 A 
ATOM     76  C   UNL     1      -8.158 -10.881   6.992  1.00  0.00     0.173 A 
ATOM     77  C   UNL     1      -9.684  -9.570   8.302  1.00  0.00     0.173 A 
ATOM     78  F   UNL     1      -7.426 -11.073   5.885  1.00  0.00    -0.203 F 
ATOM     79  C   UNL     1      -8.176 -11.874   7.969  1.00  0.00     0.198 A 
ATOM     80  C   UNL     1      -9.676 -10.549   9.292  1.00  0.00     0.198 A 
ATOM     81  F   UNL     1     -10.425  -8.468   8.489  1.00  0.00    -0.203 F 
ATOM     82  F   UNL     1      -7.473 -13.001   7.788  1.00  0.00    -0.200 F 
ATOM     83  C   UNL     1      -8.927 -11.703   9.123  1.00  0.00     0.200 A 
ATOM     84  F   UNL     1     -10.389 -10.372  10.412  1.00  0.00    -0.200 F 
ATOM     85  F   UNL     1      -8.931 -12.652  10.069  1.00  0.00    -0.200 F 
ENDBRANCH  51  75
BRANCH  63  86
ATOM     86  C   UNL     1     -11.231  -9.342   0.575  1.00  0.00     0.064 A 
ATOM     87  C   UNL     1     -12.566  -9.694   0.832  1.00  0.00     0.173 A 
ATOM     88  C   UNL     1     -10.607  -9.913  -0.545  1.00  0.00     0.173 A 
ATOM     89  F   UNL     1     -13.204  -9.188   1.898  1.00  0.00    -0.203 F 
ATOM     90  C   UNL     1     -13.236 -10.605   0.019  1.00  0.00     0.198 A 
ATOM     91  C   UNL     1     -11.292 -10.796  -1.375  1.00  0.00     0.198 A 
ATOM     92  F   UNL     1      -9.336  -9.606  -0.841  1.00  0.00    -0.203 F 
ATOM     93  F   UNL     1     -14.490 -10.969   0.318  1.00  0.00    -0.200 F 
ATOM     94  C   UNL     1     -12.601 -11.149  -1.087  1.00  0.00     0.200 A 
ATOM     95  F   UNL     1     -10.682 -11.309  -2.453  1.00  0.00    -0.200 F 
ATOM     96  F   UNL     1     -13.250 -12.021  -1.871  1.00  0.00    -0.200 F 
ENDBRANCH  63  86
ENDBRANCH  37  38
ENDBRANCH  29  32
ENDBRANCH  27  28
ENDBRANCH   1  27
TORSDOF 12
