REMARK SMILES O=C(COc1cccc(/C=C2/SC(=S)N(NC(=O)c3ccccc3F)C2=O)c1)NCCCNC(=O)c1ccc(-c2c3nc(c(-c4c(F)c(F)c(F)c(F)c4F)c4ccc([nH]4)c(-c4c(F)c(F)c(F)c(F)c4F)c4nc(c(-c5c(F)c(F)c(F)c(F)c5F)c5ccc2[nH]5)C=C4)C=C3)cc1
REMARK SMILES IDX 1 1 2 2 29 3 3 5 4 6 5 7 6 8 28 9 7 10 9 11 8 12 10 13 11 14
REMARK SMILES IDX 12 15 26 16 13 17 15 18 27 19 14 20 16 21 17 22 18 24 19 25
REMARK SMILES IDX 20 26 24 27 21 28 23 29 25 30 22 31 30 32 31 33 32 34 33 35
REMARK SMILES IDX 34 36 35 38 36 39 37 40 98 41 38 42 97 43 39 44 40 45 41 46
REMARK SMILES IDX 91 47 42 48 96 49 90 50 92 51 43 52 95 53 89 54 88 55 44 57
REMARK SMILES IDX 76 58 56 59 75 60 57 61 60 62 74 63 93 64 58 65 59 66 73 68
REMARK SMILES IDX 94 69 61 70 45 71 46 72 54 73 47 74 48 75 52 76 55 77 49 78
REMARK SMILES IDX 50 79 53 80 51 81 77 82 78 83 86 84 79 85 80 86 84 87 87 88
REMARK SMILES IDX 81 89 82 90 85 91 83 92 62 93 63 94 71 95 64 96 65 97 69 98
REMARK SMILES IDX 72 99 66 100 67 101 70 102 68 103
REMARK H PARENT 29 4 16 23 33 37 92 56 60 67
REMARK Flexibility Score: inf
ROOT
ATOM      1  O   UNL     1       0.811   0.167   1.418  1.00  0.00    -0.271 OA
ATOM      2  C   UNL     1       1.800   0.002   0.704  1.00  0.00     0.257 C 
ATOM      3  N   UNL     1       2.447   1.050   0.086  1.00  0.00    -0.353 N 
ATOM      4  H   UNL     1       3.322   0.897  -0.338  1.00  0.00     0.163 HD
ENDROOT
BRANCH   2   5
ATOM      5  C   UNL     1       2.386  -1.407   0.473  1.00  0.00     0.329 C 
BRANCH   5   6
ATOM      6  O   UNL     1       3.168  -1.748  -0.656  1.00  0.00    -0.484 OA
BRANCH   6   7
ATOM      7  C   UNL     1       2.535  -1.888  -1.862  1.00  0.00     0.120 A 
ATOM      8  C   UNL     1       3.024  -2.892  -2.700  1.00  0.00     0.046 A 
ATOM      9  C   UNL     1       1.628  -0.963  -2.368  1.00  0.00     0.054 A 
ATOM     10  C   UNL     1       2.641  -2.943  -4.043  1.00  0.00     0.004 A 
ATOM     11  C   UNL     1       1.372  -0.909  -3.742  1.00  0.00    -0.021 A 
ATOM     12  C   UNL     1       1.839  -1.932  -4.572  1.00  0.00     0.008 A 
BRANCH  11  13
ATOM     13  C   UNL     1       0.762   0.285  -4.346  1.00  0.00     0.029 C 
ATOM     14  C   UNL     1       1.318   1.512  -4.316  1.00  0.00     0.082 C 
ATOM     15  S   UNL     1       0.707   2.838  -5.244  1.00  0.00    -0.052 SA
ATOM     16  C   UNL     1       2.555   1.957  -3.600  1.00  0.00     0.285 C 
ATOM     17  C   UNL     1       2.131   3.837  -4.946  1.00  0.00     0.168 C 
ATOM     18  N   UNL     1       3.005   3.152  -4.118  1.00  0.00    -0.198 N 
ATOM     19  O   UNL     1       3.035   1.393  -2.620  1.00  0.00    -0.266 OA
ATOM     20  S   UNL     1       2.302   5.378  -5.554  1.00  0.00    -0.050 S 
BRANCH  18  21
ATOM     21  N   UNL     1       4.180   3.780  -3.638  1.00  0.00    -0.254 N 
ATOM     22  C   UNL     1       5.423   3.214  -3.430  1.00  0.00     0.273 C 
ATOM     23  H   UNL     1       4.101   4.739  -3.427  1.00  0.00     0.192 HD
ATOM     24  O   UNL     1       6.380   3.917  -3.104  1.00  0.00    -0.267 OA
BRANCH  22  25
ATOM     25  C   UNL     1       5.655   1.763  -3.447  1.00  0.00     0.077 A 
ATOM     26  C   UNL     1       6.148   1.176  -2.271  1.00  0.00     0.017 A 
ATOM     27  C   UNL     1       5.395   0.972  -4.560  1.00  0.00     0.136 A 
ATOM     28  C   UNL     1       6.335  -0.204  -2.205  1.00  0.00     0.001 A 
ATOM     29  C   UNL     1       5.590  -0.406  -4.500  1.00  0.00     0.040 A 
ATOM     30  F   UNL     1       4.915   1.511  -5.690  1.00  0.00    -0.206 F 
ATOM     31  C   UNL     1       6.055  -0.994  -3.320  1.00  0.00     0.003 A 
ENDBRANCH  22  25
ENDBRANCH  18  21
ENDBRANCH  11  13
ENDBRANCH   6   7
ENDBRANCH   5   6
ENDBRANCH   2   5
BRANCH   3  32
ATOM     32  C   UNL     1       1.860   2.378   0.052  1.00  0.00     0.117 C 
BRANCH  32  33
ATOM     33  C   UNL     1       2.361   3.317   1.139  1.00  0.00     0.042 C 
BRANCH  33  34
ATOM     34  C   UNL     1       3.835   3.700   1.032  1.00  0.00     0.118 C 
BRANCH  34  35
ATOM     35  N   UNL     1       4.164   4.378  -0.215  1.00  0.00    -0.352 N 
ATOM     36  C   UNL     1       4.709   5.610  -0.484  1.00  0.00     0.251 C 
ATOM     37  H   UNL     1       3.956   3.851  -1.021  1.00  0.00     0.163 HD
ATOM     38  O   UNL     1       4.620   6.031  -1.638  1.00  0.00    -0.269 OA
BRANCH  36  39
ATOM     39  C   UNL     1       5.348   6.451   0.570  1.00  0.00     0.039 A 
ATOM     40  C   UNL     1       5.372   7.841   0.388  1.00  0.00     0.014 A 
ATOM     41  C   UNL     1       5.951   5.919   1.712  1.00  0.00     0.014 A 
ATOM     42  C   UNL     1       5.905   8.681   1.375  1.00  0.00     0.010 A 
ATOM     43  C   UNL     1       6.401   6.759   2.737  1.00  0.00     0.010 A 
ATOM     44  C   UNL     1       6.378   8.151   2.585  1.00  0.00    -0.014 A 
BRANCH  44  45
ATOM     45  C   UNL     1       6.820   9.042   3.696  1.00  0.00     0.031 A 
ATOM     46  C   UNL     1       8.238   9.010   4.202  1.00  0.00     0.074 A 
ATOM     47  C   UNL     1       5.922   9.846   4.299  1.00  0.00     0.049 A 
ATOM     48  N   UNL     1       8.786   9.694   5.177  1.00  0.00    -0.248 NA
ATOM     49  C   UNL     1       9.155   8.066   3.547  1.00  0.00     0.031 C 
ATOM     50  C   UNL     1       4.499   9.926   3.963  1.00  0.00     0.029 A 
ATOM     51  N   UNL     1       6.069  10.748   5.325  1.00  0.00    -0.354 N 
ATOM     52  C   UNL     1      10.099   9.249   5.265  1.00  0.00     0.074 A 
ATOM     53  C   UNL     1      10.254   8.204   4.275  1.00  0.00     0.031 C 
ATOM     54  C   UNL     1       3.913  10.848   4.742  1.00  0.00     0.029 A 
ATOM     55  C   UNL     1       4.909  11.408   5.650  1.00  0.00     0.049 A 
ATOM     56  H   UNL     1       6.926  10.907   5.783  1.00  0.00     0.167 HD
ATOM     57  C   UNL     1      11.093   9.685   6.078  1.00  0.00     0.037 A 
ATOM     58  C   UNL     1       4.673  12.364   6.569  1.00  0.00     0.037 A 
ATOM     59  C   UNL     1      10.956  10.749   7.039  1.00  0.00     0.049 A 
ATOM     60  C   UNL     1       5.806  12.874   7.415  1.00  0.00     0.074 A 
ATOM     61  C   UNL     1      11.920  11.295   7.870  1.00  0.00     0.029 A 
ATOM     62  N   UNL     1       9.778  11.435   7.293  1.00  0.00    -0.354 N 
ATOM     63  N   UNL     1       7.059  12.492   7.437  1.00  0.00    -0.248 NA
ATOM     64  C   UNL     1       5.494  13.963   8.352  1.00  0.00     0.031 C 
ATOM     65  C   UNL     1      11.320  12.295   8.644  1.00  0.00     0.029 A 
ATOM     66  C   UNL     1       9.991  12.398   8.268  1.00  0.00     0.049 A 
ATOM     67  H   UNL     1       8.917  11.265   6.846  1.00  0.00     0.167 HD
ATOM     68  C   UNL     1       7.690  13.311   8.363  1.00  0.00     0.074 A 
ATOM     69  C   UNL     1       6.685  14.220   8.873  1.00  0.00     0.031 C 
ATOM     70  C   UNL     1       8.988  13.309   8.754  1.00  0.00     0.037 A 
BRANCH  57  71
ATOM     71  C   UNL     1      12.431   9.015   5.953  1.00  0.00     0.064 A 
ATOM     72  C   UNL     1      13.252   9.223   4.834  1.00  0.00     0.173 A 
ATOM     73  C   UNL     1      12.913   8.185   6.976  1.00  0.00     0.173 A 
ATOM     74  F   UNL     1      12.832  10.001   3.825  1.00  0.00    -0.203 F 
ATOM     75  C   UNL     1      14.492   8.599   4.729  1.00  0.00     0.198 A 
ATOM     76  C   UNL     1      14.166   7.584   6.880  1.00  0.00     0.198 A 
ATOM     77  F   UNL     1      12.172   7.960   8.071  1.00  0.00    -0.203 F 
ATOM     78  F   UNL     1      15.237   8.774   3.629  1.00  0.00    -0.200 F 
ATOM     79  C   UNL     1      14.950   7.785   5.754  1.00  0.00     0.200 A 
ATOM     80  F   UNL     1      14.614   6.808   7.876  1.00  0.00    -0.200 F 
ATOM     81  F   UNL     1      16.146   7.188   5.653  1.00  0.00    -0.200 F 
ENDBRANCH  57  71
BRANCH  58  82
ATOM     82  C   UNL     1       3.312  12.946   6.697  1.00  0.00     0.064 A 
ATOM     83  C   UNL     1       3.046  14.247   6.248  1.00  0.00     0.173 A 
ATOM     84  C   UNL     1       2.257  12.222   7.269  1.00  0.00     0.173 A 
ATOM     85  F   UNL     1       4.031  14.985   5.713  1.00  0.00    -0.203 F 
ATOM     86  C   UNL     1       1.780  14.810   6.384  1.00  0.00     0.198 A 
ATOM     87  C   UNL     1       0.985  12.778   7.383  1.00  0.00     0.198 A 
ATOM     88  F   UNL     1       2.462  10.973   7.710  1.00  0.00    -0.203 F 
ATOM     89  F   UNL     1       1.563  16.071   5.986  1.00  0.00    -0.200 F 
ATOM     90  C   UNL     1       0.749  14.074   6.947  1.00  0.00     0.200 A 
ATOM     91  F   UNL     1      -0.012  12.060   7.918  1.00  0.00    -0.200 F 
ATOM     92  F   UNL     1      -0.470  14.615   7.077  1.00  0.00    -0.200 F 
ENDBRANCH  58  82
BRANCH  70  93
ATOM     93  C   UNL     1       9.405  14.351   9.749  1.00  0.00     0.064 A 
ATOM     94  C   UNL     1       9.027  14.276  11.097  1.00  0.00     0.173 A 
ATOM     95  C   UNL     1      10.207  15.430   9.349  1.00  0.00     0.173 A 
ATOM     96  F   UNL     1       8.247  13.272  11.525  1.00  0.00    -0.203 F 
ATOM     97  C   UNL     1       9.413  15.260  12.003  1.00  0.00     0.198 A 
ATOM     98  C   UNL     1      10.612  16.399  10.262  1.00  0.00     0.198 A 
ATOM     99  F   UNL     1      10.598  15.544   8.071  1.00  0.00    -0.203 F 
ATOM    100  F   UNL     1       8.999  15.196  13.277  1.00  0.00    -0.200 F 
ATOM    101  C   UNL     1      10.208  16.318  11.587  1.00  0.00     0.200 A 
ATOM    102  F   UNL     1      11.387  17.415   9.860  1.00  0.00    -0.200 F 
ATOM    103  F   UNL     1      10.577  17.265  12.460  1.00  0.00    -0.200 F 
ENDBRANCH  70  93
ENDBRANCH  44  45
ENDBRANCH  36  39
ENDBRANCH  34  35
ENDBRANCH  33  34
ENDBRANCH  32  33
ENDBRANCH   3  32
TORSDOF 15
