REMARK SMILES O=C(NCCCNC(=O)c1c(C(=O)N2CCc3ccccc32)cccc1[N+](=O)[O-])c1ccc(-c2c3nc(c(-c4c(F)c(F)c(F)c(F)c4F)c4ccc([nH]4)c(-c4c(F)c(F)c(F)c(F)c4F)c4nc(c(-c5c(F)c(F)c(F)c(F)c5F)c5ccc2[nH]5)C=C4)C=C3)cc1
REMARK SMILES IDX 5 1 4 2 3 3 1 4 2 5 30 7 31 8 92 9 32 10 91 11 33 12 34 13
REMARK SMILES IDX 35 14 85 15 36 16 90 17 84 18 86 19 37 20 89 21 83 22 82 23
REMARK SMILES IDX 38 25 70 26 50 27 69 28 51 29 54 30 68 31 87 32 52 33 53 34
REMARK SMILES IDX 67 36 88 37 55 38 39 39 40 40 48 41 41 42 42 43 46 44 49 45
REMARK SMILES IDX 43 46 44 47 47 48 45 49 71 50 72 51 80 52 73 53 74 54 78 55
REMARK SMILES IDX 81 56 75 57 76 58 79 59 77 60 56 61 57 62 65 63 58 64 59 65
REMARK SMILES IDX 63 66 66 67 60 68 61 69 64 70 62 71 6 72 7 73 8 74 9 76
REMARK SMILES IDX 10 77 11 78 26 79 23 80 25 81 24 82 12 83 13 84 14 85 15 86
REMARK SMILES IDX 22 87 16 88 17 89 21 90 18 91 20 92 19 93 27 94 28 95 29 96
REMARK H PARENT 3 6 86 24 54 35 7 75
REMARK Flexibility Score: inf
ROOT
ATOM      1  C   UNL     1       5.135  -0.963  -2.260  1.00  0.00     0.042 C 
ENDROOT
BRANCH   1   2
ATOM      2  C   UNL     1       4.592   0.199  -1.443  1.00  0.00     0.118 C 
BRANCH   2   3
ATOM      3  N   UNL     1       3.151   0.157  -1.239  1.00  0.00    -0.352 N 
ATOM      4  O   UNL     1       1.184  -0.110  -0.176  1.00  0.00    -0.269 OA
ATOM      5  C   UNL     1       2.404  -0.003  -0.094  1.00  0.00     0.251 C 
ATOM      6  H   UNL     1       2.619   0.261  -2.062  1.00  0.00     0.163 HD
BRANCH   5   7
ATOM      7  C   UNL     1       3.051  -0.085   1.236  1.00  0.00     0.039 A 
ATOM      8  C   UNL     1       4.123   0.739   1.574  1.00  0.00     0.014 A 
ATOM      9  C   UNL     1       2.557  -0.994   2.179  1.00  0.00     0.014 A 
ATOM     10  C   UNL     1       4.819   0.523   2.758  1.00  0.00     0.010 A 
ATOM     11  C   UNL     1       3.188  -1.131   3.421  1.00  0.00     0.010 A 
ATOM     12  C   UNL     1       4.353  -0.404   3.704  1.00  0.00    -0.014 A 
BRANCH  12  13
ATOM     13  C   UNL     1       5.075  -0.543   4.996  1.00  0.00     0.031 A 
ATOM     14  C   UNL     1       5.736  -1.836   5.388  1.00  0.00     0.074 A 
ATOM     15  C   UNL     1       5.173   0.534   5.800  1.00  0.00     0.049 A 
ATOM     16  N   UNL     1       6.436  -2.113   6.461  1.00  0.00    -0.248 NA
ATOM     17  C   UNL     1       5.591  -2.970   4.462  1.00  0.00     0.031 C 
ATOM     18  C   UNL     1       4.564   1.839   5.533  1.00  0.00     0.029 A 
ATOM     19  N   UNL     1       5.838   0.717   6.985  1.00  0.00    -0.354 N 
ATOM     20  C   UNL     1       6.796  -3.449   6.349  1.00  0.00     0.074 A 
ATOM     21  C   UNL     1       6.218  -3.938   5.116  1.00  0.00     0.031 C 
ATOM     22  C   UNL     1       4.930   2.701   6.491  1.00  0.00     0.029 A 
ATOM     23  C   UNL     1       5.741   1.996   7.476  1.00  0.00     0.049 A 
ATOM     24  H   UNL     1       6.338   0.001   7.440  1.00  0.00     0.167 HD
ATOM     25  C   UNL     1       7.549  -4.194   7.195  1.00  0.00     0.037 A 
ATOM     26  C   UNL     1       6.234   2.540   8.603  1.00  0.00     0.037 A 
ATOM     27  C   UNL     1       8.135  -3.698   8.415  1.00  0.00     0.049 A 
ATOM     28  C   UNL     1       7.046   1.684   9.530  1.00  0.00     0.074 A 
ATOM     29  C   UNL     1       8.934  -4.370   9.325  1.00  0.00     0.029 A 
ATOM     30  N   UNL     1       7.984  -2.406   8.896  1.00  0.00    -0.354 N 
ATOM     31  N   UNL     1       7.399   0.429   9.398  1.00  0.00    -0.248 NA
ATOM     32  C   UNL     1       7.522   2.318  10.766  1.00  0.00     0.031 C 
ATOM     33  C   UNL     1       9.232  -3.496  10.376  1.00  0.00     0.029 A 
ATOM     34  C   UNL     1       8.658  -2.266  10.099  1.00  0.00     0.049 A 
ATOM     35  H   UNL     1       7.473  -1.693   8.448  1.00  0.00     0.167 HD
ATOM     36  C   UNL     1       8.147   0.124  10.525  1.00  0.00     0.074 A 
ATOM     37  C   UNL     1       8.219   1.335  11.319  1.00  0.00     0.031 C 
ATOM     38  C   UNL     1       8.718  -1.054  10.875  1.00  0.00     0.037 A 
BRANCH  25  39
ATOM     39  C   UNL     1       7.776  -5.637   6.842  1.00  0.00     0.064 A 
ATOM     40  C   UNL     1       8.628  -6.013   5.794  1.00  0.00     0.173 A 
ATOM     41  C   UNL     1       7.175  -6.657   7.597  1.00  0.00     0.173 A 
ATOM     42  F   UNL     1       9.218  -5.078   5.034  1.00  0.00    -0.203 F 
ATOM     43  C   UNL     1       8.855  -7.356   5.501  1.00  0.00     0.198 A 
ATOM     44  C   UNL     1       7.424  -7.998   7.318  1.00  0.00     0.198 A 
ATOM     45  F   UNL     1       6.357  -6.352   8.615  1.00  0.00    -0.203 F 
ATOM     46  F   UNL     1       9.643  -7.692   4.471  1.00  0.00    -0.200 F 
ATOM     47  C   UNL     1       8.259  -8.347   6.268  1.00  0.00     0.200 A 
ATOM     48  F   UNL     1       6.857  -8.954   8.067  1.00  0.00    -0.200 F 
ATOM     49  F   UNL     1       8.486  -9.639   5.990  1.00  0.00    -0.200 F 
ENDBRANCH  25  39
BRANCH  26  50
ATOM     50  C   UNL     1       5.962   3.967   8.912  1.00  0.00     0.064 A 
ATOM     51  C   UNL     1       6.988   4.920   8.886  1.00  0.00     0.173 A 
ATOM     52  C   UNL     1       4.667   4.408   9.224  1.00  0.00     0.173 A 
ATOM     53  F   UNL     1       8.245   4.544   8.611  1.00  0.00    -0.203 F 
ATOM     54  C   UNL     1       6.731   6.260   9.172  1.00  0.00     0.198 A 
ATOM     55  C   UNL     1       4.406   5.752   9.479  1.00  0.00     0.198 A 
ATOM     56  F   UNL     1       3.650   3.535   9.256  1.00  0.00    -0.203 F 
ATOM     57  F   UNL     1       7.737   7.145   9.178  1.00  0.00    -0.200 F 
ATOM     58  C   UNL     1       5.440   6.675   9.461  1.00  0.00     0.200 A 
ATOM     59  F   UNL     1       3.154   6.151   9.739  1.00  0.00    -0.200 F 
ATOM     60  F   UNL     1       5.192   7.965   9.726  1.00  0.00    -0.200 F 
ENDBRANCH  26  50
BRANCH  38  61
ATOM     61  C   UNL     1       9.487  -1.079  12.162  1.00  0.00     0.064 A 
ATOM     62  C   UNL     1       8.838  -1.046  13.405  1.00  0.00     0.173 A 
ATOM     63  C   UNL     1      10.888  -1.156  12.152  1.00  0.00     0.173 A 
ATOM     64  F   UNL     1       7.501  -0.953  13.466  1.00  0.00    -0.203 F 
ATOM     65  C   UNL     1       9.566  -1.061  14.592  1.00  0.00     0.198 A 
ATOM     66  C   UNL     1      11.611  -1.199  13.340  1.00  0.00     0.198 A 
ATOM     67  F   UNL     1      11.554  -1.194  10.988  1.00  0.00    -0.203 F 
ATOM     68  F   UNL     1       8.928  -0.977  15.767  1.00  0.00    -0.200 F 
ATOM     69  C   UNL     1      10.950  -1.143  14.558  1.00  0.00     0.200 A 
ATOM     70  F   UNL     1      12.947  -1.288  13.307  1.00  0.00    -0.200 F 
ATOM     71  F   UNL     1      11.649  -1.159  15.702  1.00  0.00    -0.200 F 
ENDBRANCH  38  61
ENDBRANCH  12  13
ENDBRANCH   5   7
ENDBRANCH   2   3
ENDBRANCH   1   2
BRANCH   1  72
ATOM     72  C   UNL     1       4.697  -0.990  -3.715  1.00  0.00     0.118 C 
BRANCH  72  73
ATOM     73  N   UNL     1       5.085   0.192  -4.477  1.00  0.00    -0.352 N 
ATOM     74  C   UNL     1       5.701   0.332  -5.700  1.00  0.00     0.259 C 
ATOM     75  H   UNL     1       4.868   1.045  -4.036  1.00  0.00     0.163 HD
ATOM     76  O   UNL     1       5.899   1.462  -6.133  1.00  0.00    -0.269 OA
BRANCH  74  77
ATOM     77  C   UNL     1       6.169  -0.850  -6.452  1.00  0.00     0.130 A 
ATOM     78  C   UNL     1       7.511  -0.959  -6.858  1.00  0.00     0.060 A 
ATOM     79  C   UNL     1       5.305  -1.913  -6.748  1.00  0.00     0.282 A 
ATOM     80  C   UNL     1       7.971  -2.166  -7.412  1.00  0.00     0.015 A 
ATOM     81  C   UNL     1       5.779  -3.138  -7.240  1.00  0.00     0.086 A 
ATOM     82  C   UNL     1       7.127  -3.270  -7.542  1.00  0.00     0.008 A 
BRANCH  78  83
ATOM     83  C   UNL     1       8.447   0.201  -6.823  1.00  0.00     0.259 C 
ATOM     84  O   UNL     1       8.462   0.979  -7.768  1.00  0.00    -0.269 OA
BRANCH  83  85
ATOM     85  N   UNL     1       9.232   0.316  -5.699  1.00  0.00    -0.308 N 
ATOM     86  C   UNL     1       8.937   1.222  -4.587  1.00  0.00     0.131 C 
ATOM     87  C   UNL     1      10.194  -0.608  -5.287  1.00  0.00     0.047 A 
ATOM     88  C   UNL     1       9.560   0.584  -3.330  1.00  0.00     0.059 C 
ATOM     89  C   UNL     1      10.338  -0.558  -3.907  1.00  0.00    -0.022 A 
ATOM     90  C   UNL     1      10.920  -1.487  -6.068  1.00  0.00     0.026 A 
ATOM     91  C   UNL     1      11.089  -1.520  -3.253  1.00  0.00     0.006 A 
ATOM     92  C   UNL     1      11.701  -2.443  -5.424  1.00  0.00     0.002 A 
ATOM     93  C   UNL     1      11.752  -2.483  -4.023  1.00  0.00     0.000 A 
ENDBRANCH  83  85
ENDBRANCH  78  83
BRANCH  79  94
ATOM     94  N   UNL     1       3.866  -1.763  -6.611  1.00  0.00     0.063 N 
ATOM     95  O   UNL     1       3.257  -2.690  -6.058  1.00  0.00    -0.258 OA
ATOM     96  O   UNL     1       3.349  -0.735  -7.062  1.00  0.00    -0.258 OA
ENDBRANCH  79  94
ENDBRANCH  74  77
ENDBRANCH  72  73
ENDBRANCH   1  72
TORSDOF 13
