REMARK SMILES CCc1ccsc1CNC(=O)N1[C@@H]2CC[C@H]1[C@H](C(=O)NCCCNC(=O)c1ccc(-c3c4nc(c(-c5c(F)c(F)c(F)c(F)c5F)c5ccc([nH]5)c(-c5c(F)c(F)c(F)c(F)c5F)c5nc(c(-c6c(F)c(F)c(F)c(F)c6F)c6ccc3[nH]6)C=C5)C=C4)cc1)C2
REMARK SMILES IDX 21 1 20 2 18 3 19 4 17 6 12 7 13 8 16 9 14 10 90 11 15 12
REMARK SMILES IDX 10 13 9 14 11 16 8 17 7 18 3 19 4 20 5 21 6 22 2 23 1 24
REMARK SMILES IDX 22 25 23 26 24 27 25 28 26 30 27 31 28 32 89 33 29 34 88 35
REMARK SMILES IDX 30 36 31 37 32 38 82 39 33 40 87 41 81 42 83 43 34 44 86 45
REMARK SMILES IDX 80 46 79 47 35 49 67 50 47 51 66 52 48 53 51 54 65 55 84 56
REMARK SMILES IDX 49 57 50 58 64 60 85 61 52 62 36 63 37 64 45 65 38 66 39 67
REMARK SMILES IDX 43 68 46 69 40 70 41 71 44 72 42 73 68 74 69 75 77 76 70 77
REMARK SMILES IDX 71 78 75 79 78 80 72 81 73 82 76 83 74 84 53 85 54 86 62 87
REMARK SMILES IDX 55 88 56 89 60 90 63 91 57 92 58 93 61 94 59 95
REMARK H PARENT 20 5 9 15 24 29 83 48 51 59
REMARK Flexibility Score: inf
ROOT
ATOM      1  C   UNL     1       0.995   2.597   0.866  1.00  0.00     0.117 C 
ENDROOT
BRANCH   1   2
ATOM      2  N   UNL     1       2.230   3.279   0.548  1.00  0.00    -0.356 N 
ATOM      3  C   UNL     1       3.121   3.791   1.437  1.00  0.00     0.225 C 
ATOM      4  O   UNL     1       4.312   3.519   1.244  1.00  0.00    -0.275 OA
ATOM      5  H   UNL     1       2.447   3.382  -0.406  1.00  0.00     0.163 HD
BRANCH   3   6
ATOM      6  C   UNL     1       2.757   4.778   2.535  1.00  0.00     0.103 C 
ATOM      7  N   UNL     1       0.966   4.475   3.996  1.00  0.00    -0.318 N 
ATOM      8  C   UNL     1       2.090   4.787   4.840  1.00  0.00     0.088 C 
ATOM      9  C   UNL     1       1.309   5.250   2.814  1.00  0.00     0.099 C 
ATOM     10  C   UNL     1       2.023   6.332   4.829  1.00  0.00     0.027 C 
ATOM     11  C   UNL     1       3.236   4.311   3.938  1.00  0.00     0.040 C 
ATOM     12  C   UNL     1       1.420   6.650   3.438  1.00  0.00     0.028 C 
BRANCH   7  13
ATOM     13  C   UNL     1       0.096   3.431   3.989  1.00  0.00     0.318 C 
ATOM     14  N   UNL     1       0.546   2.304   4.615  1.00  0.00    -0.333 N 
ATOM     15  H   UNL     1       1.263   2.383   5.285  1.00  0.00     0.165 HD
ATOM     16  O   UNL     1      -0.915   3.450   3.291  1.00  0.00    -0.249 OA
BRANCH  14  17
ATOM     17  C   UNL     1      -0.003   0.993   4.322  1.00  0.00     0.165 C 
BRANCH  17  18
ATOM     18  C   UNL     1       1.072  -0.063   4.286  1.00  0.00     0.027 A 
ATOM     19  C   UNL     1       1.352  -1.024   3.308  1.00  0.00    -0.033 A 
ATOM     20  C   UNL     1       2.407  -1.898   3.744  1.00  0.00     0.016 A 
ATOM     21  C   UNL     1       2.887  -1.584   4.991  1.00  0.00     0.065 A 
ATOM     22  S   UNL     1       2.092  -0.238   5.660  1.00  0.00    -0.147 S 
BRANCH  19  23
ATOM     23  C   UNL     1       0.639  -1.238   1.992  1.00  0.00     0.033 C 
ATOM     24  C   UNL     1       1.548  -1.185   0.764  1.00  0.00     0.009 C 
ENDBRANCH  19  23
ENDBRANCH  17  18
ENDBRANCH  14  17
ENDBRANCH   7  13
ENDBRANCH   3   6
ENDBRANCH   1   2
BRANCH   1  25
ATOM     25  C   UNL     1      -0.233   3.137   0.141  1.00  0.00     0.042 C 
BRANCH  25  26
ATOM     26  C   UNL     1      -1.381   2.123   0.124  1.00  0.00     0.118 C 
BRANCH  26  27
ATOM     27  N   UNL     1      -1.845   1.723   1.440  1.00  0.00    -0.352 N 
ATOM     28  C   UNL     1      -2.718   0.736   1.850  1.00  0.00     0.251 C 
ATOM     29  H   UNL     1      -1.467   2.254   2.177  1.00  0.00     0.163 HD
ATOM     30  O   UNL     1      -2.825   0.449   3.037  1.00  0.00    -0.269 OA
BRANCH  28  31
ATOM     31  C   UNL     1      -3.665   0.134   0.889  1.00  0.00     0.039 A 
ATOM     32  C   UNL     1      -4.991   0.008   1.326  1.00  0.00     0.014 A 
ATOM     33  C   UNL     1      -3.347  -0.096  -0.444  1.00  0.00     0.014 A 
ATOM     34  C   UNL     1      -6.014  -0.116   0.394  1.00  0.00     0.010 A 
ATOM     35  C   UNL     1      -4.365  -0.110  -1.383  1.00  0.00     0.010 A 
ATOM     36  C   UNL     1      -5.702  -0.040  -0.968  1.00  0.00    -0.014 A 
BRANCH  36  37
ATOM     37  C   UNL     1      -6.740   0.269  -1.973  1.00  0.00     0.031 A 
ATOM     38  C   UNL     1      -7.001  -0.684  -3.094  1.00  0.00     0.074 A 
ATOM     39  C   UNL     1      -7.325   1.483  -1.936  1.00  0.00     0.049 A 
ATOM     40  N   UNL     1      -7.740  -0.520  -4.158  1.00  0.00    -0.248 NA
ATOM     41  C   UNL     1      -6.303  -1.978  -3.031  1.00  0.00     0.031 C 
ATOM     42  C   UNL     1      -7.069   2.521  -0.930  1.00  0.00     0.029 A 
ATOM     43  N   UNL     1      -8.239   2.064  -2.776  1.00  0.00    -0.354 N 
ATOM     44  C   UNL     1      -7.586  -1.681  -4.899  1.00  0.00     0.074 A 
ATOM     45  C   UNL     1      -6.640  -2.518  -4.193  1.00  0.00     0.031 C 
ATOM     46  C   UNL     1      -7.824   3.596  -1.198  1.00  0.00     0.029 A 
ATOM     47  C   UNL     1      -8.583   3.345  -2.415  1.00  0.00     0.049 A 
ATOM     48  H   UNL     1      -8.613   1.607  -3.564  1.00  0.00     0.167 HD
ATOM     49  C   UNL     1      -8.202  -2.023  -6.054  1.00  0.00     0.037 A 
ATOM     50  C   UNL     1      -9.413   4.220  -3.011  1.00  0.00     0.037 A 
ATOM     51  C   UNL     1      -9.152  -1.184  -6.733  1.00  0.00     0.049 A 
ATOM     52  C   UNL     1     -10.110   3.798  -4.273  1.00  0.00     0.074 A 
ATOM     53  C   UNL     1      -9.855  -1.438  -7.896  1.00  0.00     0.029 A 
ATOM     54  N   UNL     1      -9.537   0.077  -6.296  1.00  0.00    -0.354 N 
ATOM     55  N   UNL     1      -9.997   2.675  -4.941  1.00  0.00    -0.248 NA
ATOM     56  C   UNL     1     -11.053   4.757  -4.862  1.00  0.00     0.031 C 
ATOM     57  C   UNL     1     -10.654  -0.323  -8.173  1.00  0.00     0.029 A 
ATOM     58  C   UNL     1     -10.472   0.612  -7.165  1.00  0.00     0.049 A 
ATOM     59  H   UNL     1      -9.195   0.524  -5.489  1.00  0.00     0.167 HD
ATOM     60  C   UNL     1     -10.868   2.781  -6.014  1.00  0.00     0.074 A 
ATOM     61  C   UNL     1     -11.515   4.073  -5.899  1.00  0.00     0.031 C 
ATOM     62  C   UNL     1     -11.108   1.895  -7.010  1.00  0.00     0.037 A 
BRANCH  49  63
ATOM     63  C   UNL     1      -7.874  -3.366  -6.631  1.00  0.00     0.064 A 
ATOM     64  C   UNL     1      -8.313  -4.548  -6.015  1.00  0.00     0.173 A 
ATOM     65  C   UNL     1      -7.118  -3.478  -7.806  1.00  0.00     0.173 A 
ATOM     66  F   UNL     1      -9.021  -4.492  -4.877  1.00  0.00    -0.203 F 
ATOM     67  C   UNL     1      -7.983  -5.794  -6.538  1.00  0.00     0.198 A 
ATOM     68  C   UNL     1      -6.813  -4.727  -8.342  1.00  0.00     0.198 A 
ATOM     69  F   UNL     1      -6.672  -2.380  -8.432  1.00  0.00    -0.203 F 
ATOM     70  F   UNL     1      -8.368  -6.909  -5.902  1.00  0.00    -0.200 F 
ATOM     71  C   UNL     1      -7.238  -5.883  -7.704  1.00  0.00     0.200 A 
ATOM     72  F   UNL     1      -6.097  -4.813  -9.472  1.00  0.00    -0.200 F 
ATOM     73  F   UNL     1      -6.920  -7.084  -8.207  1.00  0.00    -0.200 F 
ENDBRANCH  49  63
BRANCH  50  74
ATOM     74  C   UNL     1      -9.649   5.558  -2.412  1.00  0.00     0.064 A 
ATOM     75  C   UNL     1     -10.881   5.869  -1.818  1.00  0.00     0.173 A 
ATOM     76  C   UNL     1      -8.661   6.553  -2.422  1.00  0.00     0.173 A 
ATOM     77  F   UNL     1     -11.863   4.955  -1.799  1.00  0.00    -0.203 F 
ATOM     78  C   UNL     1     -11.125   7.131  -1.282  1.00  0.00     0.198 A 
ATOM     79  C   UNL     1      -8.897   7.808  -1.862  1.00  0.00     0.198 A 
ATOM     80  F   UNL     1      -7.463   6.304  -2.969  1.00  0.00    -0.203 F 
ATOM     81  F   UNL     1     -12.328   7.416  -0.765  1.00  0.00    -0.200 F 
ATOM     82  C   UNL     1     -10.132   8.099  -1.301  1.00  0.00     0.200 A 
ATOM     83  F   UNL     1      -7.931   8.736  -1.872  1.00  0.00    -0.200 F 
ATOM     84  F   UNL     1     -10.368   9.315  -0.789  1.00  0.00    -0.200 F 
ENDBRANCH  50  74
BRANCH  62  85
ATOM     85  C   UNL     1     -12.136   2.282  -8.027  1.00  0.00     0.064 A 
ATOM     86  C   UNL     1     -11.858   3.230  -9.022  1.00  0.00     0.173 A 
ATOM     87  C   UNL     1     -13.395   1.666  -8.029  1.00  0.00     0.173 A 
ATOM     88  F   UNL     1     -10.672   3.857  -9.045  1.00  0.00    -0.203 F 
ATOM     89  C   UNL     1     -12.815   3.560  -9.976  1.00  0.00     0.198 A 
ATOM     90  C   UNL     1     -14.341   1.981  -8.999  1.00  0.00     0.198 A 
ATOM     91  F   UNL     1     -13.702   0.751  -7.097  1.00  0.00    -0.203 F 
ATOM     92  F   UNL     1     -12.545   4.495 -10.897  1.00  0.00    -0.200 F 
ATOM     93  C   UNL     1     -14.052   2.931  -9.968  1.00  0.00     0.200 A 
ATOM     94  F   UNL     1     -15.532   1.367  -8.996  1.00  0.00    -0.200 F 
ATOM     95  F   UNL     1     -14.969   3.245 -10.893  1.00  0.00    -0.200 F 
ENDBRANCH  62  85
ENDBRANCH  36  37
ENDBRANCH  28  31
ENDBRANCH  26  27
ENDBRANCH  25  26
ENDBRANCH   1  25
TORSDOF 14
