REMARK SMILES O=C(/C=C/c1ccccc1Oc1cccc(Cl)c1)NCCCNC(=O)c1ccc(-c2c3nc(c(-c4c(F)c(F)c(F)c(F)c4F)c4ccc([nH]4)c(-c4c(F)c(F)c(F)c(F)c4F)c4nc(c(-c5c(F)c(F)c(F)c(F)c5F)c5ccc2[nH]5)C=C4)C=C3)cc1
REMARK SMILES IDX 20 1 19 2 1 3 2 4 3 6 4 7 5 8 6 9 10 10 7 11 9 12 8 13 11 14
REMARK SMILES IDX 12 15 13 16 18 17 14 18 16 19 15 20 17 21 21 22 22 23 23 24
REMARK SMILES IDX 24 25 25 27 26 28 27 29 88 30 28 31 87 32 29 33 30 34 31 35
REMARK SMILES IDX 81 36 32 37 86 38 80 39 82 40 33 41 85 42 79 43 78 44 34 46
REMARK SMILES IDX 66 47 46 48 65 49 47 50 50 51 64 52 83 53 48 54 49 55 63 57
REMARK SMILES IDX 84 58 51 59 35 60 36 61 44 62 37 63 38 64 42 65 45 66 39 67
REMARK SMILES IDX 40 68 43 69 41 70 67 71 68 72 76 73 69 74 70 75 74 76 77 77
REMARK SMILES IDX 71 78 72 79 75 80 73 81 52 82 53 83 61 84 54 85 55 86 59 87
REMARK SMILES IDX 62 88 56 89 57 90 60 91 58 92
REMARK H PARENT 19 5 23 26 82 45 50 56
REMARK Flexibility Score: inf
ROOT
ATOM      1  C   UNL     1       2.183  -0.271   2.442  1.00  0.00     0.118 C 
ENDROOT
BRANCH   1   2
ATOM      2  N   UNL     1       2.918  -0.329   1.196  1.00  0.00    -0.352 N 
ATOM      3  O   UNL     1       1.591  -1.907   0.191  1.00  0.00    -0.270 OA
ATOM      4  C   UNL     1       2.535  -1.128   0.148  1.00  0.00     0.244 C 
ATOM      5  H   UNL     1       3.724   0.227   1.097  1.00  0.00     0.163 HD
BRANCH   4   6
ATOM      6  C   UNL     1       3.282  -0.932  -1.124  1.00  0.00     0.072 C 
ATOM      7  C   UNL     1       4.485  -0.347  -1.221  1.00  0.00     0.017 C 
BRANCH   7   8
ATOM      8  C   UNL     1       5.139  -0.028  -2.497  1.00  0.00     0.017 A 
ATOM      9  C   UNL     1       6.333  -0.736  -2.739  1.00  0.00     0.012 A 
ATOM     10  C   UNL     1       4.721   0.935  -3.438  1.00  0.00     0.134 A 
ATOM     11  C   UNL     1       7.093  -0.513  -3.889  1.00  0.00     0.001 A 
ATOM     12  C   UNL     1       5.496   1.141  -4.594  1.00  0.00     0.048 A 
ATOM     13  C   UNL     1       6.674   0.428  -4.819  1.00  0.00     0.004 A 
BRANCH  10  14
ATOM     14  O   UNL     1       3.587   1.725  -3.452  1.00  0.00    -0.457 OA
BRANCH  14  15
ATOM     15  C   UNL     1       2.857   1.967  -2.322  1.00  0.00     0.128 A 
ATOM     16  C   UNL     1       1.504   1.613  -2.362  1.00  0.00     0.047 A 
ATOM     17  C   UNL     1       3.388   2.606  -1.203  1.00  0.00     0.067 A 
ATOM     18  C   UNL     1       0.696   1.814  -1.244  1.00  0.00     0.005 A 
ATOM     19  C   UNL     1       2.574   2.796  -0.086  1.00  0.00     0.044 A 
ATOM     20  C   UNL     1       1.236   2.396  -0.098  1.00  0.00     0.021 A 
ATOM     21  Cl  UNL     1       3.247   3.466   1.349  1.00  0.00    -0.084 Cl
ENDBRANCH  14  15
ENDBRANCH  10  14
ENDBRANCH   7   8
ENDBRANCH   4   6
ENDBRANCH   1   2
BRANCH   1  22
ATOM     22  C   UNL     1       2.509  -1.421   3.384  1.00  0.00     0.042 C 
BRANCH  22  23
ATOM     23  C   UNL     1       3.988  -1.546   3.731  1.00  0.00     0.118 C 
BRANCH  23  24
ATOM     24  N   UNL     1       4.501  -0.433   4.519  1.00  0.00    -0.352 N 
ATOM     25  C   UNL     1       5.250  -0.443   5.670  1.00  0.00     0.251 C 
ATOM     26  H   UNL     1       4.277   0.462   4.173  1.00  0.00     0.163 HD
ATOM     27  O   UNL     1       5.494   0.615   6.248  1.00  0.00    -0.269 OA
BRANCH  25  28
ATOM     28  C   UNL     1       5.734  -1.718   6.247  1.00  0.00     0.039 A 
ATOM     29  C   UNL     1       5.651  -1.898   7.630  1.00  0.00     0.014 A 
ATOM     30  C   UNL     1       6.263  -2.733   5.445  1.00  0.00     0.014 A 
ATOM     31  C   UNL     1       6.027  -3.119   8.196  1.00  0.00     0.010 A 
ATOM     32  C   UNL     1       6.554  -3.979   6.000  1.00  0.00     0.010 A 
ATOM     33  C   UNL     1       6.438  -4.188   7.381  1.00  0.00    -0.014 A 
BRANCH  33  34
ATOM     34  C   UNL     1       6.713  -5.526   7.968  1.00  0.00     0.031 A 
ATOM     35  C   UNL     1       8.083  -6.141   7.885  1.00  0.00     0.074 A 
ATOM     36  C   UNL     1       5.707  -6.210   8.549  1.00  0.00     0.049 A 
ATOM     37  N   UNL     1       8.505  -7.290   8.352  1.00  0.00    -0.248 NA
ATOM     38  C   UNL     1       9.111  -5.378   7.161  1.00  0.00     0.031 C 
ATOM     39  C   UNL     1       4.317  -5.757   8.635  1.00  0.00     0.029 A 
ATOM     40  N   UNL     1       5.695  -7.431   9.178  1.00  0.00    -0.354 N 
ATOM     41  C   UNL     1       9.838  -7.387   7.977  1.00  0.00     0.074 A 
ATOM     42  C   UNL     1      10.140  -6.212   7.188  1.00  0.00     0.031 C 
ATOM     43  C   UNL     1       3.599  -6.664   9.314  1.00  0.00     0.029 A 
ATOM     44  C   UNL     1       4.464  -7.782   9.677  1.00  0.00     0.049 A 
ATOM     45  H   UNL     1       6.493  -8.001   9.263  1.00  0.00     0.167 HD
ATOM     46  C   UNL     1      10.737  -8.355   8.283  1.00  0.00     0.037 A 
ATOM     47  C   UNL     1       4.075  -8.879  10.353  1.00  0.00     0.037 A 
ATOM     48  C   UNL     1      10.436  -9.520   9.075  1.00  0.00     0.049 A 
ATOM     49  C   UNL     1       5.093  -9.938  10.680  1.00  0.00     0.074 A 
ATOM     50  C   UNL     1      11.290 -10.530   9.485  1.00  0.00     0.029 A 
ATOM     51  N   UNL     1       9.180  -9.837   9.572  1.00  0.00    -0.354 N 
ATOM     52  N   UNL     1       6.371  -9.978  10.390  1.00  0.00    -0.248 NA
ATOM     53  C   UNL     1       4.615 -11.098  11.442  1.00  0.00     0.031 C 
ATOM     54  C   UNL     1      10.540 -11.486  10.179  1.00  0.00     0.029 A 
ATOM     55  C   UNL     1       9.232 -11.039  10.263  1.00  0.00     0.049 A 
ATOM     56  H   UNL     1       8.371  -9.289   9.452  1.00  0.00     0.167 HD
ATOM     57  C   UNL     1       6.855 -11.148  10.960  1.00  0.00     0.074 A 
ATOM     58  C   UNL     1       5.737 -11.776  11.632  1.00  0.00     0.031 C 
ATOM     59  C   UNL     1       8.112 -11.656  10.929  1.00  0.00     0.037 A 
BRANCH  46  60
ATOM     60  C   UNL     1      12.137  -8.195   7.759  1.00  0.00     0.064 A 
ATOM     61  C   UNL     1      12.990  -7.183   8.229  1.00  0.00     0.173 A 
ATOM     62  C   UNL     1      12.649  -9.088   6.805  1.00  0.00     0.173 A 
ATOM     63  F   UNL     1      12.550  -6.295   9.133  1.00  0.00    -0.203 F 
ATOM     64  C   UNL     1      14.288  -7.052   7.741  1.00  0.00     0.198 A 
ATOM     65  C   UNL     1      13.960  -8.976   6.346  1.00  0.00     0.198 A 
ATOM     66  F   UNL     1      11.883 -10.078   6.325  1.00  0.00    -0.203 F 
ATOM     67  F   UNL     1      15.063  -6.045   8.167  1.00  0.00    -0.200 F 
ATOM     68  C   UNL     1      14.774  -7.953   6.807  1.00  0.00     0.200 A 
ATOM     69  F   UNL     1      14.433  -9.858   5.454  1.00  0.00    -0.200 F 
ATOM     70  F   UNL     1      16.027  -7.833   6.346  1.00  0.00    -0.200 F 
ENDBRANCH  46  60
BRANCH  47  71
ATOM     71  C   UNL     1       2.662  -9.019  10.796  1.00  0.00     0.064 A 
ATOM     72  C   UNL     1       2.325  -8.983  12.157  1.00  0.00     0.173 A 
ATOM     73  C   UNL     1       1.622  -9.203   9.873  1.00  0.00     0.173 A 
ATOM     74  F   UNL     1       3.285  -8.829  13.081  1.00  0.00    -0.203 F 
ATOM     75  C   UNL     1       1.008  -9.153  12.578  1.00  0.00     0.198 A 
ATOM     76  C   UNL     1       0.301  -9.338  10.294  1.00  0.00     0.198 A 
ATOM     77  F   UNL     1       1.889  -9.239   8.559  1.00  0.00    -0.203 F 
ATOM     78  F   UNL     1       0.723  -9.170  13.888  1.00  0.00    -0.200 F 
ATOM     79  C   UNL     1      -0.004  -9.324  11.646  1.00  0.00     0.200 A 
ATOM     80  F   UNL     1      -0.676  -9.487   9.389  1.00  0.00    -0.200 F 
ATOM     81  F   UNL     1      -1.271  -9.485  12.052  1.00  0.00    -0.200 F 
ENDBRANCH  47  71
BRANCH  59  82
ATOM     82  C   UNL     1       8.351 -12.937  11.680  1.00  0.00     0.064 A 
ATOM     83  C   UNL     1       7.792 -14.156  11.268  1.00  0.00     0.173 A 
ATOM     84  C   UNL     1       9.154 -12.943  12.832  1.00  0.00     0.173 A 
ATOM     85  F   UNL     1       7.006 -14.205  10.181  1.00  0.00    -0.203 F 
ATOM     86  C   UNL     1       7.987 -15.320  12.006  1.00  0.00     0.198 A 
ATOM     87  C   UNL     1       9.380 -14.117  13.545  1.00  0.00     0.198 A 
ATOM     88  F   UNL     1       9.724 -11.808  13.266  1.00  0.00    -0.203 F 
ATOM     89  F   UNL     1       7.381 -16.457  11.633  1.00  0.00    -0.200 F 
ATOM     90  C   UNL     1       8.784 -15.301  13.140  1.00  0.00     0.200 A 
ATOM     91  F   UNL     1      10.165 -14.099  14.631  1.00  0.00    -0.200 F 
ATOM     92  F   UNL     1       8.969 -16.422  13.851  1.00  0.00    -0.200 F 
ENDBRANCH  59  82
ENDBRANCH  33  34
ENDBRANCH  25  28
ENDBRANCH  23  24
ENDBRANCH  22  23
ENDBRANCH   1  22
TORSDOF 13
