REMARK SMILES O=C(NCCCNC(=O)c1cc2ccccc2cc1NS(=O)(=O)c1ccccc1Br)c1ccc(-c2c3nc(c(-c4c(F)c(F)c(F)c(F)c4F)c4ccc([nH]4)c(-c4c(F)c(F)c(F)c(F)c4F)c4nc(c(-c5c(F)c(F)c(F)c(F)c5F)c5ccc2[nH]5)C=C4)C=C3)cc1
REMARK SMILES IDX 5 1 4 2 3 3 1 4 2 5 31 7 32 8 93 9 33 10 92 11 34 12 35 13
REMARK SMILES IDX 36 14 86 15 37 16 91 17 85 18 87 19 38 20 90 21 84 22 83 23
REMARK SMILES IDX 39 25 71 26 51 27 70 28 52 29 55 30 69 31 88 32 53 33 54 34
REMARK SMILES IDX 68 36 89 37 56 38 40 39 41 40 49 41 42 42 43 43 47 44 50 45
REMARK SMILES IDX 44 46 45 47 48 48 46 49 72 50 73 51 81 52 74 53 75 54 79 55
REMARK SMILES IDX 82 56 76 57 77 58 80 59 78 60 57 61 58 62 66 63 59 64 60 65
REMARK SMILES IDX 64 66 67 67 61 68 62 69 65 70 63 71 6 72 7 73 8 74 9 76
REMARK SMILES IDX 10 77 11 78 19 79 12 80 18 81 13 82 17 83 14 84 16 85 15 86
REMARK SMILES IDX 20 87 21 89 22 90 23 91 24 92 25 93 29 94 26 95 28 96 30 97
REMARK SMILES IDX 27 98
REMARK H PARENT 3 6 87 24 55 35 7 75 20 88
REMARK Flexibility Score: inf
ROOT
ATOM      1  C   UNL     1       5.110   2.281   0.928  1.00  0.00     0.042 C 
ENDROOT
BRANCH   1   2
ATOM      2  C   UNL     1       4.642   0.852   1.128  1.00  0.00     0.118 C 
BRANCH   2   3
ATOM      3  N   UNL     1       3.199   0.695   0.995  1.00  0.00    -0.352 N 
ATOM      4  O   UNL     1       1.249   0.120   0.015  1.00  0.00    -0.269 OA
ATOM      5  C   UNL     1       2.471   0.016   0.050  1.00  0.00     0.251 C 
ATOM      6  H   UNL     1       2.664   1.146   1.688  1.00  0.00     0.163 HD
BRANCH   5   7
ATOM      7  C   UNL     1       3.164  -0.837  -0.936  1.00  0.00     0.039 A 
ATOM      8  C   UNL     1       4.201  -1.680  -0.534  1.00  0.00     0.014 A 
ATOM      9  C   UNL     1       2.755  -0.813  -2.272  1.00  0.00     0.014 A 
ATOM     10  C   UNL     1       4.927  -2.384  -1.482  1.00  0.00     0.010 A 
ATOM     11  C   UNL     1       3.413  -1.611  -3.211  1.00  0.00     0.010 A 
ATOM     12  C   UNL     1       4.511  -2.393  -2.822  1.00  0.00    -0.014 A 
BRANCH  12  13
ATOM     13  C   UNL     1       5.150  -3.346  -3.760  1.00  0.00     0.031 A 
ATOM     14  C   UNL     1       5.920  -2.874  -4.957  1.00  0.00     0.074 A 
ATOM     15  C   UNL     1       5.009  -4.663  -3.506  1.00  0.00     0.049 A 
ATOM     16  N   UNL     1       6.502  -3.586  -5.889  1.00  0.00    -0.248 NA
ATOM     17  C   UNL     1       6.053  -1.421  -5.141  1.00  0.00     0.031 C 
ATOM     18  C   UNL     1       4.264  -5.226  -2.375  1.00  0.00     0.029 A 
ATOM     19  N   UNL     1       5.479  -5.766  -4.171  1.00  0.00    -0.354 N 
ATOM     20  C   UNL     1       7.047  -2.673  -6.781  1.00  0.00     0.074 A 
ATOM     21  C   UNL     1       6.721  -1.352  -6.286  1.00  0.00     0.031 C 
ATOM     22  C   UNL     1       4.349  -6.562  -2.410  1.00  0.00     0.029 A 
ATOM     23  C   UNL     1       5.080  -6.953  -3.607  1.00  0.00     0.049 A 
ATOM     24  H   UNL     1       6.047  -5.712  -4.974  1.00  0.00     0.167 HD
ATOM     25  C   UNL     1       7.752  -2.928  -7.908  1.00  0.00     0.037 A 
ATOM     26  C   UNL     1       5.240  -8.219  -4.032  1.00  0.00     0.037 A 
ATOM     27  C   UNL     1       8.086  -4.252  -8.371  1.00  0.00     0.049 A 
ATOM     28  C   UNL     1       5.991  -8.459  -5.309  1.00  0.00     0.074 A 
ATOM     29  C   UNL     1       8.869  -4.612  -9.454  1.00  0.00     0.029 A 
ATOM     30  N   UNL     1       7.642  -5.431  -7.790  1.00  0.00    -0.354 N 
ATOM     31  N   UNL     1       6.570  -7.590  -6.101  1.00  0.00    -0.248 NA
ATOM     32  C   UNL     1       6.104  -9.852  -5.758  1.00  0.00     0.031 C 
ATOM     33  C   UNL     1       8.840  -6.004  -9.571  1.00  0.00     0.029 A 
ATOM     34  C   UNL     1       8.091  -6.517  -8.525  1.00  0.00     0.049 A 
ATOM     35  H   UNL     1       7.091  -5.488  -6.976  1.00  0.00     0.167 HD
ATOM     36  C   UNL     1       7.122  -8.329  -7.136  1.00  0.00     0.074 A 
ATOM     37  C   UNL     1       6.839  -9.721  -6.853  1.00  0.00     0.031 C 
ATOM     38  C   UNL     1       7.794  -7.895  -8.229  1.00  0.00     0.037 A 
BRANCH  25  39
ATOM     39  C   UNL     1       8.200  -1.770  -8.751  1.00  0.00     0.064 A 
ATOM     40  C   UNL     1       9.250  -0.928  -8.358  1.00  0.00     0.173 A 
ATOM     41  C   UNL     1       7.640  -1.571 -10.024  1.00  0.00     0.173 A 
ATOM     42  F   UNL     1       9.816  -1.072  -7.151  1.00  0.00    -0.203 F 
ATOM     43  C   UNL     1       9.720   0.072  -9.207  1.00  0.00     0.198 A 
ATOM     44  C   UNL     1       8.130  -0.588 -10.879  1.00  0.00     0.198 A 
ATOM     45  F   UNL     1       6.639  -2.355 -10.451  1.00  0.00    -0.203 F 
ATOM     46  F   UNL     1      10.714   0.877  -8.805  1.00  0.00    -0.200 F 
ATOM     47  C   UNL     1       9.169   0.233 -10.470  1.00  0.00     0.200 A 
ATOM     48  F   UNL     1       7.607  -0.446 -12.104  1.00  0.00    -0.200 F 
ATOM     49  F   UNL     1       9.641   1.179 -11.294  1.00  0.00    -0.200 F 
ENDBRANCH  25  39
BRANCH  26  50
ATOM     50  C   UNL     1       4.627  -9.342  -3.275  1.00  0.00     0.064 A 
ATOM     51  C   UNL     1       5.418 -10.320  -2.659  1.00  0.00     0.173 A 
ATOM     52  C   UNL     1       3.233  -9.470  -3.172  1.00  0.00     0.173 A 
ATOM     53  F   UNL     1       6.754 -10.252  -2.743  1.00  0.00    -0.203 F 
ATOM     54  C   UNL     1       4.838 -11.402  -1.999  1.00  0.00     0.198 A 
ATOM     55  C   UNL     1       2.655 -10.530  -2.478  1.00  0.00     0.198 A 
ATOM     56  F   UNL     1       2.429  -8.557  -3.737  1.00  0.00    -0.203 F 
ATOM     57  F   UNL     1       5.616 -12.357  -1.474  1.00  0.00    -0.200 F 
ATOM     58  C   UNL     1       3.458 -11.502  -1.904  1.00  0.00     0.200 A 
ATOM     59  F   UNL     1       1.322 -10.610  -2.372  1.00  0.00    -0.200 F 
ATOM     60  F   UNL     1       2.901 -12.544  -1.270  1.00  0.00    -0.200 F 
ENDBRANCH  26  50
BRANCH  38  61
ATOM     61  C   UNL     1       8.274  -8.938  -9.194  1.00  0.00     0.064 A 
ATOM     62  C   UNL     1       7.379  -9.637 -10.017  1.00  0.00     0.173 A 
ATOM     63  C   UNL     1       9.643  -9.210  -9.327  1.00  0.00     0.173 A 
ATOM     64  F   UNL     1       6.059  -9.427  -9.912  1.00  0.00    -0.203 F 
ATOM     65  C   UNL     1       7.838 -10.586 -10.926  1.00  0.00     0.198 A 
ATOM     66  C   UNL     1      10.101 -10.136 -10.261  1.00  0.00     0.198 A 
ATOM     67  F   UNL     1      10.539  -8.566  -8.565  1.00  0.00    -0.203 F 
ATOM     68  F   UNL     1       6.962 -11.276 -11.669  1.00  0.00    -0.200 F 
ATOM     69  C   UNL     1       9.198 -10.827 -11.054  1.00  0.00     0.200 A 
ATOM     70  F   UNL     1      11.416 -10.357 -10.394  1.00  0.00    -0.200 F 
ATOM     71  F   UNL     1       9.638 -11.732 -11.939  1.00  0.00    -0.200 F 
ENDBRANCH  38  61
ENDBRANCH  12  13
ENDBRANCH   5   7
ENDBRANCH   2   3
ENDBRANCH   1   2
BRANCH   1  72
ATOM     72  C   UNL     1       4.568   3.245   1.963  1.00  0.00     0.118 C 
BRANCH  72  73
ATOM     73  N   UNL     1       4.958   2.924   3.318  1.00  0.00    -0.352 N 
ATOM     74  C   UNL     1       5.697   3.664   4.198  1.00  0.00     0.253 C 
ATOM     75  H   UNL     1       4.649   2.052   3.654  1.00  0.00     0.163 HD
ATOM     76  O   UNL     1       6.069   3.151   5.250  1.00  0.00    -0.269 OA
BRANCH  74  77
ATOM     77  C   UNL     1       6.080   5.059   3.900  1.00  0.00     0.064 A 
ATOM     78  C   UNL     1       7.461   5.326   3.984  1.00  0.00     0.024 A 
ATOM     79  C   UNL     1       5.162   6.107   3.709  1.00  0.00     0.062 A 
ATOM     80  C   UNL     1       7.955   6.633   3.864  1.00  0.00    -0.017 A 
ATOM     81  C   UNL     1       5.664   7.412   3.723  1.00  0.00     0.036 A 
ATOM     82  C   UNL     1       9.328   6.925   3.907  1.00  0.00     0.009 A 
ATOM     83  C   UNL     1       7.037   7.690   3.727  1.00  0.00    -0.016 A 
ATOM     84  C   UNL     1       9.781   8.240   3.776  1.00  0.00     0.001 A 
ATOM     85  C   UNL     1       7.504   9.007   3.599  1.00  0.00     0.009 A 
ATOM     86  C   UNL     1       8.870   9.279   3.611  1.00  0.00     0.001 A 
BRANCH  79  87
ATOM     87  N   UNL     1       3.726   5.936   3.668  1.00  0.00    -0.279 N 
ATOM     88  H   UNL     1       3.273   5.515   4.434  1.00  0.00     0.180 HD
BRANCH  87  89
ATOM     89  S   UNL     1       2.788   6.446   2.320  1.00  0.00     0.263 S 
ATOM     90  O   UNL     1       2.931   5.484   1.256  1.00  0.00    -0.201 OA
ATOM     91  O   UNL     1       1.459   6.675   2.861  1.00  0.00    -0.201 OA
BRANCH  89  92
ATOM     92  C   UNL     1       3.412   8.008   1.758  1.00  0.00     0.101 A 
ATOM     93  C   UNL     1       2.793   9.159   2.279  1.00  0.00     0.023 A 
ATOM     94  C   UNL     1       4.479   8.144   0.857  1.00  0.00     0.038 A 
ATOM     95  C   UNL     1       3.284  10.427   1.972  1.00  0.00     0.001 A 
ATOM     96  C   UNL     1       4.969   9.426   0.568  1.00  0.00     0.017 A 
ATOM     97  Br  UNL     1       5.425   6.723   0.022  1.00  0.00    -0.049 Br
ATOM     98  C   UNL     1       4.384  10.559   1.132  1.00  0.00     0.001 A 
ENDBRANCH  89  92
ENDBRANCH  87  89
ENDBRANCH  79  87
ENDBRANCH  74  77
ENDBRANCH  72  73
ENDBRANCH   1  72
TORSDOF 13
