REMARK SMILES CC(C)c1noc(C[N@H+]2CCCC[C@H]2C(=O)NCCCNC(=O)c2ccc(-c3c4nc(c(-c5c(F)c(F)c(F)c(F)c5F)c5ccc([nH]5)c(-c5c(F)c(F)c(F)c(F)c5F)c5nc(c(-c6c(F)c(F)c(F)c(F)c6F)c6ccc3[nH]6)C=C5)C=C4)cc2)n1
REMARK SMILES IDX 18 1 17 2 15 3 16 4 14 6 9 7 10 8 11 10 13 11 12 12 8 13
REMARK SMILES IDX 7 14 4 15 5 16 87 17 6 18 2 19 1 20 3 21 19 22 20 23 21 24
REMARK SMILES IDX 22 25 23 27 24 28 25 29 86 30 26 31 85 32 27 33 28 34 29 35
REMARK SMILES IDX 79 36 30 37 84 38 78 39 80 40 31 41 83 42 77 43 76 44 32 46
REMARK SMILES IDX 64 47 44 48 63 49 45 50 48 51 62 52 81 53 46 54 47 55 61 57
REMARK SMILES IDX 82 58 49 59 33 60 34 61 42 62 35 63 36 64 40 65 43 66 37 67
REMARK SMILES IDX 38 68 41 69 39 70 65 71 66 72 74 73 67 74 68 75 72 76 75 77
REMARK SMILES IDX 69 78 70 79 73 80 71 81 50 82 51 83 59 84 52 85 53 86 57 87
REMARK SMILES IDX 60 88 54 89 55 90 58 91 56 92
REMARK H PARENT 17 5 9 9 21 26 80 45 48 56
REMARK Flexibility Score: inf
ROOT
ATOM      1  C   UNL     1      -5.159   4.549   0.221  1.00  0.00     0.118 C 
ENDROOT
BRANCH   1   2
ATOM      2  N   UNL     1      -4.040   3.679   0.508  1.00  0.00    -0.351 N 
ATOM      3  C   UNL     1      -4.041   2.474   1.143  1.00  0.00     0.278 C 
ATOM      4  O   UNL     1      -3.037   2.195   1.798  1.00  0.00    -0.268 OA
ATOM      5  H   UNL     1      -3.160   4.001   0.205  1.00  0.00     0.163 HD
BRANCH   3   6
ATOM      6  C   UNL     1      -5.259   1.532   0.965  1.00  0.00     0.274 C 
ATOM      7  N   UNL     1      -4.894   0.101   0.800  1.00  0.00    -0.317 N 
ATOM      8  C   UNL     1      -4.268  -0.495   1.982  1.00  0.00     0.263 C 
ATOM      9  H   UNL     1      -5.799  -0.361   0.712  1.00  0.00     0.349 HD
ATOM     10  C   UNL     1      -5.148  -0.324   3.226  1.00  0.00     0.062 C 
ATOM     11  C   UNL     1      -6.222   1.681   2.147  1.00  0.00     0.076 C 
ATOM     12  C   UNL     1      -5.633   1.108   3.433  1.00  0.00     0.012 C 
BRANCH   7  13
ATOM     13  C   UNL     1      -4.205  -0.231  -0.465  1.00  0.00     0.364 C 
BRANCH  13  14
ATOM     14  C   UNL     1      -2.886   0.411  -0.730  1.00  0.00     0.281 A 
ATOM     15  C   UNL     1      -0.916   1.107  -0.841  1.00  0.00     0.174 A 
ATOM     16  N   UNL     1      -1.608   2.035  -1.520  1.00  0.00    -0.062 NA
ATOM     17  N   UNL     1      -1.673   0.066  -0.358  1.00  0.00    -0.191 NA
ATOM     18  O   UNL     1      -2.915   1.558  -1.472  1.00  0.00    -0.333 OA
BRANCH  15  19
ATOM     19  C   UNL     1       0.562   1.217  -0.634  1.00  0.00     0.055 C 
ATOM     20  C   UNL     1       1.148   0.002   0.088  1.00  0.00     0.016 C 
ATOM     21  C   UNL     1       1.296   1.430  -1.962  1.00  0.00     0.016 C 
ENDBRANCH  15  19
ENDBRANCH  13  14
ENDBRANCH   7  13
ENDBRANCH   3   6
ENDBRANCH   1   2
BRANCH   1  22
ATOM     22  C   UNL     1      -5.292   5.616   1.308  1.00  0.00     0.042 C 
BRANCH  22  23
ATOM     23  C   UNL     1      -4.032   6.453   1.532  1.00  0.00     0.118 C 
BRANCH  23  24
ATOM     24  N   UNL     1      -3.631   7.208   0.355  1.00  0.00    -0.352 N 
ATOM     25  C   UNL     1      -3.343   8.543   0.225  1.00  0.00     0.251 C 
ATOM     26  H   UNL     1      -3.556   6.682  -0.473  1.00  0.00     0.163 HD
ATOM     27  O   UNL     1      -3.170   9.023  -0.894  1.00  0.00    -0.269 OA
BRANCH  25  28
ATOM     28  C   UNL     1      -3.270   9.418   1.415  1.00  0.00     0.039 A 
ATOM     29  C   UNL     1      -3.871  10.678   1.353  1.00  0.00     0.014 A 
ATOM     30  C   UNL     1      -2.605   9.019   2.577  1.00  0.00     0.014 A 
ATOM     31  C   UNL     1      -3.865  11.508   2.477  1.00  0.00     0.010 A 
ATOM     32  C   UNL     1      -2.661   9.817   3.720  1.00  0.00     0.010 A 
ATOM     33  C   UNL     1      -3.296  11.068   3.684  1.00  0.00    -0.014 A 
BRANCH  33  34
ATOM     34  C   UNL     1      -3.382  11.899   4.914  1.00  0.00     0.031 A 
ATOM     35  C   UNL     1      -2.138  12.436   5.566  1.00  0.00     0.074 A 
ATOM     36  C   UNL     1      -4.588  12.135   5.471  1.00  0.00     0.049 A 
ATOM     37  N   UNL     1      -2.017  13.141   6.664  1.00  0.00    -0.248 NA
ATOM     38  C   UNL     1      -0.858  12.126   4.911  1.00  0.00     0.031 C 
ATOM     39  C   UNL     1      -5.866  11.637   4.960  1.00  0.00     0.029 A 
ATOM     40  N   UNL     1      -4.935  12.847   6.593  1.00  0.00    -0.354 N 
ATOM     41  C   UNL     1      -0.655  13.355   6.830  1.00  0.00     0.074 A 
ATOM     42  C   UNL     1       0.016  12.659   5.754  1.00  0.00     0.031 C 
ATOM     43  C   UNL     1      -6.858  12.079   5.749  1.00  0.00     0.029 A 
ATOM     44  C   UNL     1      -6.286  12.852   6.847  1.00  0.00     0.049 A 
ATOM     45  H   UNL     1      -4.279  13.311   7.161  1.00  0.00     0.167 HD
ATOM     46  C   UNL     1      -0.023  14.086   7.780  1.00  0.00     0.037 A 
ATOM     47  C   UNL     1      -6.984  13.406   7.857  1.00  0.00     0.037 A 
ATOM     48  C   UNL     1      -0.692  14.789   8.845  1.00  0.00     0.049 A 
ATOM     49  C   UNL     1      -6.249  14.184   8.917  1.00  0.00     0.074 A 
ATOM     50  C   UNL     1      -0.139  15.589   9.830  1.00  0.00     0.029 A 
ATOM     51  N   UNL     1      -2.060  14.771   9.068  1.00  0.00    -0.354 N 
ATOM     52  N   UNL     1      -4.967  14.436   9.022  1.00  0.00    -0.248 NA
ATOM     53  C   UNL     1      -7.062  14.762   9.996  1.00  0.00     0.031 C 
ATOM     54  C   UNL     1      -1.166  16.012  10.680  1.00  0.00     0.029 A 
ATOM     55  C   UNL     1      -2.367  15.527  10.189  1.00  0.00     0.049 A 
ATOM     56  H   UNL     1      -2.717  14.293   8.512  1.00  0.00     0.167 HD
ATOM     57  C   UNL     1      -4.825  15.227  10.155  1.00  0.00     0.074 A 
ATOM     58  C   UNL     1      -6.154  15.432  10.690  1.00  0.00     0.031 C 
ATOM     59  C   UNL     1      -3.696  15.736  10.704  1.00  0.00     0.037 A 
BRANCH  46  60
ATOM     60  C   UNL     1       1.475  14.178   7.711  1.00  0.00     0.064 A 
ATOM     61  C   UNL     1       2.120  14.902   6.697  1.00  0.00     0.173 A 
ATOM     62  C   UNL     1       2.273  13.595   8.707  1.00  0.00     0.173 A 
ATOM     63  F   UNL     1       1.405  15.473   5.715  1.00  0.00    -0.203 F 
ATOM     64  C   UNL     1       3.507  15.022   6.671  1.00  0.00     0.198 A 
ATOM     65  C   UNL     1       3.658  13.742   8.695  1.00  0.00     0.198 A 
ATOM     66  F   UNL     1       1.709  12.898   9.705  1.00  0.00    -0.203 F 
ATOM     67  F   UNL     1       4.102  15.685   5.670  1.00  0.00    -0.200 F 
ATOM     68  C   UNL     1       4.274  14.451   7.675  1.00  0.00     0.200 A 
ATOM     69  F   UNL     1       4.396  13.205   9.676  1.00  0.00    -0.200 F 
ATOM     70  F   UNL     1       5.608  14.581   7.658  1.00  0.00    -0.200 F 
ENDBRANCH  46  60
BRANCH  47  71
ATOM     71  C   UNL     1      -8.463  13.255   7.922  1.00  0.00     0.064 A 
ATOM     72  C   UNL     1      -9.309  14.365   7.787  1.00  0.00     0.173 A 
ATOM     73  C   UNL     1      -9.060  12.008   8.162  1.00  0.00     0.173 A 
ATOM     74  F   UNL     1      -8.788  15.583   7.577  1.00  0.00    -0.203 F 
ATOM     75  C   UNL     1     -10.690  14.241   7.929  1.00  0.00     0.198 A 
ATOM     76  C   UNL     1     -10.443  11.879   8.267  1.00  0.00     0.198 A 
ATOM     77  F   UNL     1      -8.298  10.912   8.293  1.00  0.00    -0.203 F 
ATOM     78  F   UNL     1     -11.468  15.330   7.865  1.00  0.00    -0.200 F 
ATOM     79  C   UNL     1     -11.256  12.998   8.165  1.00  0.00     0.200 A 
ATOM     80  F   UNL     1     -10.987  10.673   8.479  1.00  0.00    -0.200 F 
ATOM     81  F   UNL     1     -12.583  12.879   8.307  1.00  0.00    -0.200 F 
ENDBRANCH  47  71
BRANCH  59  82
ATOM     82  C   UNL     1      -3.850  16.605  11.921  1.00  0.00     0.064 A 
ATOM     83  C   UNL     1      -4.245  16.079  13.160  1.00  0.00     0.173 A 
ATOM     84  C   UNL     1      -3.573  17.979  11.850  1.00  0.00     0.173 A 
ATOM     85  F   UNL     1      -4.537  14.775  13.279  1.00  0.00    -0.203 F 
ATOM     86  C   UNL     1      -4.390  16.903  14.274  1.00  0.00     0.198 A 
ATOM     87  C   UNL     1      -3.684  18.793  12.974  1.00  0.00     0.198 A 
ATOM     88  F   UNL     1      -3.184  18.532  10.692  1.00  0.00    -0.203 F 
ATOM     89  F   UNL     1      -4.826  16.389  15.432  1.00  0.00    -0.200 F 
ATOM     90  C   UNL     1      -4.102  18.256  14.182  1.00  0.00     0.200 A 
ATOM     91  F   UNL     1      -3.389  20.097  12.887  1.00  0.00    -0.200 F 
ATOM     92  F   UNL     1      -4.237  19.046  15.257  1.00  0.00    -0.200 F 
ENDBRANCH  59  82
ENDBRANCH  33  34
ENDBRANCH  25  28
ENDBRANCH  23  24
ENDBRANCH  22  23
ENDBRANCH   1  22
TORSDOF 13
