REMARK SMILES CC(=O)Nc1ccc(/C=C2/CCc3oc(C(=O)NCCCNC(=O)c4ccc(-c5c6nc(c(-c7c(F)c(F)c(F)c(F)c7F)c7ccc([nH]7)c(-c7c(F)c(F)c(F)c(F)c7F)c7nc(c(-c8c(F)c(F)c(F)c(F)c8F)c8ccc5[nH]8)C=C7)C=C6)cc4)c(C)c3C2=O)cc1
REMARK SMILES IDX 20 1 19 2 18 3 16 4 17 5 15 7 9 8 10 9 11 10 91 11 12 12
REMARK SMILES IDX 90 13 92 14 13 15 88 16 14 17 89 18 8 19 5 20 6 21 94 22
REMARK SMILES IDX 7 23 93 24 4 25 1 26 2 27 3 28 21 30 22 31 23 32 24 34 25 35
REMARK SMILES IDX 26 36 87 37 27 38 86 39 28 40 29 41 30 42 80 43 31 44 85 45
REMARK SMILES IDX 79 46 81 47 32 48 84 49 78 50 77 51 33 53 65 54 45 55 64 56
REMARK SMILES IDX 46 57 49 58 63 59 82 60 47 61 48 62 62 64 83 65 50 66 34 67
REMARK SMILES IDX 35 68 43 69 36 70 37 71 41 72 44 73 38 74 39 75 42 76 40 77
REMARK SMILES IDX 66 78 67 79 75 80 68 81 69 82 73 83 76 84 70 85 71 86 74 87
REMARK SMILES IDX 72 88 51 89 52 90 60 91 53 92 54 93 58 94 61 95 55 96 56 97
REMARK SMILES IDX 59 98 57 99
REMARK H PARENT 18 6 4 29 22 33 81 52 49 63
REMARK Flexibility Score: inf
ROOT
ATOM      1  C   UNL     1       3.768  13.603   1.482  1.00  0.00     0.042 C 
ENDROOT
BRANCH   1   2
ATOM      2  C   UNL     1       2.409  12.922   1.283  1.00  0.00     0.118 C 
BRANCH   2   3
ATOM      3  N   UNL     1       1.965  12.939  -0.106  1.00  0.00    -0.349 N 
ATOM      4  C   UNL     1       2.056  11.990  -1.104  1.00  0.00     0.287 C 
ATOM      5  O   UNL     1       1.504  12.277  -2.169  1.00  0.00    -0.266 OA
ATOM      6  H   UNL     1       1.522  13.775  -0.380  1.00  0.00     0.163 HD
BRANCH   4   7
ATOM      7  C   UNL     1       2.757  10.734  -0.887  1.00  0.00     0.195 A 
ATOM      8  C   UNL     1       4.417   5.383   0.415  1.00  0.00     0.016 C 
ATOM      9  C   UNL     1       4.676   6.660   0.074  1.00  0.00     0.001 C 
ATOM     10  C   UNL     1       5.509   7.570   0.966  1.00  0.00     0.048 C 
ATOM     11  C   UNL     1       4.123   7.311  -1.173  1.00  0.00     0.192 C 
ATOM     12  C   UNL     1       4.703   8.797   1.423  1.00  0.00     0.081 C 
ATOM     13  C   UNL     1       3.668   8.665  -0.919  1.00  0.00     0.067 A 
ATOM     14  O   UNL     1       4.063   6.762  -2.267  1.00  0.00    -0.289 OA
ATOM     15  C   UNL     1       3.964   9.312   0.253  1.00  0.00     0.116 A 
ATOM     16  C   UNL     1       2.868   9.580  -1.673  1.00  0.00     0.012 A 
ATOM     17  O   UNL     1       3.466  10.557   0.273  1.00  0.00    -0.455 OA
ATOM     18  C   UNL     1       2.256   9.296  -3.000  1.00  0.00     0.049 C 
BRANCH   8  19
ATOM     19  C   UNL     1       3.525   4.411  -0.237  1.00  0.00    -0.025 A 
ATOM     20  C   UNL     1       1.782   2.456  -1.285  1.00  0.00     0.041 A 
ATOM     21  C   UNL     1       1.462   3.809  -1.376  1.00  0.00     0.027 A 
ATOM     22  C   UNL     1       2.992   2.082  -0.702  1.00  0.00     0.027 A 
ATOM     23  C   UNL     1       2.303   4.772  -0.814  1.00  0.00     0.010 A 
ATOM     24  C   UNL     1       3.859   3.053  -0.186  1.00  0.00     0.010 A 
BRANCH  20  25
ATOM     25  N   UNL     1       0.872   1.544  -1.834  1.00  0.00    -0.326 N 
ATOM     26  C   UNL     1       1.004  -0.233  -0.106  1.00  0.00     0.114 C 
ATOM     27  C   UNL     1       0.566   0.267  -1.457  1.00  0.00     0.221 C 
ATOM     28  O   UNL     1      -0.140  -0.427  -2.191  1.00  0.00    -0.275 OA
ATOM     29  H   UNL     1       0.373   1.876  -2.615  1.00  0.00     0.169 HD
ENDBRANCH  20  25
ENDBRANCH   8  19
ENDBRANCH   4   7
ENDBRANCH   2   3
ENDBRANCH   1   2
BRANCH   1  30
ATOM     30  C   UNL     1       3.639  15.120   1.472  1.00  0.00     0.118 C 
BRANCH  30  31
ATOM     31  N   UNL     1       2.929  15.648   2.646  1.00  0.00    -0.352 N 
ATOM     32  C   UNL     1       2.628  16.962   2.959  1.00  0.00     0.251 C 
ATOM     33  H   UNL     1       2.628  14.976   3.299  1.00  0.00     0.163 HD
ATOM     34  O   UNL     1       2.317  17.283   4.100  1.00  0.00    -0.269 OA
BRANCH  32  35
ATOM     35  C   UNL     1       2.695  17.977   1.894  1.00  0.00     0.039 A 
ATOM     36  C   UNL     1       3.204  19.258   2.121  1.00  0.00     0.014 A 
ATOM     37  C   UNL     1       2.281  17.599   0.623  1.00  0.00     0.014 A 
ATOM     38  C   UNL     1       3.377  20.110   1.032  1.00  0.00     0.010 A 
ATOM     39  C   UNL     1       2.655  18.343  -0.461  1.00  0.00     0.010 A 
ATOM     40  C   UNL     1       3.128  19.630  -0.267  1.00  0.00    -0.014 A 
BRANCH  40  41
ATOM     41  C   UNL     1       3.438  20.429  -1.446  1.00  0.00     0.031 A 
ATOM     42  C   UNL     1       4.811  21.000  -1.461  1.00  0.00     0.074 A 
ATOM     43  C   UNL     1       2.636  20.501  -2.532  1.00  0.00     0.049 A 
ATOM     44  N   UNL     1       5.140  22.246  -1.375  1.00  0.00    -0.248 NA
ATOM     45  C   UNL     1       5.957  20.078  -1.436  1.00  0.00     0.031 C 
ATOM     46  C   UNL     1       1.398  19.768  -2.826  1.00  0.00     0.029 A 
ATOM     47  N   UNL     1       2.825  21.216  -3.673  1.00  0.00    -0.354 N 
ATOM     48  C   UNL     1       6.527  22.290  -1.468  1.00  0.00     0.074 A 
ATOM     49  C   UNL     1       6.982  20.929  -1.342  1.00  0.00     0.031 C 
ATOM     50  C   UNL     1       1.086  19.899  -4.135  1.00  0.00     0.029 A 
ATOM     51  C   UNL     1       1.985  20.871  -4.726  1.00  0.00     0.049 A 
ATOM     52  H   UNL     1       3.505  21.924  -3.749  1.00  0.00     0.167 HD
ATOM     53  C   UNL     1       7.160  23.427  -1.870  1.00  0.00     0.037 A 
ATOM     54  C   UNL     1       2.038  21.353  -5.992  1.00  0.00     0.037 A 
ATOM     55  C   UNL     1       6.287  24.571  -1.756  1.00  0.00     0.049 A 
ATOM     56  C   UNL     1       2.790  22.631  -5.935  1.00  0.00     0.074 A 
ATOM     57  C   UNL     1       5.609  25.168  -0.710  1.00  0.00     0.029 A 
ATOM     58  N   UNL     1       5.684  25.044  -2.896  1.00  0.00    -0.354 N 
ATOM     59  N   UNL     1       2.340  23.709  -5.357  1.00  0.00    -0.248 NA
ATOM     60  C   UNL     1       4.233  22.566  -6.111  1.00  0.00     0.031 C 
ATOM     61  C   UNL     1       4.340  25.532  -1.254  1.00  0.00     0.029 A 
ATOM     62  C   UNL     1       4.352  25.209  -2.611  1.00  0.00     0.049 A 
ATOM     63  H   UNL     1       6.125  25.230  -3.756  1.00  0.00     0.167 HD
ATOM     64  C   UNL     1       3.443  24.242  -4.708  1.00  0.00     0.074 A 
ATOM     65  C   UNL     1       4.595  23.541  -5.273  1.00  0.00     0.031 C 
ATOM     66  C   UNL     1       3.300  24.986  -3.573  1.00  0.00     0.037 A 
BRANCH  53  67
ATOM     67  C   UNL     1       8.413  23.457  -2.713  1.00  0.00     0.064 A 
ATOM     68  C   UNL     1       9.017  24.701  -2.994  1.00  0.00     0.173 A 
ATOM     69  C   UNL     1       8.859  22.376  -3.504  1.00  0.00     0.173 A 
ATOM     70  F   UNL     1       8.666  25.801  -2.310  1.00  0.00    -0.203 F 
ATOM     71  C   UNL     1       9.917  24.865  -4.050  1.00  0.00     0.198 A 
ATOM     72  C   UNL     1       9.798  22.534  -4.522  1.00  0.00     0.198 A 
ATOM     73  F   UNL     1       8.330  21.152  -3.407  1.00  0.00    -0.203 F 
ATOM     74  F   UNL     1      10.355  26.091  -4.365  1.00  0.00    -0.200 F 
ATOM     75  C   UNL     1      10.299  23.782  -4.820  1.00  0.00     0.200 A 
ATOM     76  F   UNL     1      10.143  21.474  -5.267  1.00  0.00    -0.200 F 
ATOM     77  F   UNL     1      11.106  23.947  -5.875  1.00  0.00    -0.200 F 
ENDBRANCH  53  67
BRANCH  54  78
ATOM     78  C   UNL     1       1.758  20.668  -7.276  1.00  0.00     0.064 A 
ATOM     79  C   UNL     1       1.636  21.405  -8.467  1.00  0.00     0.173 A 
ATOM     80  C   UNL     1       1.924  19.277  -7.415  1.00  0.00     0.173 A 
ATOM     81  F   UNL     1       1.506  22.739  -8.424  1.00  0.00    -0.203 F 
ATOM     82  C   UNL     1       1.732  20.796  -9.722  1.00  0.00     0.198 A 
ATOM     83  C   UNL     1       2.014  18.669  -8.670  1.00  0.00     0.198 A 
ATOM     84  F   UNL     1       2.107  18.496  -6.341  1.00  0.00    -0.203 F 
ATOM     85  F   UNL     1       1.693  21.545 -10.833  1.00  0.00    -0.200 F 
ATOM     86  C   UNL     1       1.938  19.431  -9.822  1.00  0.00     0.200 A 
ATOM     87  F   UNL     1       2.249  17.352  -8.755  1.00  0.00    -0.200 F 
ATOM     88  F   UNL     1       2.109  18.857 -11.021  1.00  0.00    -0.200 F 
ENDBRANCH  54  78
BRANCH  66  89
ATOM     89  C   UNL     1       1.912  25.416  -3.183  1.00  0.00     0.064 A 
ATOM     90  C   UNL     1       0.868  24.529  -2.862  1.00  0.00     0.173 A 
ATOM     91  C   UNL     1       1.669  26.783  -3.000  1.00  0.00     0.173 A 
ATOM     92  F   UNL     1       1.046  23.204  -2.913  1.00  0.00    -0.203 F 
ATOM     93  C   UNL     1      -0.372  24.995  -2.425  1.00  0.00     0.198 A 
ATOM     94  C   UNL     1       0.444  27.244  -2.528  1.00  0.00     0.198 A 
ATOM     95  F   UNL     1       2.643  27.675  -3.238  1.00  0.00    -0.203 F 
ATOM     96  F   UNL     1      -1.355  24.128  -2.140  1.00  0.00    -0.200 F 
ATOM     97  C   UNL     1      -0.580  26.353  -2.252  1.00  0.00     0.200 A 
ATOM     98  F   UNL     1       0.264  28.555  -2.316  1.00  0.00    -0.200 F 
ATOM     99  F   UNL     1      -1.758  26.801  -1.795  1.00  0.00    -0.200 F 
ENDBRANCH  66  89
ENDBRANCH  40  41
ENDBRANCH  32  35
ENDBRANCH  30  31
ENDBRANCH   1  30
TORSDOF 12
