REMARK SMILES CC(C)C[C@H](CNC(=O)c1ccc(O)cc1O)C(=O)NCCCNC(=O)c1ccc(-c2c3nc(c(-c4c(F)c(F)c(F)c(F)c4F)c4ccc([nH]4)c(-c4c(F)c(F)c(F)c(F)c4F)c4nc(c(-c5c(F)c(F)c(F)c(F)c5F)c5ccc2[nH]5)C=C4)C=C3)cc1
REMARK SMILES IDX 21 1 20 2 18 3 19 4 5 6 4 7 2 8 1 9 3 10 6 11 7 12 8 13 9 15
REMARK SMILES IDX 10 16 11 17 16 18 12 19 15 20 13 21 17 22 14 24 22 26 23 27
REMARK SMILES IDX 24 28 25 29 26 31 27 32 28 33 89 34 29 35 88 36 30 37 31 38
REMARK SMILES IDX 32 39 82 40 33 41 87 42 81 43 83 44 34 45 86 46 80 47 79 48
REMARK SMILES IDX 35 50 67 51 47 52 66 53 48 54 51 55 65 56 84 57 49 58 50 59
REMARK SMILES IDX 64 61 85 62 52 63 36 64 37 65 45 66 38 67 39 68 43 69 46 70
REMARK SMILES IDX 40 71 41 72 44 73 42 74 68 75 69 76 77 77 70 78 71 79 75 80
REMARK SMILES IDX 78 81 72 82 73 83 76 84 74 85 53 86 54 87 62 88 55 89 56 90
REMARK SMILES IDX 60 91 63 92 57 93 58 94 61 95 59 96
REMARK H PARENT 20 5 7 14 17 23 14 25 24 30 83 49 51 60
REMARK Flexibility Score: inf
ROOT
ATOM      1  C   UNL     1      -3.369  -2.074   3.047  1.00  0.00     0.117 C 
ENDROOT
BRANCH   1   2
ATOM      2  N   UNL     1      -3.758  -1.614   1.730  1.00  0.00    -0.356 N 
ATOM      3  C   UNL     1      -3.026  -1.347   0.623  1.00  0.00     0.224 C 
ATOM      4  O   UNL     1      -3.638  -0.898  -0.351  1.00  0.00    -0.275 OA
ATOM      5  H   UNL     1      -4.726  -1.471   1.620  1.00  0.00     0.163 HD
BRANCH   3   6
ATOM      6  C   UNL     1      -1.515  -1.528   0.553  1.00  0.00     0.098 C 
BRANCH   6   7
ATOM      7  C   UNL     1      -0.916  -2.889   0.966  1.00  0.00     0.018 C 
BRANCH   7   8
ATOM      8  C   UNL     1      -1.812  -4.139   0.828  1.00  0.00    -0.017 C 
ATOM      9  C   UNL     1      -2.280  -4.405  -0.600  1.00  0.00     0.007 C 
ATOM     10  C   UNL     1      -1.077  -5.364   1.382  1.00  0.00     0.007 C 
ENDBRANCH   7   8
ENDBRANCH   6   7
BRANCH   6  11
ATOM     11  C   UNL     1      -0.794  -0.296   1.146  1.00  0.00     0.129 C 
BRANCH  11  12
ATOM     12  N   UNL     1      -0.568  -0.355   2.586  1.00  0.00    -0.351 N 
ATOM     13  C   UNL     1       0.609  -0.390   3.284  1.00  0.00     0.255 C 
ATOM     14  H   UNL     1      -1.383  -0.371   3.138  1.00  0.00     0.163 HD
ATOM     15  O   UNL     1       0.643  -0.829   4.429  1.00  0.00    -0.269 OA
BRANCH  13  16
ATOM     16  C   UNL     1       1.849   0.077   2.651  1.00  0.00     0.081 A 
ATOM     17  C   UNL     1       1.871   1.321   2.009  1.00  0.00     0.021 A 
ATOM     18  C   UNL     1       3.006  -0.703   2.724  1.00  0.00     0.132 A 
ATOM     19  C   UNL     1       3.033   1.747   1.367  1.00  0.00     0.047 A 
ATOM     20  C   UNL     1       4.160  -0.286   2.070  1.00  0.00     0.093 A 
ATOM     21  C   UNL     1       4.160   0.929   1.388  1.00  0.00     0.119 A 
BRANCH  18  22
ATOM     22  O   UNL     1       3.062  -1.881   3.417  1.00  0.00    -0.507 OA
ATOM     23  H   UNL     1       2.304  -2.193   3.871  1.00  0.00     0.293 HD
ENDBRANCH  18  22
BRANCH  21  24
ATOM     24  O   UNL     1       5.305   1.298   0.746  1.00  0.00    -0.508 OA
ATOM     25  H   UNL     1       5.339   2.109   0.278  1.00  0.00     0.293 HD
ENDBRANCH  21  24
ENDBRANCH  13  16
ENDBRANCH  11  12
ENDBRANCH   6  11
ENDBRANCH   3   6
ENDBRANCH   1   2
BRANCH   1  26
ATOM     26  C   UNL     1      -3.635  -1.006   4.095  1.00  0.00     0.042 C 
BRANCH  26  27
ATOM     27  C   UNL     1      -5.112  -0.812   4.377  1.00  0.00     0.118 C 
BRANCH  27  28
ATOM     28  N   UNL     1      -5.712  -1.986   4.989  1.00  0.00    -0.352 N 
ATOM     29  C   UNL     1      -6.318  -2.125   6.211  1.00  0.00     0.251 C 
ATOM     30  H   UNL     1      -5.679  -2.805   4.444  1.00  0.00     0.163 HD
ATOM     31  O   UNL     1      -6.560  -3.245   6.647  1.00  0.00    -0.269 OA
BRANCH  29  32
ATOM     32  C   UNL     1      -6.666  -0.928   7.005  1.00  0.00     0.039 A 
ATOM     33  C   UNL     1      -6.518  -0.978   8.392  1.00  0.00     0.014 A 
ATOM     34  C   UNL     1      -7.155   0.229   6.393  1.00  0.00     0.014 A 
ATOM     35  C   UNL     1      -6.821   0.148   9.156  1.00  0.00     0.010 A 
ATOM     36  C   UNL     1      -7.347   1.383   7.141  1.00  0.00     0.010 A 
ATOM     37  C   UNL     1      -7.209   1.347   8.533  1.00  0.00    -0.014 A 
BRANCH  37  38
ATOM     38  C   UNL     1      -7.500   2.557   9.338  1.00  0.00     0.031 A 
ATOM     39  C   UNL     1      -8.880   3.156   9.335  1.00  0.00     0.074 A 
ATOM     40  C   UNL     1      -6.509   3.130  10.046  1.00  0.00     0.049 A 
ATOM     41  N   UNL     1      -9.333   4.192   9.995  1.00  0.00    -0.248 NA
ATOM     42  C   UNL     1      -9.877   2.530   8.451  1.00  0.00     0.031 C 
ATOM     43  C   UNL     1      -5.114   2.683  10.062  1.00  0.00     0.029 A 
ATOM     44  N   UNL     1      -6.523   4.205  10.896  1.00  0.00    -0.354 N 
ATOM     45  C   UNL     1     -10.655   4.344   9.598  1.00  0.00     0.074 A 
ATOM     46  C   UNL     1     -10.914   3.342   8.589  1.00  0.00     0.031 C 
ATOM     47  C   UNL     1      -4.418   3.447  10.918  1.00  0.00     0.029 A 
ATOM     48  C   UNL     1      -5.309   4.453  11.487  1.00  0.00     0.049 A 
ATOM     49  H   UNL     1      -7.327   4.748  11.066  1.00  0.00     0.167 HD
ATOM     50  C   UNL     1     -11.580   5.219  10.059  1.00  0.00     0.037 A 
ATOM     51  C   UNL     1      -4.961   5.379  12.399  1.00  0.00     0.037 A 
ATOM     52  C   UNL     1     -11.321   6.195  11.084  1.00  0.00     0.049 A 
ATOM     53  C   UNL     1      -6.017   6.313  12.923  1.00  0.00     0.074 A 
ATOM     54  C   UNL     1     -12.199   7.093  11.666  1.00  0.00     0.029 A 
ATOM     55  N   UNL     1     -10.086   6.398  11.682  1.00  0.00    -0.354 N 
ATOM     56  N   UNL     1      -7.285   6.395  12.601  1.00  0.00    -0.248 NA
ATOM     57  C   UNL     1      -5.595   7.271  13.953  1.00  0.00     0.031 C 
ATOM     58  C   UNL     1     -11.484   7.868  12.585  1.00  0.00     0.029 A 
ATOM     59  C   UNL     1     -10.174   7.418  12.617  1.00  0.00     0.049 A 
ATOM     60  H   UNL     1      -9.267   5.893  11.473  1.00  0.00     0.167 HD
ATOM     61  C   UNL     1      -7.819   7.392  13.405  1.00  0.00     0.074 A 
ATOM     62  C   UNL     1      -6.740   7.868  14.247  1.00  0.00     0.031 C 
ATOM     63  C   UNL     1      -9.086   7.875  13.443  1.00  0.00     0.037 A 
BRANCH  50  64
ATOM     64  C   UNL     1     -12.958   5.150   9.463  1.00  0.00     0.064 A 
ATOM     65  C   UNL     1     -13.808   4.057   9.696  1.00  0.00     0.173 A 
ATOM     66  C   UNL     1     -13.447   6.200   8.671  1.00  0.00     0.173 A 
ATOM     67  F   UNL     1     -13.385   3.019  10.434  1.00  0.00    -0.203 F 
ATOM     68  C   UNL     1     -15.080   4.003   9.133  1.00  0.00     0.198 A 
ATOM     69  C   UNL     1     -14.732   6.158   8.136  1.00  0.00     0.198 A 
ATOM     70  F   UNL     1     -12.679   7.270   8.417  1.00  0.00    -0.203 F 
ATOM     71  F   UNL     1     -15.851   2.923   9.325  1.00  0.00    -0.200 F 
ATOM     72  C   UNL     1     -15.544   5.056   8.361  1.00  0.00     0.200 A 
ATOM     73  F   UNL     1     -15.184   7.182   7.400  1.00  0.00    -0.200 F 
ATOM     74  F   UNL     1     -16.772   5.006   7.825  1.00  0.00    -0.200 F 
ENDBRANCH  50  64
BRANCH  51  75
ATOM     75  C   UNL     1      -3.567   5.429  12.911  1.00  0.00     0.064 A 
ATOM     76  C   UNL     1      -3.271   5.061  14.232  1.00  0.00     0.173 A 
ATOM     77  C   UNL     1      -2.504   5.842  12.096  1.00  0.00     0.173 A 
ATOM     78  F   UNL     1      -4.257   4.674  15.055  1.00  0.00    -0.203 F 
ATOM     79  C   UNL     1      -1.970   5.129  14.724  1.00  0.00     0.198 A 
ATOM     80  C   UNL     1      -1.198   5.881  12.581  1.00  0.00     0.198 A 
ATOM     81  F   UNL     1      -2.732   6.195  10.822  1.00  0.00    -0.203 F 
ATOM     82  F   UNL     1      -1.724   4.818  16.004  1.00  0.00    -0.200 F 
ATOM     83  C   UNL     1      -0.933   5.533  13.897  1.00  0.00     0.200 A 
ATOM     84  F   UNL     1      -0.197   6.256  11.773  1.00  0.00    -0.200 F 
ATOM     85  F   UNL     1       0.319   5.595  14.370  1.00  0.00    -0.200 F 
ENDBRANCH  51  75
BRANCH  63  86
ATOM     86  C   UNL     1      -9.372   8.950  14.451  1.00  0.00     0.064 A 
ATOM     87  C   UNL     1      -8.849  10.245  14.318  1.00  0.00     0.173 A 
ATOM     88  C   UNL     1     -10.185   8.680  15.563  1.00  0.00     0.173 A 
ATOM     89  F   UNL     1      -8.055  10.549  13.280  1.00  0.00    -0.203 F 
ATOM     90  C   UNL     1      -9.091  11.216  15.285  1.00  0.00     0.198 A 
ATOM     91  C   UNL     1     -10.454   9.665  16.509  1.00  0.00     0.198 A 
ATOM     92  F   UNL     1     -10.719   7.462  15.732  1.00  0.00    -0.203 F 
ATOM     93  F   UNL     1      -8.524  12.426  15.172  1.00  0.00    -0.200 F 
ATOM     94  C   UNL     1      -9.896  10.928  16.377  1.00  0.00     0.200 A 
ATOM     95  F   UNL     1     -11.244   9.389  17.555  1.00  0.00    -0.200 F 
ATOM     96  F   UNL     1     -10.125  11.863  17.308  1.00  0.00    -0.200 F 
ENDBRANCH  63  86
ENDBRANCH  37  38
ENDBRANCH  29  32
ENDBRANCH  27  28
ENDBRANCH  26  27
ENDBRANCH   1  26
TORSDOF 17
