REMARK SMILES CC[C@H](C)c1ccc(N2C(=O)NC(=O)/C(=C/c3ccc(-c4ccc(C(=O)NCCCNC(=O)c5ccc(-c6c7nc(c(-c8c(F)c(F)c(F)c(F)c8F)c8ccc([nH]8)c(-c8c(F)c(F)c(F)c(F)c8F)c8nc(c(-c9c(F)c(F)c(F)c(F)c9F)c9ccc6[nH]9)C=C8)C=C7)cc5)cc4)o3)C2=O)cc1
REMARK SMILES IDX 25 1 26 2 27 3 24 5 21 6 22 7 98 8 23 9 97 10 20 11 17 12
REMARK SMILES IDX 18 13 99 14 19 15 16 16 9 17 10 18 100 19 11 20 12 21 15 22
REMARK SMILES IDX 101 23 13 24 14 26 8 27 5 28 6 29 103 30 7 31 102 32 3 33
REMARK SMILES IDX 4 34 2 35 1 36 28 37 29 38 30 39 31 40 32 41 33 43 34 44
REMARK SMILES IDX 35 45 96 46 36 47 95 48 37 49 38 50 39 51 89 52 40 53 94 54
REMARK SMILES IDX 88 55 90 56 41 57 93 58 87 59 86 60 42 62 74 63 54 64 73 65
REMARK SMILES IDX 55 66 58 67 72 68 91 69 56 70 57 71 71 73 92 74 59 75 43 76
REMARK SMILES IDX 44 77 52 78 45 79 46 80 50 81 53 82 47 83 48 84 51 85 49 86
REMARK SMILES IDX 75 87 76 88 84 89 77 90 78 91 82 92 85 93 79 94 80 95 83 96
REMARK SMILES IDX 81 97 60 98 61 99 69 100 62 101 63 102 67 103 70 104 64 105
REMARK SMILES IDX 65 106 68 107 66 108
REMARK H PARENT 27 4 12 25 31 42 90 61 58 72
REMARK Flexibility Score: inf
ROOT
ATOM      1  C   UNL     1      -8.170   4.785   9.806  1.00  0.00     0.251 C 
ATOM      2  O   UNL     1      -7.581   5.803  10.170  1.00  0.00    -0.269 OA
ATOM      3  N   UNL     1      -9.509   4.889   9.517  1.00  0.00    -0.352 N 
ATOM      4  H   UNL     1      -9.893   5.776   9.705  1.00  0.00     0.163 HD
ENDROOT
BRANCH   1   5
ATOM      5  C   UNL     1      -7.406   3.517   9.654  1.00  0.00     0.039 A 
ATOM      6  C   UNL     1      -5.885   1.189   9.228  1.00  0.00     0.017 A 
ATOM      7  C   UNL     1      -5.277   2.443   9.141  1.00  0.00     0.013 A 
ATOM      8  C   UNL     1      -7.230   1.103   9.587  1.00  0.00     0.013 A 
ATOM      9  C   UNL     1      -6.038   3.602   9.346  1.00  0.00     0.014 A 
ATOM     10  C   UNL     1      -7.972   2.255   9.831  1.00  0.00     0.014 A 
BRANCH   6  11
ATOM     11  C   UNL     1      -5.191  -0.037   8.910  1.00  0.00     0.134 A 
ATOM     12  C   UNL     1      -3.755  -1.657   9.338  1.00  0.00     0.128 A 
ATOM     13  C   UNL     1      -4.486  -2.023   8.212  1.00  0.00     0.051 A 
ATOM     14  O   UNL     1      -4.226  -0.442   9.776  1.00  0.00    -0.457 OA
ATOM     15  C   UNL     1      -5.381  -0.975   7.923  1.00  0.00     0.051 A 
BRANCH  12  16
ATOM     16  C   UNL     1      -2.687  -2.360   9.954  1.00  0.00     0.066 C 
ATOM     17  N   UNL     1       0.029  -2.353   7.439  1.00  0.00    -0.228 N 
ATOM     18  C   UNL     1       0.813  -3.381   7.954  1.00  0.00     0.335 C 
ATOM     19  C   UNL     1      -1.099  -1.844   8.089  1.00  0.00     0.272 C 
ATOM     20  O   UNL     1       1.785  -3.897   7.403  1.00  0.00    -0.247 OA
ATOM     21  N   UNL     1       0.499  -3.821   9.214  1.00  0.00    -0.273 N 
ATOM     22  C   UNL     1      -1.488  -2.519   9.357  1.00  0.00     0.109 C 
ATOM     23  O   UNL     1      -1.772  -0.909   7.657  1.00  0.00    -0.268 OA
ATOM     24  C   UNL     1      -0.554  -3.457   9.996  1.00  0.00     0.265 C 
ATOM     25  H   UNL     1       1.113  -4.486   9.602  1.00  0.00     0.175 HD
ATOM     26  O   UNL     1      -0.715  -3.929  11.116  1.00  0.00    -0.269 OA
BRANCH  17  27
ATOM     27  C   UNL     1       0.381  -1.761   6.174  1.00  0.00     0.054 A 
ATOM     28  C   UNL     1       0.875  -0.541   3.634  1.00  0.00    -0.045 A 
ATOM     29  C   UNL     1       0.586   0.225   4.769  1.00  0.00     0.006 A 
ATOM     30  C   UNL     1       0.967  -1.933   3.817  1.00  0.00     0.006 A 
ATOM     31  C   UNL     1       0.334  -0.372   6.007  1.00  0.00     0.027 A 
ATOM     32  C   UNL     1       0.733  -2.535   5.066  1.00  0.00     0.027 A 
BRANCH  28  33
ATOM     33  C   UNL     1       1.189   0.134   2.296  1.00  0.00     0.016 C 
ATOM     34  C   UNL     1       1.064  -0.792   1.075  1.00  0.00     0.013 C 
BRANCH  33  35
ATOM     35  C   UNL     1       0.422   1.456   2.015  1.00  0.00     0.004 C 
ATOM     36  C   UNL     1      -1.051   1.286   1.666  1.00  0.00     0.004 C 
ENDBRANCH  33  35
ENDBRANCH  28  33
ENDBRANCH  17  27
ENDBRANCH  12  16
ENDBRANCH   6  11
ENDBRANCH   1   5
BRANCH   3  37
ATOM     37  C   UNL     1     -10.464   3.932   8.983  1.00  0.00     0.118 C 
BRANCH  37  38
ATOM     38  C   UNL     1     -11.336   3.339  10.091  1.00  0.00     0.042 C 
BRANCH  38  39
ATOM     39  C   UNL     1     -12.411   4.295  10.594  1.00  0.00     0.118 C 
BRANCH  39  40
ATOM     40  N   UNL     1     -13.445   4.522   9.596  1.00  0.00    -0.352 N 
ATOM     41  C   UNL     1     -14.796   4.294   9.655  1.00  0.00     0.251 C 
ATOM     42  H   UNL     1     -13.125   4.898   8.745  1.00  0.00     0.163 HD
ATOM     43  O   UNL     1     -15.460   4.332   8.623  1.00  0.00    -0.269 OA
BRANCH  41  44
ATOM     44  C   UNL     1     -15.460   3.994  10.943  1.00  0.00     0.039 A 
ATOM     45  C   UNL     1     -16.487   3.046  10.960  1.00  0.00     0.014 A 
ATOM     46  C   UNL     1     -15.117   4.672  12.115  1.00  0.00     0.014 A 
ATOM     47  C   UNL     1     -17.133   2.741  12.160  1.00  0.00     0.010 A 
ATOM     48  C   UNL     1     -15.709   4.316  13.325  1.00  0.00     0.010 A 
ATOM     49  C   UNL     1     -16.726   3.351  13.358  1.00  0.00    -0.014 A 
BRANCH  49  50
ATOM     50  C   UNL     1     -17.346   2.978  14.655  1.00  0.00     0.031 A 
ATOM     51  C   UNL     1     -18.126   3.989  15.446  1.00  0.00     0.074 A 
ATOM     52  C   UNL     1     -17.142   1.742  15.151  1.00  0.00     0.049 A 
ATOM     53  N   UNL     1     -18.684   3.866  16.625  1.00  0.00    -0.248 NA
ATOM     54  C   UNL     1     -18.276   5.323  14.847  1.00  0.00     0.031 C 
ATOM     55  C   UNL     1     -16.355   0.693  14.501  1.00  0.00     0.029 A 
ATOM     56  N   UNL     1     -17.563   1.165  16.323  1.00  0.00    -0.354 N 
ATOM     57  C   UNL     1     -19.233   5.109  16.915  1.00  0.00     0.074 A 
ATOM     58  C   UNL     1     -18.900   5.984  15.812  1.00  0.00     0.031 C 
ATOM     59  C   UNL     1     -16.363  -0.404  15.274  1.00  0.00     0.029 A 
ATOM     60  C   UNL     1     -17.118  -0.123  16.491  1.00  0.00     0.049 A 
ATOM     61  H   UNL     1     -18.129   1.631  16.980  1.00  0.00     0.167 HD
ATOM     62  C   UNL     1     -19.962   5.478  17.995  1.00  0.00     0.037 A 
ATOM     63  C   UNL     1     -17.289  -0.978  17.516  1.00  0.00     0.037 A 
ATOM     64  C   UNL     1     -20.307   4.593  19.078  1.00  0.00     0.049 A 
ATOM     65  C   UNL     1     -18.106  -0.547  18.702  1.00  0.00     0.074 A 
ATOM     66  C   UNL     1     -21.110   4.845  20.176  1.00  0.00     0.029 A 
ATOM     67  N   UNL     1     -19.856   3.287  19.205  1.00  0.00    -0.354 N 
ATOM     68  N   UNL     1     -18.695   0.603  18.926  1.00  0.00    -0.248 NA
ATOM     69  C   UNL     1     -18.289  -1.534  19.775  1.00  0.00     0.031 C 
ATOM     70  C   UNL     1     -21.098   3.712  20.997  1.00  0.00     0.029 A 
ATOM     71  C   UNL     1     -20.336   2.732  20.381  1.00  0.00     0.049 A 
ATOM     72  H   UNL     1     -19.280   2.822  18.555  1.00  0.00     0.167 HD
ATOM     73  C   UNL     1     -19.333   0.474  20.151  1.00  0.00     0.074 A 
ATOM     74  C   UNL     1     -19.076  -0.875  20.614  1.00  0.00     0.031 C 
ATOM     75  C   UNL     1     -20.066   1.389  20.832  1.00  0.00     0.037 A 
BRANCH  62  76
ATOM     76  C   UNL     1     -20.430   6.904  18.065  1.00  0.00     0.064 A 
ATOM     77  C   UNL     1     -21.400   7.410  17.185  1.00  0.00     0.173 A 
ATOM     78  C   UNL     1     -19.923   7.771  19.045  1.00  0.00     0.173 A 
ATOM     79  F   UNL     1     -21.913   6.628  16.223  1.00  0.00    -0.203 F 
ATOM     80  C   UNL     1     -21.816   8.737  17.261  1.00  0.00     0.198 A 
ATOM     81  C   UNL     1     -20.366   9.088  19.140  1.00  0.00     0.198 A 
ATOM     82  F   UNL     1     -19.000   7.339  19.918  1.00  0.00    -0.203 F 
ATOM     83  F   UNL     1     -22.701   9.212  16.374  1.00  0.00    -0.200 F 
ATOM     84  C   UNL     1     -21.304   9.573  18.242  1.00  0.00     0.200 A 
ATOM     85  F   UNL     1     -19.881   9.889  20.099  1.00  0.00    -0.200 F 
ATOM     86  F   UNL     1     -21.709  10.848  18.317  1.00  0.00    -0.200 F 
ENDBRANCH  62  76
BRANCH  63  87
ATOM     87  C   UNL     1     -16.682  -2.333  17.452  1.00  0.00     0.064 A 
ATOM     88  C   UNL     1     -17.480  -3.475  17.301  1.00  0.00     0.173 A 
ATOM     89  C   UNL     1     -15.292  -2.512  17.518  1.00  0.00     0.173 A 
ATOM     90  F   UNL     1     -18.815  -3.357  17.251  1.00  0.00    -0.203 F 
ATOM     91  C   UNL     1     -16.912  -4.746  17.234  1.00  0.00     0.198 A 
ATOM     92  C   UNL     1     -14.724  -3.780  17.421  1.00  0.00     0.198 A 
ATOM     93  F   UNL     1     -14.484  -1.450  17.654  1.00  0.00    -0.203 F 
ATOM     94  F   UNL     1     -17.700  -5.824  17.128  1.00  0.00    -0.200 F 
ATOM     95  C   UNL     1     -15.534  -4.897  17.286  1.00  0.00     0.200 A 
ATOM     96  F   UNL     1     -13.391  -3.919  17.453  1.00  0.00    -0.200 F 
ATOM     97  F   UNL     1     -14.988  -6.118  17.209  1.00  0.00    -0.200 F 
ENDBRANCH  63  87
BRANCH  75  98
ATOM     98  C   UNL     1     -20.658   0.958  22.143  1.00  0.00     0.064 A 
ATOM     99  C   UNL     1     -19.861   0.744  23.277  1.00  0.00     0.173 A 
ATOM    100  C   UNL     1     -22.046   0.793  22.276  1.00  0.00     0.173 A 
ATOM    101  F   UNL     1     -18.527   0.872  23.199  1.00  0.00    -0.203 F 
ATOM    102  C   UNL     1     -20.428   0.355  24.488  1.00  0.00     0.198 A 
ATOM    103  C   UNL     1     -22.612   0.437  23.497  1.00  0.00     0.198 A 
ATOM    104  F   UNL     1     -22.855   0.992  21.224  1.00  0.00    -0.203 F 
ATOM    105  F   UNL     1     -19.641   0.107  25.545  1.00  0.00    -0.200 F 
ATOM    106  C   UNL     1     -21.803   0.211  24.599  1.00  0.00     0.200 A 
ATOM    107  F   UNL     1     -23.942   0.312  23.606  1.00  0.00    -0.200 F 
ATOM    108  F   UNL     1     -22.347  -0.155  25.768  1.00  0.00    -0.200 F 
ENDBRANCH  75  98
ENDBRANCH  49  50
ENDBRANCH  41  44
ENDBRANCH  39  40
ENDBRANCH  38  39
ENDBRANCH  37  38
ENDBRANCH   3  37
TORSDOF 15
