REMARK SMILES C[N@H+]1C[C@@H](Oc2cccc3cccnc23)C[C@H]1C(=O)NCCCNC(=O)c1ccc(-c2c3nc(c(-c4c(F)c(F)c(F)c(F)c4F)c4ccc([nH]4)c(-c4c(F)c(F)c(F)c(F)c4F)c4nc(c(-c5c(F)c(F)c(F)c(F)c5F)c5ccc2[nH]5)C=C4)C=C3)cc1
REMARK SMILES IDX 22 1 21 2 20 3 18 4 19 5 17 7 1 8 2 9 3 10 4 12 16 13 5 14
REMARK SMILES IDX 6 15 7 16 15 17 8 18 10 19 14 20 9 21 11 22 13 23 12 24
REMARK SMILES IDX 23 25 24 26 25 27 26 29 27 30 28 31 89 32 29 33 88 34 30 35
REMARK SMILES IDX 31 36 32 37 82 38 33 39 87 40 81 41 83 42 34 43 86 44 80 45
REMARK SMILES IDX 79 46 35 48 67 49 47 50 66 51 48 52 51 53 65 54 84 55 49 56
REMARK SMILES IDX 50 57 64 59 85 60 52 61 36 62 37 63 45 64 38 65 39 66 43 67
REMARK SMILES IDX 46 68 40 69 41 70 44 71 42 72 68 73 69 74 77 75 70 76 71 77
REMARK SMILES IDX 75 78 78 79 72 80 73 81 76 82 74 83 53 84 54 85 62 86 55 87
REMARK SMILES IDX 56 88 60 89 63 90 57 91 58 92 61 93 59 94
REMARK H PARENT 20 6 2 11 24 28 83 47 51 58
REMARK Flexibility Score: inf
ROOT
ATOM      1  C   UNL     1      -0.933   1.645   3.109  1.00  0.00     0.042 C 
ENDROOT
BRANCH   1   2
ATOM      2  C   UNL     1      -0.120   0.387   2.850  1.00  0.00     0.118 C 
BRANCH   2   3
ATOM      3  N   UNL     1      -0.878  -0.781   2.488  1.00  0.00    -0.351 N 
ATOM      4  C   UNL     1      -0.801  -1.553   1.369  1.00  0.00     0.278 C 
ATOM      5  O   UNL     1      -1.262  -2.697   1.490  1.00  0.00    -0.268 OA
ATOM      6  H   UNL     1      -1.552  -1.064   3.147  1.00  0.00     0.163 HD
BRANCH   4   7
ATOM      7  C   UNL     1      -0.167  -1.137   0.015  1.00  0.00     0.278 C 
ATOM      8  C   UNL     1      -1.925   0.555  -0.439  1.00  0.00     0.333 C 
ATOM      9  N   UNL     1      -0.546   0.153  -0.559  1.00  0.00    -0.324 N 
ATOM     10  C   UNL     1       0.509   1.139  -0.352  1.00  0.00     0.308 C 
ATOM     11  H   UNL     1      -0.588   0.035  -1.572  1.00  0.00     0.348 HD
ATOM     12  C   UNL     1       1.807   0.303  -0.250  1.00  0.00     0.234 C 
ATOM     13  C   UNL     1       1.354  -1.149  -0.027  1.00  0.00     0.126 C 
BRANCH  12  14
ATOM     14  O   UNL     1       2.869   0.887   0.528  1.00  0.00    -0.482 OA
BRANCH  14  15
ATOM     15  C   UNL     1       3.023   0.668   1.875  1.00  0.00     0.146 A 
ATOM     16  C   UNL     1       3.337  -0.606   2.364  1.00  0.00     0.049 A 
ATOM     17  C   UNL     1       3.008   1.778   2.746  1.00  0.00     0.112 A 
ATOM     18  C   UNL     1       3.462  -0.838   3.731  1.00  0.00     0.005 A 
ATOM     19  C   UNL     1       3.212   1.531   4.129  1.00  0.00     0.004 A 
ATOM     20  N   UNL     1       2.799   3.040   2.299  1.00  0.00    -0.252 NA
ATOM     21  C   UNL     1       3.390   0.229   4.615  1.00  0.00     0.010 A 
ATOM     22  C   UNL     1       3.242   2.613   5.014  1.00  0.00     0.012 A 
ATOM     23  C   UNL     1       2.854   4.062   3.186  1.00  0.00     0.112 A 
ATOM     24  C   UNL     1       3.075   3.903   4.537  1.00  0.00     0.021 A 
ENDBRANCH  14  15
ENDBRANCH  12  14
ENDBRANCH   4   7
ENDBRANCH   2   3
ENDBRANCH   1   2
BRANCH   1  25
ATOM     25  C   UNL     1      -1.475   1.727   4.526  1.00  0.00     0.118 C 
BRANCH  25  26
ATOM     26  N   UNL     1      -0.420   1.851   5.530  1.00  0.00    -0.352 N 
ATOM     27  C   UNL     1      -0.112   2.885   6.376  1.00  0.00     0.251 C 
ATOM     28  H   UNL     1       0.164   1.062   5.613  1.00  0.00     0.163 HD
ATOM     29  O   UNL     1       0.888   2.838   7.083  1.00  0.00    -0.269 OA
BRANCH  27  30
ATOM     30  C   UNL     1      -0.988   4.067   6.448  1.00  0.00     0.039 A 
ATOM     31  C   UNL     1      -0.420   5.347   6.452  1.00  0.00     0.014 A 
ATOM     32  C   UNL     1      -2.368   3.904   6.569  1.00  0.00     0.014 A 
ATOM     33  C   UNL     1      -1.245   6.470   6.539  1.00  0.00     0.010 A 
ATOM     34  C   UNL     1      -3.191   5.017   6.573  1.00  0.00     0.010 A 
ATOM     35  C   UNL     1      -2.635   6.306   6.588  1.00  0.00    -0.014 A 
BRANCH  35  36
ATOM     36  C   UNL     1      -3.565   7.441   6.777  1.00  0.00     0.031 A 
ATOM     37  C   UNL     1      -4.360   7.495   8.049  1.00  0.00     0.074 A 
ATOM     38  C   UNL     1      -3.793   8.306   5.776  1.00  0.00     0.049 A 
ATOM     39  N   UNL     1      -5.432   8.185   8.333  1.00  0.00    -0.248 NA
ATOM     40  C   UNL     1      -3.917   6.594   9.126  1.00  0.00     0.031 C 
ATOM     41  C   UNL     1      -3.094   8.320   4.492  1.00  0.00     0.029 A 
ATOM     42  N   UNL     1      -4.715   9.314   5.670  1.00  0.00    -0.354 N 
ATOM     43  C   UNL     1      -5.827   7.753   9.593  1.00  0.00     0.074 A 
ATOM     44  C   UNL     1      -4.898   6.723  10.004  1.00  0.00     0.031 C 
ATOM     45  C   UNL     1      -3.620   9.285   3.720  1.00  0.00     0.029 A 
ATOM     46  C   UNL     1      -4.718   9.923   4.440  1.00  0.00     0.049 A 
ATOM     47  H   UNL     1      -5.316   9.577   6.405  1.00  0.00     0.167 HD
ATOM     48  C   UNL     1      -6.872   8.186  10.337  1.00  0.00     0.037 A 
ATOM     49  C   UNL     1      -5.539  10.869   3.949  1.00  0.00     0.037 A 
ATOM     50  C   UNL     1      -7.747   9.252   9.930  1.00  0.00     0.049 A 
ATOM     51  C   UNL     1      -6.647  11.392   4.822  1.00  0.00     0.074 A 
ATOM     52  C   UNL     1      -8.794   9.828  10.624  1.00  0.00     0.029 A 
ATOM     53  N   UNL     1      -7.657   9.914   8.712  1.00  0.00    -0.354 N 
ATOM     54  N   UNL     1      -7.009  10.997   6.019  1.00  0.00    -0.248 NA
ATOM     55  C   UNL     1      -7.455  12.490   4.280  1.00  0.00     0.031 C 
ATOM     56  C   UNL     1      -9.352  10.826   9.816  1.00  0.00     0.029 A 
ATOM     57  C   UNL     1      -8.630  10.895   8.634  1.00  0.00     0.049 A 
ATOM     58  H   UNL     1      -6.998   9.714   8.008  1.00  0.00     0.167 HD
ATOM     59  C   UNL     1      -8.075  11.806   6.383  1.00  0.00     0.074 A 
ATOM     60  C   UNL     1      -8.292  12.725   5.282  1.00  0.00     0.031 C 
ATOM     61  C   UNL     1      -8.812  11.793   7.521  1.00  0.00     0.037 A 
BRANCH  48  62
ATOM     62  C   UNL     1      -7.117   7.493  11.646  1.00  0.00     0.064 A 
ATOM     63  C   UNL     1      -6.229   7.612  12.727  1.00  0.00     0.173 A 
ATOM     64  C   UNL     1      -8.245   6.674  11.816  1.00  0.00     0.173 A 
ATOM     65  F   UNL     1      -5.126   8.367  12.613  1.00  0.00    -0.203 F 
ATOM     66  C   UNL     1      -6.434   6.902  13.907  1.00  0.00     0.198 A 
ATOM     67  C   UNL     1      -8.464   5.992  13.010  1.00  0.00     0.198 A 
ATOM     68  F   UNL     1      -9.128   6.524  10.817  1.00  0.00    -0.203 F 
ATOM     69  F   UNL     1      -5.532   6.976  14.896  1.00  0.00    -0.200 F 
ATOM     70  C   UNL     1      -7.553   6.096  14.049  1.00  0.00     0.200 A 
ATOM     71  F   UNL     1      -9.551   5.220  13.149  1.00  0.00    -0.200 F 
ATOM     72  F   UNL     1      -7.744   5.407  15.183  1.00  0.00    -0.200 F 
ENDBRANCH  48  62
BRANCH  49  73
ATOM     73  C   UNL     1      -5.316  11.389   2.577  1.00  0.00     0.064 A 
ATOM     74  C   UNL     1      -4.755  12.658   2.378  1.00  0.00     0.173 A 
ATOM     75  C   UNL     1      -5.603  10.616   1.443  1.00  0.00     0.173 A 
ATOM     76  F   UNL     1      -4.478  13.439   3.432  1.00  0.00    -0.203 F 
ATOM     77  C   UNL     1      -4.492  13.135   1.095  1.00  0.00     0.198 A 
ATOM     78  C   UNL     1      -5.321  11.086   0.162  1.00  0.00     0.198 A 
ATOM     79  F   UNL     1      -6.133   9.392   1.582  1.00  0.00    -0.203 F 
ATOM     80  F   UNL     1      -3.973  14.360   0.933  1.00  0.00    -0.200 F 
ATOM     81  C   UNL     1      -4.767  12.346  -0.011  1.00  0.00     0.200 A 
ATOM     82  F   UNL     1      -5.573  10.314  -0.904  1.00  0.00    -0.200 F 
ATOM     83  F   UNL     1      -4.497  12.799  -1.243  1.00  0.00    -0.200 F 
ENDBRANCH  49  73
BRANCH  61  84
ATOM     84  C   UNL     1      -9.899  12.817   7.638  1.00  0.00     0.064 A 
ATOM     85  C   UNL     1     -11.107  12.683   6.940  1.00  0.00     0.173 A 
ATOM     86  C   UNL     1      -9.747  13.915   8.497  1.00  0.00     0.173 A 
ATOM     87  F   UNL     1     -11.290  11.655   6.098  1.00  0.00    -0.203 F 
ATOM     88  C   UNL     1     -12.121  13.626   7.085  1.00  0.00     0.198 A 
ATOM     89  C   UNL     1     -10.771  14.843   8.656  1.00  0.00     0.198 A 
ATOM     90  F   UNL     1      -8.610  14.080   9.190  1.00  0.00    -0.203 F 
ATOM     91  F   UNL     1     -13.255  13.500   6.382  1.00  0.00    -0.200 F 
ATOM     92  C   UNL     1     -11.955  14.700   7.947  1.00  0.00     0.200 A 
ATOM     93  F   UNL     1     -10.614  15.875   9.496  1.00  0.00    -0.200 F 
ATOM     94  F   UNL     1     -12.935  15.603   8.089  1.00  0.00    -0.200 F 
ENDBRANCH  61  84
ENDBRANCH  35  36
ENDBRANCH  27  30
ENDBRANCH  25  26
ENDBRANCH   1  25
TORSDOF 12
