REMARK SMILES O=C(NCCCNC(=O)c1ccc(-c2c3nc(c(-c4c(F)c(F)c(F)c(F)c4F)c4ccc([nH]4)c(-c4c(F)c(F)c(F)c(F)c4F)c4nc(c(-c5c(F)c(F)c(F)c(F)c5F)c5ccc2[nH]5)C=C4)C=C3)cc1)C1=Cc2cc(OC(F)(F)F)ccc2O[C@@H]1C(F)(F)F
REMARK SMILES IDX 5 1 4 2 3 3 1 4 2 5 73 7 74 8 87 9 75 10 86 11 76 12 85 13
REMARK SMILES IDX 77 14 84 15 83 16 88 17 89 18 90 19 91 20 78 21 79 22 80 23
REMARK SMILES IDX 81 24 82 25 6 26 7 27 8 28 9 30 10 31 11 32 72 33 12 34
REMARK SMILES IDX 71 35 13 36 14 37 15 38 65 39 16 40 70 41 64 42 66 43 17 44
REMARK SMILES IDX 69 45 63 46 62 47 18 49 50 50 30 51 49 52 31 53 34 54 48 55
REMARK SMILES IDX 67 56 32 57 33 58 47 60 68 61 35 62 19 63 20 64 28 65 21 66
REMARK SMILES IDX 22 67 26 68 29 69 23 70 24 71 27 72 25 73 51 74 52 75 60 76
REMARK SMILES IDX 53 77 54 78 58 79 61 80 55 81 56 82 59 83 57 84 36 85 37 86
REMARK SMILES IDX 45 87 38 88 39 89 43 90 46 91 40 92 41 93 44 94 42 95
REMARK H PARENT 3 6 7 29 66 48 34 59
REMARK Flexibility Score: inf
ROOT
ATOM      1  C   UNL     1       3.971  -2.721   0.151  1.00  0.00     0.042 C 
ENDROOT
BRANCH   1   2
ATOM      2  C   UNL     1       3.147  -1.584  -0.446  1.00  0.00     0.118 C 
BRANCH   2   3
ATOM      3  N   UNL     1       2.191  -1.007   0.503  1.00  0.00    -0.352 N 
ATOM      4  O   UNL     1       1.142   0.606   1.697  1.00  0.00    -0.270 OA
ATOM      5  C   UNL     1       2.122   0.246   1.061  1.00  0.00     0.251 C 
ATOM      6  H   UNL     1       1.477  -1.622   0.788  1.00  0.00     0.163 HD
BRANCH   5   7
ATOM      7  C   UNL     1       3.257   1.151   0.818  1.00  0.00     0.067 C 
ATOM      8  C   UNL     1       4.396   0.899   1.475  1.00  0.00     0.025 C 
ATOM      9  C   UNL     1       3.192   2.021  -0.398  1.00  0.00     0.314 C 
ATOM     10  C   UNL     1       5.552   0.840   0.575  1.00  0.00     0.021 A 
ATOM     11  O   UNL     1       4.309   1.815  -1.298  1.00  0.00    -0.475 OA
ATOM     12  C   UNL     1       6.648   0.067   0.978  1.00  0.00     0.058 A 
ATOM     13  C   UNL     1       5.409   1.179  -0.779  1.00  0.00     0.128 A 
ATOM     14  C   UNL     1       7.525  -0.470   0.030  1.00  0.00     0.130 A 
ATOM     15  C   UNL     1       6.317   0.693  -1.717  1.00  0.00     0.051 A 
ATOM     16  C   UNL     1       7.354  -0.157  -1.318  1.00  0.00     0.050 A 
BRANCH   9  17
ATOM     17  C   UNL     1       3.079   3.501   0.005  1.00  0.00     0.429 C 
ATOM     18  F   UNL     1       2.848   4.284  -1.077  1.00  0.00    -0.167 F 
ATOM     19  F   UNL     1       2.055   3.712   0.865  1.00  0.00    -0.167 F 
ATOM     20  F   UNL     1       4.206   3.959   0.600  1.00  0.00    -0.167 F 
ENDBRANCH   9  17
BRANCH  14  21
ATOM     21  O   UNL     1       8.482  -1.294   0.549  1.00  0.00    -0.406 OA
BRANCH  21  22
ATOM     22  C   UNL     1       8.985  -2.318  -0.295  1.00  0.00     0.573 C 
ATOM     23  F   UNL     1       7.986  -3.099  -0.759  1.00  0.00    -0.132 F 
ATOM     24  F   UNL     1       9.686  -1.808  -1.328  1.00  0.00    -0.132 F 
ATOM     25  F   UNL     1       9.819  -3.098   0.430  1.00  0.00    -0.132 F 
ENDBRANCH  21  22
ENDBRANCH  14  21
ENDBRANCH   5   7
ENDBRANCH   2   3
ENDBRANCH   1   2
BRANCH   1  26
ATOM     26  C   UNL     1       4.021  -3.954  -0.745  1.00  0.00     0.118 C 
BRANCH  26  27
ATOM     27  N   UNL     1       4.666  -3.748  -2.035  1.00  0.00    -0.352 N 
ATOM     28  C   UNL     1       5.494  -4.582  -2.756  1.00  0.00     0.251 C 
ATOM     29  H   UNL     1       4.483  -2.878  -2.458  1.00  0.00     0.163 HD
ATOM     30  O   UNL     1       5.971  -4.184  -3.817  1.00  0.00    -0.269 OA
BRANCH  28  31
ATOM     31  C   UNL     1       5.856  -5.929  -2.249  1.00  0.00     0.039 A 
ATOM     32  C   UNL     1       7.150  -6.411  -2.475  1.00  0.00     0.014 A 
ATOM     33  C   UNL     1       4.951  -6.714  -1.535  1.00  0.00     0.014 A 
ATOM     34  C   UNL     1       7.553  -7.626  -1.911  1.00  0.00     0.010 A 
ATOM     35  C   UNL     1       5.391  -7.851  -0.865  1.00  0.00     0.010 A 
ATOM     36  C   UNL     1       6.692  -8.331  -1.053  1.00  0.00    -0.014 A 
BRANCH  36  37
ATOM     37  C   UNL     1       7.129  -9.572  -0.357  1.00  0.00     0.031 A 
ATOM     38  C   UNL     1       6.365 -10.858  -0.545  1.00  0.00     0.074 A 
ATOM     39  C   UNL     1       8.165  -9.524   0.505  1.00  0.00     0.049 A 
ATOM     40  N   UNL     1       6.551 -12.025   0.022  1.00  0.00    -0.248 NA
ATOM     41  C   UNL     1       5.206 -10.819  -1.452  1.00  0.00     0.031 C 
ATOM     42  C   UNL     1       8.926  -8.321   0.852  1.00  0.00     0.029 A 
ATOM     43  N   UNL     1       8.756 -10.512   1.252  1.00  0.00    -0.354 N 
ATOM     44  C   UNL     1       5.518 -12.836  -0.433  1.00  0.00     0.074 A 
ATOM     45  C   UNL     1       4.668 -12.014  -1.264  1.00  0.00     0.031 C 
ATOM     46  C   UNL     1       9.909  -8.650   1.704  1.00  0.00     0.029 A 
ATOM     47  C   UNL     1       9.829 -10.077   1.993  1.00  0.00     0.049 A 
ATOM     48  H   UNL     1       8.441 -11.445   1.257  1.00  0.00     0.167 HD
ATOM     49  C   UNL     1       5.317 -14.157  -0.212  1.00  0.00     0.037 A 
ATOM     50  C   UNL     1      10.659 -10.757   2.806  1.00  0.00     0.037 A 
ATOM     51  C   UNL     1       6.202 -14.985   0.562  1.00  0.00     0.049 A 
ATOM     52  C   UNL     1      10.459 -12.239   2.974  1.00  0.00     0.074 A 
ATOM     53  C   UNL     1       6.145 -16.351   0.773  1.00  0.00     0.029 A 
ATOM     54  N   UNL     1       7.315 -14.519   1.247  1.00  0.00    -0.354 N 
ATOM     55  N   UNL     1       9.532 -13.013   2.464  1.00  0.00    -0.248 NA
ATOM     56  C   UNL     1      11.432 -12.945   3.819  1.00  0.00     0.031 C 
ATOM     57  C   UNL     1       7.203 -16.706   1.617  1.00  0.00     0.029 A 
ATOM     58  C   UNL     1       7.946 -15.570   1.892  1.00  0.00     0.049 A 
ATOM     59  H   UNL     1       7.613 -13.581   1.270  1.00  0.00     0.167 HD
ATOM     60  C   UNL     1       9.820 -14.296   2.906  1.00  0.00     0.074 A 
ATOM     61  C   UNL     1      11.026 -14.201   3.703  1.00  0.00     0.031 C 
ATOM     62  C   UNL     1       9.146 -15.451   2.679  1.00  0.00     0.037 A 
BRANCH  49  63
ATOM     63  C   UNL     1       4.106 -14.793  -0.836  1.00  0.00     0.064 A 
ATOM     64  C   UNL     1       3.993 -14.959  -2.225  1.00  0.00     0.173 A 
ATOM     65  C   UNL     1       3.058 -15.270  -0.034  1.00  0.00     0.173 A 
ATOM     66  F   UNL     1       4.959 -14.508  -3.040  1.00  0.00    -0.203 F 
ATOM     67  C   UNL     1       2.863 -15.546  -2.790  1.00  0.00     0.198 A 
ATOM     68  C   UNL     1       1.945 -15.888  -0.600  1.00  0.00     0.198 A 
ATOM     69  F   UNL     1       3.115 -15.142   1.300  1.00  0.00    -0.203 F 
ATOM     70  F   UNL     1       2.754 -15.640  -4.122  1.00  0.00    -0.200 F 
ATOM     71  C   UNL     1       1.845 -16.017  -1.976  1.00  0.00     0.200 A 
ATOM     72  F   UNL     1       0.967 -16.354   0.189  1.00  0.00    -0.200 F 
ATOM     73  F   UNL     1       0.761 -16.589  -2.521  1.00  0.00    -0.200 F 
ENDBRANCH  49  63
BRANCH  50  74
ATOM     74  C   UNL     1      11.784 -10.056   3.481  1.00  0.00     0.064 A 
ATOM     75  C   UNL     1      13.113 -10.301   3.107  1.00  0.00     0.173 A 
ATOM     76  C   UNL     1      11.559  -9.134   4.513  1.00  0.00     0.173 A 
ATOM     77  F   UNL     1      13.382 -11.188   2.137  1.00  0.00    -0.203 F 
ATOM     78  C   UNL     1      14.174  -9.673   3.756  1.00  0.00     0.198 A 
ATOM     79  C   UNL     1      12.619  -8.483   5.142  1.00  0.00     0.198 A 
ATOM     80  F   UNL     1      10.306  -8.856   4.904  1.00  0.00    -0.203 F 
ATOM     81  F   UNL     1      15.435  -9.966   3.413  1.00  0.00    -0.200 F 
ATOM     82  C   UNL     1      13.926  -8.761   4.770  1.00  0.00     0.200 A 
ATOM     83  F   UNL     1      12.374  -7.590   6.111  1.00  0.00    -0.200 F 
ATOM     84  F   UNL     1      14.945  -8.155   5.394  1.00  0.00    -0.200 F 
ENDBRANCH  50  74
BRANCH  62  85
ATOM     85  C   UNL     1       9.716 -16.701   3.282  1.00  0.00     0.064 A 
ATOM     86  C   UNL     1       9.682 -16.931   4.665  1.00  0.00     0.173 A 
ATOM     87  C   UNL     1      10.288 -17.688   2.464  1.00  0.00     0.173 A 
ATOM     88  F   UNL     1       9.159 -16.012   5.490  1.00  0.00    -0.203 F 
ATOM     89  C   UNL     1      10.235 -18.087   5.211  1.00  0.00     0.198 A 
ATOM     90  C   UNL     1      10.809 -18.856   3.010  1.00  0.00     0.198 A 
ATOM     91  F   UNL     1      10.336 -17.520   1.134  1.00  0.00    -0.203 F 
ATOM     92  F   UNL     1      10.246 -18.257   6.540  1.00  0.00    -0.200 F 
ATOM     93  C   UNL     1      10.792 -19.050   4.383  1.00  0.00     0.200 A 
ATOM     94  F   UNL     1      11.334 -19.793   2.208  1.00  0.00    -0.200 F 
ATOM     95  F   UNL     1      11.323 -20.161   4.911  1.00  0.00    -0.200 F 
ENDBRANCH  62  85
ENDBRANCH  36  37
ENDBRANCH  28  31
ENDBRANCH  26  27
ENDBRANCH   1  26
TORSDOF 13
