REMARK SMILES CN(CCOCC1CC1)C(=O)N1CC[C@](C)(C(=O)NCCCNC(=O)c2ccc(-c3c4nc(c(-c5c(F)c(F)c(F)c(F)c5F)c5ccc([nH]5)c(-c5c(F)c(F)c(F)c(F)c5F)c5nc(c(-c6c(F)c(F)c(F)c(F)c6F)c6ccc3[nH]6)C=C5)C=C4)cc2)C1
REMARK SMILES IDX 12 1 13 2 14 3 15 4 16 5 89 6 10 7 11 8 2 9 1 10 3 11 4 12
REMARK SMILES IDX 5 13 6 14 7 15 8 16 9 17 17 18 18 19 19 20 20 22 21 23 22 24
REMARK SMILES IDX 23 25 24 26 25 28 26 29 27 30 88 31 28 32 87 33 29 34 30 35
REMARK SMILES IDX 31 36 81 37 32 38 86 39 80 40 82 41 33 42 85 43 79 44 78 45
REMARK SMILES IDX 34 47 66 48 46 49 65 50 47 51 50 52 64 53 83 54 48 55 49 56
REMARK SMILES IDX 63 58 84 59 51 60 35 61 36 62 44 63 37 64 38 65 42 66 45 67
REMARK SMILES IDX 39 68 40 69 43 70 41 71 67 72 68 73 76 74 69 75 70 76 74 77
REMARK SMILES IDX 77 78 71 79 72 80 75 81 73 82 52 83 53 84 61 85 54 86 55 87
REMARK SMILES IDX 59 88 62 89 56 90 57 91 60 92 58 93
REMARK H PARENT 19 21 23 27 82 46 50 57
REMARK Flexibility Score: inf
ROOT
ATOM      1  N   UNL     1       0.689   1.697  -3.872  1.00  0.00    -0.324 N 
ATOM      2  C   UNL     1       1.392   2.696  -4.657  1.00  0.00     0.122 C 
ATOM      3  C   UNL     1       0.311   3.671  -5.073  1.00  0.00     0.040 C 
ATOM      4  C   UNL     1      -0.961   2.805  -5.259  1.00  0.00     0.066 C 
ATOM      5  C   UNL     1      -1.134   2.488  -6.750  1.00  0.00     0.024 C 
ATOM      6  C   UNL     1      -0.659   1.551  -4.412  1.00  0.00     0.138 C 
ENDROOT
BRANCH   1   7
ATOM      7  C   UNL     1       1.338   1.145  -2.796  1.00  0.00     0.319 C 
ATOM      8  O   UNL     1       2.468   1.563  -2.510  1.00  0.00    -0.248 OA
BRANCH   7   9
ATOM      9  N   UNL     1       0.770   0.165  -2.006  1.00  0.00    -0.325 N 
ATOM     10  C   UNL     1       1.510  -0.195  -0.792  1.00  0.00     0.148 C 
BRANCH   9  11
ATOM     11  C   UNL     1      -0.490  -0.562  -2.174  1.00  0.00     0.149 C 
BRANCH  11  12
ATOM     12  C   UNL     1      -1.588  -0.171  -1.168  1.00  0.00     0.181 C 
BRANCH  12  13
ATOM     13  O   UNL     1      -2.195   1.090  -1.433  1.00  0.00    -0.379 OA
BRANCH  13  14
ATOM     14  C   UNL     1      -1.467   2.221  -0.957  1.00  0.00     0.163 C 
BRANCH  14  15
ATOM     15  C   UNL     1      -2.266   2.917   0.099  1.00  0.00     0.015 C 
ATOM     16  C   UNL     1      -2.880   4.264  -0.199  1.00  0.00     0.006 C 
ATOM     17  C   UNL     1      -3.765   3.069  -0.005  1.00  0.00     0.006 C 
ENDBRANCH  14  15
ENDBRANCH  13  14
ENDBRANCH  12  13
ENDBRANCH  11  12
ENDBRANCH   9  11
ENDBRANCH   7   9
ENDBRANCH   1   7
BRANCH   4  18
ATOM     18  C   UNL     1      -2.192   3.561  -4.729  1.00  0.00     0.227 C 
ATOM     19  O   UNL     1      -2.128   4.746  -4.387  1.00  0.00    -0.274 OA
ATOM     20  N   UNL     1      -3.426   2.998  -4.640  1.00  0.00    -0.356 N 
ATOM     21  H   UNL     1      -4.101   3.594  -4.242  1.00  0.00     0.163 HD
BRANCH  20  22
ATOM     22  C   UNL     1      -3.950   1.696  -5.013  1.00  0.00     0.117 C 
BRANCH  22  23
ATOM     23  C   UNL     1      -4.673   0.987  -3.870  1.00  0.00     0.042 C 
BRANCH  23  24
ATOM     24  C   UNL     1      -5.854   1.739  -3.261  1.00  0.00     0.118 C 
BRANCH  24  25
ATOM     25  N   UNL     1      -7.022   1.745  -4.125  1.00  0.00    -0.352 N 
ATOM     26  C   UNL     1      -8.283   1.240  -3.921  1.00  0.00     0.251 C 
ATOM     27  H   UNL     1      -6.888   2.183  -4.997  1.00  0.00     0.163 HD
ATOM     28  O   UNL     1      -9.066   1.197  -4.867  1.00  0.00    -0.269 OA
BRANCH  26  29
ATOM     29  C   UNL     1      -8.720   0.731  -2.597  1.00  0.00     0.039 A 
ATOM     30  C   UNL     1      -9.554  -0.393  -2.562  1.00  0.00     0.014 A 
ATOM     31  C   UNL     1      -8.398   1.380  -1.401  1.00  0.00     0.014 A 
ATOM     32  C   UNL     1     -10.030  -0.883  -1.341  1.00  0.00     0.010 A 
ATOM     33  C   UNL     1      -8.817   0.850  -0.177  1.00  0.00     0.010 A 
ATOM     34  C   UNL     1      -9.652  -0.277  -0.133  1.00  0.00    -0.014 A 
BRANCH  34  35
ATOM     35  C   UNL     1     -10.153  -0.797   1.169  1.00  0.00     0.031 A 
ATOM     36  C   UNL     1     -11.077   0.035   2.019  1.00  0.00     0.074 A 
ATOM     37  C   UNL     1      -9.761  -2.010   1.605  1.00  0.00     0.049 A 
ATOM     38  N   UNL     1     -11.604  -0.242   3.187  1.00  0.00    -0.248 NA
ATOM     39  C   UNL     1     -11.440   1.362   1.500  1.00  0.00     0.031 C 
ATOM     40  C   UNL     1      -8.838  -2.902   0.904  1.00  0.00     0.029 A 
ATOM     41  N   UNL     1     -10.088  -2.700   2.747  1.00  0.00    -0.354 N 
ATOM     42  C   UNL     1     -12.345   0.878   3.545  1.00  0.00     0.074 A 
ATOM     43  C   UNL     1     -12.161   1.857   2.495  1.00  0.00     0.031 C 
ATOM     44  C   UNL     1      -8.692  -4.031   1.616  1.00  0.00     0.029 A 
ATOM     45  C   UNL     1      -9.488  -3.933   2.837  1.00  0.00     0.049 A 
ATOM     46  H   UNL     1     -10.695  -2.346   3.436  1.00  0.00     0.167 HD
ATOM     47  C   UNL     1     -13.127   1.067   4.636  1.00  0.00     0.037 A 
ATOM     48  C   UNL     1      -9.572  -4.879   3.792  1.00  0.00     0.037 A 
ATOM     49  C   UNL     1     -13.338   0.086   5.669  1.00  0.00     0.049 A 
ATOM     50  C   UNL     1     -10.460  -4.651   4.986  1.00  0.00     0.074 A 
ATOM     51  C   UNL     1     -14.152   0.169   6.786  1.00  0.00     0.029 A 
ATOM     52  N   UNL     1     -12.732  -1.161   5.709  1.00  0.00    -0.354 N 
ATOM     53  N   UNL     1     -11.203  -3.613   5.279  1.00  0.00    -0.248 NA
ATOM     54  C   UNL     1     -10.530  -5.737   5.974  1.00  0.00     0.031 C 
ATOM     55  C   UNL     1     -14.011  -1.014   7.521  1.00  0.00     0.029 A 
ATOM     56  C   UNL     1     -13.144  -1.851   6.838  1.00  0.00     0.049 A 
ATOM     57  H   UNL     1     -12.102  -1.504   5.036  1.00  0.00     0.167 HD
ATOM     58  C   UNL     1     -11.851  -3.931   6.465  1.00  0.00     0.074 A 
ATOM     59  C   UNL     1     -11.424  -5.265   6.831  1.00  0.00     0.031 C 
ATOM     60  C   UNL     1     -12.723  -3.184   7.186  1.00  0.00     0.037 A 
BRANCH  47  61
ATOM     61  C   UNL     1     -13.822   2.391   4.768  1.00  0.00     0.064 A 
ATOM     62  C   UNL     1     -14.892   2.745   3.931  1.00  0.00     0.173 A 
ATOM     63  C   UNL     1     -13.441   3.301   5.765  1.00  0.00     0.173 A 
ATOM     64  F   UNL     1     -15.288   1.914   2.955  1.00  0.00    -0.203 F 
ATOM     65  C   UNL     1     -15.533   3.973   4.068  1.00  0.00     0.198 A 
ATOM     66  C   UNL     1     -14.104   4.516   5.918  1.00  0.00     0.198 A 
ATOM     67  F   UNL     1     -12.431   3.009   6.597  1.00  0.00    -0.203 F 
ATOM     68  F   UNL     1     -16.520   4.309   3.226  1.00  0.00    -0.200 F 
ATOM     69  C   UNL     1     -15.144   4.855   5.065  1.00  0.00     0.200 A 
ATOM     70  F   UNL     1     -13.736   5.362   6.891  1.00  0.00    -0.200 F 
ATOM     71  F   UNL     1     -15.766   6.034   5.199  1.00  0.00    -0.200 F 
ENDBRANCH  47  61
BRANCH  48  72
ATOM     72  C   UNL     1      -8.820  -6.152   3.642  1.00  0.00     0.064 A 
ATOM     73  C   UNL     1      -9.490  -7.354   3.378  1.00  0.00     0.173 A 
ATOM     74  C   UNL     1      -7.424  -6.194   3.766  1.00  0.00     0.173 A 
ATOM     75  F   UNL     1     -10.827  -7.366   3.273  1.00  0.00    -0.203 F 
ATOM     76  C   UNL     1      -8.794  -8.556   3.265  1.00  0.00     0.198 A 
ATOM     77  C   UNL     1      -6.727  -7.392   3.626  1.00  0.00     0.198 A 
ATOM     78  F   UNL     1      -6.737  -5.070   4.014  1.00  0.00    -0.203 F 
ATOM     79  F   UNL     1      -9.464  -9.698   3.058  1.00  0.00    -0.200 F 
ATOM     80  C   UNL     1      -7.413  -8.573   3.384  1.00  0.00     0.200 A 
ATOM     81  F   UNL     1      -5.391  -7.403   3.728  1.00  0.00    -0.200 F 
ATOM     82  F   UNL     1      -6.743  -9.728   3.272  1.00  0.00    -0.200 F 
ENDBRANCH  48  72
BRANCH  60  83
ATOM     83  C   UNL     1     -13.307  -3.808   8.419  1.00  0.00     0.064 A 
ATOM     84  C   UNL     1     -12.543  -4.006   9.579  1.00  0.00     0.173 A 
ATOM     85  C   UNL     1     -14.657  -4.190   8.449  1.00  0.00     0.173 A 
ATOM     86  F   UNL     1     -11.244  -3.672   9.596  1.00  0.00    -0.203 F 
ATOM     87  C   UNL     1     -13.102  -4.592  10.712  1.00  0.00     0.198 A 
ATOM     88  C   UNL     1     -15.220  -4.749   9.593  1.00  0.00     0.198 A 
ATOM     89  F   UNL     1     -15.433  -4.016   7.368  1.00  0.00    -0.203 F 
ATOM     90  F   UNL     1     -12.340  -4.819  11.791  1.00  0.00    -0.200 F 
ATOM     91  C   UNL     1     -14.440  -4.958  10.720  1.00  0.00     0.200 A 
ATOM     92  F   UNL     1     -16.515  -5.092   9.603  1.00  0.00    -0.200 F 
ATOM     93  F   UNL     1     -14.975  -5.520  11.812  1.00  0.00    -0.200 F 
ENDBRANCH  60  83
ENDBRANCH  34  35
ENDBRANCH  26  29
ENDBRANCH  24  25
ENDBRANCH  23  24
ENDBRANCH  22  23
ENDBRANCH  20  22
ENDBRANCH   4  18
TORSDOF 17
