REMARK SMILES O=C(C[C@@H]1C(=O)NCC[N@@H+]1Cc1ccc(F)c(F)c1)NCCCNC(=O)c1ccc(-c2c3nc(c(-c4c(F)c(F)c(F)c(F)c4F)c4ccc([nH]4)c(-c4c(F)c(F)c(F)c(F)c4F)c4nc(c(-c5c(F)c(F)c(F)c(F)c5F)c5ccc2[nH]5)C=C4)C=C3)cc1
REMARK SMILES IDX 21 1 20 2 1 3 2 4 3 6 4 7 5 8 10 9 6 10 7 11 9 12 8 14 11 16
REMARK SMILES IDX 12 17 13 18 19 19 14 20 17 21 15 22 18 23 16 24 22 25 23 26
REMARK SMILES IDX 24 27 25 28 26 30 27 31 28 32 89 33 29 34 88 35 30 36 31 37
REMARK SMILES IDX 32 38 82 39 33 40 87 41 81 42 83 43 34 44 86 45 80 46 79 47
REMARK SMILES IDX 35 49 67 50 47 51 66 52 48 53 51 54 65 55 84 56 49 57 50 58
REMARK SMILES IDX 64 60 85 61 52 62 36 63 37 64 45 65 38 66 39 67 43 68 46 69
REMARK SMILES IDX 40 70 41 71 44 72 42 73 68 74 69 75 77 76 70 77 71 78 75 79
REMARK SMILES IDX 78 80 72 81 73 82 76 83 74 84 53 85 54 86 62 87 55 88 56 89
REMARK SMILES IDX 60 90 63 91 57 92 58 93 61 94 59 95
REMARK H PARENT 20 5 10 13 7 15 24 29 83 48 51 59
REMARK Flexibility Score: inf
ROOT
ATOM      1  C   UNL     1       1.153   0.984   2.395  1.00  0.00     0.117 C 
ENDROOT
BRANCH   1   2
ATOM      2  N   UNL     1       1.801   0.113   1.434  1.00  0.00    -0.356 N 
ATOM      3  O   UNL     1       0.803   1.118  -0.375  1.00  0.00    -0.275 OA
ATOM      4  C   UNL     1       1.618   0.318   0.075  1.00  0.00     0.226 C 
ATOM      5  H   UNL     1       2.372  -0.625   1.747  1.00  0.00     0.163 HD
BRANCH   4   6
ATOM      6  C   UNL     1       2.537  -0.492  -0.809  1.00  0.00     0.175 C 
BRANCH   6   7
ATOM      7  C   UNL     1       3.603   0.318  -1.594  1.00  0.00     0.283 C 
ATOM      8  C   UNL     1       4.901  -0.524  -1.771  1.00  0.00     0.279 C 
ATOM      9  N   UNL     1       3.915   1.727  -1.251  1.00  0.00    -0.319 N 
ATOM     10  O   UNL     1       4.938  -1.742  -1.596  1.00  0.00    -0.268 OA
ATOM     11  N   UNL     1       6.030   0.113  -2.219  1.00  0.00    -0.345 N 
ATOM     12  C   UNL     1       4.850   2.302  -2.227  1.00  0.00     0.284 C 
ATOM     13  H   UNL     1       2.988   2.146  -1.324  1.00  0.00     0.349 HD
ATOM     14  C   UNL     1       6.181   1.552  -2.286  1.00  0.00     0.177 C 
ATOM     15  H   UNL     1       6.787  -0.444  -2.514  1.00  0.00     0.163 HD
BRANCH   9  16
ATOM     16  C   UNL     1       4.155   2.153   0.125  1.00  0.00     0.299 C 
BRANCH  16  17
ATOM     17  C   UNL     1       5.311   1.580   0.916  1.00  0.00     0.009 A 
ATOM     18  C   UNL     1       6.289   2.449   1.435  1.00  0.00     0.013 A 
ATOM     19  C   UNL     1       5.385   0.227   1.275  1.00  0.00     0.052 A 
ATOM     20  C   UNL     1       7.313   1.976   2.263  1.00  0.00     0.043 A 
ATOM     21  C   UNL     1       6.410  -0.243   2.091  1.00  0.00     0.159 A 
ATOM     22  C   UNL     1       7.370   0.627   2.582  1.00  0.00     0.158 A 
ATOM     23  F   UNL     1       6.426  -1.536   2.440  1.00  0.00    -0.204 F 
ATOM     24  F   UNL     1       8.329   0.178   3.403  1.00  0.00    -0.204 F 
ENDBRANCH  16  17
ENDBRANCH   9  16
ENDBRANCH   6   7
ENDBRANCH   4   6
ENDBRANCH   1   2
BRANCH   1  25
ATOM     25  C   UNL     1       1.533   0.723   3.851  1.00  0.00     0.042 C 
BRANCH  25  26
ATOM     26  C   UNL     1       3.013   0.856   4.214  1.00  0.00     0.118 C 
BRANCH  26  27
ATOM     27  N   UNL     1       3.569   2.187   4.045  1.00  0.00    -0.352 N 
ATOM     28  C   UNL     1       4.545   2.834   4.771  1.00  0.00     0.251 C 
ATOM     29  H   UNL     1       3.192   2.706   3.299  1.00  0.00     0.163 HD
ATOM     30  O   UNL     1       4.864   3.980   4.458  1.00  0.00    -0.269 OA
BRANCH  28  31
ATOM     31  C   UNL     1       5.185   2.202   5.955  1.00  0.00     0.039 A 
ATOM     32  C   UNL     1       5.388   2.989   7.096  1.00  0.00     0.014 A 
ATOM     33  C   UNL     1       5.607   0.870   5.962  1.00  0.00     0.014 A 
ATOM     34  C   UNL     1       5.925   2.424   8.258  1.00  0.00     0.010 A 
ATOM     35  C   UNL     1       6.104   0.293   7.136  1.00  0.00     0.010 A 
ATOM     36  C   UNL     1       6.248   1.058   8.302  1.00  0.00    -0.014 A 
BRANCH  36  37
ATOM     37  C   UNL     1       6.646   0.413   9.583  1.00  0.00     0.031 A 
ATOM     38  C   UNL     1       8.039  -0.102   9.805  1.00  0.00     0.074 A 
ATOM     39  C   UNL     1       5.717   0.249  10.546  1.00  0.00     0.049 A 
ATOM     40  N   UNL     1       8.546  -0.667  10.874  1.00  0.00    -0.248 NA
ATOM     41  C   UNL     1       8.981   0.016   8.684  1.00  0.00     0.031 C 
ATOM     42  C   UNL     1       4.315   0.655  10.437  1.00  0.00     0.029 A 
ATOM     43  N   UNL     1       5.807  -0.300  11.802  1.00  0.00    -0.354 N 
ATOM     44  C   UNL     1       9.864  -0.966  10.557  1.00  0.00     0.074 A 
ATOM     45  C   UNL     1      10.067  -0.562   9.182  1.00  0.00     0.031 C 
ATOM     46  C   UNL     1       3.684   0.368  11.586  1.00  0.00     0.029 A 
ATOM     47  C   UNL     1       4.628  -0.264  12.505  1.00  0.00     0.049 A 
ATOM     48  H   UNL     1       6.638  -0.685  12.163  1.00  0.00     0.167 HD
ATOM     49  C   UNL     1      10.820  -1.507  11.350  1.00  0.00     0.037 A 
ATOM     50  C   UNL     1       4.335  -0.683  13.752  1.00  0.00     0.037 A 
ATOM     51  C   UNL     1      10.625  -1.897  12.722  1.00  0.00     0.049 A 
ATOM     52  C   UNL     1       5.411  -1.294  14.605  1.00  0.00     0.074 A 
ATOM     53  C   UNL     1      11.561  -2.385  13.619  1.00  0.00     0.029 A 
ATOM     54  N   UNL     1       9.414  -1.855  13.394  1.00  0.00    -0.354 N 
ATOM     55  N   UNL     1       6.675  -1.488  14.322  1.00  0.00    -0.248 NA
ATOM     56  C   UNL     1       5.022  -1.740  15.951  1.00  0.00     0.031 C 
ATOM     57  C   UNL     1      10.908  -2.679  14.820  1.00  0.00     0.029 A 
ATOM     58  C   UNL     1       9.573  -2.334  14.685  1.00  0.00     0.049 A 
ATOM     59  H   UNL     1       8.566  -1.532  13.012  1.00  0.00     0.167 HD
ATOM     60  C   UNL     1       7.237  -2.055  15.457  1.00  0.00     0.074 A 
ATOM     61  C   UNL     1       6.179  -2.170  16.438  1.00  0.00     0.031 C 
ATOM     62  C   UNL     1       8.519  -2.442  15.660  1.00  0.00     0.037 A 
BRANCH  49  63
ATOM     63  C   UNL     1      12.190  -1.695  10.768  1.00  0.00     0.064 A 
ATOM     64  C   UNL     1      12.691  -2.982  10.517  1.00  0.00     0.173 A 
ATOM     65  C   UNL     1      13.043  -0.603  10.553  1.00  0.00     0.173 A 
ATOM     66  F   UNL     1      11.918  -4.059  10.721  1.00  0.00    -0.203 F 
ATOM     67  C   UNL     1      14.001  -3.167  10.083  1.00  0.00     0.198 A 
ATOM     68  C   UNL     1      14.345  -0.791  10.097  1.00  0.00     0.198 A 
ATOM     69  F   UNL     1      12.610   0.646  10.778  1.00  0.00    -0.203 F 
ATOM     70  F   UNL     1      14.469  -4.407   9.882  1.00  0.00    -0.200 F 
ATOM     71  C   UNL     1      14.825  -2.073   9.871  1.00  0.00     0.200 A 
ATOM     72  F   UNL     1      15.136   0.268   9.878  1.00  0.00    -0.200 F 
ATOM     73  F   UNL     1      16.085  -2.253   9.451  1.00  0.00    -0.200 F 
ENDBRANCH  49  63
BRANCH  50  74
ATOM     74  C   UNL     1       2.962  -0.486  14.281  1.00  0.00     0.064 A 
ATOM     75  C   UNL     1       1.881  -1.244  13.811  1.00  0.00     0.173 A 
ATOM     76  C   UNL     1       2.704   0.500  15.243  1.00  0.00     0.173 A 
ATOM     77  F   UNL     1       2.078  -2.195  12.887  1.00  0.00    -0.203 F 
ATOM     78  C   UNL     1       0.587  -1.008  14.270  1.00  0.00     0.198 A 
ATOM     79  C   UNL     1       1.413   0.720  15.717  1.00  0.00     0.198 A 
ATOM     80  F   UNL     1       3.712   1.236  15.735  1.00  0.00    -0.203 F 
ATOM     81  F   UNL     1      -0.436  -1.723  13.782  1.00  0.00    -0.200 F 
ATOM     82  C   UNL     1       0.354  -0.028  15.224  1.00  0.00     0.200 A 
ATOM     83  F   UNL     1       1.195   1.654  16.652  1.00  0.00    -0.200 F 
ATOM     84  F   UNL     1      -0.890   0.195  15.669  1.00  0.00    -0.200 F 
ENDBRANCH  50  74
BRANCH  62  85
ATOM     85  C   UNL     1       8.874  -3.018  16.998  1.00  0.00     0.064 A 
ATOM     86  C   UNL     1       9.657  -2.285  17.903  1.00  0.00     0.173 A 
ATOM     87  C   UNL     1       8.524  -4.331  17.342  1.00  0.00     0.173 A 
ATOM     88  F   UNL     1      10.022  -1.026  17.616  1.00  0.00    -0.203 F 
ATOM     89  C   UNL     1      10.095  -2.855  19.095  1.00  0.00     0.198 A 
ATOM     90  C   UNL     1       8.947  -4.890  18.545  1.00  0.00     0.198 A 
ATOM     91  F   UNL     1       7.765  -5.066  16.515  1.00  0.00    -0.203 F 
ATOM     92  F   UNL     1      10.873  -2.149  19.928  1.00  0.00    -0.200 F 
ATOM     93  C   UNL     1       9.741  -4.157  19.414  1.00  0.00     0.200 A 
ATOM     94  F   UNL     1       8.589  -6.142  18.862  1.00  0.00    -0.200 F 
ATOM     95  F   UNL     1      10.166  -4.705  20.561  1.00  0.00    -0.200 F 
ENDBRANCH  62  85
ENDBRANCH  36  37
ENDBRANCH  28  31
ENDBRANCH  26  27
ENDBRANCH  25  26
ENDBRANCH   1  25
TORSDOF 13
