REMARK SMILES Cc1cc(F)cc(N[C@](C)(C(=O)NCCCNC(=O)c2ccc(-c3c4nc(c(-c5c(F)c(F)c(F)c(F)c5F)c5ccc([nH]5)c(-c5c(F)c(F)c(F)c(F)c5F)c5nc(c(-c6c(F)c(F)c(F)c(F)c6F)c6ccc3[nH]6)C=C5)C=C4)cc2)c2cccc(F)c2)c1
REMARK SMILES IDX 15 1 14 2 13 3 11 4 12 5 9 7 10 8 8 9 7 11 1 12 2 13 3 14
REMARK SMILES IDX 90 15 4 16 5 17 6 18 83 19 84 20 89 21 85 22 87 23 86 24
REMARK SMILES IDX 88 25 16 26 17 27 18 28 19 30 20 31 21 32 82 33 22 34 81 35
REMARK SMILES IDX 23 36 24 37 25 38 75 39 26 40 80 41 74 42 76 43 27 44 79 45
REMARK SMILES IDX 73 46 72 47 28 49 60 50 40 51 59 52 41 53 44 54 58 55 77 56
REMARK SMILES IDX 42 57 43 58 57 60 78 61 45 62 29 63 30 64 38 65 31 66 32 67
REMARK SMILES IDX 36 68 39 69 33 70 34 71 37 72 35 73 61 74 62 75 70 76 63 77
REMARK SMILES IDX 64 78 68 79 71 80 65 81 66 82 69 83 67 84 46 85 47 86 55 87
REMARK SMILES IDX 48 88 49 89 53 90 56 91 50 92 51 93 54 94 52 95
REMARK H PARENT 13 6 8 10 17 29 76 48 44 59
REMARK Flexibility Score: inf
ROOT
ATOM      1  C   UNL     1      -3.627  -6.246   0.560  1.00  0.00     0.042 C 
ENDROOT
BRANCH   1   2
ATOM      2  C   UNL     1      -3.685  -4.742   0.313  1.00  0.00     0.117 C 
BRANCH   2   3
ATOM      3  N   UNL     1      -2.733  -4.064   1.161  1.00  0.00    -0.354 N 
ATOM      4  C   UNL     1      -1.380  -3.974   1.038  1.00  0.00     0.250 C 
ATOM      5  O   UNL     1      -0.771  -3.780   2.102  1.00  0.00    -0.272 OA
ATOM      6  H   UNL     1      -3.118  -3.599   1.939  1.00  0.00     0.163 HD
BRANCH   4   7
ATOM      7  C   UNL     1      -0.604  -4.104  -0.351  1.00  0.00     0.139 C 
ATOM      8  C   UNL     1      -1.372  -3.770  -1.655  1.00  0.00     0.051 C 
BRANCH   7   9
ATOM      9  N   UNL     1       0.494  -3.094  -0.283  1.00  0.00    -0.368 N 
ATOM     10  H   UNL     1       1.416  -3.431  -0.355  1.00  0.00     0.161 HD
BRANCH   9  11
ATOM     11  C   UNL     1       0.335  -1.715  -0.128  1.00  0.00     0.038 A 
ATOM     12  C   UNL     1       2.711   1.287  -0.031  1.00  0.00     0.044 C 
ATOM     13  C   UNL     1       1.452   0.476  -0.030  1.00  0.00    -0.046 A 
ATOM     14  C   UNL     1       0.214   1.109   0.081  1.00  0.00     0.042 A 
ATOM     15  C   UNL     1       1.496  -0.924  -0.146  1.00  0.00     0.029 A 
ATOM     16  C   UNL     1      -0.940   0.343   0.089  1.00  0.00     0.125 A 
ATOM     17  F   UNL     1      -2.131   0.946   0.203  1.00  0.00    -0.207 F 
ATOM     18  C   UNL     1      -0.887  -1.045  -0.015  1.00  0.00     0.065 A 
ENDBRANCH   9  11
ENDBRANCH   7   9
BRANCH   7  19
ATOM     19  C   UNL     1      -0.040  -5.563  -0.425  1.00  0.00    -0.011 A 
ATOM     20  C   UNL     1       1.218  -5.943   0.079  1.00  0.00     0.007 A 
ATOM     21  C   UNL     1      -0.860  -6.619  -0.877  1.00  0.00     0.046 A 
ATOM     22  C   UNL     1       1.599  -7.293   0.175  1.00  0.00     0.003 A 
ATOM     23  C   UNL     1      -0.506  -7.957  -0.718  1.00  0.00     0.123 A 
ATOM     24  C   UNL     1       0.720  -8.306  -0.191  1.00  0.00     0.039 A 
ATOM     25  F   UNL     1      -1.394  -8.909  -1.034  1.00  0.00    -0.207 F 
ENDBRANCH   7  19
ENDBRANCH   4   7
ENDBRANCH   2   3
ENDBRANCH   1   2
BRANCH   1  26
ATOM     26  C   UNL     1      -4.584  -6.624   1.643  1.00  0.00     0.118 C 
BRANCH  26  27
ATOM     27  N   UNL     1      -5.964  -6.620   1.170  1.00  0.00    -0.352 N 
ATOM     28  C   UNL     1      -7.032  -7.334   1.670  1.00  0.00     0.251 C 
ATOM     29  H   UNL     1      -6.156  -6.036   0.401  1.00  0.00     0.163 HD
ATOM     30  O   UNL     1      -8.050  -7.479   1.014  1.00  0.00    -0.269 OA
BRANCH  28  31
ATOM     31  C   UNL     1      -6.918  -7.895   3.026  1.00  0.00     0.039 A 
ATOM     32  C   UNL     1      -7.679  -8.986   3.455  1.00  0.00     0.014 A 
ATOM     33  C   UNL     1      -6.057  -7.256   3.908  1.00  0.00     0.014 A 
ATOM     34  C   UNL     1      -7.588  -9.376   4.788  1.00  0.00     0.010 A 
ATOM     35  C   UNL     1      -5.712  -7.842   5.072  1.00  0.00     0.010 A 
ATOM     36  C   UNL     1      -6.617  -8.762   5.576  1.00  0.00    -0.014 A 
BRANCH  36  37
ATOM     37  C   UNL     1      -6.534  -8.782   7.017  1.00  0.00     0.031 A 
ATOM     38  C   UNL     1      -5.866  -9.900   7.665  1.00  0.00     0.074 A 
ATOM     39  C   UNL     1      -6.773  -7.574   7.583  1.00  0.00     0.049 A 
ATOM     40  N   UNL     1      -6.053 -10.234   8.887  1.00  0.00    -0.248 NA
ATOM     41  C   UNL     1      -4.902 -10.747   6.965  1.00  0.00     0.031 C 
ATOM     42  C   UNL     1      -6.396  -7.035   8.878  1.00  0.00     0.029 A 
ATOM     43  N   UNL     1      -7.501  -6.521   6.990  1.00  0.00    -0.354 N 
ATOM     44  C   UNL     1      -5.001 -11.049   9.230  1.00  0.00     0.074 A 
ATOM     45  C   UNL     1      -4.403 -11.460   7.981  1.00  0.00     0.031 C 
ATOM     46  C   UNL     1      -7.158  -5.948   9.124  1.00  0.00     0.029 A 
ATOM     47  C   UNL     1      -8.122  -5.829   8.037  1.00  0.00     0.049 A 
ATOM     48  H   UNL     1      -7.560  -6.313   6.029  1.00  0.00     0.167 HD
ATOM     49  C   UNL     1      -4.621 -11.096  10.539  1.00  0.00     0.037 A 
ATOM     50  C   UNL     1      -9.477  -5.969   8.147  1.00  0.00     0.037 A 
ATOM     51  C   UNL     1      -5.444 -10.172  11.327  1.00  0.00     0.049 A 
ATOM     52  C   UNL     1      -9.819  -6.826   9.339  1.00  0.00     0.074 A 
ATOM     53  C   UNL     1      -5.216  -8.872  11.752  1.00  0.00     0.029 A 
ATOM     54  N   UNL     1      -6.826 -10.360  11.385  1.00  0.00    -0.354 N 
ATOM     55  N   UNL     1      -9.027  -7.739   9.838  1.00  0.00    -0.248 NA
ATOM     56  C   UNL     1     -11.034  -6.641  10.119  1.00  0.00     0.031 C 
ATOM     57  C   UNL     1      -6.475  -8.256  11.983  1.00  0.00     0.029 A 
ATOM     58  C   UNL     1      -7.471  -9.176  11.703  1.00  0.00     0.049 A 
ATOM     59  H   UNL     1      -7.280 -11.218  11.222  1.00  0.00     0.167 HD
ATOM     60  C   UNL     1      -9.560  -8.208  11.006  1.00  0.00     0.074 A 
ATOM     61  C   UNL     1     -10.823  -7.500  11.130  1.00  0.00     0.031 C 
ATOM     62  C   UNL     1      -8.923  -9.112  11.812  1.00  0.00     0.037 A 
BRANCH  49  63
ATOM     63  C   UNL     1      -3.315 -11.694  11.001  1.00  0.00     0.064 A 
ATOM     64  C   UNL     1      -2.609 -11.152  12.096  1.00  0.00     0.173 A 
ATOM     65  C   UNL     1      -2.704 -12.811  10.396  1.00  0.00     0.173 A 
ATOM     66  F   UNL     1      -3.098 -10.131  12.810  1.00  0.00    -0.203 F 
ATOM     67  C   UNL     1      -1.363 -11.637  12.502  1.00  0.00     0.198 A 
ATOM     68  C   UNL     1      -1.436 -13.268  10.773  1.00  0.00     0.198 A 
ATOM     69  F   UNL     1      -3.337 -13.517   9.449  1.00  0.00    -0.203 F 
ATOM     70  F   UNL     1      -0.744 -11.079  13.552  1.00  0.00    -0.200 F 
ATOM     71  C   UNL     1      -0.764 -12.679  11.826  1.00  0.00     0.200 A 
ATOM     72  F   UNL     1      -0.871 -14.289  10.111  1.00  0.00    -0.200 F 
ATOM     73  F   UNL     1       0.441 -13.129  12.201  1.00  0.00    -0.200 F 
ENDBRANCH  49  63
BRANCH  50  74
ATOM     74  C   UNL     1     -10.142  -5.973   6.801  1.00  0.00     0.064 A 
ATOM     75  C   UNL     1     -10.039  -4.788   6.037  1.00  0.00     0.173 A 
ATOM     76  C   UNL     1     -10.441  -7.153   6.102  1.00  0.00     0.173 A 
ATOM     77  F   UNL     1      -9.761  -3.625   6.647  1.00  0.00    -0.203 F 
ATOM     78  C   UNL     1     -10.081  -4.807   4.643  1.00  0.00     0.198 A 
ATOM     79  C   UNL     1     -10.509  -7.162   4.702  1.00  0.00     0.198 A 
ATOM     80  F   UNL     1     -10.553  -8.318   6.755  1.00  0.00    -0.203 F 
ATOM     81  F   UNL     1      -9.838  -3.683   3.951  1.00  0.00    -0.200 F 
ATOM     82  C   UNL     1     -10.287  -6.000   3.975  1.00  0.00     0.200 A 
ATOM     83  F   UNL     1     -10.716  -8.316   4.050  1.00  0.00    -0.200 F 
ATOM     84  F   UNL     1     -10.240  -6.031   2.635  1.00  0.00    -0.200 F 
ENDBRANCH  50  74
BRANCH  62  85
ATOM     85  C   UNL     1      -9.606  -9.921  12.884  1.00  0.00     0.064 A 
ATOM     86  C   UNL     1     -10.979 -10.215  12.871  1.00  0.00     0.173 A 
ATOM     87  C   UNL     1      -8.855 -10.565  13.898  1.00  0.00     0.173 A 
ATOM     88  F   UNL     1     -11.775  -9.806  11.875  1.00  0.00    -0.203 F 
ATOM     89  C   UNL     1     -11.575 -10.997  13.859  1.00  0.00     0.198 A 
ATOM     90  C   UNL     1      -9.442 -11.414  14.832  1.00  0.00     0.198 A 
ATOM     91  F   UNL     1      -7.526 -10.421  13.998  1.00  0.00    -0.203 F 
ATOM     92  F   UNL     1     -12.902 -11.180  13.844  1.00  0.00    -0.200 F 
ATOM     93  C   UNL     1     -10.807 -11.604  14.833  1.00  0.00     0.200 A 
ATOM     94  F   UNL     1      -8.671 -12.057  15.720  1.00  0.00    -0.200 F 
ATOM     95  F   UNL     1     -11.377 -12.389  15.755  1.00  0.00    -0.200 F 
ENDBRANCH  62  85
ENDBRANCH  36  37
ENDBRANCH  28  31
ENDBRANCH  26  27
ENDBRANCH   1  26
TORSDOF 13
