REMARK SMILES O=C(CSc1nc2ccc(Cl)cc2c(=O)n1CC1CCCCC1)NCCCNC(=O)c1ccc(-c2c3nc(c(-c4c(F)c(F)c(F)c(F)c4F)c4ccc([nH]4)c(-c4c(F)c(F)c(F)c(F)c4F)c4nc(c(-c5c(F)c(F)c(F)c(F)c5F)c5ccc2[nH]5)C=C4)C=C3)cc1
REMARK SMILES IDX 25 1 24 2 1 3 2 4 3 6 4 7 5 8 6 9 16 10 7 11 14 12 8 13
REMARK SMILES IDX 13 14 15 15 9 16 12 17 10 18 11 19 17 20 18 21 19 22 23 23
REMARK SMILES IDX 20 24 22 25 21 26 26 27 27 28 28 29 29 30 30 32 31 33 32 34
REMARK SMILES IDX 93 35 33 36 92 37 34 38 35 39 36 40 86 41 37 42 91 43 85 44
REMARK SMILES IDX 87 45 38 46 90 47 84 48 83 49 39 51 71 52 51 53 70 54 52 55
REMARK SMILES IDX 55 56 69 57 88 58 53 59 54 60 68 62 89 63 56 64 40 65 41 66
REMARK SMILES IDX 49 67 42 68 43 69 47 70 50 71 44 72 45 73 48 74 46 75 72 76
REMARK SMILES IDX 73 77 81 78 74 79 75 80 79 81 82 82 76 83 77 84 80 85 78 86
REMARK SMILES IDX 57 87 58 88 66 89 59 90 60 91 64 92 67 93 61 94 62 95 65 96
REMARK SMILES IDX 63 97
REMARK H PARENT 24 5 28 31 87 50 55 61
REMARK Flexibility Score: inf
ROOT
ATOM      1  C   UNL     1       2.456   0.564   2.338  1.00  0.00     0.117 C 
ENDROOT
BRANCH   1   2
ATOM      2  N   UNL     1       3.189   0.421   1.093  1.00  0.00    -0.355 N 
ATOM      3  O   UNL     1       1.698  -1.031   0.143  1.00  0.00    -0.274 OA
ATOM      4  C   UNL     1       2.695  -0.318   0.041  1.00  0.00     0.230 C 
ATOM      5  H   UNL     1       4.062   0.865   0.998  1.00  0.00     0.163 HD
BRANCH   4   6
ATOM      6  C   UNL     1       3.485  -0.270  -1.244  1.00  0.00     0.178 C 
BRANCH   6   7
ATOM      7  S   UNL     1       4.119   1.317  -1.742  1.00  0.00    -0.078 SA
BRANCH   7   8
ATOM      8  C   UNL     1       2.963   2.628  -1.849  1.00  0.00     0.171 A 
ATOM      9  N   UNL     1       3.538   3.756  -1.560  1.00  0.00    -0.224 NA
ATOM     10  N   UNL     1       1.669   2.560  -2.349  1.00  0.00    -0.287 N 
ATOM     11  C   UNL     1       2.865   4.959  -1.772  1.00  0.00     0.079 A 
ATOM     12  C   UNL     1       1.058   3.725  -2.828  1.00  0.00     0.262 A 
ATOM     13  C   UNL     1       3.461   6.163  -1.389  1.00  0.00     0.031 A 
ATOM     14  C   UNL     1       1.637   5.004  -2.414  1.00  0.00     0.067 A 
ATOM     15  O   UNL     1       0.081   3.743  -3.572  1.00  0.00    -0.269 OA
ATOM     16  C   UNL     1       2.813   7.383  -1.620  1.00  0.00     0.023 A 
ATOM     17  C   UNL     1       0.968   6.212  -2.646  1.00  0.00     0.036 A 
ATOM     18  C   UNL     1       1.564   7.399  -2.239  1.00  0.00     0.042 A 
ATOM     19  Cl  UNL     1       0.756   8.894  -2.501  1.00  0.00    -0.084 Cl
BRANCH  10  20
ATOM     20  C   UNL     1       0.816   1.379  -2.452  1.00  0.00     0.131 C 
BRANCH  20  21
ATOM     21  C   UNL     1      -0.308   1.311  -1.376  1.00  0.00     0.009 C 
ATOM     22  C   UNL     1       0.079   1.923  -0.024  1.00  0.00     0.005 C 
ATOM     23  C   UNL     1      -1.645   1.947  -1.798  1.00  0.00     0.005 C 
ATOM     24  C   UNL     1      -0.956   1.570   1.039  1.00  0.00     0.000 C 
ATOM     25  C   UNL     1      -2.738   1.688  -0.752  1.00  0.00     0.000 C 
ATOM     26  C   UNL     1      -2.322   2.121   0.654  1.00  0.00     0.000 C 
ENDBRANCH  20  21
ENDBRANCH  10  20
ENDBRANCH   7   8
ENDBRANCH   6   7
ENDBRANCH   4   6
ENDBRANCH   1   2
BRANCH   1  27
ATOM     27  C   UNL     1       2.753  -0.511   3.365  1.00  0.00     0.042 C 
BRANCH  27  28
ATOM     28  C   UNL     1       4.208  -0.583   3.789  1.00  0.00     0.118 C 
BRANCH  28  29
ATOM     29  N   UNL     1       4.702   0.642   4.407  1.00  0.00    -0.352 N 
ATOM     30  C   UNL     1       5.316   0.849   5.619  1.00  0.00     0.251 C 
ATOM     31  H   UNL     1       4.577   1.455   3.865  1.00  0.00     0.163 HD
ATOM     32  O   UNL     1       5.573   1.994   5.982  1.00  0.00    -0.269 OA
BRANCH  30  33
ATOM     33  C   UNL     1       5.622  -0.290   6.513  1.00  0.00     0.039 A 
ATOM     34  C   UNL     1       6.101  -1.498   6.007  1.00  0.00     0.014 A 
ATOM     35  C   UNL     1       5.399  -0.152   7.886  1.00  0.00     0.014 A 
ATOM     36  C   UNL     1       6.144  -2.619   6.827  1.00  0.00     0.010 A 
ATOM     37  C   UNL     1       5.553  -1.255   8.732  1.00  0.00     0.010 A 
ATOM     38  C   UNL     1       5.865  -2.514   8.199  1.00  0.00    -0.014 A 
BRANCH  38  39
ATOM     39  C   UNL     1       5.894  -3.737   9.043  1.00  0.00     0.031 A 
ATOM     40  C   UNL     1       4.648  -4.228   9.732  1.00  0.00     0.074 A 
ATOM     41  C   UNL     1       7.035  -4.448   9.133  1.00  0.00     0.049 A 
ATOM     42  N   UNL     1       4.487  -5.280  10.496  1.00  0.00    -0.248 NA
ATOM     43  C   UNL     1       3.422  -3.436   9.546  1.00  0.00     0.031 C 
ATOM     44  C   UNL     1       8.304  -4.085   8.499  1.00  0.00     0.029 A 
ATOM     45  N   UNL     1       7.307  -5.637   9.762  1.00  0.00    -0.354 N 
ATOM     46  C   UNL     1       3.158  -5.262  10.896  1.00  0.00     0.074 A 
ATOM     47  C   UNL     1       2.557  -4.081  10.316  1.00  0.00     0.031 C 
ATOM     48  C   UNL     1       9.198  -5.061   8.714  1.00  0.00     0.029 A 
ATOM     49  C   UNL     1       8.590  -6.083   9.559  1.00  0.00     0.049 A 
ATOM     50  H   UNL     1       6.646  -6.123  10.306  1.00  0.00     0.167 HD
ATOM     51  C   UNL     1       2.495  -6.158  11.666  1.00  0.00     0.037 A 
ATOM     52  C   UNL     1       9.215  -7.185  10.013  1.00  0.00     0.037 A 
ATOM     53  C   UNL     1       3.083  -7.352  12.215  1.00  0.00     0.049 A 
ATOM     54  C   UNL     1       8.466  -8.141  10.896  1.00  0.00     0.074 A 
ATOM     55  C   UNL     1       2.484  -8.331  12.989  1.00  0.00     0.029 A 
ATOM     56  N   UNL     1       4.405  -7.734  12.039  1.00  0.00    -0.354 N 
ATOM     57  N   UNL     1       7.212  -8.105  11.274  1.00  0.00    -0.248 NA
ATOM     58  C   UNL     1       9.224  -9.281  11.430  1.00  0.00     0.031 C 
ATOM     59  C   UNL     1       3.452  -9.286  13.313  1.00  0.00     0.029 A 
ATOM     60  C   UNL     1       4.644  -8.925  12.707  1.00  0.00     0.049 A 
ATOM     61  H   UNL     1       5.073  -7.234  11.518  1.00  0.00     0.167 HD
ATOM     62  C   UNL     1       7.027  -9.217  12.082  1.00  0.00     0.074 A 
ATOM     63  C   UNL     1       8.291  -9.921  12.122  1.00  0.00     0.031 C 
ATOM     64  C   UNL     1       5.909  -9.612  12.739  1.00  0.00     0.037 A 
BRANCH  51  65
ATOM     65  C   UNL     1       1.050  -5.888  11.972  1.00  0.00     0.064 A 
ATOM     66  C   UNL     1       0.051  -6.056  11.003  1.00  0.00     0.173 A 
ATOM     67  C   UNL     1       0.653  -5.528  13.269  1.00  0.00     0.173 A 
ATOM     68  F   UNL     1       0.379  -6.390   9.745  1.00  0.00    -0.203 F 
ATOM     69  C   UNL     1      -1.292  -5.861  11.317  1.00  0.00     0.198 A 
ATOM     70  C   UNL     1      -0.692  -5.357  13.586  1.00  0.00     0.198 A 
ATOM     71  F   UNL     1       1.570  -5.361  14.234  1.00  0.00    -0.203 F 
ATOM     72  F   UNL     1      -2.228  -5.998  10.368  1.00  0.00    -0.200 F 
ATOM     73  C   UNL     1      -1.663  -5.521  12.610  1.00  0.00     0.200 A 
ATOM     74  F   UNL     1      -1.049  -5.042  14.839  1.00  0.00    -0.200 F 
ATOM     75  F   UNL     1      -2.956  -5.348  12.914  1.00  0.00    -0.200 F 
ENDBRANCH  51  65
BRANCH  52  76
ATOM     76  C   UNL     1      10.627  -7.435   9.632  1.00  0.00     0.064 A 
ATOM     77  C   UNL     1      10.961  -8.476   8.755  1.00  0.00     0.173 A 
ATOM     78  C   UNL     1      11.666  -6.620  10.105  1.00  0.00     0.173 A 
ATOM     79  F   UNL     1      10.005  -9.294   8.292  1.00  0.00    -0.203 F 
ATOM     80  C   UNL     1      12.282  -8.693   8.368  1.00  0.00     0.198 A 
ATOM     81  C   UNL     1      12.982  -6.821   9.696  1.00  0.00     0.198 A 
ATOM     82  F   UNL     1      11.396  -5.608  10.943  1.00  0.00    -0.203 F 
ATOM     83  F   UNL     1      12.579  -9.712   7.550  1.00  0.00    -0.200 F 
ATOM     84  C   UNL     1      13.289  -7.860   8.831  1.00  0.00     0.200 A 
ATOM     85  F   UNL     1      13.949  -6.002  10.132  1.00  0.00    -0.200 F 
ATOM     86  F   UNL     1      14.557  -8.059   8.445  1.00  0.00    -0.200 F 
ENDBRANCH  52  76
BRANCH  64  87
ATOM     87  C   UNL     1       5.997 -10.866  13.555  1.00  0.00     0.064 A 
ATOM     88  C   UNL     1       6.665 -10.888  14.787  1.00  0.00     0.173 A 
ATOM     89  C   UNL     1       5.353 -12.038  13.132  1.00  0.00     0.173 A 
ATOM     90  F   UNL     1       7.308  -9.795  15.225  1.00  0.00    -0.203 F 
ATOM     91  C   UNL     1       6.696 -12.044  15.562  1.00  0.00     0.198 A 
ATOM     92  C   UNL     1       5.365 -13.185  13.921  1.00  0.00     0.198 A 
ATOM     93  F   UNL     1       4.696 -12.065  11.963  1.00  0.00    -0.203 F 
ATOM     94  F   UNL     1       7.367 -12.053  16.722  1.00  0.00    -0.200 F 
ATOM     95  C   UNL     1       6.039 -13.188  15.133  1.00  0.00     0.200 A 
ATOM     96  F   UNL     1       4.720 -14.285  13.511  1.00  0.00    -0.200 F 
ATOM     97  F   UNL     1       6.059 -14.295  15.887  1.00  0.00    -0.200 F 
ENDBRANCH  64  87
ENDBRANCH  38  39
ENDBRANCH  30  33
ENDBRANCH  28  29
ENDBRANCH  27  28
ENDBRANCH   1  27
TORSDOF 14
