REMARK SMILES COc1ncnc(N2CCCC[C@H]2CC(=O)NCCCNC(=O)c2ccc(-c3c4nc(c(-c5c(F)c(F)c(F)c(F)c5F)c5ccc([nH]5)c(-c5c(F)c(F)c(F)c(F)c5F)c5nc(c(-c6c(F)c(F)c(F)c(F)c6F)c6ccc3[nH]6)C=C5)C=C4)cc2)c1[N+](=O)[O-]
REMARK SMILES IDX 18 1 17 2 15 3 16 4 14 6 13 7 8 8 9 9 10 10 12 11 11 12 7 13
REMARK SMILES IDX 3 14 4 15 87 16 5 17 6 18 2 19 1 20 88 21 89 22 90 23 19 24
REMARK SMILES IDX 20 25 21 26 22 27 23 29 24 30 25 31 86 32 26 33 85 34 27 35
REMARK SMILES IDX 28 36 29 37 79 38 30 39 84 40 78 41 80 42 31 43 83 44 77 45
REMARK SMILES IDX 76 46 32 48 64 49 44 50 63 51 45 52 48 53 62 54 81 55 46 56
REMARK SMILES IDX 47 57 61 59 82 60 49 61 33 62 34 63 42 64 35 65 36 66 40 67
REMARK SMILES IDX 43 68 37 69 38 70 41 71 39 72 65 73 66 74 74 75 67 76 68 77
REMARK SMILES IDX 72 78 75 79 69 80 70 81 73 82 71 83 50 84 51 85 59 86 52 87
REMARK SMILES IDX 53 88 57 89 60 90 54 91 55 92 58 93 56 94
REMARK H PARENT 17 5 21 28 80 47 48 58
REMARK Flexibility Score: inf
ROOT
ATOM      1  C   UNL     1       8.674  -3.820   3.988  1.00  0.00     0.117 C 
ENDROOT
BRANCH   1   2
ATOM      2  N   UNL     1       8.086  -4.423   2.804  1.00  0.00    -0.356 N 
ATOM      3  C   UNL     1       7.045  -4.068   2.004  1.00  0.00     0.222 C 
ATOM      4  O   UNL     1       6.841  -4.782   1.021  1.00  0.00    -0.275 OA
ATOM      5  H   UNL     1       8.531  -5.255   2.524  1.00  0.00     0.163 HD
BRANCH   3   6
ATOM      6  C   UNL     1       6.202  -2.843   2.285  1.00  0.00     0.125 C 
BRANCH   6   7
ATOM      7  C   UNL     1       4.830  -3.023   2.960  1.00  0.00     0.093 C 
ATOM      8  N   UNL     1       3.785  -3.570   2.067  1.00  0.00    -0.347 N 
ATOM      9  C   UNL     1       3.733  -5.030   1.893  1.00  0.00     0.118 C 
ATOM     10  C   UNL     1       3.741  -5.774   3.229  1.00  0.00     0.022 C 
ATOM     11  C   UNL     1       4.811  -3.771   4.295  1.00  0.00     0.026 C 
ATOM     12  C   UNL     1       4.854  -5.287   4.148  1.00  0.00     0.004 C 
BRANCH   8  13
ATOM     13  C   UNL     1       2.543  -2.927   2.122  1.00  0.00     0.215 A 
ATOM     14  C   UNL     1       1.064  -1.122   1.717  1.00  0.00     0.299 A 
ATOM     15  N   UNL     1       0.052  -1.738   2.353  1.00  0.00    -0.196 NA
ATOM     16  C   UNL     1       2.319  -1.669   1.601  1.00  0.00     0.372 A 
ATOM     17  C   UNL     1       0.342  -2.950   2.837  1.00  0.00     0.228 A 
ATOM     18  N   UNL     1       1.528  -3.574   2.740  1.00  0.00    -0.212 NA
BRANCH  14  19
ATOM     19  O   UNL     1       0.777   0.137   1.257  1.00  0.00    -0.476 OA
ATOM     20  C   UNL     1       0.288   0.074  -0.082  1.00  0.00     0.280 C 
ENDBRANCH  14  19
BRANCH  16  21
ATOM     21  N   UNL     1       3.324  -0.970   0.876  1.00  0.00     0.072 N 
ATOM     22  O   UNL     1       3.403  -1.193  -0.340  1.00  0.00    -0.258 OA
ATOM     23  O   UNL     1       4.022  -0.164   1.508  1.00  0.00    -0.258 OA
ENDBRANCH  16  21
ENDBRANCH   8  13
ENDBRANCH   6   7
ENDBRANCH   3   6
ENDBRANCH   1   2
BRANCH   1  24
ATOM     24  C   UNL     1       8.307  -4.532   5.291  1.00  0.00     0.042 C 
BRANCH  24  25
ATOM     25  C   UNL     1       8.410  -6.054   5.271  1.00  0.00     0.118 C 
BRANCH  25  26
ATOM     26  N   UNL     1       9.761  -6.519   5.519  1.00  0.00    -0.352 N 
ATOM     27  C   UNL     1      10.229  -7.313   6.538  1.00  0.00     0.251 C 
ATOM     28  H   UNL     1      10.436  -6.225   4.866  1.00  0.00     0.163 HD
ATOM     29  O   UNL     1      11.438  -7.440   6.702  1.00  0.00    -0.269 OA
BRANCH  27  30
ATOM     30  C   UNL     1       9.293  -8.009   7.454  1.00  0.00     0.039 A 
ATOM     31  C   UNL     1       9.568  -7.994   8.825  1.00  0.00     0.014 A 
ATOM     32  C   UNL     1       8.196  -8.734   6.974  1.00  0.00     0.014 A 
ATOM     33  C   UNL     1       8.735  -8.678   9.715  1.00  0.00     0.010 A 
ATOM     34  C   UNL     1       7.338  -9.381   7.869  1.00  0.00     0.010 A 
ATOM     35  C   UNL     1       7.608  -9.371   9.246  1.00  0.00    -0.014 A 
BRANCH  35  36
ATOM     36  C   UNL     1       6.731 -10.113  10.189  1.00  0.00     0.031 A 
ATOM     37  C   UNL     1       6.718 -11.617  10.191  1.00  0.00     0.074 A 
ATOM     38  C   UNL     1       5.927  -9.438  11.033  1.00  0.00     0.049 A 
ATOM     39  N   UNL     1       6.015 -12.438  10.932  1.00  0.00    -0.248 NA
ATOM     40  C   UNL     1       7.600 -12.287   9.224  1.00  0.00     0.031 C 
ATOM     41  C   UNL     1       5.821  -7.982  11.112  1.00  0.00     0.029 A 
ATOM     42  N   UNL     1       5.043  -9.891  11.981  1.00  0.00    -0.354 N 
ATOM     43  C   UNL     1       6.364 -13.716  10.516  1.00  0.00     0.074 A 
ATOM     44  C   UNL     1       7.310 -13.564   9.432  1.00  0.00     0.031 C 
ATOM     45  C   UNL     1       4.931  -7.659  12.065  1.00  0.00     0.029 A 
ATOM     46  C   UNL     1       4.389  -8.885  12.648  1.00  0.00     0.049 A 
ATOM     47  H   UNL     1       4.892 -10.846  12.164  1.00  0.00     0.167 HD
ATOM     48  C   UNL     1       5.948 -14.909  11.006  1.00  0.00     0.037 A 
ATOM     49  C   UNL     1       3.456  -8.943  13.618  1.00  0.00     0.037 A 
ATOM     50  C   UNL     1       5.028 -15.068  12.102  1.00  0.00     0.049 A 
ATOM     51  C   UNL     1       3.007 -10.280  14.140  1.00  0.00     0.074 A 
ATOM     52  C   UNL     1       4.602 -16.237  12.709  1.00  0.00     0.029 A 
ATOM     53  N   UNL     1       4.388 -14.025  12.752  1.00  0.00    -0.354 N 
ATOM     54  N   UNL     1       3.394 -11.479  13.784  1.00  0.00    -0.248 NA
ATOM     55  C   UNL     1       1.993 -10.269  15.206  1.00  0.00     0.031 C 
ATOM     56  C   UNL     1       3.675 -15.903  13.703  1.00  0.00     0.029 A 
ATOM     57  C   UNL     1       3.552 -14.524  13.739  1.00  0.00     0.049 A 
ATOM     58  H   UNL     1       4.508 -13.070  12.544  1.00  0.00     0.167 HD
ATOM     59  C   UNL     1       2.692 -12.363  14.591  1.00  0.00     0.074 A 
ATOM     60  C   UNL     1       1.862 -11.562  15.467  1.00  0.00     0.031 C 
ATOM     61  C   UNL     1       2.732 -13.718  14.604  1.00  0.00     0.037 A 
BRANCH  48  62
ATOM     62  C   UNL     1       6.491 -16.149  10.361  1.00  0.00     0.064 A 
ATOM     63  C   UNL     1       7.814 -16.564  10.570  1.00  0.00     0.173 A 
ATOM     64  C   UNL     1       5.666 -16.956   9.564  1.00  0.00     0.173 A 
ATOM     65  F   UNL     1       8.644 -15.820  11.317  1.00  0.00    -0.203 F 
ATOM     66  C   UNL     1       8.299 -17.732   9.987  1.00  0.00     0.198 A 
ATOM     67  C   UNL     1       6.147 -18.136   9.001  1.00  0.00     0.198 A 
ATOM     68  F   UNL     1       4.390 -16.606   9.339  1.00  0.00    -0.203 F 
ATOM     69  F   UNL     1       9.577 -18.090  10.170  1.00  0.00    -0.200 F 
ATOM     70  C   UNL     1       7.463 -18.519   9.208  1.00  0.00     0.200 A 
ATOM     71  F   UNL     1       5.336 -18.902   8.258  1.00  0.00    -0.200 F 
ATOM     72  F   UNL     1       7.929 -19.647   8.653  1.00  0.00    -0.200 F 
ENDBRANCH  48  62
BRANCH  49  73
ATOM     73  C   UNL     1       2.896  -7.687  14.177  1.00  0.00     0.064 A 
ATOM     74  C   UNL     1       3.236  -7.261  15.468  1.00  0.00     0.173 A 
ATOM     75  C   UNL     1       2.013  -6.891  13.435  1.00  0.00     0.173 A 
ATOM     76  F   UNL     1       4.059  -8.003  16.223  1.00  0.00    -0.203 F 
ATOM     77  C   UNL     1       2.702  -6.090  16.001  1.00  0.00     0.198 A 
ATOM     78  C   UNL     1       1.497  -5.708  13.961  1.00  0.00     0.198 A 
ATOM     79  F   UNL     1       1.659  -7.257  12.194  1.00  0.00    -0.203 F 
ATOM     80  F   UNL     1       3.015  -5.723  17.252  1.00  0.00    -0.200 F 
ATOM     81  C   UNL     1       1.838  -5.312  15.245  1.00  0.00     0.200 A 
ATOM     82  F   UNL     1       0.671  -4.954  13.224  1.00  0.00    -0.200 F 
ATOM     83  F   UNL     1       1.328  -4.183  15.757  1.00  0.00    -0.200 F 
ENDBRANCH  49  73
BRANCH  61  84
ATOM     84  C   UNL     1       1.868 -14.421  15.608  1.00  0.00     0.064 A 
ATOM     85  C   UNL     1       0.479 -14.516  15.438  1.00  0.00     0.173 A 
ATOM     86  C   UNL     1       2.438 -15.038  16.731  1.00  0.00     0.173 A 
ATOM     87  F   UNL     1      -0.114 -13.929  14.388  1.00  0.00    -0.203 F 
ATOM     88  C   UNL     1      -0.310 -15.188  16.368  1.00  0.00     0.198 A 
ATOM     89  C   UNL     1       1.649 -15.728  17.647  1.00  0.00     0.198 A 
ATOM     90  F   UNL     1       3.762 -14.978  16.936  1.00  0.00    -0.203 F 
ATOM     91  F   UNL     1      -1.640 -15.234  16.206  1.00  0.00    -0.200 F 
ATOM     92  C   UNL     1       0.275 -15.798  17.467  1.00  0.00     0.200 A 
ATOM     93  F   UNL     1       2.216 -16.325  18.704  1.00  0.00    -0.200 F 
ATOM     94  F   UNL     1      -0.486 -16.448  18.359  1.00  0.00    -0.200 F 
ENDBRANCH  61  84
ENDBRANCH  35  36
ENDBRANCH  27  30
ENDBRANCH  25  26
ENDBRANCH  24  25
ENDBRANCH   1  24
TORSDOF 14
