REMARK SMILES O=C(NCCCNC(=O)[C@@H]1CCCC[C@H]1C(=O)Nc1ccc(NC(=O)c2ccco2)cc1)c1ccc(-c2c3nc(c(-c4c(F)c(F)c(F)c(F)c4F)c4ccc([nH]4)c(-c4c(F)c(F)c(F)c(F)c4F)c4nc(c(-c5c(F)c(F)c(F)c(F)c5F)c5ccc2[nH]5)C=C4)C=C3)cc1
REMARK SMILES IDX 6 1 5 2 4 3 3 4 1 5 2 6 33 8 34 9 95 10 35 11 94 12 36 13
REMARK SMILES IDX 37 14 38 15 88 16 39 17 93 18 87 19 89 20 40 21 92 22 86 23
REMARK SMILES IDX 85 24 41 26 73 27 53 28 72 29 54 30 57 31 71 32 90 33 55 34
REMARK SMILES IDX 56 35 70 37 91 38 58 39 42 40 43 41 51 42 44 43 45 44 49 45
REMARK SMILES IDX 52 46 46 47 47 48 50 49 48 50 74 51 75 52 83 53 76 54 77 55
REMARK SMILES IDX 81 56 84 57 78 58 79 59 82 60 80 61 59 62 60 63 68 64 61 65
REMARK SMILES IDX 62 66 66 67 69 68 63 69 64 70 67 71 65 72 7 73 8 74 9 76
REMARK SMILES IDX 10 77 11 78 15 79 12 80 14 81 13 82 16 83 17 84 18 85 19 87
REMARK SMILES IDX 20 88 32 89 21 90 31 91 22 92 23 93 24 94 25 96 26 97 27 98
REMARK SMILES IDX 30 99 28 100 29 101
REMARK H PARENT 3 7 89 25 57 36 7 75 18 86 23 95
REMARK Flexibility Score: inf
ROOT
ATOM      1  C   UNL     1       4.357   3.826   0.361  1.00  0.00     0.117 C 
ENDROOT
BRANCH   1   2
ATOM      2  C   UNL     1       4.901   2.533  -0.226  1.00  0.00     0.042 C 
BRANCH   2   3
ATOM      3  C   UNL     1       4.575   1.308   0.616  1.00  0.00     0.118 C 
BRANCH   3   4
ATOM      4  N   UNL     1       3.152   0.993   0.608  1.00  0.00    -0.352 N 
ATOM      5  O   UNL     1       1.261  -0.107   0.104  1.00  0.00    -0.269 OA
ATOM      6  C   UNL     1       2.486  -0.135   0.198  1.00  0.00     0.251 C 
ATOM      7  H   UNL     1       2.572   1.708   0.955  1.00  0.00     0.163 HD
BRANCH   6   8
ATOM      8  C   UNL     1       3.216  -1.379  -0.139  1.00  0.00     0.039 A 
ATOM      9  C   UNL     1       4.334  -1.787   0.591  1.00  0.00     0.014 A 
ATOM     10  C   UNL     1       2.725  -2.194  -1.166  1.00  0.00     0.014 A 
ATOM     11  C   UNL     1       5.034  -2.928   0.213  1.00  0.00     0.010 A 
ATOM     12  C   UNL     1       3.377  -3.390  -1.487  1.00  0.00     0.010 A 
ATOM     13  C   UNL     1       4.550  -3.755  -0.813  1.00  0.00    -0.014 A 
BRANCH  13  14
ATOM     14  C   UNL     1       5.248  -5.034  -1.096  1.00  0.00     0.031 A 
ATOM     15  C   UNL     1       5.941  -5.273  -2.406  1.00  0.00     0.074 A 
ATOM     16  C   UNL     1       5.279  -5.974  -0.131  1.00  0.00     0.049 A 
ATOM     17  N   UNL     1       6.633  -6.317  -2.791  1.00  0.00    -0.248 NA
ATOM     18  C   UNL     1       5.843  -4.213  -3.420  1.00  0.00     0.031 C 
ATOM     19  C   UNL     1       4.617  -5.864   1.172  1.00  0.00     0.029 A 
ATOM     20  N   UNL     1       5.908  -7.192  -0.080  1.00  0.00    -0.354 N 
ATOM     21  C   UNL     1       7.031  -6.051  -4.094  1.00  0.00     0.074 A 
ATOM     22  C   UNL     1       6.493  -4.753  -4.442  1.00  0.00     0.031 C 
ATOM     23  C   UNL     1       4.919  -6.940   1.912  1.00  0.00     0.029 A 
ATOM     24  C   UNL     1       5.749  -7.840   1.120  1.00  0.00     0.049 A 
ATOM     25  H   UNL     1       6.423  -7.565  -0.831  1.00  0.00     0.167 HD
ATOM     26  C   UNL     1       7.783  -6.819  -4.917  1.00  0.00     0.037 A 
ATOM     27  C   UNL     1       6.214  -9.032   1.537  1.00  0.00     0.037 A 
ATOM     28  C   UNL     1       8.342  -8.097  -4.556  1.00  0.00     0.049 A 
ATOM     29  C   UNL     1       7.058  -9.852   0.606  1.00  0.00     0.074 A 
ATOM     30  C   UNL     1       9.157  -8.926  -5.308  1.00  0.00     0.029 A 
ATOM     31  N   UNL     1       8.144  -8.730  -3.338  1.00  0.00    -0.354 N 
ATOM     32  N   UNL     1       7.457  -9.570  -0.610  1.00  0.00    -0.248 NA
ATOM     33  C   UNL     1       7.511 -11.158   1.101  1.00  0.00     0.031 C 
ATOM     34  C   UNL     1       9.426 -10.076  -4.557  1.00  0.00     0.029 A 
ATOM     35  C   UNL     1       8.806  -9.947  -3.325  1.00  0.00     0.049 A 
ATOM     36  H   UNL     1       7.611  -8.368  -2.593  1.00  0.00     0.167 HD
ATOM     37  C   UNL     1       8.208 -10.658  -1.025  1.00  0.00     0.074 A 
ATOM     38  C   UNL     1       8.234 -11.595   0.080  1.00  0.00     0.031 C 
ATOM     39  C   UNL     1       8.814 -10.867  -2.218  1.00  0.00     0.037 A 
BRANCH  26  40
ATOM     40  C   UNL     1       8.047  -6.310  -6.303  1.00  0.00     0.064 A 
ATOM     41  C   UNL     1       8.979  -5.291  -6.544  1.00  0.00     0.173 A 
ATOM     42  C   UNL     1       7.415  -6.901  -7.407  1.00  0.00     0.173 A 
ATOM     43  F   UNL     1       9.601  -4.688  -5.520  1.00  0.00    -0.203 F 
ATOM     44  C   UNL     1       9.261  -4.874  -7.843  1.00  0.00     0.198 A 
ATOM     45  C   UNL     1       7.715  -6.495  -8.705  1.00  0.00     0.198 A 
ATOM     46  F   UNL     1       6.520  -7.884  -7.228  1.00  0.00    -0.203 F 
ATOM     47  F   UNL     1      10.139  -3.882  -8.051  1.00  0.00    -0.200 F 
ATOM     48  C   UNL     1       8.636  -5.482  -8.922  1.00  0.00     0.200 A 
ATOM     49  F   UNL     1       7.117  -7.090  -9.747  1.00  0.00    -0.200 F 
ATOM     50  F   UNL     1       8.920  -5.089 -10.171  1.00  0.00    -0.200 F 
ENDBRANCH  26  40
BRANCH  27  51
ATOM     51  C   UNL     1       5.887  -9.513   2.902  1.00  0.00     0.064 A 
ATOM     52  C   UNL     1       6.870  -9.581   3.898  1.00  0.00     0.173 A 
ATOM     53  C   UNL     1       4.582  -9.898   3.243  1.00  0.00     0.173 A 
ATOM     54  F   UNL     1       8.136  -9.241   3.612  1.00  0.00    -0.203 F 
ATOM     55  C   UNL     1       6.563 -10.026   5.181  1.00  0.00     0.198 A 
ATOM     56  C   UNL     1       4.270 -10.317   4.533  1.00  0.00     0.198 A 
ATOM     57  F   UNL     1       3.606  -9.845   2.325  1.00  0.00    -0.203 F 
ATOM     58  F   UNL     1       7.528 -10.114   6.106  1.00  0.00    -0.200 F 
ATOM     59  C   UNL     1       5.262 -10.387   5.500  1.00  0.00     0.200 A 
ATOM     60  F   UNL     1       3.009 -10.650   4.841  1.00  0.00    -0.200 F 
ATOM     61  F   UNL     1       4.965 -10.806   6.737  1.00  0.00    -0.200 F 
ENDBRANCH  27  51
BRANCH  39  62
ATOM     62  C   UNL     1       9.557 -12.157  -2.382  1.00  0.00     0.064 A 
ATOM     63  C   UNL     1       8.877 -13.368  -2.575  1.00  0.00     0.173 A 
ATOM     64  C   UNL     1      10.959 -12.180  -2.368  1.00  0.00     0.173 A 
ATOM     65  F   UNL     1       7.536 -13.396  -2.578  1.00  0.00    -0.203 F 
ATOM     66  C   UNL     1       9.576 -14.562  -2.727  1.00  0.00     0.198 A 
ATOM     67  C   UNL     1      11.655 -13.372  -2.542  1.00  0.00     0.198 A 
ATOM     68  F   UNL     1      11.652 -11.045  -2.189  1.00  0.00    -0.203 F 
ATOM     69  F   UNL     1       8.908 -15.715  -2.868  1.00  0.00    -0.200 F 
ATOM     70  C   UNL     1      10.963 -14.562  -2.715  1.00  0.00     0.200 A 
ATOM     71  F   UNL     1      12.995 -13.371  -2.537  1.00  0.00    -0.200 F 
ATOM     72  F   UNL     1      11.635 -15.713  -2.861  1.00  0.00    -0.200 F 
ENDBRANCH  39  62
ENDBRANCH  13  14
ENDBRANCH   6   8
ENDBRANCH   3   4
ENDBRANCH   2   3
ENDBRANCH   1   2
BRANCH   1  73
ATOM     73  N   UNL     1       5.115   4.294   1.506  1.00  0.00    -0.356 N 
ATOM     74  C   UNL     1       6.095   5.242   1.582  1.00  0.00     0.223 C 
ATOM     75  H   UNL     1       4.887   3.862   2.361  1.00  0.00     0.163 HD
ATOM     76  O   UNL     1       6.597   5.472   2.681  1.00  0.00    -0.275 OA
BRANCH  74  77
ATOM     77  C   UNL     1       6.534   5.978   0.313  1.00  0.00     0.091 C 
ATOM     78  C   UNL     1       8.053   6.223   0.373  1.00  0.00     0.014 C 
ATOM     79  C   UNL     1       5.764   7.310   0.168  1.00  0.00     0.091 C 
ATOM     80  C   UNL     1       8.544   7.088  -0.780  1.00  0.00     0.001 C 
ATOM     81  C   UNL     1       6.360   8.370  -0.777  1.00  0.00     0.014 C 
ATOM     82  C   UNL     1       7.880   8.456  -0.745  1.00  0.00     0.001 C 
BRANCH  79  83
ATOM     83  C   UNL     1       4.268   7.152  -0.085  1.00  0.00     0.228 C 
ATOM     84  O   UNL     1       3.485   7.352   0.855  1.00  0.00    -0.274 OA
ATOM     85  N   UNL     1       3.676   6.818  -1.264  1.00  0.00    -0.326 N 
ATOM     86  H   UNL     1       2.698   6.917  -1.212  1.00  0.00     0.169 HD
BRANCH  85  87
ATOM     87  C   UNL     1       4.075   6.371  -2.537  1.00  0.00     0.041 A 
ATOM     88  C   UNL     1       3.061   6.231  -3.491  1.00  0.00     0.028 A 
ATOM     89  C   UNL     1       5.363   6.017  -2.916  1.00  0.00     0.028 A 
ATOM     90  C   UNL     1       3.347   5.809  -4.796  1.00  0.00     0.028 A 
ATOM     91  C   UNL     1       5.654   5.564  -4.207  1.00  0.00     0.028 A 
ATOM     92  C   UNL     1       4.657   5.515  -5.172  1.00  0.00     0.041 A 
BRANCH  92  93
ATOM     93  N   UNL     1       5.040   5.152  -6.471  1.00  0.00    -0.319 N 
ATOM     94  C   UNL     1       4.451   5.444  -7.685  1.00  0.00     0.291 C 
ATOM     95  H   UNL     1       5.857   4.604  -6.526  1.00  0.00     0.170 HD
ATOM     96  O   UNL     1       4.810   4.791  -8.667  1.00  0.00    -0.265 OA
BRANCH  94  97
ATOM     97  C   UNL     1       3.535   6.561  -7.766  1.00  0.00     0.191 A 
ATOM     98  C   UNL     1       3.591   7.848  -7.256  1.00  0.00     0.056 A 
ATOM     99  O   UNL     1       2.362   6.397  -8.450  1.00  0.00    -0.459 OA
ATOM    100  C   UNL     1       2.375   8.479  -7.607  1.00  0.00     0.043 A 
ATOM    101  C   UNL     1       1.664   7.555  -8.334  1.00  0.00     0.196 A 
ENDBRANCH  94  97
ENDBRANCH  92  93
ENDBRANCH  85  87
ENDBRANCH  79  83
ENDBRANCH  74  77
ENDBRANCH   1  73
TORSDOF 14
