REMARK SMILES O=C(CC1(CN2CC3(CCCCC3)CC2=O)CCCCC1)NCCCNC(=O)c1ccc(-c2c3nc(c(-c4c(F)c(F)c(F)c(F)c4F)c4ccc([nH]4)c(-c4c(F)c(F)c(F)c(F)c4F)c4nc(c(-c5c(F)c(F)c(F)c(F)c5F)c5ccc2[nH]5)C=C4)C=C3)cc1
REMARK SMILES IDX 23 1 22 2 1 3 2 4 3 6 4 7 17 8 21 9 18 10 20 11 19 12 5 13
REMARK SMILES IDX 6 14 7 15 15 16 8 17 14 18 16 19 9 20 13 21 10 22 12 23
REMARK SMILES IDX 11 24 24 25 25 26 26 27 27 28 28 30 29 31 30 32 91 33 31 34
REMARK SMILES IDX 90 35 32 36 33 37 34 38 84 39 35 40 89 41 83 42 85 43 36 44
REMARK SMILES IDX 88 45 82 46 81 47 37 49 69 50 49 51 68 52 50 53 53 54 67 55
REMARK SMILES IDX 86 56 51 57 52 58 66 60 87 61 54 62 38 63 39 64 47 65 40 66
REMARK SMILES IDX 41 67 45 68 48 69 42 70 43 71 46 72 44 73 70 74 71 75 79 76
REMARK SMILES IDX 72 77 73 78 77 79 80 80 74 81 75 82 78 83 76 84 55 85 56 86
REMARK SMILES IDX 64 87 57 88 58 89 62 90 65 91 59 92 60 93 63 94 61 95
REMARK H PARENT 22 5 26 29 85 48 53 59
REMARK Flexibility Score: inf
ROOT
ATOM      1  C   UNL     1       1.983   1.559  -1.675  1.00  0.00     0.117 C 
ENDROOT
BRANCH   1   2
ATOM      2  N   UNL     1       2.642   0.881  -0.577  1.00  0.00    -0.356 N 
ATOM      3  O   UNL     1       0.780  -0.269   0.124  1.00  0.00    -0.275 OA
ATOM      4  C   UNL     1       1.989  -0.065   0.175  1.00  0.00     0.220 C 
ATOM      5  H   UNL     1       3.577   1.104  -0.366  1.00  0.00     0.163 HD
BRANCH   4   6
ATOM      6  C   UNL     1       2.877  -0.822   1.141  1.00  0.00     0.108 C 
BRANCH   6   7
ATOM      7  C   UNL     1       3.979  -1.754   0.547  1.00  0.00    -0.003 C 
ATOM      8  C   UNL     1       5.383  -1.075   0.708  1.00  0.00     0.009 C 
ATOM      9  C   UNL     1       4.032  -3.016   1.458  1.00  0.00     0.009 C 
ATOM     10  C   UNL     1       6.559  -2.007   0.374  1.00  0.00     0.001 C 
ATOM     11  C   UNL     1       5.172  -3.980   1.150  1.00  0.00     0.001 C 
ATOM     12  C   UNL     1       6.528  -3.291   1.197  1.00  0.00     0.000 C 
BRANCH   7  13
ATOM     13  C   UNL     1       3.809  -2.037  -0.980  1.00  0.00     0.127 C 
BRANCH  13  14
ATOM     14  N   UNL     1       2.583  -2.593  -1.528  1.00  0.00    -0.342 N 
ATOM     15  C   UNL     1       2.055  -3.874  -1.146  1.00  0.00     0.127 C 
ATOM     16  C   UNL     1       2.337  -2.404  -2.910  1.00  0.00     0.223 C 
ATOM     17  C   UNL     1       2.238  -4.740  -2.405  1.00  0.00    -0.003 C 
ATOM     18  C   UNL     1       1.763  -3.711  -3.457  1.00  0.00     0.109 C 
ATOM     19  O   UNL     1       2.639  -1.437  -3.576  1.00  0.00    -0.275 OA
ATOM     20  C   UNL     1       3.759  -5.045  -2.577  1.00  0.00     0.009 C 
ATOM     21  C   UNL     1       1.341  -5.989  -2.284  1.00  0.00     0.009 C 
ATOM     22  C   UNL     1       4.128  -6.346  -3.262  1.00  0.00     0.001 C 
ATOM     23  C   UNL     1       1.861  -7.259  -2.951  1.00  0.00     0.001 C 
ATOM     24  C   UNL     1       3.335  -7.489  -2.664  1.00  0.00     0.000 C 
ENDBRANCH  13  14
ENDBRANCH   7  13
ENDBRANCH   6   7
ENDBRANCH   4   6
ENDBRANCH   1   2
BRANCH   1  25
ATOM     25  C   UNL     1       2.231   3.061  -1.674  1.00  0.00     0.042 C 
BRANCH  25  26
ATOM     26  C   UNL     1       3.691   3.468  -1.836  1.00  0.00     0.118 C 
BRANCH  26  27
ATOM     27  N   UNL     1       4.266   3.094  -3.119  1.00  0.00    -0.352 N 
ATOM     28  C   UNL     1       5.049   3.831  -3.975  1.00  0.00     0.251 C 
ATOM     29  H   UNL     1       4.065   2.178  -3.417  1.00  0.00     0.163 HD
ATOM     30  O   UNL     1       5.365   3.370  -5.068  1.00  0.00    -0.269 OA
BRANCH  28  31
ATOM     31  C   UNL     1       5.495   5.195  -3.609  1.00  0.00     0.039 A 
ATOM     32  C   UNL     1       5.448   6.195  -4.586  1.00  0.00     0.014 A 
ATOM     33  C   UNL     1       5.981   5.493  -2.333  1.00  0.00     0.014 A 
ATOM     34  C   UNL     1       5.835   7.500  -4.271  1.00  0.00     0.010 A 
ATOM     35  C   UNL     1       6.302   6.809  -1.999  1.00  0.00     0.010 A 
ATOM     36  C   UNL     1       6.240   7.824  -2.966  1.00  0.00    -0.014 A 
BRANCH  36  37
ATOM     37  C   UNL     1       6.625   9.213  -2.605  1.00  0.00     0.031 A 
ATOM     38  C   UNL     1       8.042   9.523  -2.207  1.00  0.00     0.074 A 
ATOM     39  C   UNL     1       5.694  10.185  -2.582  1.00  0.00     0.049 A 
ATOM     40  N   UNL     1       8.560  10.655  -1.796  1.00  0.00    -0.248 NA
ATOM     41  C   UNL     1       8.999   8.407  -2.249  1.00  0.00     0.031 C 
ATOM     42  C   UNL     1       4.277  10.007  -2.901  1.00  0.00     0.029 A 
ATOM     43  N   UNL     1       5.799  11.517  -2.266  1.00  0.00    -0.354 N 
ATOM     44  C   UNL     1       9.891  10.380  -1.512  1.00  0.00     0.074 A 
ATOM     45  C   UNL     1      10.092   8.968  -1.753  1.00  0.00     0.031 C 
ATOM     46  C   UNL     1       3.649  11.189  -2.786  1.00  0.00     0.029 A 
ATOM     47  C   UNL     1       4.611  12.200  -2.357  1.00  0.00     0.049 A 
ATOM     48  H   UNL     1       6.646  11.942  -2.000  1.00  0.00     0.167 HD
ATOM     49  C   UNL     1      10.863  11.232  -1.109  1.00  0.00     0.037 A 
ATOM     50  C   UNL     1       4.331  13.496  -2.122  1.00  0.00     0.037 A 
ATOM     51  C   UNL     1      10.676  12.644  -0.907  1.00  0.00     0.049 A 
ATOM     52  C   UNL     1       5.435  14.428  -1.703  1.00  0.00     0.074 A 
ATOM     53  C   UNL     1      11.613  13.599  -0.554  1.00  0.00     0.029 A 
ATOM     54  N   UNL     1       9.466  13.306  -1.050  1.00  0.00    -0.354 N 
ATOM     55  N   UNL     1       6.702  14.167  -1.493  1.00  0.00    -0.248 NA
ATOM     56  C   UNL     1       5.071  15.837  -1.498  1.00  0.00     0.031 C 
ATOM     57  C   UNL     1      10.965  14.835  -0.454  1.00  0.00     0.029 A 
ATOM     58  C   UNL     1       9.631  14.656  -0.783  1.00  0.00     0.049 A 
ATOM     59  H   UNL     1       8.615  12.880  -1.304  1.00  0.00     0.167 HD
ATOM     60  C   UNL     1       7.291  15.380  -1.163  1.00  0.00     0.074 A 
ATOM     61  C   UNL     1       6.245  16.380  -1.209  1.00  0.00     0.031 C 
ATOM     62  C   UNL     1       8.584  15.641  -0.850  1.00  0.00     0.037 A 
BRANCH  49  63
ATOM     63  C   UNL     1      12.227  10.656  -0.865  1.00  0.00     0.064 A 
ATOM     64  C   UNL     1      13.043  10.229  -1.923  1.00  0.00     0.173 A 
ATOM     65  C   UNL     1      12.736  10.558   0.439  1.00  0.00     0.173 A 
ATOM     66  F   UNL     1      12.597  10.290  -3.186  1.00  0.00    -0.203 F 
ATOM     67  C   UNL     1      14.307   9.697  -1.683  1.00  0.00     0.198 A 
ATOM     68  C   UNL     1      14.011  10.051   0.673  1.00  0.00     0.198 A 
ATOM     69  F   UNL     1      11.998  10.958   1.486  1.00  0.00    -0.203 F 
ATOM     70  F   UNL     1      15.049   9.249  -2.705  1.00  0.00    -0.200 F 
ATOM     71  C   UNL     1      14.792   9.613  -0.386  1.00  0.00     0.200 A 
ATOM     72  F   UNL     1      14.484   9.980   1.925  1.00  0.00    -0.200 F 
ATOM     73  F   UNL     1      16.010   9.104  -0.157  1.00  0.00    -0.200 F 
ENDBRANCH  49  63
BRANCH  50  74
ATOM     74  C   UNL     1       2.948  14.001  -2.316  1.00  0.00     0.064 A 
ATOM     75  C   UNL     1       2.635  14.834  -3.398  1.00  0.00     0.173 A 
ATOM     76  C   UNL     1       1.917  13.669  -1.426  1.00  0.00     0.173 A 
ATOM     77  F   UNL     1       3.594  15.197  -4.263  1.00  0.00    -0.203 F 
ATOM     78  C   UNL     1       1.346  15.332  -3.574  1.00  0.00     0.198 A 
ATOM     79  C   UNL     1       0.622  14.148  -1.616  1.00  0.00     0.198 A 
ATOM     80  F   UNL     1       2.166  12.872  -0.376  1.00  0.00    -0.203 F 
ATOM     81  F   UNL     1       1.083  16.162  -4.593  1.00  0.00    -0.200 F 
ATOM     82  C   UNL     1       0.340  14.985  -2.685  1.00  0.00     0.200 A 
ATOM     83  F   UNL     1      -0.350  13.803  -0.761  1.00  0.00    -0.200 F 
ATOM     84  F   UNL     1      -0.900  15.464  -2.854  1.00  0.00    -0.200 F 
ENDBRANCH  50  74
BRANCH  62  85
ATOM     85  C   UNL     1       8.950  17.069  -0.576  1.00  0.00     0.064 A 
ATOM     86  C   UNL     1       8.581  17.706   0.618  1.00  0.00     0.173 A 
ATOM     87  C   UNL     1       9.713  17.795  -1.503  1.00  0.00     0.173 A 
ATOM     88  F   UNL     1       7.839  17.058   1.528  1.00  0.00    -0.203 F 
ATOM     89  C   UNL     1       8.945  19.028   0.863  1.00  0.00     0.198 A 
ATOM     90  C   UNL     1      10.096  19.108  -1.243  1.00  0.00     0.198 A 
ATOM     91  F   UNL     1      10.094  17.227  -2.657  1.00  0.00    -0.203 F 
ATOM     92  F   UNL     1       8.549  19.631   1.992  1.00  0.00    -0.200 F 
ATOM     93  C   UNL     1       9.707  19.725  -0.064  1.00  0.00     0.200 A 
ATOM     94  F   UNL     1      10.840  19.776  -2.135  1.00  0.00    -0.200 F 
ATOM     95  F   UNL     1      10.061  20.994   0.177  1.00  0.00    -0.200 F 
ENDBRANCH  62  85
ENDBRANCH  36  37
ENDBRANCH  28  31
ENDBRANCH  26  27
ENDBRANCH  25  26
ENDBRANCH   1  25
TORSDOF 13
