REMARK SMILES O=C(N/N=C\c1ccccc1C(=O)NCCCNC(=O)c1ccc(-c2c3nc(c(-c4c(F)c(F)c(F)c(F)c4F)c4ccc([nH]4)c(-c4c(F)c(F)c(F)c(F)c4F)c4nc(c(-c5c(F)c(F)c(F)c(F)c5F)c5ccc2[nH]5)C=C4)C=C3)cc1)C(=O)N1CCCCC1
REMARK SMILES IDX 15 1 14 2 12 3 13 4 11 6 6 7 7 8 8 9 10 10 9 11 5 12 4 13
REMARK SMILES IDX 3 14 1 15 2 16 84 18 85 19 86 20 87 21 91 22 88 23 90 24
REMARK SMILES IDX 89 25 16 26 17 27 18 28 19 29 20 31 21 32 22 33 83 34 23 35
REMARK SMILES IDX 82 36 24 37 25 38 26 39 76 40 27 41 81 42 75 43 77 44 28 45
REMARK SMILES IDX 80 46 74 47 73 48 29 50 61 51 41 52 60 53 42 54 45 55 59 56
REMARK SMILES IDX 78 57 43 58 44 59 58 61 79 62 46 63 30 64 31 65 39 66 32 67
REMARK SMILES IDX 33 68 37 69 40 70 34 71 35 72 38 73 36 74 62 75 63 76 71 77
REMARK SMILES IDX 64 78 65 79 69 80 72 81 66 82 67 83 70 84 68 85 47 86 48 87
REMARK SMILES IDX 56 88 49 89 50 90 54 91 57 92 51 93 52 94 55 95 53 96
REMARK H PARENT 14 5 3 17 18 30 77 49 45 60
REMARK Flexibility Score: inf
ROOT
ATOM      1  C   UNL     1       4.250   0.628   2.392  1.00  0.00     0.118 C 
ENDROOT
BRANCH   1   2
ATOM      2  N   UNL     1       3.331   1.643   2.016  1.00  0.00    -0.352 N 
ATOM      3  C   UNL     1       2.912   1.942   0.762  1.00  0.00     0.251 C 
ATOM      4  O   UNL     1       2.216   2.942   0.605  1.00  0.00    -0.269 OA
ATOM      5  H   UNL     1       2.957   2.189   2.745  1.00  0.00     0.163 HD
BRANCH   3   6
ATOM      6  C   UNL     1       3.301   1.145  -0.425  1.00  0.00     0.048 A 
ATOM      7  C   UNL     1       3.654  -0.651  -0.569  1.00  0.00     0.007 A 
ATOM      8  C   UNL     1       3.729  -1.460  -2.223  1.00  0.00     0.010 A 
ATOM      9  C   UNL     1       3.645  -0.443  -3.709  1.00  0.00     0.001 A 
ATOM     10  C   UNL     1       3.050   2.097  -1.944  1.00  0.00     0.014 A 
ATOM     11  C   UNL     1       3.314   1.334  -3.582  1.00  0.00     0.001 A 
BRANCH   7  12
ATOM     12  C   UNL     1       3.571  -1.643   0.468  1.00  0.00     0.142 C 
ATOM     13  N   UNL     1       2.409  -2.052   0.799  1.00  0.00    -0.180 NA
BRANCH  13  14
ATOM     14  N   UNL     1       1.391  -1.430   0.149  1.00  0.00    -0.239 N 
ATOM     15  O   UNL     1       0.202   0.113  -0.853  1.00  0.00    -0.262 OA
ATOM     16  C   UNL     1       1.325  -0.419  -0.830  1.00  0.00     0.329 C 
ATOM     17  H   UNL     1       0.504  -1.759   0.423  1.00  0.00     0.194 HD
BRANCH  16  18
ATOM     18  C   UNL     1       2.483   0.124  -2.037  1.00  0.00     0.313 C 
ATOM     19  O   UNL     1       1.597   0.316  -2.948  1.00  0.00    -0.263 OA
ATOM     20  N   UNL     1       4.448   0.495  -2.016  1.00  0.00    -0.334 N 
ATOM     21  C   UNL     1       5.382   1.864  -2.430  1.00  0.00     0.120 C 
ATOM     22  C   UNL     1       5.802  -0.452  -1.528  1.00  0.00     0.120 C 
ATOM     23  C   UNL     1       6.456   1.603  -3.499  1.00  0.00     0.022 C 
ATOM     24  C   UNL     1       6.778  -0.708  -2.684  1.00  0.00     0.022 C 
ATOM     25  C   UNL     1       7.478   0.565  -3.088  1.00  0.00     0.004 C 
ENDBRANCH  16  18
ENDBRANCH  13  14
ENDBRANCH   7  12
ENDBRANCH   3   6
ENDBRANCH   1   2
BRANCH   1  26
ATOM     26  C   UNL     1       5.588   1.153   2.830  1.00  0.00     0.042 C 
BRANCH  26  27
ATOM     27  C   UNL     1       5.724   1.067   4.322  1.00  0.00     0.118 C 
BRANCH  27  28
ATOM     28  N   UNL     1       5.497  -0.281   4.850  1.00  0.00    -0.352 N 
ATOM     29  C   UNL     1       6.157  -0.934   5.859  1.00  0.00     0.251 C 
ATOM     30  H   UNL     1       4.771  -0.788   4.420  1.00  0.00     0.163 HD
ATOM     31  O   UNL     1       5.897  -2.098   6.134  1.00  0.00    -0.269 OA
BRANCH  29  32
ATOM     32  C   UNL     1       7.233  -0.211   6.546  1.00  0.00     0.039 A 
ATOM     33  C   UNL     1       8.465  -0.839   6.711  1.00  0.00     0.014 A 
ATOM     34  C   UNL     1       7.056   1.135   6.863  1.00  0.00     0.014 A 
ATOM     35  C   UNL     1       9.548  -0.079   7.132  1.00  0.00     0.010 A 
ATOM     36  C   UNL     1       8.167   1.919   7.086  1.00  0.00     0.010 A 
ATOM     37  C   UNL     1       9.414   1.312   7.275  1.00  0.00    -0.014 A 
BRANCH  37  38
ATOM     38  C   UNL     1      10.542   2.158   7.710  1.00  0.00     0.031 A 
ATOM     39  C   UNL     1      10.396   2.966   8.970  1.00  0.00     0.074 A 
ATOM     40  C   UNL     1      11.652   2.234   6.953  1.00  0.00     0.049 A 
ATOM     41  N   UNL     1      11.227   3.821   9.504  1.00  0.00    -0.248 NA
ATOM     42  C   UNL     1       9.122   2.838   9.701  1.00  0.00     0.031 C 
ATOM     43  C   UNL     1      11.864   1.539   5.681  1.00  0.00     0.029 A 
ATOM     44  N   UNL     1      12.814   2.929   7.150  1.00  0.00    -0.354 N 
ATOM     45  C   UNL     1      10.565   4.338  10.609  1.00  0.00     0.074 A 
ATOM     46  C   UNL     1       9.231   3.790  10.610  1.00  0.00     0.031 C 
ATOM     47  C   UNL     1      13.104   1.800   5.241  1.00  0.00     0.029 A 
ATOM     48  C   UNL     1      13.753   2.715   6.172  1.00  0.00     0.049 A 
ATOM     49  H   UNL     1      12.963   3.525   7.920  1.00  0.00     0.167 HD
ATOM     50  C   UNL     1      11.044   5.161  11.568  1.00  0.00     0.037 A 
ATOM     51  C   UNL     1      15.000   3.207   6.054  1.00  0.00     0.037 A 
ATOM     52  C   UNL     1      12.387   5.667  11.570  1.00  0.00     0.049 A 
ATOM     53  C   UNL     1      15.512   4.126   7.131  1.00  0.00     0.074 A 
ATOM     54  C   UNL     1      13.009   6.464  12.511  1.00  0.00     0.029 A 
ATOM     55  N   UNL     1      13.319   5.419  10.570  1.00  0.00    -0.354 N 
ATOM     56  N   UNL     1      14.906   4.554   8.213  1.00  0.00    -0.248 NA
ATOM     57  C   UNL     1      16.885   4.621   6.974  1.00  0.00     0.031 C 
ATOM     58  C   UNL     1      14.297   6.751  12.050  1.00  0.00     0.029 A 
ATOM     59  C   UNL     1      14.504   6.071  10.858  1.00  0.00     0.049 A 
ATOM     60  H   UNL     1      13.159   4.863   9.773  1.00  0.00     0.167 HD
ATOM     61  C   UNL     1      15.833   5.339   8.885  1.00  0.00     0.074 A 
ATOM     62  C   UNL     1      17.046   5.315   8.092  1.00  0.00     0.031 C 
ATOM     63  C   UNL     1      15.698   6.018  10.052  1.00  0.00     0.037 A 
BRANCH  50  64
ATOM     64  C   UNL     1      10.108   5.549  12.677  1.00  0.00     0.064 A 
ATOM     65  C   UNL     1       9.609   4.606  13.593  1.00  0.00     0.173 A 
ATOM     66  C   UNL     1       9.691   6.880  12.820  1.00  0.00     0.173 A 
ATOM     67  F   UNL     1       9.957   3.314  13.491  1.00  0.00    -0.203 F 
ATOM     68  C   UNL     1       8.695   4.974  14.577  1.00  0.00     0.198 A 
ATOM     69  C   UNL     1       8.810   7.252  13.833  1.00  0.00     0.198 A 
ATOM     70  F   UNL     1      10.132   7.822  11.974  1.00  0.00    -0.203 F 
ATOM     71  F   UNL     1       8.174   4.041  15.386  1.00  0.00    -0.200 F 
ATOM     72  C   UNL     1       8.303   6.297  14.701  1.00  0.00     0.200 A 
ATOM     73  F   UNL     1       8.441   8.534  13.959  1.00  0.00    -0.200 F 
ATOM     74  F   UNL     1       7.425   6.651  15.650  1.00  0.00    -0.200 F 
ENDBRANCH  50  64
BRANCH  51  75
ATOM     75  C   UNL     1      15.854   2.804   4.907  1.00  0.00     0.064 A 
ATOM     76  C   UNL     1      16.989   2.004   5.099  1.00  0.00     0.173 A 
ATOM     77  C   UNL     1      15.551   3.198   3.595  1.00  0.00     0.173 A 
ATOM     78  F   UNL     1      17.328   1.609   6.335  1.00  0.00    -0.203 F 
ATOM     79  C   UNL     1      17.803   1.637   4.029  1.00  0.00     0.198 A 
ATOM     80  C   UNL     1      16.347   2.804   2.522  1.00  0.00     0.198 A 
ATOM     81  F   UNL     1      14.469   3.952   3.353  1.00  0.00    -0.203 F 
ATOM     82  F   UNL     1      18.907   0.911   4.249  1.00  0.00    -0.200 F 
ATOM     83  C   UNL     1      17.478   2.032   2.740  1.00  0.00     0.200 A 
ATOM     84  F   UNL     1      16.016   3.169   1.276  1.00  0.00    -0.200 F 
ATOM     85  F   UNL     1      18.256   1.672   1.710  1.00  0.00    -0.200 F 
ENDBRANCH  51  75
BRANCH  63  86
ATOM     86  C   UNL     1      16.907   6.744  10.567  1.00  0.00     0.064 A 
ATOM     87  C   UNL     1      17.410   7.889   9.933  1.00  0.00     0.173 A 
ATOM     88  C   UNL     1      17.541   6.309  11.741  1.00  0.00     0.173 A 
ATOM     89  F   UNL     1      16.846   8.339   8.802  1.00  0.00    -0.203 F 
ATOM     90  C   UNL     1      18.526   8.551  10.437  1.00  0.00     0.198 A 
ATOM     91  C   UNL     1      18.631   6.997  12.264  1.00  0.00     0.198 A 
ATOM     92  F   UNL     1      17.092   5.225  12.392  1.00  0.00    -0.203 F 
ATOM     93  F   UNL     1      19.027   9.607   9.782  1.00  0.00    -0.200 F 
ATOM     94  C   UNL     1      19.129   8.110  11.606  1.00  0.00     0.200 A 
ATOM     95  F   UNL     1      19.198   6.582  13.405  1.00  0.00    -0.200 F 
ATOM     96  F   UNL     1      20.197   8.755  12.094  1.00  0.00    -0.200 F 
ENDBRANCH  63  86
ENDBRANCH  37  38
ENDBRANCH  29  32
ENDBRANCH  27  28
ENDBRANCH  26  27
ENDBRANCH   1  26
TORSDOF 13
