REMARK SMILES COc1cc(NC(=O)C2CCN(S(=O)(=O)c3cccs3)CC2)c(Cl)cc1C(=O)NCCCNC(=O)c1ccc(-c2c3nc(c(-c4c(F)c(F)c(F)c(F)c4F)c4ccc([nH]4)c(-c4c(F)c(F)c(F)c(F)c4F)c4nc(c(-c5c(F)c(F)c(F)c(F)c5F)c5ccc2[nH]5)C=C4)C=C3)cc1
REMARK SMILES IDX 30 1 29 2 27 3 28 4 26 6 3 7 4 8 5 9 25 10 23 11 24 12 2 13
REMARK SMILES IDX 1 14 6 15 7 16 8 18 9 19 10 20 22 21 11 22 21 23 12 24 13 25
REMARK SMILES IDX 14 26 15 27 16 28 17 29 20 30 18 31 19 32 31 33 32 34 33 35
REMARK SMILES IDX 34 36 35 38 36 39 37 40 98 41 38 42 97 43 39 44 40 45 41 46
REMARK SMILES IDX 91 47 42 48 96 49 90 50 92 51 43 52 95 53 89 54 88 55 44 57
REMARK SMILES IDX 76 58 56 59 75 60 57 61 60 62 74 63 93 64 58 65 59 66 73 68
REMARK SMILES IDX 94 69 61 70 45 71 46 72 54 73 47 74 48 75 52 76 55 77 49 78
REMARK SMILES IDX 50 79 53 80 51 81 77 82 78 83 86 84 79 85 80 86 84 87 87 88
REMARK SMILES IDX 81 89 82 90 85 91 83 92 62 93 63 94 71 95 64 96 65 97 69 98
REMARK SMILES IDX 72 99 66 100 67 101 70 102 68 103
REMARK H PARENT 29 5 6 17 33 37 92 56 60 67
REMARK Flexibility Score: inf
ROOT
ATOM      1  C   UNL     1      -1.609  -0.718  -1.434  1.00  0.00     0.118 C 
ENDROOT
BRANCH   1   2
ATOM      2  N   UNL     1      -2.160   0.284  -2.325  1.00  0.00    -0.352 N 
ATOM      3  C   UNL     1      -1.649   1.406  -2.923  1.00  0.00     0.255 C 
ATOM      4  O   UNL     1      -2.395   1.948  -3.745  1.00  0.00    -0.269 OA
ATOM      5  H   UNL     1      -3.105   0.124  -2.549  1.00  0.00     0.163 HD
BRANCH   3   6
ATOM      6  C   UNL     1      -0.275   1.979  -2.743  1.00  0.00     0.083 A 
ATOM      7  C   UNL     1       0.536   1.962  -1.591  1.00  0.00     0.133 A 
ATOM      8  C   UNL     1       1.805   2.572  -1.639  1.00  0.00     0.075 A 
ATOM      9  C   UNL     1       2.340   3.049  -2.828  1.00  0.00     0.063 A 
ATOM     10  C   UNL     1       0.190   2.697  -3.868  1.00  0.00     0.040 A 
ATOM     11  C   UNL     1       1.475   3.234  -3.909  1.00  0.00     0.065 A 
ATOM     12  Cl  UNL     1       1.994   4.031  -5.350  1.00  0.00    -0.082 Cl
BRANCH   7  13
ATOM     13  O   UNL     1       0.044   1.390  -0.460  1.00  0.00    -0.496 OA
ATOM     14  C   UNL     1       0.859   1.079   0.667  1.00  0.00     0.278 C 
ENDBRANCH   7  13
BRANCH   9  15
ATOM     15  N   UNL     1       3.710   3.302  -3.009  1.00  0.00    -0.324 N 
ATOM     16  C   UNL     1       4.861   2.666  -2.652  1.00  0.00     0.227 C 
ATOM     17  H   UNL     1       3.878   4.133  -3.509  1.00  0.00     0.169 HD
ATOM     18  O   UNL     1       5.891   3.203  -3.091  1.00  0.00    -0.274 OA
BRANCH  16  19
ATOM     19  C   UNL     1       5.029   1.385  -1.796  1.00  0.00     0.081 C 
ATOM     20  C   UNL     1       6.150   0.488  -2.383  1.00  0.00     0.030 C 
ATOM     21  C   UNL     1       3.900   0.409  -1.548  1.00  0.00     0.030 C 
ATOM     22  C   UNL     1       5.707  -0.322  -3.619  1.00  0.00     0.103 C 
ATOM     23  C   UNL     1       3.355  -0.124  -2.851  1.00  0.00     0.103 C 
ATOM     24  N   UNL     1       4.368  -1.000  -3.454  1.00  0.00    -0.197 NA
BRANCH  24  25
ATOM     25  S   UNL     1       3.837  -1.742  -4.926  1.00  0.00     0.252 S 
ATOM     26  O   UNL     1       3.932  -0.733  -5.960  1.00  0.00    -0.206 OA
ATOM     27  O   UNL     1       4.506  -3.018  -5.048  1.00  0.00    -0.206 OA
BRANCH  25  28
ATOM     28  C   UNL     1       2.070  -2.044  -4.833  1.00  0.00     0.135 A 
ATOM     29  C   UNL     1       1.001  -1.187  -5.053  1.00  0.00     0.033 A 
ATOM     30  S   UNL     1       1.532  -3.607  -4.410  1.00  0.00    -0.131 S 
ATOM     31  C   UNL     1      -0.260  -1.827  -4.897  1.00  0.00     0.013 A 
ATOM     32  C   UNL     1      -0.116  -3.158  -4.575  1.00  0.00     0.066 A 
ENDBRANCH  25  28
ENDBRANCH  24  25
ENDBRANCH  16  19
ENDBRANCH   9  15
ENDBRANCH   3   6
ENDBRANCH   1   2
BRANCH   1  33
ATOM     33  C   UNL     1      -2.040  -0.477   0.012  1.00  0.00     0.042 C 
BRANCH  33  34
ATOM     34  C   UNL     1      -3.302  -1.214   0.430  1.00  0.00     0.118 C 
BRANCH  34  35
ATOM     35  N   UNL     1      -3.092  -2.655   0.505  1.00  0.00    -0.352 N 
ATOM     36  C   UNL     1      -3.030  -3.520   1.569  1.00  0.00     0.251 C 
ATOM     37  H   UNL     1      -2.971  -3.088  -0.371  1.00  0.00     0.163 HD
ATOM     38  O   UNL     1      -2.595  -4.654   1.378  1.00  0.00    -0.269 OA
BRANCH  36  39
ATOM     39  C   UNL     1      -3.458  -3.126   2.932  1.00  0.00     0.039 A 
ATOM     40  C   UNL     1      -2.857  -3.749   4.033  1.00  0.00     0.014 A 
ATOM     41  C   UNL     1      -4.484  -2.207   3.148  1.00  0.00     0.014 A 
ATOM     42  C   UNL     1      -3.251  -3.414   5.332  1.00  0.00     0.010 A 
ATOM     43  C   UNL     1      -4.784  -1.779   4.437  1.00  0.00     0.010 A 
ATOM     44  C   UNL     1      -4.196  -2.398   5.547  1.00  0.00    -0.014 A 
BRANCH  44  45
ATOM     45  C   UNL     1      -4.620  -2.003   6.916  1.00  0.00     0.031 A 
ATOM     46  C   UNL     1      -6.070  -2.104   7.316  1.00  0.00     0.074 A 
ATOM     47  C   UNL     1      -3.716  -1.493   7.776  1.00  0.00     0.049 A 
ATOM     48  N   UNL     1      -6.652  -1.734   8.430  1.00  0.00    -0.248 NA
ATOM     49  C   UNL     1      -7.000  -2.652   6.314  1.00  0.00     0.031 C 
ATOM     50  C   UNL     1      -2.297  -1.280   7.485  1.00  0.00     0.029 A 
ATOM     51  N   UNL     1      -3.857  -1.057   9.069  1.00  0.00    -0.354 N 
ATOM     52  C   UNL     1      -8.009  -1.974   8.245  1.00  0.00     0.074 A 
ATOM     53  C   UNL     1      -8.174  -2.452   6.891  1.00  0.00     0.031 C 
ATOM     54  C   UNL     1      -1.691  -0.792   8.579  1.00  0.00     0.029 A 
ATOM     55  C   UNL     1      -2.683  -0.622   9.635  1.00  0.00     0.049 A 
ATOM     56  H   UNL     1      -4.718  -1.055   9.546  1.00  0.00     0.167 HD
ATOM     57  C   UNL     1      -9.022  -1.843   9.134  1.00  0.00     0.037 A 
ATOM     58  C   UNL     1      -2.437  -0.143  10.868  1.00  0.00     0.037 A 
ATOM     59  C   UNL     1      -8.843  -1.422  10.497  1.00  0.00     0.049 A 
ATOM     60  C   UNL     1      -3.571  -0.049  11.852  1.00  0.00     0.074 A 
ATOM     61  C   UNL     1      -9.787  -1.329  11.505  1.00  0.00     0.029 A 
ATOM     62  N   UNL     1      -7.630  -1.033  11.047  1.00  0.00    -0.354 N 
ATOM     63  N   UNL     1      -4.837  -0.347  11.688  1.00  0.00    -0.248 NA
ATOM     64  C   UNL     1      -3.239   0.437  13.198  1.00  0.00     0.031 C 
ATOM     65  C   UNL     1      -9.152  -0.845  12.653  1.00  0.00     0.029 A 
ATOM     66  C   UNL     1      -7.803  -0.684  12.376  1.00  0.00     0.049 A 
ATOM     67  H   UNL     1      -6.773  -1.008  10.563  1.00  0.00     0.167 HD
ATOM     68  C   UNL     1      -5.447  -0.112  12.912  1.00  0.00     0.074 A 
ATOM     69  C   UNL     1      -4.407   0.334  13.816  1.00  0.00     0.031 C 
ATOM     70  C   UNL     1      -6.751  -0.250  13.258  1.00  0.00     0.037 A 
BRANCH  57  71
ATOM     71  C   UNL     1     -10.410  -2.176   8.663  1.00  0.00     0.064 A 
ATOM     72  C   UNL     1     -10.788  -3.491   8.349  1.00  0.00     0.173 A 
ATOM     73  C   UNL     1     -11.384  -1.172   8.546  1.00  0.00     0.173 A 
ATOM     74  F   UNL     1      -9.893  -4.488   8.430  1.00  0.00    -0.203 F 
ATOM     75  C   UNL     1     -12.074  -3.783   7.901  1.00  0.00     0.198 A 
ATOM     76  C   UNL     1     -12.680  -1.473   8.132  1.00  0.00     0.198 A 
ATOM     77  F   UNL     1     -11.082   0.102   8.838  1.00  0.00    -0.203 F 
ATOM     78  F   UNL     1     -12.390  -5.037   7.550  1.00  0.00    -0.200 F 
ATOM     79  C   UNL     1     -13.021  -2.776   7.800  1.00  0.00     0.200 A 
ATOM     80  F   UNL     1     -13.598  -0.500   8.047  1.00  0.00    -0.200 F 
ATOM     81  F   UNL     1     -14.259  -3.059   7.375  1.00  0.00    -0.200 F 
ENDBRANCH  57  71
BRANCH  58  82
ATOM     82  C   UNL     1      -1.053   0.238  11.256  1.00  0.00     0.064 A 
ATOM     83  C   UNL     1      -0.333  -0.523  12.188  1.00  0.00     0.173 A 
ATOM     84  C   UNL     1      -0.421   1.362  10.706  1.00  0.00     0.173 A 
ATOM     85  F   UNL     1      -0.900  -1.598  12.754  1.00  0.00    -0.203 F 
ATOM     86  C   UNL     1       0.956  -0.161  12.573  1.00  0.00     0.198 A 
ATOM     87  C   UNL     1       0.879   1.707  11.069  1.00  0.00     0.198 A 
ATOM     88  F   UNL     1      -1.061   2.118   9.802  1.00  0.00    -0.203 F 
ATOM     89  F   UNL     1       1.603  -0.880  13.501  1.00  0.00    -0.200 F 
ATOM     90  C   UNL     1       1.563   0.951  12.009  1.00  0.00     0.200 A 
ATOM     91  F   UNL     1       1.470   2.771  10.508  1.00  0.00    -0.200 F 
ATOM     92  F   UNL     1       2.805   1.296  12.375  1.00  0.00    -0.200 F 
ENDBRANCH  58  82
BRANCH  70  93
ATOM     93  C   UNL     1      -7.115   0.052  14.682  1.00  0.00     0.064 A 
ATOM     94  C   UNL     1      -7.118   1.364  15.179  1.00  0.00     0.173 A 
ATOM     95  C   UNL     1      -7.496  -0.982  15.551  1.00  0.00     0.173 A 
ATOM     96  F   UNL     1      -6.749   2.385  14.390  1.00  0.00    -0.203 F 
ATOM     97  C   UNL     1      -7.457   1.625  16.503  1.00  0.00     0.198 A 
ATOM     98  C   UNL     1      -7.865  -0.713  16.865  1.00  0.00     0.198 A 
ATOM     99  F   UNL     1      -7.518  -2.253  15.122  1.00  0.00    -0.203 F 
ATOM    100  F   UNL     1      -7.399   2.880  16.972  1.00  0.00    -0.200 F 
ATOM    101  C   UNL     1      -7.836   0.589  17.343  1.00  0.00     0.200 A 
ATOM    102  F   UNL     1      -8.245  -1.714  17.671  1.00  0.00    -0.200 F 
ATOM    103  F   UNL     1      -8.165   0.843  18.617  1.00  0.00    -0.200 F 
ENDBRANCH  70  93
ENDBRANCH  44  45
ENDBRANCH  36  39
ENDBRANCH  34  35
ENDBRANCH  33  34
ENDBRANCH   1  33
TORSDOF 15
