REMARK SMILES CC(C)c1ccc(-c2cnc([C@@H]3[NH2+][C@H](C(=O)NCCCNC(=O)c4ccc(-c5c6nc(c(-c7c(F)c(F)c(F)c(F)c7F)c7ccc([nH]7)c(-c7c(F)c(F)c(F)c(F)c7F)c7nc(c(-c8c(F)c(F)c(F)c(F)c8F)c8ccc5[nH]8)C=C7)C=C6)cc4)C(C)(C)S3)s2)cc1
REMARK SMILES IDX 18 1 17 2 15 3 16 4 14 6 12 7 13 8 90 9 87 12 88 13 89 14
REMARK SMILES IDX 11 15 8 16 9 17 91 18 10 19 7 20 4 21 5 22 93 23 6 24 92 25
REMARK SMILES IDX 2 26 1 27 3 28 19 29 20 30 21 31 22 32 23 34 24 35 25 36
REMARK SMILES IDX 86 37 26 38 85 39 27 40 28 41 29 42 79 43 30 44 84 45 78 46
REMARK SMILES IDX 80 47 31 48 83 49 77 50 76 51 32 53 64 54 44 55 63 56 45 57
REMARK SMILES IDX 48 58 62 59 81 60 46 61 47 62 61 64 82 65 49 66 33 67 34 68
REMARK SMILES IDX 42 69 35 70 36 71 40 72 43 73 37 74 38 75 41 76 39 77 65 78
REMARK SMILES IDX 66 79 74 80 67 81 68 82 72 83 75 84 69 85 70 86 73 87 71 88
REMARK SMILES IDX 50 89 51 90 59 91 52 92 53 93 57 94 60 95 54 96 55 97 58 98
REMARK SMILES IDX 56 99
REMARK H PARENT 17 5 13 10 13 11 21 33 80 52 48 63
REMARK Flexibility Score: inf
ROOT
ATOM      1  C   UNL     1     -14.086  -3.199  -1.185  1.00  0.00     0.118 C 
ENDROOT
BRANCH   1   2
ATOM      2  N   UNL     1     -13.179  -2.219  -1.752  1.00  0.00    -0.351 N 
ATOM      3  C   UNL     1     -12.443  -1.330  -1.007  1.00  0.00     0.279 C 
ATOM      4  O   UNL     1     -12.608  -0.140  -1.256  1.00  0.00    -0.268 OA
ATOM      5  H   UNL     1     -13.086  -2.189  -2.732  1.00  0.00     0.163 HD
BRANCH   3   6
ATOM      6  C   UNL     1     -11.491  -1.900   0.072  1.00  0.00     0.289 C 
ATOM      7  C   UNL     1      -9.313  -0.897  -0.291  1.00  0.00     0.304 C 
ATOM      8  N   UNL     1     -10.123  -2.120  -0.498  1.00  0.00    -0.318 N 
ATOM      9  S   UNL     1      -9.943  -0.018   1.172  1.00  0.00    -0.079 SA
ATOM     10  H   UNL     1      -9.679  -2.909  -0.028  1.00  0.00     0.348 HD
ATOM     11  H   UNL     1     -10.194  -2.322  -1.496  1.00  0.00     0.348 HD
ATOM     12  C   UNL     1     -11.378  -1.115   1.396  1.00  0.00     0.078 C 
ATOM     13  C   UNL     1     -11.037  -2.075   2.553  1.00  0.00     0.030 C 
ATOM     14  C   UNL     1     -12.621  -0.310   1.783  1.00  0.00     0.030 C 
BRANCH   7  15
ATOM     15  C   UNL     1      -9.217   0.003  -1.508  1.00  0.00     0.162 A 
ATOM     16  C   UNL     1      -8.461   1.275  -3.455  1.00  0.00     0.055 A 
ATOM     17  C   UNL     1      -9.767   1.480  -3.058  1.00  0.00     0.132 A 
ATOM     18  S   UNL     1      -7.747   0.106  -2.416  1.00  0.00    -0.112 S 
ATOM     19  N   UNL     1     -10.180   0.781  -1.953  1.00  0.00    -0.242 NA
BRANCH  16  20
ATOM     20  C   UNL     1      -7.737   1.931  -4.546  1.00  0.00    -0.007 A 
ATOM     21  C   UNL     1      -6.509   3.247  -6.741  1.00  0.00    -0.045 A 
ATOM     22  C   UNL     1      -6.285   1.884  -6.500  1.00  0.00     0.004 A 
ATOM     23  C   UNL     1      -7.346   3.945  -5.860  1.00  0.00     0.004 A 
ATOM     24  C   UNL     1      -6.888   1.235  -5.412  1.00  0.00     0.010 A 
ATOM     25  C   UNL     1      -7.950   3.297  -4.780  1.00  0.00     0.010 A 
BRANCH  21  26
ATOM     26  C   UNL     1      -5.933   3.991  -7.934  1.00  0.00     0.013 C 
ATOM     27  C   UNL     1      -4.608   3.432  -8.459  1.00  0.00     0.012 C 
ATOM     28  C   UNL     1      -6.965   4.053  -9.064  1.00  0.00     0.012 C 
ENDBRANCH  21  26
ENDBRANCH  16  20
ENDBRANCH   7  15
ENDBRANCH   3   6
ENDBRANCH   1   2
BRANCH   1  29
ATOM     29  C   UNL     1     -15.337  -2.533  -0.601  1.00  0.00     0.042 C 
BRANCH  29  30
ATOM     30  C   UNL     1     -16.109  -1.647  -1.581  1.00  0.00     0.118 C 
BRANCH  30  31
ATOM     31  N   UNL     1     -16.625  -2.389  -2.721  1.00  0.00    -0.352 N 
ATOM     32  C   UNL     1     -17.907  -2.536  -3.181  1.00  0.00     0.251 C 
ATOM     33  H   UNL     1     -15.941  -2.862  -3.249  1.00  0.00     0.163 HD
ATOM     34  O   UNL     1     -18.136  -3.350  -4.077  1.00  0.00    -0.269 OA
BRANCH  32  35
ATOM     35  C   UNL     1     -19.026  -1.756  -2.608  1.00  0.00     0.039 A 
ATOM     36  C   UNL     1     -20.243  -2.408  -2.385  1.00  0.00     0.014 A 
ATOM     37  C   UNL     1     -18.912  -0.389  -2.339  1.00  0.00     0.014 A 
ATOM     38  C   UNL     1     -21.323  -1.709  -1.841  1.00  0.00     0.010 A 
ATOM     39  C   UNL     1     -19.971   0.295  -1.741  1.00  0.00     0.010 A 
ATOM     40  C   UNL     1     -21.187  -0.358  -1.485  1.00  0.00    -0.014 A 
BRANCH  40  41
ATOM     41  C   UNL     1     -22.304   0.376  -0.837  1.00  0.00     0.031 A 
ATOM     42  C   UNL     1     -22.991   1.508  -1.549  1.00  0.00     0.074 A 
ATOM     43  C   UNL     1     -22.668   0.056   0.420  1.00  0.00     0.049 A 
ATOM     44  N   UNL     1     -23.943   2.299  -1.120  1.00  0.00    -0.248 NA
ATOM     45  C   UNL     1     -22.535   1.803  -2.915  1.00  0.00     0.031 C 
ATOM     46  C   UNL     1     -22.056  -0.995   1.234  1.00  0.00     0.029 A 
ATOM     47  N   UNL     1     -23.634   0.590   1.237  1.00  0.00    -0.354 N 
ATOM     48  C   UNL     1     -24.187   3.193  -2.154  1.00  0.00     0.074 A 
ATOM     49  C   UNL     1     -23.258   2.872  -3.217  1.00  0.00     0.031 C 
ATOM     50  C   UNL     1     -22.669  -1.039   2.427  1.00  0.00     0.029 A 
ATOM     51  C   UNL     1     -23.695  -0.001   2.475  1.00  0.00     0.049 A 
ATOM     52  H   UNL     1     -24.226   1.326   0.961  1.00  0.00     0.167 HD
ATOM     53  C   UNL     1     -25.112   4.181  -2.217  1.00  0.00     0.037 A 
ATOM     54  C   UNL     1     -24.483   0.268   3.533  1.00  0.00     0.037 A 
ATOM     55  C   UNL     1     -26.056   4.483  -1.173  1.00  0.00     0.049 A 
ATOM     56  C   UNL     1     -25.506   1.366   3.433  1.00  0.00     0.074 A 
ATOM     57  C   UNL     1     -27.071   5.425  -1.173  1.00  0.00     0.029 A 
ATOM     58  N   UNL     1     -26.100   3.849   0.059  1.00  0.00    -0.354 N 
ATOM     59  N   UNL     1     -25.768   2.163   2.427  1.00  0.00    -0.248 NA
ATOM     60  C   UNL     1     -26.349   1.595   4.616  1.00  0.00     0.031 C 
ATOM     61  C   UNL     1     -27.707   5.384   0.073  1.00  0.00     0.029 A 
ATOM     62  C   UNL     1     -27.114   4.391   0.834  1.00  0.00     0.049 A 
ATOM     63  H   UNL     1     -25.500   3.122   0.342  1.00  0.00     0.167 HD
ATOM     64  C   UNL     1     -26.816   2.971   2.844  1.00  0.00     0.074 A 
ATOM     65  C   UNL     1     -27.153   2.559   4.190  1.00  0.00     0.031 C 
ATOM     66  C   UNL     1     -27.443   3.966   2.170  1.00  0.00     0.037 A 
BRANCH  53  67
ATOM     67  C   UNL     1     -25.153   5.011  -3.466  1.00  0.00     0.064 A 
ATOM     68  C   UNL     1     -25.645   4.495  -4.674  1.00  0.00     0.173 A 
ATOM     69  C   UNL     1     -24.737   6.351  -3.445  1.00  0.00     0.173 A 
ATOM     70  F   UNL     1     -26.047   3.217  -4.748  1.00  0.00    -0.203 F 
ATOM     71  C   UNL     1     -25.695   5.282  -5.822  1.00  0.00     0.198 A 
ATOM     72  C   UNL     1     -24.812   7.143  -4.588  1.00  0.00     0.198 A 
ATOM     73  F   UNL     1     -24.265   6.895  -2.313  1.00  0.00    -0.203 F 
ATOM     74  F   UNL     1     -26.131   4.756  -6.974  1.00  0.00    -0.200 F 
ATOM     75  C   UNL     1     -25.285   6.606  -5.776  1.00  0.00     0.200 A 
ATOM     76  F   UNL     1     -24.427   8.425  -4.539  1.00  0.00    -0.200 F 
ATOM     77  F   UNL     1     -25.341   7.365  -6.880  1.00  0.00    -0.200 F 
ENDBRANCH  53  67
BRANCH  54  78
ATOM     78  C   UNL     1     -24.351  -0.534   4.774  1.00  0.00     0.064 A 
ATOM     79  C   UNL     1     -25.341  -1.457   5.141  1.00  0.00     0.173 A 
ATOM     80  C   UNL     1     -23.238  -0.399   5.616  1.00  0.00     0.173 A 
ATOM     81  F   UNL     1     -26.433  -1.604   4.378  1.00  0.00    -0.203 F 
ATOM     82  C   UNL     1     -25.230  -2.202   6.312  1.00  0.00     0.198 A 
ATOM     83  C   UNL     1     -23.116  -1.162   6.774  1.00  0.00     0.198 A 
ATOM     84  F   UNL     1     -22.263   0.468   5.306  1.00  0.00    -0.203 F 
ATOM     85  F   UNL     1     -26.208  -3.049   6.660  1.00  0.00    -0.200 F 
ATOM     86  C   UNL     1     -24.115  -2.059   7.125  1.00  0.00     0.200 A 
ATOM     87  F   UNL     1     -22.032  -1.030   7.551  1.00  0.00    -0.200 F 
ATOM     88  F   UNL     1     -24.006  -2.779   8.249  1.00  0.00    -0.200 F 
ENDBRANCH  54  78
BRANCH  66  89
ATOM     89  C   UNL     1     -28.577   4.657   2.866  1.00  0.00     0.064 A 
ATOM     90  C   UNL     1     -28.353   5.565   3.911  1.00  0.00     0.173 A 
ATOM     91  C   UNL     1     -29.901   4.434   2.460  1.00  0.00     0.173 A 
ATOM     92  F   UNL     1     -27.105   5.798   4.346  1.00  0.00    -0.203 F 
ATOM     93  C   UNL     1     -29.416   6.209   4.539  1.00  0.00     0.198 A 
ATOM     94  C   UNL     1     -30.960   5.099   3.073  1.00  0.00     0.198 A 
ATOM     95  F   UNL     1     -30.168   3.578   1.462  1.00  0.00    -0.203 F 
ATOM     96  F   UNL     1     -29.182   7.041   5.563  1.00  0.00    -0.200 F 
ATOM     97  C   UNL     1     -30.717   5.981   4.115  1.00  0.00     0.200 A 
ATOM     98  F   UNL     1     -32.215   4.884   2.657  1.00  0.00    -0.200 F 
ATOM     99  F   UNL     1     -31.738   6.604   4.718  1.00  0.00    -0.200 F 
ENDBRANCH  66  89
ENDBRANCH  40  41
ENDBRANCH  32  35
ENDBRANCH  30  31
ENDBRANCH  29  30
ENDBRANCH   1  29
TORSDOF 13
