REMARK SMILES Cc1cccc(NS(=O)(=O)Cc2ccc(C(=O)NCCCNC(=O)c3ccc(-c4c5nc(c(-c6c(F)c(F)c(F)c(F)c6F)c6ccc([nH]6)c(-c6c(F)c(F)c(F)c(F)c6F)c6nc(c(-c7c(F)c(F)c(F)c(F)c7F)c7ccc4[nH]7)C=C6)C=C5)cc3)cc2)n1
REMARK SMILES IDX 19 1 18 2 16 3 17 4 15 6 12 7 13 8 89 9 14 10 88 11 11 12
REMARK SMILES IDX 8 13 9 14 10 15 7 16 6 18 1 19 2 20 3 21 90 22 4 23 5 24
REMARK SMILES IDX 20 25 21 26 22 27 23 28 24 30 25 31 26 32 87 33 27 34 86 35
REMARK SMILES IDX 28 36 29 37 30 38 80 39 31 40 85 41 79 42 81 43 32 44 84 45
REMARK SMILES IDX 78 46 77 47 33 49 65 50 45 51 64 52 46 53 49 54 63 55 82 56
REMARK SMILES IDX 47 57 48 58 62 60 83 61 50 62 34 63 35 64 43 65 36 66 37 67
REMARK SMILES IDX 41 68 44 69 38 70 39 71 42 72 40 73 66 74 67 75 75 76 68 77
REMARK SMILES IDX 69 78 73 79 76 80 70 81 71 82 74 83 72 84 51 85 52 86 60 87
REMARK SMILES IDX 53 88 54 89 58 90 61 91 55 92 56 93 59 94 57 95
REMARK H PARENT 18 5 7 17 22 29 81 48 49 59
REMARK Flexibility Score: inf
ROOT
ATOM      1  C   UNL     1       2.094   2.350   6.495  1.00  0.00     0.118 C 
ENDROOT
BRANCH   1   2
ATOM      2  N   UNL     1       1.798   1.003   6.048  1.00  0.00    -0.352 N 
ATOM      3  C   UNL     1       1.522   0.545   4.789  1.00  0.00     0.251 C 
ATOM      4  O   UNL     1       1.353  -0.658   4.605  1.00  0.00    -0.269 OA
ATOM      5  H   UNL     1       1.795   0.317   6.754  1.00  0.00     0.163 HD
BRANCH   3   6
ATOM      6  C   UNL     1       1.490   1.472   3.639  1.00  0.00     0.039 A 
ATOM      7  C   UNL     1       1.352   3.031   1.315  1.00  0.00    -0.031 A 
ATOM      8  C   UNL     1       2.195   1.911   1.380  1.00  0.00     0.005 A 
ATOM      9  C   UNL     1       0.655   3.421   2.464  1.00  0.00     0.005 A 
ATOM     10  C   UNL     1       2.243   1.118   2.522  1.00  0.00     0.014 A 
ATOM     11  C   UNL     1       0.702   2.627   3.613  1.00  0.00     0.014 A 
BRANCH   7  12
ATOM     12  C   UNL     1       1.181   3.733  -0.010  1.00  0.00     0.195 C 
BRANCH  12  13
ATOM     13  S   UNL     1      -0.538   3.716  -0.583  1.00  0.00     0.238 S 
ATOM     14  O   UNL     1      -0.572   3.637  -2.028  1.00  0.00    -0.206 OA
ATOM     15  O   UNL     1      -1.214   4.825   0.073  1.00  0.00    -0.206 OA
BRANCH  13  16
ATOM     16  N   UNL     1      -1.276   2.379   0.052  1.00  0.00    -0.267 N 
ATOM     17  H   UNL     1      -1.962   2.505   0.746  1.00  0.00     0.181 HD
BRANCH  16  18
ATOM     18  C   UNL     1      -0.964   1.068  -0.357  1.00  0.00     0.139 A 
ATOM     19  C   UNL     1       2.151  -0.723  -1.121  1.00  0.00     0.067 C 
ATOM     20  C   UNL     1       0.707  -0.465  -0.803  1.00  0.00     0.040 A 
ATOM     21  C   UNL     1      -0.120  -1.530  -0.463  1.00  0.00     0.023 A 
ATOM     22  N   UNL     1       0.300   0.830  -0.748  1.00  0.00    -0.235 NA
ATOM     23  C   UNL     1      -1.428  -1.262  -0.083  1.00  0.00     0.006 A 
ATOM     24  C   UNL     1      -1.855   0.059  -0.017  1.00  0.00     0.048 A 
ENDBRANCH  16  18
ENDBRANCH  13  16
ENDBRANCH  12  13
ENDBRANCH   7  12
ENDBRANCH   3   6
ENDBRANCH   1   2
BRANCH   1  25
ATOM     25  C   UNL     1       0.898   2.955   7.221  1.00  0.00     0.042 C 
BRANCH  25  26
ATOM     26  C   UNL     1       0.630   2.298   8.569  1.00  0.00     0.118 C 
BRANCH  26  27
ATOM     27  N   UNL     1       1.667   2.617   9.539  1.00  0.00    -0.352 N 
ATOM     28  C   UNL     1       1.572   3.305  10.720  1.00  0.00     0.251 C 
ATOM     29  H   UNL     1       2.569   2.291   9.313  1.00  0.00     0.163 HD
ATOM     30  O   UNL     1       2.588   3.706  11.279  1.00  0.00    -0.269 OA
BRANCH  28  31
ATOM     31  C   UNL     1       0.248   3.565  11.322  1.00  0.00     0.039 A 
ATOM     32  C   UNL     1       0.007   4.807  11.916  1.00  0.00     0.014 A 
ATOM     33  C   UNL     1      -0.739   2.575  11.337  1.00  0.00     0.014 A 
ATOM     34  C   UNL     1      -1.238   5.069  12.489  1.00  0.00     0.010 A 
ATOM     35  C   UNL     1      -2.004   2.865  11.834  1.00  0.00     0.010 A 
ATOM     36  C   UNL     1      -2.260   4.108  12.432  1.00  0.00    -0.014 A 
BRANCH  36  37
ATOM     37  C   UNL     1      -3.596   4.371  13.016  1.00  0.00     0.031 A 
ATOM     38  C   UNL     1      -4.081   3.557  14.182  1.00  0.00     0.074 A 
ATOM     39  C   UNL     1      -4.395   5.298  12.455  1.00  0.00     0.049 A 
ATOM     40  N   UNL     1      -5.235   3.596  14.799  1.00  0.00    -0.248 NA
ATOM     41  C   UNL     1      -3.156   2.539  14.705  1.00  0.00     0.031 C 
ATOM     42  C   UNL     1      -4.049   6.119  11.293  1.00  0.00     0.029 A 
ATOM     43  N   UNL     1      -5.663   5.703  12.784  1.00  0.00    -0.354 N 
ATOM     44  C   UNL     1      -5.181   2.596  15.762  1.00  0.00     0.074 A 
ATOM     45  C   UNL     1      -3.904   1.933  15.613  1.00  0.00     0.031 C 
ATOM     46  C   UNL     1      -5.066   6.954  11.028  1.00  0.00     0.029 A 
ATOM     47  C   UNL     1      -6.148   6.701  11.976  1.00  0.00     0.049 A 
ATOM     48  H   UNL     1      -6.177   5.314  13.528  1.00  0.00     0.167 HD
ATOM     49  C   UNL     1      -6.106   2.276  16.699  1.00  0.00     0.037 A 
ATOM     50  C   UNL     1      -7.332   7.339  12.000  1.00  0.00     0.037 A 
ATOM     51  C   UNL     1      -7.360   2.964  16.859  1.00  0.00     0.049 A 
ATOM     52  C   UNL     1      -8.344   6.963  13.047  1.00  0.00     0.074 A 
ATOM     53  C   UNL     1      -8.331   2.777  17.826  1.00  0.00     0.029 A 
ATOM     54  N   UNL     1      -7.818   3.971  16.021  1.00  0.00    -0.354 N 
ATOM     55  N   UNL     1      -8.253   6.072  14.004  1.00  0.00    -0.248 NA
ATOM     56  C   UNL     1      -9.622   7.686  13.018  1.00  0.00     0.031 C 
ATOM     57  C   UNL     1      -9.400   3.634  17.542  1.00  0.00     0.029 A 
ATOM     58  C   UNL     1      -9.073   4.394  16.430  1.00  0.00     0.049 A 
ATOM     59  H   UNL     1      -7.324   4.332  15.249  1.00  0.00     0.167 HD
ATOM     60  C   UNL     1      -9.446   6.146  14.710  1.00  0.00     0.074 A 
ATOM     61  C   UNL     1     -10.241   7.178  14.075  1.00  0.00     0.031 C 
ATOM     62  C   UNL     1      -9.847   5.426  15.787  1.00  0.00     0.037 A 
BRANCH  49  63
ATOM     63  C   UNL     1      -5.793   1.125  17.613  1.00  0.00     0.064 A 
ATOM     64  C   UNL     1      -4.771   1.197  18.573  1.00  0.00     0.173 A 
ATOM     65  C   UNL     1      -6.530  -0.066  17.531  1.00  0.00     0.173 A 
ATOM     66  F   UNL     1      -4.028   2.308  18.686  1.00  0.00    -0.203 F 
ATOM     67  C   UNL     1      -4.470   0.106  19.384  1.00  0.00     0.198 A 
ATOM     68  C   UNL     1      -6.249  -1.143  18.367  1.00  0.00     0.198 A 
ATOM     69  F   UNL     1      -7.523  -0.188  16.637  1.00  0.00    -0.203 F 
ATOM     70  F   UNL     1      -3.446   0.176  20.246  1.00  0.00    -0.200 F 
ATOM     71  C   UNL     1      -5.212  -1.062  19.284  1.00  0.00     0.200 A 
ATOM     72  F   UNL     1      -6.975  -2.266  18.278  1.00  0.00    -0.200 F 
ATOM     73  F   UNL     1      -4.919  -2.112  20.064  1.00  0.00    -0.200 F 
ENDBRANCH  49  63
BRANCH  50  74
ATOM     74  C   UNL     1      -7.600   8.434  11.033  1.00  0.00     0.064 A 
ATOM     75  C   UNL     1      -7.650   9.767  11.463  1.00  0.00     0.173 A 
ATOM     76  C   UNL     1      -7.789   8.180   9.668  1.00  0.00     0.173 A 
ATOM     77  F   UNL     1      -7.493  10.057  12.763  1.00  0.00    -0.203 F 
ATOM     78  C   UNL     1      -7.890  10.805  10.566  1.00  0.00     0.198 A 
ATOM     79  C   UNL     1      -8.004   9.221   8.766  1.00  0.00     0.198 A 
ATOM     80  F   UNL     1      -7.745   6.922   9.206  1.00  0.00    -0.203 F 
ATOM     81  F   UNL     1      -7.966  12.067  11.009  1.00  0.00    -0.200 F 
ATOM     82  C   UNL     1      -8.060  10.532   9.217  1.00  0.00     0.200 A 
ATOM     83  F   UNL     1      -8.153   8.955   7.462  1.00  0.00    -0.200 F 
ATOM     84  F   UNL     1      -8.281  11.531   8.352  1.00  0.00    -0.200 F 
ENDBRANCH  50  74
BRANCH  62  85
ATOM     85  C   UNL     1     -11.191   5.754  16.367  1.00  0.00     0.064 A 
ATOM     86  C   UNL     1     -12.382   5.412  15.709  1.00  0.00     0.173 A 
ATOM     87  C   UNL     1     -11.289   6.387  17.616  1.00  0.00     0.173 A 
ATOM     88  F   UNL     1     -12.341   4.821  14.505  1.00  0.00    -0.203 F 
ATOM     89  C   UNL     1     -13.620   5.715  16.268  1.00  0.00     0.198 A 
ATOM     90  C   UNL     1     -12.528   6.660  18.186  1.00  0.00     0.198 A 
ATOM     91  F   UNL     1     -10.180   6.729  18.289  1.00  0.00    -0.203 F 
ATOM     92  F   UNL     1     -14.744   5.423  15.599  1.00  0.00    -0.200 F 
ATOM     93  C   UNL     1     -13.693   6.331  17.509  1.00  0.00     0.200 A 
ATOM     94  F   UNL     1     -12.597   7.243  19.391  1.00  0.00    -0.200 F 
ATOM     95  F   UNL     1     -14.886   6.615  18.048  1.00  0.00    -0.200 F 
ENDBRANCH  62  85
ENDBRANCH  36  37
ENDBRANCH  28  31
ENDBRANCH  26  27
ENDBRANCH  25  26
ENDBRANCH   1  25
TORSDOF 14
