REMARK SMILES Cc1c(CC(=O)NCCCNC(=O)c2ccc(-c3c4nc(c(-c5c(F)c(F)c(F)c(F)c5F)c5ccc([nH]5)c(-c5c(F)c(F)c(F)c(F)c5F)c5nc(c(-c6c(F)c(F)c(F)c(F)c6F)c6ccc3[nH]6)C=C5)C=C4)cc2)cc(-c2ccccc2)cc1-c1ccccc1
REMARK SMILES IDX 9 1 8 2 7 3 5 4 6 5 4 7 3 8 1 9 2 10 86 11 77 12 85 13 78 14
REMARK SMILES IDX 87 15 88 16 92 17 89 18 91 19 90 20 79 21 80 22 84 23 81 24
REMARK SMILES IDX 83 25 82 26 10 27 11 28 12 29 13 31 14 32 15 33 76 34 16 35
REMARK SMILES IDX 75 36 17 37 18 38 19 39 69 40 20 41 74 42 68 43 70 44 21 45
REMARK SMILES IDX 73 46 67 47 66 48 22 50 54 51 34 52 53 53 35 54 38 55 52 56
REMARK SMILES IDX 71 57 36 58 37 59 51 61 72 62 39 63 23 64 24 65 32 66 25 67
REMARK SMILES IDX 26 68 30 69 33 70 27 71 28 72 31 73 29 74 55 75 56 76 64 77
REMARK SMILES IDX 57 78 58 79 62 80 65 81 59 82 60 83 63 84 61 85 40 86 41 87
REMARK SMILES IDX 49 88 42 89 43 90 47 91 50 92 44 93 45 94 48 95 46 96
REMARK H PARENT 7 6 11 30 70 49 38 60
REMARK Flexibility Score: inf
ROOT
ATOM      1  C   UNL     1       1.361  -0.541   2.920  1.00  0.00     0.042 C 
ENDROOT
BRANCH   1   2
ATOM      2  C   UNL     1       2.075  -1.875   2.713  1.00  0.00     0.117 C 
BRANCH   2   3
ATOM      3  N   UNL     1       1.161  -2.954   2.371  1.00  0.00    -0.356 N 
ATOM      4  C   UNL     1       0.663  -3.312   1.148  1.00  0.00     0.224 C 
ATOM      5  O   UNL     1      -0.108  -4.274   1.098  1.00  0.00    -0.275 OA
ATOM      6  H   UNL     1       0.857  -3.505   3.128  1.00  0.00     0.163 HD
BRANCH   4   7
ATOM      7  C   UNL     1       1.054  -2.547  -0.116  1.00  0.00     0.135 C 
BRANCH   7   8
ATOM      8  C   UNL     1       0.369  -1.197  -0.242  1.00  0.00    -0.035 A 
ATOM      9  C   UNL     1       2.569   0.071  -0.495  1.00  0.00     0.045 C 
ATOM     10  C   UNL     1       1.065   0.036  -0.338  1.00  0.00    -0.040 A 
ATOM     11  C   UNL     1       0.327   1.252  -0.314  1.00  0.00    -0.015 A 
ATOM     12  C   UNL     1      -1.043  -1.194  -0.209  1.00  0.00     0.013 A 
ATOM     13  C   UNL     1      -1.082   1.199  -0.252  1.00  0.00     0.017 A 
ATOM     14  C   UNL     1      -1.786  -0.009  -0.218  1.00  0.00    -0.017 A 
BRANCH  11  15
ATOM     15  C   UNL     1       0.967   2.582  -0.291  1.00  0.00    -0.018 A 
ATOM     16  C   UNL     1       0.840   3.412   0.838  1.00  0.00     0.009 A 
ATOM     17  C   UNL     1       1.716   3.055  -1.379  1.00  0.00     0.009 A 
ATOM     18  C   UNL     1       1.454   4.666   0.883  1.00  0.00     0.001 A 
ATOM     19  C   UNL     1       2.343   4.303  -1.329  1.00  0.00     0.001 A 
ATOM     20  C   UNL     1       2.211   5.108  -0.199  1.00  0.00     0.000 A 
ENDBRANCH  11  15
BRANCH  14  21
ATOM     21  C   UNL     1      -3.258  -0.034  -0.195  1.00  0.00    -0.018 A 
ATOM     22  C   UNL     1      -3.962  -0.715   0.811  1.00  0.00     0.009 A 
ATOM     23  C   UNL     1      -4.000   0.615  -1.196  1.00  0.00     0.009 A 
ATOM     24  C   UNL     1      -5.360  -0.752   0.812  1.00  0.00     0.001 A 
ATOM     25  C   UNL     1      -5.396   0.576  -1.198  1.00  0.00     0.001 A 
ATOM     26  C   UNL     1      -6.076  -0.108  -0.194  1.00  0.00     0.000 A 
ENDBRANCH  14  21
ENDBRANCH   7   8
ENDBRANCH   4   7
ENDBRANCH   2   3
ENDBRANCH   1   2
BRANCH   1  27
ATOM     27  C   UNL     1       0.860  -0.321   4.337  1.00  0.00     0.118 C 
BRANCH  27  28
ATOM     28  N   UNL     1       1.695   0.567   5.138  1.00  0.00    -0.352 N 
ATOM     29  C   UNL     1       1.584   0.887   6.482  1.00  0.00     0.251 C 
ATOM     30  H   UNL     1       2.438   0.999   4.659  1.00  0.00     0.163 HD
ATOM     31  O   UNL     1       2.347   1.685   6.997  1.00  0.00    -0.269 OA
BRANCH  29  32
ATOM     32  C   UNL     1       0.605   0.145   7.313  1.00  0.00     0.039 A 
ATOM     33  C   UNL     1       1.061  -0.449   8.495  1.00  0.00     0.014 A 
ATOM     34  C   UNL     1      -0.666  -0.143   6.824  1.00  0.00     0.014 A 
ATOM     35  C   UNL     1       0.348  -1.514   9.039  1.00  0.00     0.010 A 
ATOM     36  C   UNL     1      -1.314  -1.267   7.292  1.00  0.00     0.010 A 
ATOM     37  C   UNL     1      -0.771  -1.991   8.358  1.00  0.00    -0.014 A 
BRANCH  37  38
ATOM     38  C   UNL     1      -1.357  -3.304   8.602  1.00  0.00     0.031 A 
ATOM     39  C   UNL     1      -2.681  -3.435   9.244  1.00  0.00     0.074 A 
ATOM     40  C   UNL     1      -0.730  -4.400   8.118  1.00  0.00     0.049 A 
ATOM     41  N   UNL     1      -3.093  -4.502   9.842  1.00  0.00    -0.248 NA
ATOM     42  C   UNL     1      -3.647  -2.344   9.290  1.00  0.00     0.031 C 
ATOM     43  C   UNL     1      -1.283  -5.744   7.972  1.00  0.00     0.029 A 
ATOM     44  N   UNL     1       0.636  -4.552   7.818  1.00  0.00    -0.354 N 
ATOM     45  C   UNL     1      -4.436  -4.348  10.103  1.00  0.00     0.074 A 
ATOM     46  C   UNL     1      -4.719  -2.966   9.790  1.00  0.00     0.031 C 
ATOM     47  C   UNL     1      -0.273  -6.624   7.911  1.00  0.00     0.029 A 
ATOM     48  C   UNL     1       0.952  -5.887   8.164  1.00  0.00     0.049 A 
ATOM     49  H   UNL     1       1.244  -3.873   7.446  1.00  0.00     0.167 HD
ATOM     50  C   UNL     1      -5.184  -5.442  10.429  1.00  0.00     0.037 A 
ATOM     51  C   UNL     1       1.846  -6.178   9.152  1.00  0.00     0.037 A 
ATOM     52  C   UNL     1      -4.357  -6.643  10.507  1.00  0.00     0.049 A 
ATOM     53  C   UNL     1       1.273  -7.006  10.277  1.00  0.00     0.074 A 
ATOM     54  C   UNL     1      -4.103  -7.662   9.602  1.00  0.00     0.029 A 
ATOM     55  N   UNL     1      -3.403  -6.760  11.511  1.00  0.00    -0.354 N 
ATOM     56  N   UNL     1      -0.003  -7.113  10.519  1.00  0.00    -0.248 NA
ATOM     57  C   UNL     1       2.087  -7.747  11.236  1.00  0.00     0.031 C 
ATOM     58  C   UNL     1      -2.962  -8.371  10.047  1.00  0.00     0.029 A 
ATOM     59  C   UNL     1      -2.533  -7.795  11.230  1.00  0.00     0.049 A 
ATOM     60  H   UNL     1      -3.353  -6.185  12.309  1.00  0.00     0.167 HD
ATOM     61  C   UNL     1      -0.194  -7.886  11.634  1.00  0.00     0.074 A 
ATOM     62  C   UNL     1       1.144  -8.275  12.036  1.00  0.00     0.031 C 
ATOM     63  C   UNL     1      -1.443  -8.125  12.133  1.00  0.00     0.037 A 
BRANCH  50  64
ATOM     64  C   UNL     1      -6.696  -5.474  10.380  1.00  0.00     0.064 A 
ATOM     65  C   UNL     1      -7.389  -6.654  10.027  1.00  0.00     0.173 A 
ATOM     66  C   UNL     1      -7.521  -4.360  10.617  1.00  0.00     0.173 A 
ATOM     67  F   UNL     1      -6.756  -7.826   9.890  1.00  0.00    -0.203 F 
ATOM     68  C   UNL     1      -8.767  -6.677   9.796  1.00  0.00     0.198 A 
ATOM     69  C   UNL     1      -8.891  -4.366  10.332  1.00  0.00     0.198 A 
ATOM     70  F   UNL     1      -7.036  -3.248  11.184  1.00  0.00    -0.203 F 
ATOM     71  F   UNL     1      -9.364  -7.826   9.450  1.00  0.00    -0.200 F 
ATOM     72  C   UNL     1      -9.512  -5.522   9.906  1.00  0.00     0.200 A 
ATOM     73  F   UNL     1      -9.604  -3.240  10.474  1.00  0.00    -0.200 F 
ATOM     74  F   UNL     1     -10.823  -5.530   9.633  1.00  0.00    -0.200 F 
ENDBRANCH  50  64
BRANCH  51  75
ATOM     75  C   UNL     1       2.908  -5.151   9.303  1.00  0.00     0.064 A 
ATOM     76  C   UNL     1       3.804  -4.960   8.234  1.00  0.00     0.173 A 
ATOM     77  C   UNL     1       2.811  -4.133  10.258  1.00  0.00     0.173 A 
ATOM     78  F   UNL     1       3.930  -5.905   7.289  1.00  0.00    -0.203 F 
ATOM     79  C   UNL     1       4.481  -3.754   8.063  1.00  0.00     0.198 A 
ATOM     80  C   UNL     1       3.502  -2.930  10.090  1.00  0.00     0.198 A 
ATOM     81  F   UNL     1       1.960  -4.247  11.287  1.00  0.00    -0.203 F 
ATOM     82  F   UNL     1       5.235  -3.560   6.971  1.00  0.00    -0.200 F 
ATOM     83  C   UNL     1       4.306  -2.729   8.976  1.00  0.00     0.200 A 
ATOM     84  F   UNL     1       3.310  -1.925  10.957  1.00  0.00    -0.200 F 
ATOM     85  F   UNL     1       4.875  -1.535   8.762  1.00  0.00    -0.200 F 
ENDBRANCH  51  75
BRANCH  63  86
ATOM     86  C   UNL     1      -1.773  -8.764  13.460  1.00  0.00     0.064 A 
ATOM     87  C   UNL     1      -0.946  -8.694  14.592  1.00  0.00     0.173 A 
ATOM     88  C   UNL     1      -3.046  -9.351  13.671  1.00  0.00     0.173 A 
ATOM     89  F   UNL     1       0.235  -8.064  14.555  1.00  0.00    -0.203 F 
ATOM     90  C   UNL     1      -1.338  -9.220  15.827  1.00  0.00     0.198 A 
ATOM     91  C   UNL     1      -3.456  -9.821  14.918  1.00  0.00     0.198 A 
ATOM     92  F   UNL     1      -3.943  -9.460  12.680  1.00  0.00    -0.203 F 
ATOM     93  F   UNL     1      -0.497  -9.162  16.869  1.00  0.00    -0.200 F 
ATOM     94  C   UNL     1      -2.596  -9.770  15.993  1.00  0.00     0.200 A 
ATOM     95  F   UNL     1      -4.698 -10.303  15.073  1.00  0.00    -0.200 F 
ATOM     96  F   UNL     1      -2.985 -10.226  17.191  1.00  0.00    -0.200 F 
ENDBRANCH  63  86
ENDBRANCH  37  38
ENDBRANCH  29  32
ENDBRANCH  27  28
ENDBRANCH   1  27
TORSDOF 13
