REMARK SMILES Cc1cccc2c(C(=O)NCCCNC(=O)c3ccc(-c4c5nc(c(-c6c(F)c(F)c(F)c(F)c6F)c6ccc([nH]6)c(-c6c(F)c(F)c(F)c(F)c6F)c6nc(c(-c7c(F)c(F)c(F)c(F)c7F)c7ccc4[nH]7)C=C6)C=C5)cc3)cc(=O)[nH]c12
REMARK SMILES IDX 13 1 12 2 11 3 10 4 8 5 9 6 7 8 1 9 2 10 3 11 84 12 4 13
REMARK SMILES IDX 6 14 83 15 5 16 81 17 80 19 82 20 14 21 15 22 16 24 17 25
REMARK SMILES IDX 18 26 79 27 19 28 78 29 20 30 21 31 22 32 72 33 23 34 77 35
REMARK SMILES IDX 71 36 73 37 24 38 76 39 70 40 69 41 25 43 57 44 37 45 56 46
REMARK SMILES IDX 38 47 41 48 55 49 74 50 39 51 40 52 54 54 75 55 42 56 26 57
REMARK SMILES IDX 27 58 35 59 28 60 29 61 33 62 36 63 30 64 31 65 34 66 32 67
REMARK SMILES IDX 58 68 59 69 67 70 60 71 61 72 65 73 68 74 62 75 63 76 66 77
REMARK SMILES IDX 64 78 43 79 44 80 52 81 45 82 46 83 50 84 53 85 47 86 48 87
REMARK SMILES IDX 51 88 49 89
REMARK H PARENT 10 7 83 18 14 23 73 42 41 53
REMARK Flexibility Score: inf
ROOT
ATOM      1  C   UNL     1      -7.102  -5.070   1.349  1.00  0.00     0.118 C 
ENDROOT
BRANCH   1   2
ATOM      2  C   UNL     1      -6.330  -3.757   1.465  1.00  0.00     0.042 C 
BRANCH   2   3
ATOM      3  C   UNL     1      -5.128  -3.856   2.405  1.00  0.00     0.118 C 
BRANCH   3   4
ATOM      4  N   UNL     1      -4.085  -4.665   1.799  1.00  0.00    -0.352 N 
ATOM      5  C   UNL     1      -3.007  -4.416   1.009  1.00  0.00     0.252 C 
ATOM      6  O   UNL     1      -2.471  -5.428   0.552  1.00  0.00    -0.269 OA
ATOM      7  H   UNL     1      -4.181  -5.622   2.011  1.00  0.00     0.163 HD
BRANCH   5   8
ATOM      8  C   UNL     1      -2.445  -3.041   0.745  1.00  0.00     0.054 A 
ATOM      9  C   UNL     1       1.339   0.196  -0.191  1.00  0.00     0.046 C 
ATOM     10  C   UNL     1       0.806  -1.207  -0.102  1.00  0.00    -0.027 A 
ATOM     11  C   UNL     1       1.653  -2.272  -0.427  1.00  0.00     0.005 A 
ATOM     12  C   UNL     1      -0.530  -1.487   0.253  1.00  0.00     0.052 A 
ATOM     13  C   UNL     1       1.192  -3.580  -0.357  1.00  0.00     0.001 A 
ATOM     14  C   UNL     1      -1.014  -2.811   0.359  1.00  0.00     0.011 A 
ATOM     15  N   UNL     1      -1.417  -0.423   0.459  1.00  0.00    -0.322 N 
ATOM     16  C   UNL     1      -0.118  -3.845   0.049  1.00  0.00     0.011 A 
ATOM     17  C   UNL     1      -2.748  -0.581   0.676  1.00  0.00     0.249 A 
ATOM     18  H   UNL     1      -1.055   0.492   0.447  1.00  0.00     0.170 HD
ATOM     19  C   UNL     1      -3.247  -1.964   0.770  1.00  0.00     0.086 A 
ATOM     20  O   UNL     1      -3.512   0.364   0.810  1.00  0.00    -0.270 OA
ENDBRANCH   5   8
ENDBRANCH   3   4
ENDBRANCH   2   3
ENDBRANCH   1   2
BRANCH   1  21
ATOM     21  N   UNL     1      -7.795  -5.413   2.585  1.00  0.00    -0.352 N 
ATOM     22  C   UNL     1      -9.140  -5.539   2.836  1.00  0.00     0.251 C 
ATOM     23  H   UNL     1      -7.210  -5.581   3.359  1.00  0.00     0.163 HD
ATOM     24  O   UNL     1      -9.546  -5.608   3.992  1.00  0.00    -0.269 OA
BRANCH  22  25
ATOM     25  C   UNL     1     -10.098  -5.572   1.713  1.00  0.00     0.039 A 
ATOM     26  C   UNL     1      -9.814  -6.316   0.567  1.00  0.00     0.014 A 
ATOM     27  C   UNL     1     -11.290  -4.848   1.804  1.00  0.00     0.014 A 
ATOM     28  C   UNL     1     -10.623  -6.186  -0.554  1.00  0.00     0.010 A 
ATOM     29  C   UNL     1     -12.155  -4.801   0.708  1.00  0.00     0.010 A 
ATOM     30  C   UNL     1     -11.803  -5.427  -0.498  1.00  0.00    -0.014 A 
BRANCH  30  31
ATOM     31  C   UNL     1     -12.640  -5.294  -1.718  1.00  0.00     0.031 A 
ATOM     32  C   UNL     1     -12.847  -3.950  -2.363  1.00  0.00     0.074 A 
ATOM     33  C   UNL     1     -13.162  -6.402  -2.280  1.00  0.00     0.049 A 
ATOM     34  N   UNL     1     -13.540  -3.646  -3.432  1.00  0.00    -0.248 NA
ATOM     35  C   UNL     1     -12.195  -2.795  -1.727  1.00  0.00     0.031 C 
ATOM     36  C   UNL     1     -13.009  -7.761  -1.757  1.00  0.00     0.029 A 
ATOM     37  N   UNL     1     -13.900  -6.568  -3.424  1.00  0.00    -0.354 N 
ATOM     38  C   UNL     1     -13.421  -2.270  -3.585  1.00  0.00     0.074 A 
ATOM     39  C   UNL     1     -12.620  -1.790  -2.480  1.00  0.00     0.031 C 
ATOM     40  C   UNL     1     -13.582  -8.626  -2.605  1.00  0.00     0.029 A 
ATOM     41  C   UNL     1     -14.210  -7.880  -3.690  1.00  0.00     0.049 A 
ATOM     42  H   UNL     1     -14.180  -5.820  -3.999  1.00  0.00     0.167 HD
ATOM     43  C   UNL     1     -13.919  -1.485  -4.569  1.00  0.00     0.037 A 
ATOM     44  C   UNL     1     -14.935  -8.422  -4.685  1.00  0.00     0.037 A 
ATOM     45  C   UNL     1     -14.697  -1.974  -5.678  1.00  0.00     0.049 A 
ATOM     46  C   UNL     1     -15.531  -7.518  -5.727  1.00  0.00     0.074 A 
ATOM     47  C   UNL     1     -15.235  -1.260  -6.734  1.00  0.00     0.029 A 
ATOM     48  N   UNL     1     -15.045  -3.303  -5.876  1.00  0.00    -0.354 N 
ATOM     49  N   UNL     1     -15.408  -6.221  -5.863  1.00  0.00    -0.248 NA
ATOM     50  C   UNL     1     -16.376  -8.152  -6.748  1.00  0.00     0.031 C 
ATOM     51  C   UNL     1     -15.954  -2.146  -7.541  1.00  0.00     0.029 A 
ATOM     52  C   UNL     1     -15.814  -3.424  -7.023  1.00  0.00     0.049 A 
ATOM     53  H   UNL     1     -14.785  -4.049  -5.289  1.00  0.00     0.167 HD
ATOM     54  C   UNL     1     -16.142  -5.883  -6.990  1.00  0.00     0.074 A 
ATOM     55  C   UNL     1     -16.690  -7.117  -7.515  1.00  0.00     0.031 C 
ATOM     56  C   UNL     1     -16.350  -4.660  -7.535  1.00  0.00     0.037 A 
BRANCH  43  57
ATOM     57  C   UNL     1     -13.650  -0.008  -4.499  1.00  0.00     0.064 A 
ATOM     58  C   UNL     1     -12.372   0.520  -4.736  1.00  0.00     0.173 A 
ATOM     59  C   UNL     1     -14.699   0.896  -4.268  1.00  0.00     0.173 A 
ATOM     60  F   UNL     1     -11.332  -0.300  -4.951  1.00  0.00    -0.203 F 
ATOM     61  C   UNL     1     -12.152   1.895  -4.731  1.00  0.00     0.198 A 
ATOM     62  C   UNL     1     -14.481   2.271  -4.293  1.00  0.00     0.198 A 
ATOM     63  F   UNL     1     -15.942   0.446  -4.042  1.00  0.00    -0.203 F 
ATOM     64  F   UNL     1     -10.916   2.375  -4.926  1.00  0.00    -0.200 F 
ATOM     65  C   UNL     1     -13.207   2.770  -4.521  1.00  0.00     0.200 A 
ATOM     66  F   UNL     1     -15.506   3.115  -4.107  1.00  0.00    -0.200 F 
ATOM     67  F   UNL     1     -12.997   4.093  -4.536  1.00  0.00    -0.200 F 
ENDBRANCH  43  57
BRANCH  44  68
ATOM     68  C   UNL     1     -15.132  -9.895  -4.734  1.00  0.00     0.064 A 
ATOM     69  C   UNL     1     -14.557 -10.665  -5.753  1.00  0.00     0.173 A 
ATOM     70  C   UNL     1     -15.870 -10.565  -3.746  1.00  0.00     0.173 A 
ATOM     71  F   UNL     1     -13.860 -10.069  -6.731  1.00  0.00    -0.203 F 
ATOM     72  C   UNL     1     -14.717 -12.049  -5.785  1.00  0.00     0.198 A 
ATOM     73  C   UNL     1     -16.001 -11.952  -3.761  1.00  0.00     0.198 A 
ATOM     74  F   UNL     1     -16.438  -9.875  -2.746  1.00  0.00    -0.203 F 
ATOM     75  F   UNL     1     -14.186 -12.759  -6.790  1.00  0.00    -0.200 F 
ATOM     76  C   UNL     1     -15.429 -12.692  -4.784  1.00  0.00     0.200 A 
ATOM     77  F   UNL     1     -16.672 -12.570  -2.780  1.00  0.00    -0.200 F 
ATOM     78  F   UNL     1     -15.567 -14.025  -4.806  1.00  0.00    -0.200 F 
ENDBRANCH  44  68
BRANCH  56  79
ATOM     79  C   UNL     1     -17.191  -4.588  -8.777  1.00  0.00     0.064 A 
ATOM     80  C   UNL     1     -18.577  -4.797  -8.736  1.00  0.00     0.173 A 
ATOM     81  C   UNL     1     -16.615  -4.237 -10.008  1.00  0.00     0.173 A 
ATOM     82  F   UNL     1     -19.173  -5.149  -7.586  1.00  0.00    -0.203 F 
ATOM     83  C   UNL     1     -19.353  -4.673  -9.885  1.00  0.00     0.198 A 
ATOM     84  C   UNL     1     -17.399  -4.082 -11.147  1.00  0.00     0.198 A 
ATOM     85  F   UNL     1     -15.294  -4.019 -10.099  1.00  0.00    -0.203 F 
ATOM     86  F   UNL     1     -20.670  -4.916  -9.830  1.00  0.00    -0.200 F 
ATOM     87  C   UNL     1     -18.766  -4.305 -11.086  1.00  0.00     0.200 A 
ATOM     88  F   UNL     1     -16.832  -3.708 -12.302  1.00  0.00    -0.200 F 
ATOM     89  F   UNL     1     -19.518  -4.168 -12.187  1.00  0.00    -0.200 F 
ENDBRANCH  56  79
ENDBRANCH  30  31
ENDBRANCH  22  25
ENDBRANCH   1  21
TORSDOF 10
