REMARK SMILES C[NH+]1CCN(c2nc3c(cc2F)c(=O)c(C(=O)NCCCNC(=O)c2ccc(-c4c5nc(c(-c6c(F)c(F)c(F)c(F)c6F)c6ccc([nH]6)c(-c6c(F)c(F)c(F)c(F)c6F)c6nc(c(-c7c(F)c(F)c(F)c(F)c7F)c7ccc4[nH]7)C=C6)C=C5)cc2)cn3-c2ccc(F)cc2F)CC1
REMARK SMILES IDX 20 1 19 2 18 3 16 4 17 5 15 7 6 8 7 9 11 10 8 11 10 12 12 13
REMARK SMILES IDX 9 14 89 15 13 16 88 17 14 18 5 19 1 20 2 21 3 22 99 23 4 25
REMARK SMILES IDX 98 26 90 27 91 28 96 29 92 30 95 31 97 32 93 33 94 34 21 35
REMARK SMILES IDX 22 36 23 37 24 39 25 40 26 41 87 42 27 43 86 44 28 45 29 46
REMARK SMILES IDX 30 47 80 48 31 49 85 50 79 51 81 52 32 53 84 54 78 55 77 56
REMARK SMILES IDX 33 58 65 59 45 60 64 61 46 62 49 63 63 64 82 65 47 66 48 67
REMARK SMILES IDX 62 69 83 70 50 71 34 72 35 73 43 74 36 75 37 76 41 77 44 78
REMARK SMILES IDX 38 79 39 80 42 81 40 82 66 83 67 84 75 85 68 86 69 87 73 88
REMARK SMILES IDX 76 89 70 90 71 91 74 92 72 93 51 94 52 95 60 96 53 97 54 98
REMARK SMILES IDX 58 99 61 100 55 101 56 102 59 103 57 104
REMARK H PARENT 18 6 2 24 22 38 81 57 49 68
REMARK Flexibility Score: inf
ROOT
ATOM      1  C   UNL     1      -8.490  -0.607   5.729  1.00  0.00     0.042 C 
ENDROOT
BRANCH   1   2
ATOM      2  C   UNL     1      -8.899  -1.171   4.370  1.00  0.00     0.118 C 
BRANCH   2   3
ATOM      3  N   UNL     1      -9.568  -0.165   3.563  1.00  0.00    -0.352 N 
ATOM      4  C   UNL     1      -9.119   0.677   2.594  1.00  0.00     0.256 C 
ATOM      5  O   UNL     1      -9.960   1.419   2.079  1.00  0.00    -0.269 OA
ATOM      6  H   UNL     1     -10.530  -0.075   3.754  1.00  0.00     0.163 HD
BRANCH   4   7
ATOM      7  C   UNL     1      -7.718   0.675   2.094  1.00  0.00     0.104 A 
ATOM      8  C   UNL     1      -2.917  -0.112   0.639  1.00  0.00     0.167 A 
ATOM      9  N   UNL     1      -3.969   0.543   0.086  1.00  0.00    -0.209 NA
ATOM     10  C   UNL     1      -3.027  -0.729   1.889  1.00  0.00     0.166 A 
ATOM     11  C   UNL     1      -5.153   0.595   0.750  1.00  0.00     0.151 A 
ATOM     12  C   UNL     1      -4.198  -0.620   2.610  1.00  0.00     0.059 A 
ATOM     13  F   UNL     1      -1.985  -1.370   2.441  1.00  0.00    -0.203 F 
ATOM     14  C   UNL     1      -5.265   0.064   2.034  1.00  0.00     0.069 A 
ATOM     15  N   UNL     1      -6.309   1.199   0.154  1.00  0.00    -0.297 N 
ATOM     16  C   UNL     1      -6.488   0.288   2.813  1.00  0.00     0.203 A 
ATOM     17  C   UNL     1      -7.518   1.139   0.847  1.00  0.00     0.111 A 
ATOM     18  O   UNL     1      -6.408   0.190   4.030  1.00  0.00    -0.288 OA
BRANCH   8  19
ATOM     19  N   UNL     1      -1.735  -0.111  -0.050  1.00  0.00    -0.343 N 
ATOM     20  C   UNL     1       2.495   0.106   0.108  1.00  0.00     0.332 C 
ATOM     21  N   UNL     1       1.126   0.018  -0.392  1.00  0.00    -0.334 N 
ATOM     22  C   UNL     1       0.338   1.210   0.008  1.00  0.00     0.283 C 
ATOM     23  C   UNL     1       0.466  -1.204   0.125  1.00  0.00     0.283 C 
ATOM     24  H   UNL     1       1.166  -0.023  -1.410  1.00  0.00     0.347 HD
ATOM     25  C   UNL     1      -1.137   1.151  -0.472  1.00  0.00     0.179 C 
ATOM     26  C   UNL     1      -0.997  -1.331  -0.347  1.00  0.00     0.179 C 
ENDBRANCH   8  19
BRANCH  15  27
ATOM     27  C   UNL     1      -6.277   1.783  -1.148  1.00  0.00     0.083 A 
ATOM     28  C   UNL     1      -5.873   1.032  -2.265  1.00  0.00     0.033 A 
ATOM     29  C   UNL     1      -6.656   3.122  -1.353  1.00  0.00     0.150 A 
ATOM     30  C   UNL     1      -5.855   1.606  -3.539  1.00  0.00     0.041 A 
ATOM     31  C   UNL     1      -6.626   3.705  -2.615  1.00  0.00     0.080 A 
ATOM     32  F   UNL     1      -7.035   3.878  -0.311  1.00  0.00    -0.205 F 
ATOM     33  C   UNL     1      -6.227   2.937  -3.699  1.00  0.00     0.126 A 
ATOM     34  F   UNL     1      -6.197   3.486  -4.920  1.00  0.00    -0.207 F 
ENDBRANCH  15  27
ENDBRANCH   4   7
ENDBRANCH   2   3
ENDBRANCH   1   2
BRANCH   1  35
ATOM     35  C   UNL     1      -9.650  -0.488   6.703  1.00  0.00     0.118 C 
BRANCH  35  36
ATOM     36  N   UNL     1     -10.019  -1.776   7.272  1.00  0.00    -0.352 N 
ATOM     37  C   UNL     1      -9.832  -2.241   8.549  1.00  0.00     0.251 C 
ATOM     38  H   UNL     1     -10.465  -2.400   6.655  1.00  0.00     0.163 HD
ATOM     39  O   UNL     1      -9.995  -3.432   8.804  1.00  0.00    -0.269 OA
BRANCH  37  40
ATOM     40  C   UNL     1      -9.423  -1.310   9.621  1.00  0.00     0.039 A 
ATOM     41  C   UNL     1      -8.401  -1.687  10.495  1.00  0.00     0.014 A 
ATOM     42  C   UNL     1     -10.066  -0.078   9.777  1.00  0.00     0.014 A 
ATOM     43  C   UNL     1      -7.995  -0.808  11.501  1.00  0.00     0.010 A 
ATOM     44  C   UNL     1      -9.612   0.826  10.731  1.00  0.00     0.010 A 
ATOM     45  C   UNL     1      -8.589   0.459  11.616  1.00  0.00    -0.014 A 
BRANCH  45  46
ATOM     46  C   UNL     1      -8.198   1.381  12.708  1.00  0.00     0.031 A 
ATOM     47  C   UNL     1      -9.168   1.663  13.820  1.00  0.00     0.074 A 
ATOM     48  C   UNL     1      -6.987   1.970  12.692  1.00  0.00     0.049 A 
ATOM     49  N   UNL     1      -9.012   2.410  14.883  1.00  0.00    -0.248 NA
ATOM     50  C   UNL     1     -10.497   1.037  13.717  1.00  0.00     0.031 C 
ATOM     51  C   UNL     1      -5.983   1.804  11.642  1.00  0.00     0.029 A 
ATOM     52  N   UNL     1      -6.396   2.824  13.588  1.00  0.00    -0.354 N 
ATOM     53  C   UNL     1     -10.213   2.332  15.574  1.00  0.00     0.074 A 
ATOM     54  C   UNL     1     -11.115   1.531  14.779  1.00  0.00     0.031 C 
ATOM     55  C   UNL     1      -4.886   2.508  11.970  1.00  0.00     0.029 A 
ATOM     56  C   UNL     1      -5.119   3.189  13.241  1.00  0.00     0.049 A 
ATOM     57  H   UNL     1      -6.845   3.145  14.404  1.00  0.00     0.167 HD
ATOM     58  C   UNL     1     -10.521   2.848  16.786  1.00  0.00     0.037 A 
ATOM     59  C   UNL     1      -4.235   3.976  13.885  1.00  0.00     0.037 A 
ATOM     60  C   UNL     1      -9.613   3.625  17.583  1.00  0.00     0.049 A 
ATOM     61  C   UNL     1      -4.618   4.577  15.211  1.00  0.00     0.074 A 
ATOM     62  C   UNL     1      -9.807   4.142  18.851  1.00  0.00     0.029 A 
ATOM     63  N   UNL     1      -8.339   3.998  17.184  1.00  0.00    -0.354 N 
ATOM     64  N   UNL     1      -5.724   4.423  15.898  1.00  0.00    -0.248 NA
ATOM     65  C   UNL     1      -3.632   5.459  15.854  1.00  0.00     0.031 C 
ATOM     66  C   UNL     1      -8.665   4.866  19.202  1.00  0.00     0.029 A 
ATOM     67  C   UNL     1      -7.745   4.767  18.169  1.00  0.00     0.049 A 
ATOM     68  H   UNL     1      -7.919   3.752  16.328  1.00  0.00     0.167 HD
ATOM     69  C   UNL     1      -5.561   5.169  17.058  1.00  0.00     0.074 A 
ATOM     70  C   UNL     1      -4.243   5.765  16.991  1.00  0.00     0.031 C 
ATOM     71  C   UNL     1      -6.428   5.345  18.084  1.00  0.00     0.037 A 
BRANCH  58  72
ATOM     72  C   UNL     1     -11.886   2.562  17.337  1.00  0.00     0.064 A 
ATOM     73  C   UNL     1     -12.234   1.279  17.785  1.00  0.00     0.173 A 
ATOM     74  C   UNL     1     -12.835   3.586  17.470  1.00  0.00     0.173 A 
ATOM     75  F   UNL     1     -11.364   0.264  17.669  1.00  0.00    -0.203 F 
ATOM     76  C   UNL     1     -13.491   1.025  18.326  1.00  0.00     0.198 A 
ATOM     77  C   UNL     1     -14.082   3.334  18.037  1.00  0.00     0.198 A 
ATOM     78  F   UNL     1     -12.550   4.831  17.062  1.00  0.00    -0.203 F 
ATOM     79  F   UNL     1     -13.815  -0.217  18.711  1.00  0.00    -0.200 F 
ATOM     80  C   UNL     1     -14.410   2.055  18.460  1.00  0.00     0.200 A 
ATOM     81  F   UNL     1     -14.966   4.332  18.177  1.00  0.00    -0.200 F 
ATOM     82  F   UNL     1     -15.616   1.812  18.992  1.00  0.00    -0.200 F 
ENDBRANCH  58  72
BRANCH  59  83
ATOM     83  C   UNL     1      -2.885   4.200  13.305  1.00  0.00     0.064 A 
ATOM     84  C   UNL     1      -1.749   3.630  13.897  1.00  0.00     0.173 A 
ATOM     85  C   UNL     1      -2.701   4.969  12.147  1.00  0.00     0.173 A 
ATOM     86  F   UNL     1      -1.871   2.903  15.017  1.00  0.00    -0.203 F 
ATOM     87  C   UNL     1      -0.479   3.829  13.357  1.00  0.00     0.198 A 
ATOM     88  C   UNL     1      -1.434   5.148  11.595  1.00  0.00     0.198 A 
ATOM     89  F   UNL     1      -3.756   5.535  11.542  1.00  0.00    -0.203 F 
ATOM     90  F   UNL     1       0.593   3.299  13.961  1.00  0.00    -0.200 F 
ATOM     91  C   UNL     1      -0.324   4.582  12.203  1.00  0.00     0.200 A 
ATOM     92  F   UNL     1      -1.289   5.867  10.473  1.00  0.00    -0.200 F 
ATOM     93  F   UNL     1       0.896   4.766  11.680  1.00  0.00    -0.200 F 
ENDBRANCH  59  83
BRANCH  71  94
ATOM     94  C   UNL     1      -5.997   6.217  19.225  1.00  0.00     0.064 A 
ATOM     95  C   UNL     1      -5.982   7.613  19.103  1.00  0.00     0.173 A 
ATOM     96  C   UNL     1      -5.721   5.659  20.483  1.00  0.00     0.173 A 
ATOM     97  F   UNL     1      -6.229   8.190  17.917  1.00  0.00    -0.203 F 
ATOM     98  C   UNL     1      -5.712   8.422  20.203  1.00  0.00     0.198 A 
ATOM     99  C   UNL     1      -5.476   6.472  21.585  1.00  0.00     0.198 A 
ATOM    100  F   UNL     1      -5.734   4.328  20.650  1.00  0.00    -0.203 F 
ATOM    101  F   UNL     1      -5.691   9.754  20.063  1.00  0.00    -0.200 F 
ATOM    102  C   UNL     1      -5.473   7.851  21.445  1.00  0.00     0.200 A 
ATOM    103  F   UNL     1      -5.264   5.920  22.788  1.00  0.00    -0.200 F 
ATOM    104  F   UNL     1      -5.245   8.633  22.509  1.00  0.00    -0.200 F 
ENDBRANCH  71  94
ENDBRANCH  45  46
ENDBRANCH  37  40
ENDBRANCH  35  36
ENDBRANCH   1  35
TORSDOF 12
