REMARK SMILES Cc1ccc(NC(=O)C[C@@H](C(=O)NCCCNC(=O)c2ccc(-c3c4nc(c(-c5c(F)c(F)c(F)c(F)c5F)c5ccc([nH]5)c(-c5c(F)c(F)c(F)c(F)c5F)c5nc(c(-c6c(F)c(F)c(F)c(F)c6F)c6ccc3[nH]6)C=C5)C=C4)cc2)[C@@H](C)c2ccccc2)cc1Br
REMARK SMILES IDX 14 1 13 2 11 3 12 4 10 6 9 7 7 8 6 9 8 11 5 12 1 13 2 14
REMARK SMILES IDX 3 15 92 16 4 17 91 18 93 19 83 20 84 21 85 22 86 23 90 24
REMARK SMILES IDX 87 25 89 26 88 27 15 28 16 29 17 30 18 31 19 33 20 34 21 35
REMARK SMILES IDX 82 36 22 37 81 38 23 39 24 40 25 41 75 42 26 43 80 44 74 45
REMARK SMILES IDX 76 46 27 47 79 48 73 49 72 50 28 52 60 53 40 54 59 55 41 56
REMARK SMILES IDX 44 57 58 58 77 59 42 60 43 61 57 63 78 64 45 65 29 66 30 67
REMARK SMILES IDX 38 68 31 69 32 70 36 71 39 72 33 73 34 74 37 75 35 76 61 77
REMARK SMILES IDX 62 78 70 79 63 80 64 81 68 82 71 83 65 84 66 85 69 86 67 87
REMARK SMILES IDX 46 88 47 89 55 90 48 91 49 92 53 93 56 94 50 95 51 96 54 97
REMARK SMILES IDX 52 98
REMARK H PARENT 13 5 6 10 17 32 76 51 44 62
REMARK Flexibility Score: inf
ROOT
ATOM      1  C   UNL     1       3.485   3.303  -2.080  1.00  0.00     0.117 C 
ENDROOT
BRANCH   1   2
ATOM      2  N   UNL     1       2.542   2.207  -1.963  1.00  0.00    -0.356 N 
ATOM      3  C   UNL     1       1.219   2.114  -1.677  1.00  0.00     0.224 C 
ATOM      4  O   UNL     1       0.783   0.962  -1.672  1.00  0.00    -0.275 OA
ATOM      5  H   UNL     1       2.957   1.329  -2.129  1.00  0.00     0.163 HD
BRANCH   3   6
ATOM      6  C   UNL     1       0.341   3.330  -1.372  1.00  0.00     0.095 C 
BRANCH   6   7
ATOM      7  C   UNL     1       0.527   3.920   0.052  1.00  0.00     0.114 C 
BRANCH   7   8
ATOM      8  C   UNL     1       1.786   3.712   0.860  1.00  0.00     0.225 C 
ATOM      9  N   UNL     1       2.168   2.517   1.386  1.00  0.00    -0.326 N 
ATOM     10  H   UNL     1       3.015   2.556   1.886  1.00  0.00     0.169 HD
ATOM     11  O   UNL     1       2.532   4.680   1.055  1.00  0.00    -0.275 OA
BRANCH   9  12
ATOM     12  C   UNL     1       1.589   1.240   1.352  1.00  0.00     0.042 A 
ATOM     13  C   UNL     1       0.174  -2.714   0.380  1.00  0.00     0.045 C 
ATOM     14  C   UNL     1       0.634  -1.361   0.843  1.00  0.00    -0.037 A 
ATOM     15  C   UNL     1       2.005  -1.122   1.000  1.00  0.00     0.007 A 
ATOM     16  C   UNL     1      -0.255  -0.302   1.076  1.00  0.00     0.022 A 
ATOM     17  C   UNL     1       2.475   0.161   1.286  1.00  0.00     0.026 A 
ATOM     18  C   UNL     1       0.221   0.992   1.328  1.00  0.00     0.042 A 
ATOM     19  Br  UNL     1      -2.139  -0.547   1.025  1.00  0.00    -0.050 Br
ENDBRANCH   9  12
ENDBRANCH   7   8
ENDBRANCH   6   7
BRANCH   6  20
ATOM     20  C   UNL     1      -1.208   3.056  -1.565  1.00  0.00     0.029 C 
ATOM     21  C   UNL     1      -2.032   4.351  -1.356  1.00  0.00     0.013 C 
BRANCH  20  22
ATOM     22  C   UNL     1      -1.673   2.357  -2.845  1.00  0.00    -0.044 A 
ATOM     23  C   UNL     1      -2.076   3.046  -3.998  1.00  0.00     0.004 A 
ATOM     24  C   UNL     1      -1.826   0.958  -2.838  1.00  0.00     0.004 A 
ATOM     25  C   UNL     1      -2.634   2.360  -5.085  1.00  0.00     0.000 A 
ATOM     26  C   UNL     1      -2.351   0.269  -3.933  1.00  0.00     0.000 A 
ATOM     27  C   UNL     1      -2.768   0.974  -5.054  1.00  0.00     0.000 A 
ENDBRANCH  20  22
ENDBRANCH   6  20
ENDBRANCH   3   6
ENDBRANCH   1   2
BRANCH   1  28
ATOM     28  C   UNL     1       4.654   3.221  -1.084  1.00  0.00     0.042 C 
BRANCH  28  29
ATOM     29  C   UNL     1       5.229   1.836  -0.782  1.00  0.00     0.118 C 
BRANCH  29  30
ATOM     30  N   UNL     1       6.311   1.447  -1.668  1.00  0.00    -0.352 N 
ATOM     31  C   UNL     1       7.629   1.190  -1.386  1.00  0.00     0.251 C 
ATOM     32  H   UNL     1       6.062   1.354  -2.616  1.00  0.00     0.163 HD
ATOM     33  O   UNL     1       8.416   0.992  -2.317  1.00  0.00    -0.269 OA
BRANCH  31  34
ATOM     34  C   UNL     1       8.147   1.171   0.004  1.00  0.00     0.039 A 
ATOM     35  C   UNL     1       9.357   1.823   0.266  1.00  0.00     0.014 A 
ATOM     36  C   UNL     1       7.510   0.467   1.032  1.00  0.00     0.014 A 
ATOM     37  C   UNL     1       9.902   1.810   1.554  1.00  0.00     0.010 A 
ATOM     38  C   UNL     1       8.028   0.500   2.333  1.00  0.00     0.010 A 
ATOM     39  C   UNL     1       9.234   1.166   2.608  1.00  0.00    -0.014 A 
BRANCH  39  40
ATOM     40  C   UNL     1       9.802   1.187   3.985  1.00  0.00     0.031 A 
ATOM     41  C   UNL     1      10.321  -0.072   4.626  1.00  0.00     0.074 A 
ATOM     42  C   UNL     1       9.844   2.344   4.675  1.00  0.00     0.049 A 
ATOM     43  N   UNL     1      10.857  -0.239   5.811  1.00  0.00    -0.248 NA
ATOM     44  C   UNL     1      10.207  -1.310   3.841  1.00  0.00     0.031 C 
ATOM     45  C   UNL     1       9.344   3.632   4.193  1.00  0.00     0.029 A 
ATOM     46  N   UNL     1      10.329   2.625   5.930  1.00  0.00    -0.354 N 
ATOM     47  C   UNL     1      11.135  -1.596   5.916  1.00  0.00     0.074 A 
ATOM     48  C   UNL     1      10.669  -2.215   4.692  1.00  0.00     0.031 C 
ATOM     49  C   UNL     1       9.567   4.568   5.130  1.00  0.00     0.029 A 
ATOM     50  C   UNL     1      10.201   3.945   6.289  1.00  0.00     0.049 A 
ATOM     51  H   UNL     1      10.731   1.944   6.517  1.00  0.00     0.167 HD
ATOM     52  C   UNL     1      11.740  -2.263   6.928  1.00  0.00     0.037 A 
ATOM     53  C   UNL     1      10.555   4.584   7.421  1.00  0.00     0.037 A 
ATOM     54  C   UNL     1      12.233  -1.650   8.135  1.00  0.00     0.049 A 
ATOM     55  C   UNL     1      11.230   3.821   8.528  1.00  0.00     0.074 A 
ATOM     56  C   UNL     1      12.920  -2.240   9.184  1.00  0.00     0.029 A 
ATOM     57  N   UNL     1      12.090  -0.310   8.457  1.00  0.00    -0.354 N 
ATOM     58  N   UNL     1      11.550   2.552   8.583  1.00  0.00    -0.248 NA
ATOM     59  C   UNL     1      11.601   4.585   9.730  1.00  0.00     0.031 C 
ATOM     60  C   UNL     1      13.155  -1.264  10.159  1.00  0.00     0.029 A 
ATOM     61  C   UNL     1      12.655  -0.058   9.698  1.00  0.00     0.049 A 
ATOM     62  H   UNL     1      11.652   0.364   7.889  1.00  0.00     0.167 HD
ATOM     63  C   UNL     1      12.178   2.369   9.807  1.00  0.00     0.074 A 
ATOM     64  C   UNL     1      12.209   3.660  10.461  1.00  0.00     0.031 C 
ATOM     65  C   UNL     1      12.685   1.230  10.341  1.00  0.00     0.037 A 
BRANCH  52  66
ATOM     66  C   UNL     1      11.912  -3.747   6.778  1.00  0.00     0.064 A 
ATOM     67  C   UNL     1      12.844  -4.292   5.883  1.00  0.00     0.173 A 
ATOM     68  C   UNL     1      11.172  -4.633   7.576  1.00  0.00     0.173 A 
ATOM     69  F   UNL     1      13.571  -3.487   5.093  1.00  0.00    -0.203 F 
ATOM     70  C   UNL     1      13.011  -5.670   5.773  1.00  0.00     0.198 A 
ATOM     71  C   UNL     1      11.361  -6.010   7.482  1.00  0.00     0.198 A 
ATOM     72  F   UNL     1      10.273  -4.163   8.454  1.00  0.00    -0.203 F 
ATOM     73  F   UNL     1      13.879  -6.169   4.882  1.00  0.00    -0.200 F 
ATOM     74  C   UNL     1      12.275  -6.527   6.577  1.00  0.00     0.200 A 
ATOM     75  F   UNL     1      10.658  -6.836   8.269  1.00  0.00    -0.200 F 
ATOM     76  F   UNL     1      12.443  -7.853   6.476  1.00  0.00    -0.200 F 
ENDBRANCH  52  66
BRANCH  53  77
ATOM     77  C   UNL     1      10.299   6.041   7.555  1.00  0.00     0.064 A 
ATOM     78  C   UNL     1      11.354   6.963   7.531  1.00  0.00     0.173 A 
ATOM     79  C   UNL     1       8.998   6.540   7.712  1.00  0.00     0.173 A 
ATOM     80  F   UNL     1      12.617   6.530   7.408  1.00  0.00    -0.203 F 
ATOM     81  C   UNL     1      11.119   8.329   7.674  1.00  0.00     0.198 A 
ATOM     82  C   UNL     1       8.761   7.907   7.830  1.00  0.00     0.198 A 
ATOM     83  F   UNL     1       7.955   5.697   7.741  1.00  0.00    -0.203 F 
ATOM     84  F   UNL     1      12.149   9.185   7.688  1.00  0.00    -0.200 F 
ATOM     85  C   UNL     1       9.823   8.800   7.817  1.00  0.00     0.200 A 
ATOM     86  F   UNL     1       7.507   8.360   7.957  1.00  0.00    -0.200 F 
ATOM     87  F   UNL     1       9.597  10.114   7.950  1.00  0.00    -0.200 F 
ENDBRANCH  53  77
BRANCH  65  88
ATOM     88  C   UNL     1      13.339   1.329  11.688  1.00  0.00     0.064 A 
ATOM     89  C   UNL     1      12.586   1.503  12.858  1.00  0.00     0.173 A 
ATOM     90  C   UNL     1      14.731   1.208  11.813  1.00  0.00     0.173 A 
ATOM     91  F   UNL     1      11.253   1.640  12.790  1.00  0.00    -0.203 F 
ATOM     92  C   UNL     1      13.206   1.573  14.104  1.00  0.00     0.198 A 
ATOM     93  C   UNL     1      15.345   1.252  13.062  1.00  0.00     0.198 A 
ATOM     94  F   UNL     1      15.495   1.035  10.725  1.00  0.00    -0.203 F 
ATOM     95  F   UNL     1      12.470   1.781  15.205  1.00  0.00    -0.200 F 
ATOM     96  C   UNL     1      14.582   1.441  14.205  1.00  0.00     0.200 A 
ATOM     97  F   UNL     1      16.674   1.114  13.160  1.00  0.00    -0.200 F 
ATOM     98  F   UNL     1      15.176   1.502  15.405  1.00  0.00    -0.200 F 
ENDBRANCH  65  88
ENDBRANCH  39  40
ENDBRANCH  31  34
ENDBRANCH  29  30
ENDBRANCH  28  29
ENDBRANCH   1  28
TORSDOF 15
