REMARK SMILES C[C@@](O)(CNC(=O)Cc1ccc(F)cc1F)C(=O)NCCCNC(=O)c1ccc(-c2c3nc(c(-c4c(F)c(F)c(F)c(F)c4F)c4ccc([nH]4)c(-c4c(F)c(F)c(F)c(F)c4F)c4nc(c(-c5c(F)c(F)c(F)c(F)c5F)c5ccc2[nH]5)C=C4)C=C3)cc1
REMARK SMILES IDX 20 1 19 2 17 3 18 4 2 6 1 7 3 8 4 10 5 11 6 12 7 14 8 15
REMARK SMILES IDX 9 16 10 17 15 18 11 19 14 20 16 21 12 22 13 23 21 24 22 25
REMARK SMILES IDX 23 26 24 27 25 29 26 30 27 31 88 32 28 33 87 34 29 35 30 36
REMARK SMILES IDX 31 37 81 38 32 39 86 40 80 41 82 42 33 43 85 44 79 45 78 46
REMARK SMILES IDX 34 48 66 49 46 50 65 51 47 52 50 53 64 54 83 55 48 56 49 57
REMARK SMILES IDX 63 59 84 60 51 61 35 62 36 63 44 64 37 65 38 66 42 67 45 68
REMARK SMILES IDX 39 69 40 70 43 71 41 72 67 73 68 74 76 75 69 76 70 77 74 78
REMARK SMILES IDX 77 79 71 80 72 81 75 82 73 83 52 84 53 85 61 86 54 87 55 88
REMARK SMILES IDX 59 89 62 90 56 91 57 92 60 93 58 94
REMARK H PARENT 19 5 3 9 5 13 23 28 82 47 50 58
REMARK Flexibility Score: inf
ROOT
ATOM      1  C   UNL     1       0.903  -3.923  -0.611  1.00  0.00     0.117 C 
ENDROOT
BRANCH   1   2
ATOM      2  N   UNL     1       1.641  -2.713  -0.923  1.00  0.00    -0.353 N 
ATOM      3  C   UNL     1       1.259  -1.406  -0.851  1.00  0.00     0.253 C 
ATOM      4  O   UNL     1       1.927  -0.611  -1.520  1.00  0.00    -0.272 OA
ATOM      5  H   UNL     1       2.562  -2.859  -1.238  1.00  0.00     0.163 HD
BRANCH   3   6
ATOM      6  C   UNL     1       0.131  -0.925   0.115  1.00  0.00     0.157 C 
ATOM      7  C   UNL     1       0.411   0.557   0.424  1.00  0.00     0.055 C 
BRANCH   6   8
ATOM      8  O   UNL     1       0.254  -1.619   1.371  1.00  0.00    -0.378 OA
ATOM      9  H   UNL     1      -0.446  -1.322   1.974  1.00  0.00     0.212 HD
ENDBRANCH   6   8
BRANCH   6  10
ATOM     10  C   UNL     1      -1.341  -1.096  -0.366  1.00  0.00     0.160 C 
BRANCH  10  11
ATOM     11  N   UNL     1      -1.671  -0.554  -1.683  1.00  0.00    -0.352 N 
ATOM     12  C   UNL     1      -2.452  -1.032  -2.701  1.00  0.00     0.224 C 
ATOM     13  H   UNL     1      -1.255   0.318  -1.873  1.00  0.00     0.163 HD
ATOM     14  O   UNL     1      -2.724  -0.258  -3.622  1.00  0.00    -0.275 OA
BRANCH  12  15
ATOM     15  C   UNL     1      -2.994  -2.457  -2.713  1.00  0.00     0.138 C 
BRANCH  15  16
ATOM     16  C   UNL     1      -1.948  -3.537  -2.940  1.00  0.00    -0.003 A 
ATOM     17  C   UNL     1      -2.234  -5.155  -2.180  1.00  0.00     0.010 A 
ATOM     18  C   UNL     1      -0.280  -3.057  -3.437  1.00  0.00     0.129 A 
ATOM     19  C   UNL     1      -0.839  -6.271  -1.882  1.00  0.00     0.040 A 
ATOM     20  C   UNL     1       1.107  -4.172  -3.168  1.00  0.00     0.078 A 
ATOM     21  F   UNL     1      -0.058  -1.853  -3.974  1.00  0.00    -0.207 F 
ATOM     22  C   UNL     1       0.833  -5.756  -2.343  1.00  0.00     0.126 A 
ATOM     23  F   UNL     1       1.873  -6.569  -2.121  1.00  0.00    -0.207 F 
ENDBRANCH  15  16
ENDBRANCH  12  15
ENDBRANCH  10  11
ENDBRANCH   6  10
ENDBRANCH   3   6
ENDBRANCH   1   2
BRANCH   1  24
ATOM     24  C   UNL     1      -0.381  -4.239  -1.674  1.00  0.00     0.042 C 
BRANCH  24  25
ATOM     25  C   UNL     1      -0.685  -5.134  -3.649  1.00  0.00     0.118 C 
BRANCH  25  26
ATOM     26  N   UNL     1      -0.126  -6.522  -4.267  1.00  0.00    -0.352 N 
ATOM     27  C   UNL     1      -0.741  -7.689  -4.626  1.00  0.00     0.251 C 
ATOM     28  H   UNL     1       0.847  -6.527  -4.412  1.00  0.00     0.163 HD
ATOM     29  O   UNL     1      -0.096  -8.731  -4.694  1.00  0.00    -0.269 OA
BRANCH  27  30
ATOM     30  C   UNL     1      -2.158  -7.694  -5.007  1.00  0.00     0.039 A 
ATOM     31  C   UNL     1      -2.958  -8.785  -4.658  1.00  0.00     0.014 A 
ATOM     32  C   UNL     1      -2.633  -6.704  -5.872  1.00  0.00     0.014 A 
ATOM     33  C   UNL     1      -4.239  -8.893  -5.194  1.00  0.00     0.010 A 
ATOM     34  C   UNL     1      -3.928  -6.781  -6.357  1.00  0.00     0.010 A 
ATOM     35  C   UNL     1      -4.722  -7.897  -6.056  1.00  0.00    -0.014 A 
BRANCH  35  36
ATOM     36  C   UNL     1      -6.025  -8.031  -6.739  1.00  0.00     0.031 A 
ATOM     37  C   UNL     1      -6.057  -8.217  -8.229  1.00  0.00     0.074 A 
ATOM     38  C   UNL     1      -7.158  -7.905  -6.029  1.00  0.00     0.049 A 
ATOM     39  N   UNL     1      -7.080  -8.207  -9.043  1.00  0.00    -0.248 NA
ATOM     40  C   UNL     1      -4.758  -8.407  -8.898  1.00  0.00     0.031 C 
ATOM     41  C   UNL     1      -7.226  -7.702  -4.582  1.00  0.00     0.029 A 
ATOM     42  N   UNL     1      -8.467  -7.909  -6.431  1.00  0.00    -0.354 N 
ATOM     43  C   UNL     1      -6.547  -8.362 -10.317  1.00  0.00     0.074 A 
ATOM     44  C   UNL     1      -5.109  -8.419 -10.175  1.00  0.00     0.031 C 
ATOM     45  C   UNL     1      -8.514  -7.609  -4.215  1.00  0.00     0.029 A 
ATOM     46  C   UNL     1      -9.354  -7.704  -5.405  1.00  0.00     0.049 A 
ATOM     47  H   UNL     1      -8.744  -8.045  -7.366  1.00  0.00     0.167 HD
ATOM     48  C   UNL     1      -7.208  -8.466 -11.493  1.00  0.00     0.037 A 
ATOM     49  C   UNL     1     -10.695  -7.592  -5.432  1.00  0.00     0.037 A 
ATOM     50  C   UNL     1      -8.642  -8.443 -11.606  1.00  0.00     0.049 A 
ATOM     51  C   UNL     1     -11.406  -7.713  -6.751  1.00  0.00     0.074 A 
ATOM     52  C   UNL     1      -9.421  -8.597 -12.738  1.00  0.00     0.029 A 
ATOM     53  N   UNL     1      -9.512  -8.259 -10.540  1.00  0.00    -0.354 N 
ATOM     54  N   UNL     1     -10.900  -7.899  -7.947  1.00  0.00    -0.248 NA
ATOM     55  C   UNL     1     -12.871  -7.615  -6.726  1.00  0.00     0.031 C 
ATOM     56  C   UNL     1     -10.761  -8.463 -12.364  1.00  0.00     0.029 A 
ATOM     57  C   UNL     1     -10.821  -8.279 -10.991  1.00  0.00     0.049 A 
ATOM     58  H   UNL     1      -9.239  -8.133  -9.603  1.00  0.00     0.167 HD
ATOM     59  C   UNL     1     -11.982  -7.963  -8.814  1.00  0.00     0.074 A 
ATOM     60  C   UNL     1     -13.173  -7.809  -8.003  1.00  0.00     0.031 C 
ATOM     61  C   UNL     1     -11.989  -8.131 -10.159  1.00  0.00     0.037 A 
BRANCH  48  62
ATOM     62  C   UNL     1      -6.396  -8.625 -12.746  1.00  0.00     0.064 A 
ATOM     63  C   UNL     1      -6.377  -7.611 -13.717  1.00  0.00     0.173 A 
ATOM     64  C   UNL     1      -5.683  -9.802 -13.018  1.00  0.00     0.173 A 
ATOM     65  F   UNL     1      -7.045  -6.465 -13.512  1.00  0.00    -0.203 F 
ATOM     66  C   UNL     1      -5.684  -7.775 -14.914  1.00  0.00     0.198 A 
ATOM     67  C   UNL     1      -4.966  -9.951 -14.203  1.00  0.00     0.198 A 
ATOM     68  F   UNL     1      -5.658 -10.799 -12.120  1.00  0.00    -0.203 F 
ATOM     69  F   UNL     1      -5.708  -6.805 -15.838  1.00  0.00    -0.200 F 
ATOM     70  C   UNL     1      -4.976  -8.942 -15.154  1.00  0.00     0.200 A 
ATOM     71  F   UNL     1      -4.261 -11.069 -14.421  1.00  0.00    -0.200 F 
ATOM     72  F   UNL     1      -4.300  -9.094 -16.301  1.00  0.00    -0.200 F 
ENDBRANCH  48  62
BRANCH  49  73
ATOM     73  C   UNL     1     -11.434  -7.394  -4.160  1.00  0.00     0.064 A 
ATOM     74  C   UNL     1     -11.340  -6.197  -3.434  1.00  0.00     0.173 A 
ATOM     75  C   UNL     1     -12.205  -8.429  -3.614  1.00  0.00     0.173 A 
ATOM     76  F   UNL     1     -10.603  -5.181  -3.907  1.00  0.00    -0.203 F 
ATOM     77  C   UNL     1     -11.971  -6.052  -2.201  1.00  0.00     0.198 A 
ATOM     78  C   UNL     1     -12.858  -8.273  -2.393  1.00  0.00     0.198 A 
ATOM     79  F   UNL     1     -12.335  -9.587  -4.277  1.00  0.00    -0.203 F 
ATOM     80  F   UNL     1     -11.829  -4.915  -1.507  1.00  0.00    -0.200 F 
ATOM     81  C   UNL     1     -12.732  -7.089  -1.683  1.00  0.00     0.200 A 
ATOM     82  F   UNL     1     -13.606  -9.271  -1.905  1.00  0.00    -0.200 F 
ATOM     83  F   UNL     1     -13.342  -6.948  -0.498  1.00  0.00    -0.200 F 
ENDBRANCH  49  73
BRANCH  61  84
ATOM     84  C   UNL     1     -13.323  -8.183 -10.842  1.00  0.00     0.064 A 
ATOM     85  C   UNL     1     -13.789  -9.385 -11.396  1.00  0.00     0.173 A 
ATOM     86  C   UNL     1     -14.097  -7.028 -11.024  1.00  0.00     0.173 A 
ATOM     87  F   UNL     1     -13.079 -10.514 -11.256  1.00  0.00    -0.203 F 
ATOM     88  C   UNL     1     -14.974  -9.425 -12.123  1.00  0.00     0.198 A 
ATOM     89  C   UNL     1     -15.297  -7.078 -11.727  1.00  0.00     0.198 A 
ATOM     90  F   UNL     1     -13.697  -5.859 -10.503  1.00  0.00    -0.203 F 
ATOM     91  F   UNL     1     -15.381 -10.576 -12.676  1.00  0.00    -0.200 F 
ATOM     92  C   UNL     1     -15.729  -8.273 -12.285  1.00  0.00     0.200 A 
ATOM     93  F   UNL     1     -16.037  -5.970 -11.863  1.00  0.00    -0.200 F 
ATOM     94  F   UNL     1     -16.874  -8.314 -12.979  1.00  0.00    -0.200 F 
ENDBRANCH  61  84
ENDBRANCH  35  36
ENDBRANCH  27  30
ENDBRANCH  25  26
ENDBRANCH  24  25
ENDBRANCH   1  24
TORSDOF 15
