REMARK SMILES O=C(C[C@H]1C[N@@H+]([C@@H]2CC(=O)NC2=O)CCO1)NCCCNC(=O)c1ccc(-c2c3nc(c(-c4c(F)c(F)c(F)c(F)c4F)c4ccc([nH]4)c(-c4c(F)c(F)c(F)c(F)c4F)c4nc(c(-c5c(F)c(F)c(F)c(F)c5F)c5ccc2[nH]5)C=C4)C=C3)cc1
REMARK SMILES IDX 19 1 18 2 17 3 1 4 2 5 3 7 4 8 5 9 16 10 6 11 15 12 14 13
REMARK SMILES IDX 7 15 8 16 12 17 9 18 11 19 13 20 10 21 20 23 21 24 22 25
REMARK SMILES IDX 23 27 24 28 25 29 86 30 26 31 85 32 27 33 28 34 29 35 79 36
REMARK SMILES IDX 30 37 84 38 78 39 80 40 31 41 83 42 77 43 76 44 32 46 64 47
REMARK SMILES IDX 44 48 63 49 45 50 48 51 62 52 81 53 46 54 47 55 61 57 82 58
REMARK SMILES IDX 49 59 33 60 34 61 42 62 35 63 36 64 40 65 43 66 37 67 38 68
REMARK SMILES IDX 41 69 39 70 65 71 66 72 74 73 67 74 68 75 72 76 75 77 69 78
REMARK SMILES IDX 70 79 73 80 71 81 50 82 51 83 59 84 52 85 53 86 57 87 60 88
REMARK SMILES IDX 54 89 55 90 58 91 56 92
REMARK H PARENT 17 6 6 14 11 22 21 26 80 45 48 56
REMARK Flexibility Score: inf
ROOT
ATOM      1  C   UNL     1       4.106   3.209  -3.379  1.00  0.00     0.042 C 
ENDROOT
BRANCH   1   2
ATOM      2  C   UNL     1       5.043   2.071  -2.997  1.00  0.00     0.117 C 
BRANCH   2   3
ATOM      3  N   UNL     1       4.477   1.164  -2.024  1.00  0.00    -0.356 N 
ATOM      4  O   UNL     1       2.933   0.267  -3.441  1.00  0.00    -0.275 OA
ATOM      5  C   UNL     1       3.493   0.269  -2.350  1.00  0.00     0.222 C 
ATOM      6  H   UNL     1       4.810   1.191  -1.098  1.00  0.00     0.163 HD
BRANCH   5   7
ATOM      7  C   UNL     1       3.083  -0.672  -1.244  1.00  0.00     0.138 C 
BRANCH   7   8
ATOM      8  C   UNL     1       4.177  -1.440  -0.483  1.00  0.00     0.182 C 
ATOM      9  C   UNL     1       4.146  -2.975  -0.682  1.00  0.00     0.295 C 
ATOM     10  O   UNL     1       5.501  -0.895  -0.584  1.00  0.00    -0.366 OA
ATOM     11  N   UNL     1       4.957  -3.519  -1.766  1.00  0.00    -0.320 N 
ATOM     12  C   UNL     1       6.250  -1.374  -1.712  1.00  0.00     0.222 C 
ATOM     13  C   UNL     1       6.278  -2.900  -1.828  1.00  0.00     0.291 C 
ATOM     14  H   UNL     1       5.088  -4.485  -1.464  1.00  0.00     0.348 HD
BRANCH  11  15
ATOM     15  C   UNL     1       4.343  -3.933  -3.032  1.00  0.00     0.284 C 
ATOM     16  C   UNL     1       3.916  -2.860  -4.033  1.00  0.00     0.176 C 
ATOM     17  C   UNL     1       3.062  -4.732  -2.805  1.00  0.00     0.285 C 
ATOM     18  C   UNL     1       2.426  -3.009  -4.130  1.00  0.00     0.233 C 
ATOM     19  N   UNL     1       2.033  -4.077  -3.399  1.00  0.00    -0.291 N 
ATOM     20  O   UNL     1       2.947  -5.770  -2.174  1.00  0.00    -0.268 OA
ATOM     21  O   UNL     1       1.676  -2.325  -4.809  1.00  0.00    -0.274 OA
ATOM     22  H   UNL     1       1.092  -4.351  -3.306  1.00  0.00     0.173 HD
ENDBRANCH  11  15
ENDBRANCH   7   8
ENDBRANCH   5   7
ENDBRANCH   2   3
ENDBRANCH   1   2
BRANCH   1  23
ATOM     23  C   UNL     1       3.490   3.924  -2.187  1.00  0.00     0.118 C 
BRANCH  23  24
ATOM     24  N   UNL     1       4.487   4.436  -1.257  1.00  0.00    -0.352 N 
ATOM     25  C   UNL     1       4.639   5.690  -0.729  1.00  0.00     0.251 C 
ATOM     26  H   UNL     1       5.157   3.778  -0.963  1.00  0.00     0.163 HD
ATOM     27  O   UNL     1       5.647   5.963  -0.084  1.00  0.00    -0.269 OA
BRANCH  25  28
ATOM     28  C   UNL     1       3.599   6.718  -0.940  1.00  0.00     0.039 A 
ATOM     29  C   UNL     1       4.001   8.034  -1.179  1.00  0.00     0.014 A 
ATOM     30  C   UNL     1       2.240   6.402  -0.869  1.00  0.00     0.014 A 
ATOM     31  C   UNL     1       3.039   9.024  -1.372  1.00  0.00     0.010 A 
ATOM     32  C   UNL     1       1.284   7.370  -1.159  1.00  0.00     0.010 A 
ATOM     33  C   UNL     1       1.673   8.698  -1.382  1.00  0.00    -0.014 A 
BRANCH  33  34
ATOM     34  C   UNL     1       0.647   9.752  -1.573  1.00  0.00     0.031 A 
ATOM     35  C   UNL     1      -0.326  10.068  -0.469  1.00  0.00     0.074 A 
ATOM     36  C   UNL     1       0.585  10.415  -2.743  1.00  0.00     0.049 A 
ATOM     37  N   UNL     1      -1.273  10.972  -0.433  1.00  0.00    -0.248 NA
ATOM     38  C   UNL     1      -0.243   9.243   0.747  1.00  0.00     0.031 C 
ATOM     39  C   UNL     1       1.436  10.159  -3.906  1.00  0.00     0.029 A 
ATOM     40  N   UNL     1      -0.226  11.446  -3.145  1.00  0.00    -0.354 N 
ATOM     41  C   UNL     1      -1.897  10.817   0.799  1.00  0.00     0.074 A 
ATOM     42  C   UNL     1      -1.272   9.688   1.451  1.00  0.00     0.031 C 
ATOM     43  C   UNL     1       1.131  11.036  -4.875  1.00  0.00     0.029 A 
ATOM     44  C   UNL     1       0.042  11.892  -4.416  1.00  0.00     0.049 A 
ATOM     45  H   UNL     1      -0.933  11.829  -2.577  1.00  0.00     0.167 HD
ATOM     46  C   UNL     1      -2.879  11.568   1.351  1.00  0.00     0.037 A 
ATOM     47  C   UNL     1      -0.524  12.887  -5.125  1.00  0.00     0.037 A 
ATOM     48  C   UNL     1      -3.486  12.700   0.702  1.00  0.00     0.049 A 
ATOM     49  C   UNL     1      -1.611  13.709  -4.487  1.00  0.00     0.074 A 
ATOM     50  C   UNL     1      -4.459  13.556   1.188  1.00  0.00     0.029 A 
ATOM     51  N   UNL     1      -3.179  13.132  -0.581  1.00  0.00    -0.354 N 
ATOM     52  N   UNL     1      -2.141  13.602  -3.292  1.00  0.00    -0.248 NA
ATOM     53  C   UNL     1      -2.165  14.806  -5.292  1.00  0.00     0.031 C 
ATOM     54  C   UNL     1      -4.779  14.471   0.180  1.00  0.00     0.029 A 
ATOM     55  C   UNL     1      -3.956  14.231  -0.909  1.00  0.00     0.049 A 
ATOM     56  H   UNL     1      -2.508  12.718  -1.170  1.00  0.00     0.167 HD
ATOM     57  C   UNL     1      -3.060  14.639  -3.187  1.00  0.00     0.074 A 
ATOM     58  C   UNL     1      -3.000  15.372  -4.434  1.00  0.00     0.031 C 
ATOM     59  C   UNL     1      -3.877  14.957  -2.151  1.00  0.00     0.037 A 
BRANCH  46  60
ATOM     60  C   UNL     1      -3.356  11.186   2.724  1.00  0.00     0.064 A 
ATOM     61  C   UNL     1      -2.534  11.318   3.856  1.00  0.00     0.173 A 
ATOM     62  C   UNL     1      -4.660  10.704   2.918  1.00  0.00     0.173 A 
ATOM     63  F   UNL     1      -1.274  11.761   3.727  1.00  0.00    -0.203 F 
ATOM     64  C   UNL     1      -2.987  10.950   5.120  1.00  0.00     0.198 A 
ATOM     65  C   UNL     1      -5.121  10.371   4.190  1.00  0.00     0.198 A 
ATOM     66  F   UNL     1      -5.491  10.560   1.875  1.00  0.00    -0.203 F 
ATOM     67  F   UNL     1      -2.163  11.029   6.174  1.00  0.00    -0.200 F 
ATOM     68  C   UNL     1      -4.282  10.484   5.287  1.00  0.00     0.200 A 
ATOM     69  F   UNL     1      -6.378   9.936   4.352  1.00  0.00    -0.200 F 
ATOM     70  F   UNL     1      -4.719  10.137   6.506  1.00  0.00    -0.200 F 
ENDBRANCH  46  60
BRANCH  47  71
ATOM     71  C   UNL     1      -0.046  13.187  -6.501  1.00  0.00     0.064 A 
ATOM     72  C   UNL     1       0.626  14.384  -6.787  1.00  0.00     0.173 A 
ATOM     73  C   UNL     1      -0.263  12.293  -7.559  1.00  0.00     0.173 A 
ATOM     74  F   UNL     1       0.844  15.280  -5.813  1.00  0.00    -0.203 F 
ATOM     75  C   UNL     1       1.035  14.689  -8.084  1.00  0.00     0.198 A 
ATOM     76  C   UNL     1       0.176  12.584  -8.849  1.00  0.00     0.198 A 
ATOM     77  F   UNL     1      -0.893  11.130  -7.338  1.00  0.00    -0.203 F 
ATOM     78  F   UNL     1       1.623  15.866  -8.340  1.00  0.00    -0.200 F 
ATOM     79  C   UNL     1       0.814  13.787  -9.113  1.00  0.00     0.200 A 
ATOM     80  F   UNL     1      -0.024  11.701  -9.837  1.00  0.00    -0.200 F 
ATOM     81  F   UNL     1       1.207  14.080 -10.360  1.00  0.00    -0.200 F 
ENDBRANCH  47  71
BRANCH  59  82
ATOM     82  C   UNL     1      -4.727  16.188  -2.303  1.00  0.00     0.064 A 
ATOM     83  C   UNL     1      -5.786  16.254  -3.220  1.00  0.00     0.173 A 
ATOM     84  C   UNL     1      -4.479  17.317  -1.506  1.00  0.00     0.173 A 
ATOM     85  F   UNL     1      -6.060  15.207  -4.013  1.00  0.00    -0.203 F 
ATOM     86  C   UNL     1      -6.532  17.421  -3.370  1.00  0.00     0.198 A 
ATOM     87  C   UNL     1      -5.252  18.467  -1.630  1.00  0.00     0.198 A 
ATOM     88  F   UNL     1      -3.486  17.305  -0.603  1.00  0.00    -0.203 F 
ATOM     89  F   UNL     1      -7.490  17.486  -4.304  1.00  0.00    -0.200 F 
ATOM     90  C   UNL     1      -6.268  18.524  -2.571  1.00  0.00     0.200 A 
ATOM     91  F   UNL     1      -5.008  19.525  -0.844  1.00  0.00    -0.200 F 
ATOM     92  F   UNL     1      -6.986  19.646  -2.718  1.00  0.00    -0.200 F 
ENDBRANCH  59  82
ENDBRANCH  33  34
ENDBRANCH  25  28
ENDBRANCH  23  24
ENDBRANCH   1  23
TORSDOF 12
