REMARK SMILES Cc1ccc(-c2c(C(=O)NCCCNC(=O)c3ccc(-c4c5nc(c(-c6c(F)c(F)c(F)c(F)c6F)c6ccc([nH]6)c(-c6c(F)c(F)c(F)c(F)c6F)c6nc(c(-c7c(F)c(F)c(F)c(F)c7F)c7ccc4[nH]7)C=C6)C=C5)cc3)nnn2Cc2c(F)cccc2Cl)cc1
REMARK SMILES IDX 12 1 11 2 10 3 8 4 9 5 7 7 6 8 82 9 80 10 81 11 5 12 1 13
REMARK SMILES IDX 2 14 3 15 93 16 4 17 92 18 83 19 84 20 85 21 90 22 86 23
REMARK SMILES IDX 87 24 89 25 91 26 88 27 13 28 14 29 15 30 16 32 17 33 18 34
REMARK SMILES IDX 79 35 19 36 78 37 20 38 21 39 22 40 72 41 23 42 77 43 71 44
REMARK SMILES IDX 73 45 24 46 76 47 70 48 69 49 25 51 57 52 37 53 56 54 38 55
REMARK SMILES IDX 41 56 55 57 74 58 39 59 40 60 54 62 75 63 42 64 26 65 27 66
REMARK SMILES IDX 35 67 28 68 29 69 33 70 36 71 30 72 31 73 34 74 32 75 58 76
REMARK SMILES IDX 59 77 67 78 60 79 61 80 65 81 68 82 62 83 63 84 66 85 64 86
REMARK SMILES IDX 43 87 44 88 52 89 45 90 46 91 50 92 53 93 47 94 48 95 51 96
REMARK SMILES IDX 49 97
REMARK H PARENT 10 6 14 31 73 50 41 61
REMARK Flexibility Score: inf
ROOT
ATOM      1  C   UNL     1      -1.166  -0.542   2.778  1.00  0.00     0.042 C 
ENDROOT
BRANCH   1   2
ATOM      2  C   UNL     1      -1.922  -1.813   2.434  1.00  0.00     0.118 C 
BRANCH   2   3
ATOM      3  N   UNL     1      -3.328  -1.637   2.699  1.00  0.00    -0.351 N 
ATOM      4  C   UNL     1      -4.357  -0.993   2.069  1.00  0.00     0.274 C 
ATOM      5  O   UNL     1      -5.397  -1.003   2.740  1.00  0.00    -0.267 OA
ATOM      6  H   UNL     1      -3.615  -2.086   3.527  1.00  0.00     0.163 HD
BRANCH   4   7
ATOM      7  C   UNL     1      -4.346  -0.368   0.738  1.00  0.00     0.178 A 
ATOM      8  C   UNL     1      -3.416   0.042  -0.229  1.00  0.00     0.102 A 
ATOM      9  N   UNL     1      -4.224   0.481  -1.269  1.00  0.00    -0.239 N 
ATOM     10  N   UNL     1      -5.611  -0.028   0.269  1.00  0.00    -0.124 NA
ATOM     11  N   UNL     1      -5.515   0.511  -0.924  1.00  0.00    -0.066 NA
BRANCH   8  12
ATOM     12  C   UNL     1      -1.963   0.109  -0.346  1.00  0.00     0.002 A 
ATOM     13  C   UNL     1       2.358   0.274  -0.424  1.00  0.00     0.044 C 
ATOM     14  C   UNL     1       0.857   0.247  -0.490  1.00  0.00    -0.051 A 
ATOM     15  C   UNL     1       0.189  -0.953  -0.756  1.00  0.00     0.004 A 
ATOM     16  C   UNL     1       0.103   1.394  -0.210  1.00  0.00     0.004 A 
ATOM     17  C   UNL     1      -1.208  -1.015  -0.704  1.00  0.00     0.011 A 
ATOM     18  C   UNL     1      -1.296   1.328  -0.148  1.00  0.00     0.011 A 
ENDBRANCH   8  12
BRANCH   9  19
ATOM     19  C   UNL     1      -3.879   0.975  -2.597  1.00  0.00     0.187 C 
BRANCH  19  20
ATOM     20  C   UNL     1      -2.991   0.085  -3.429  1.00  0.00     0.028 A 
ATOM     21  C   UNL     1      -2.026   0.722  -4.224  1.00  0.00     0.129 A 
ATOM     22  C   UNL     1      -3.081  -1.312  -3.531  1.00  0.00     0.049 A 
ATOM     23  F   UNL     1      -1.957   2.062  -4.232  1.00  0.00    -0.207 F 
ATOM     24  C   UNL     1      -1.135   0.016  -5.026  1.00  0.00     0.040 A 
ATOM     25  C   UNL     1      -2.161  -2.033  -4.306  1.00  0.00     0.021 A 
ATOM     26  Cl  UNL     1      -4.303  -2.242  -2.743  1.00  0.00    -0.084 Cl
ATOM     27  C   UNL     1      -1.185  -1.372  -5.049  1.00  0.00     0.005 A 
ENDBRANCH  19  20
ENDBRANCH   9  19
ENDBRANCH   4   7
ENDBRANCH   2   3
ENDBRANCH   1   2
BRANCH   1  28
ATOM     28  C   UNL     1      -0.010  -0.735   3.732  1.00  0.00     0.118 C 
BRANCH  28  29
ATOM     29  N   UNL     1       1.276  -0.997   3.092  1.00  0.00    -0.352 N 
ATOM     30  C   UNL     1       2.506  -1.193   3.707  1.00  0.00     0.251 C 
ATOM     31  H   UNL     1       1.271  -1.040   2.108  1.00  0.00     0.163 HD
ATOM     32  O   UNL     1       3.522  -1.393   3.063  1.00  0.00    -0.269 OA
BRANCH  30  33
ATOM     33  C   UNL     1       2.514  -1.278   5.187  1.00  0.00     0.039 A 
ATOM     34  C   UNL     1       2.831  -2.515   5.753  1.00  0.00     0.014 A 
ATOM     35  C   UNL     1       1.832  -0.308   5.915  1.00  0.00     0.014 A 
ATOM     36  C   UNL     1       2.209  -2.883   6.940  1.00  0.00     0.010 A 
ATOM     37  C   UNL     1       1.106  -0.727   7.011  1.00  0.00     0.010 A 
ATOM     38  C   UNL     1       1.237  -2.041   7.480  1.00  0.00    -0.014 A 
BRANCH  38  39
ATOM     39  C   UNL     1       0.225  -2.506   8.427  1.00  0.00     0.031 A 
ATOM     40  C   UNL     1       0.182  -1.960   9.802  1.00  0.00     0.074 A 
ATOM     41  C   UNL     1      -0.728  -3.383   8.032  1.00  0.00     0.049 A 
ATOM     42  N   UNL     1      -0.383  -2.548  10.803  1.00  0.00    -0.248 NA
ATOM     43  C   UNL     1       0.848  -0.721  10.175  1.00  0.00     0.031 C 
ATOM     44  C   UNL     1      -1.965  -3.715   8.738  1.00  0.00     0.029 A 
ATOM     45  N   UNL     1      -0.672  -4.314   6.977  1.00  0.00    -0.354 N 
ATOM     46  C   UNL     1      -0.407  -1.665  11.860  1.00  0.00     0.074 A 
ATOM     47  C   UNL     1       0.453  -0.585  11.444  1.00  0.00     0.031 C 
ATOM     48  C   UNL     1      -2.395  -4.915   8.323  1.00  0.00     0.029 A 
ATOM     49  C   UNL     1      -1.379  -5.451   7.438  1.00  0.00     0.049 A 
ATOM     50  H   UNL     1      -0.234  -4.198   6.103  1.00  0.00     0.167 HD
ATOM     51  C   UNL     1      -1.260  -1.907  12.900  1.00  0.00     0.037 A 
ATOM     52  C   UNL     1      -0.785  -6.670   7.581  1.00  0.00     0.037 A 
ATOM     53  C   UNL     1      -1.890  -3.223  12.762  1.00  0.00     0.049 A 
ATOM     54  C   UNL     1      -0.872  -7.242   8.975  1.00  0.00     0.074 A 
ATOM     55  C   UNL     1      -3.147  -3.630  12.344  1.00  0.00     0.029 A 
ATOM     56  N   UNL     1      -1.105  -4.371  12.820  1.00  0.00    -0.354 N 
ATOM     57  N   UNL     1      -1.126  -6.527  10.034  1.00  0.00    -0.248 NA
ATOM     58  C   UNL     1      -0.634  -8.647   9.292  1.00  0.00     0.031 C 
ATOM     59  C   UNL     1      -3.107  -5.029  12.125  1.00  0.00     0.029 A 
ATOM     60  C   UNL     1      -1.831  -5.476  12.421  1.00  0.00     0.049 A 
ATOM     61  H   UNL     1      -0.163  -4.392  13.105  1.00  0.00     0.167 HD
ATOM     62  C   UNL     1      -1.061  -7.323  11.150  1.00  0.00     0.074 A 
ATOM     63  C   UNL     1      -0.774  -8.646  10.630  1.00  0.00     0.031 C 
ATOM     64  C   UNL     1      -1.234  -6.804  12.402  1.00  0.00     0.037 A 
BRANCH  51  65
ATOM     65  C   UNL     1      -1.755  -0.863  13.895  1.00  0.00     0.064 A 
ATOM     66  C   UNL     1      -2.954  -1.074  14.617  1.00  0.00     0.173 A 
ATOM     67  C   UNL     1      -1.166   0.394  14.131  1.00  0.00     0.173 A 
ATOM     68  F   UNL     1      -3.579  -2.258  14.610  1.00  0.00    -0.203 F 
ATOM     69  C   UNL     1      -3.565  -0.076  15.387  1.00  0.00     0.198 A 
ATOM     70  C   UNL     1      -1.792   1.405  14.869  1.00  0.00     0.198 A 
ATOM     71  F   UNL     1       0.069   0.686  13.721  1.00  0.00    -0.203 F 
ATOM     72  F   UNL     1      -4.714  -0.338  16.025  1.00  0.00    -0.200 F 
ATOM     73  C   UNL     1      -3.001   1.177  15.483  1.00  0.00     0.200 A 
ATOM     74  F   UNL     1      -1.200   2.604  14.981  1.00  0.00    -0.200 F 
ATOM     75  F   UNL     1      -3.599   2.145  16.190  1.00  0.00    -0.200 F 
ENDBRANCH  51  65
BRANCH  52  76
ATOM     76  C   UNL     1       0.338  -6.895   6.638  1.00  0.00     0.064 A 
ATOM     77  C   UNL     1       0.051  -6.956   5.262  1.00  0.00     0.173 A 
ATOM     78  C   UNL     1       1.665  -6.663   7.016  1.00  0.00     0.173 A 
ATOM     79  F   UNL     1      -1.209  -7.172   4.850  1.00  0.00    -0.203 F 
ATOM     80  C   UNL     1       1.025  -6.677   4.307  1.00  0.00     0.198 A 
ATOM     81  C   UNL     1       2.642  -6.394   6.054  1.00  0.00     0.198 A 
ATOM     82  F   UNL     1       1.995  -6.569   8.312  1.00  0.00    -0.203 F 
ATOM     83  F   UNL     1       0.694  -6.627   3.008  1.00  0.00    -0.200 F 
ATOM     84  C   UNL     1       2.313  -6.367   4.706  1.00  0.00     0.200 A 
ATOM     85  F   UNL     1       3.880  -6.056   6.440  1.00  0.00    -0.200 F 
ATOM     86  F   UNL     1       3.226  -5.994   3.798  1.00  0.00    -0.200 F 
ENDBRANCH  52  76
BRANCH  64  87
ATOM     87  C   UNL     1      -0.959  -7.498  13.719  1.00  0.00     0.064 A 
ATOM     88  C   UNL     1      -0.053  -8.559  13.883  1.00  0.00     0.173 A 
ATOM     89  C   UNL     1      -1.521  -6.996  14.921  1.00  0.00     0.173 A 
ATOM     90  F   UNL     1       0.643  -9.050  12.850  1.00  0.00    -0.203 F 
ATOM     91  C   UNL     1       0.221  -9.116  15.137  1.00  0.00     0.198 A 
ATOM     92  C   UNL     1      -1.200  -7.515  16.176  1.00  0.00     0.198 A 
ATOM     93  F   UNL     1      -2.378  -5.965  14.921  1.00  0.00    -0.203 F 
ATOM     94  F   UNL     1       1.063 -10.154  15.231  1.00  0.00    -0.200 F 
ATOM     95  C   UNL     1      -0.342  -8.587  16.283  1.00  0.00     0.200 A 
ATOM     96  F   UNL     1      -1.713  -6.952  17.280  1.00  0.00    -0.200 F 
ATOM     97  F   UNL     1      -0.038  -9.092  17.486  1.00  0.00    -0.200 F 
ENDBRANCH  64  87
ENDBRANCH  38  39
ENDBRANCH  30  33
ENDBRANCH  28  29
ENDBRANCH   1  28
TORSDOF 13
