REMARK SMILES O=C(NCCCNC(=O)c1ccc(-c2c3nc(c(-c4c(F)c(F)c(F)c(F)c4F)c4ccc([nH]4)c(-c4c(F)c(F)c(F)c(F)c4F)c4nc(c(-c5c(F)c(F)c(F)c(F)c5F)c5ccc2[nH]5)C=C4)C=C3)cc1)c1ccc(NC(=O)[C@H]2CCS(=O)(=O)C2)cc1
REMARK SMILES IDX 5 1 4 2 3 3 1 4 2 5 73 7 74 8 88 9 75 10 87 11 76 12 77 13
REMARK SMILES IDX 78 14 79 16 80 17 81 18 86 19 82 20 83 21 84 22 85 23 6 24
REMARK SMILES IDX 7 25 8 26 9 28 10 29 11 30 72 31 12 32 71 33 13 34 14 35
REMARK SMILES IDX 15 36 65 37 16 38 70 39 64 40 66 41 17 42 69 43 63 44 62 45
REMARK SMILES IDX 18 47 50 48 30 49 49 50 31 51 34 52 48 53 67 54 32 55 33 56
REMARK SMILES IDX 47 58 68 59 35 60 19 61 20 62 28 63 21 64 22 65 26 66 29 67
REMARK SMILES IDX 23 68 24 69 27 70 25 71 51 72 52 73 60 74 53 75 54 76 58 77
REMARK SMILES IDX 61 78 55 79 56 80 59 81 57 82 36 83 37 84 45 85 38 86 39 87
REMARK SMILES IDX 43 88 46 89 40 90 41 91 44 92 42 93
REMARK H PARENT 3 6 77 15 7 27 66 46 34 57
REMARK Flexibility Score: inf
ROOT
ATOM      1  C   UNL     1       6.968  -0.966  -6.816  1.00  0.00     0.042 C 
ENDROOT
BRANCH   1   2
ATOM      2  C   UNL     1       7.617  -0.738  -5.475  1.00  0.00     0.118 C 
BRANCH   2   3
ATOM      3  N   UNL     1       7.500   0.643  -4.997  1.00  0.00    -0.352 N 
ATOM      4  O   UNL     1       6.753   2.363  -3.726  1.00  0.00    -0.269 OA
ATOM      5  C   UNL     1       6.868   1.152  -3.879  1.00  0.00     0.251 C 
ATOM      6  H   UNL     1       7.944   1.315  -5.563  1.00  0.00     0.163 HD
BRANCH   5   7
ATOM      7  C   UNL     1       6.338   0.223  -2.859  1.00  0.00     0.039 A 
ATOM      8  C   UNL     1       7.038  -0.943  -2.625  1.00  0.00     0.016 A 
ATOM      9  C   UNL     1       5.149   0.448  -2.164  1.00  0.00     0.016 A 
ATOM     10  C   UNL     1       6.430  -1.978  -1.954  1.00  0.00     0.027 A 
ATOM     11  C   UNL     1       4.675  -0.530  -1.264  1.00  0.00     0.027 A 
ATOM     12  C   UNL     1       5.345  -1.754  -1.129  1.00  0.00     0.041 A 
BRANCH  12  13
ATOM     13  N   UNL     1       4.960  -2.662  -0.119  1.00  0.00    -0.326 N 
ATOM     14  C   UNL     1       5.613  -3.735   0.453  1.00  0.00     0.228 C 
ATOM     15  H   UNL     1       4.059  -2.499   0.245  1.00  0.00     0.169 HD
ATOM     16  O   UNL     1       5.052  -4.345   1.366  1.00  0.00    -0.274 OA
BRANCH  14  17
ATOM     17  C   UNL     1       6.985  -4.175  -0.028  1.00  0.00     0.095 C 
ATOM     18  C   UNL     1       8.124  -3.167   0.234  1.00  0.00     0.030 C 
ATOM     19  C   UNL     1       7.549  -5.469   0.557  1.00  0.00     0.150 C 
ATOM     20  C   UNL     1       9.330  -3.760  -0.485  1.00  0.00     0.138 C 
ATOM     21  S   UNL     1       9.209  -5.514  -0.150  1.00  0.00     0.151 S 
ATOM     22  O   UNL     1       9.154  -6.202  -1.421  1.00  0.00    -0.229 OA
ATOM     23  O   UNL     1      10.165  -5.853   0.882  1.00  0.00    -0.229 OA
ENDBRANCH  14  17
ENDBRANCH  12  13
ENDBRANCH   5   7
ENDBRANCH   2   3
ENDBRANCH   1   2
BRANCH   1  24
ATOM     24  C   UNL     1       7.710  -0.279  -7.936  1.00  0.00     0.118 C 
BRANCH  24  25
ATOM     25  N   UNL     1       9.026  -0.865  -8.180  1.00  0.00    -0.352 N 
ATOM     26  C   UNL     1       9.486  -1.547  -9.282  1.00  0.00     0.251 C 
ATOM     27  H   UNL     1       9.678  -0.755  -7.450  1.00  0.00     0.163 HD
ATOM     28  O   UNL     1      10.566  -2.126  -9.252  1.00  0.00    -0.269 OA
BRANCH  26  29
ATOM     29  C   UNL     1       8.641  -1.602 -10.490  1.00  0.00     0.039 A 
ATOM     30  C   UNL     1       8.449  -2.820 -11.145  1.00  0.00     0.014 A 
ATOM     31  C   UNL     1       7.976  -0.454 -10.920  1.00  0.00     0.014 A 
ATOM     32  C   UNL     1       7.503  -2.904 -12.168  1.00  0.00     0.010 A 
ATOM     33  C   UNL     1       6.946  -0.570 -11.837  1.00  0.00     0.010 A 
ATOM     34  C   UNL     1       6.704  -1.793 -12.479  1.00  0.00    -0.014 A 
BRANCH  34  35
ATOM     35  C   UNL     1       5.617  -1.845 -13.487  1.00  0.00     0.031 A 
ATOM     36  C   UNL     1       5.669  -0.914 -14.666  1.00  0.00     0.074 A 
ATOM     37  C   UNL     1       4.542  -2.630 -13.286  1.00  0.00     0.049 A 
ATOM     38  N   UNL     1       4.750  -0.651 -15.560  1.00  0.00    -0.248 NA
ATOM     39  C   UNL     1       6.910  -0.140 -14.834  1.00  0.00     0.031 C 
ATOM     40  C   UNL     1       4.361  -3.555 -12.167  1.00  0.00     0.029 A 
ATOM     41  N   UNL     1       3.383  -2.755 -14.011  1.00  0.00    -0.354 N 
ATOM     42  C   UNL     1       5.294   0.332 -16.375  1.00  0.00     0.074 A 
ATOM     43  C   UNL     1       6.588   0.672 -15.827  1.00  0.00     0.031 C 
ATOM     44  C   UNL     1       3.174  -4.171 -12.293  1.00  0.00     0.029 A 
ATOM     45  C   UNL     1       2.487  -3.642 -13.467  1.00  0.00     0.049 A 
ATOM     46  H   UNL     1       3.211  -2.256 -14.842  1.00  0.00     0.167 HD
ATOM     47  C   UNL     1       4.774   0.882 -17.497  1.00  0.00     0.037 A 
ATOM     48  C   UNL     1       1.244  -3.976 -13.864  1.00  0.00     0.037 A 
ATOM     49  C   UNL     1       3.492   0.526 -18.043  1.00  0.00     0.049 A 
ATOM     50  C   UNL     1       0.663  -3.314 -15.086  1.00  0.00     0.074 A 
ATOM     51  C   UNL     1       2.884   0.993 -19.194  1.00  0.00     0.029 A 
ATOM     52  N   UNL     1       2.617  -0.385 -17.468  1.00  0.00    -0.354 N 
ATOM     53  N   UNL     1       1.201  -2.419 -15.879  1.00  0.00    -0.248 NA
ATOM     54  C   UNL     1      -0.699  -3.711 -15.468  1.00  0.00     0.031 C 
ATOM     55  C   UNL     1       1.617   0.408 -19.285  1.00  0.00     0.029 A 
ATOM     56  C   UNL     1       1.463  -0.477 -18.229  1.00  0.00     0.049 A 
ATOM     57  H   UNL     1       2.790  -0.891 -16.641  1.00  0.00     0.167 HD
ATOM     58  C   UNL     1       0.265  -2.180 -16.876  1.00  0.00     0.074 A 
ATOM     59  C   UNL     1      -0.876  -3.024 -16.587  1.00  0.00     0.031 C 
ATOM     60  C   UNL     1       0.346  -1.341 -17.939  1.00  0.00     0.037 A 
BRANCH  47  61
ATOM     61  C   UNL     1       5.595   1.930 -18.194  1.00  0.00     0.064 A 
ATOM     62  C   UNL     1       6.822   1.622 -18.804  1.00  0.00     0.173 A 
ATOM     63  C   UNL     1       5.155   3.261 -18.249  1.00  0.00     0.173 A 
ATOM     64  F   UNL     1       7.298   0.368 -18.770  1.00  0.00    -0.203 F 
ATOM     65  C   UNL     1       7.599   2.614 -19.397  1.00  0.00     0.198 A 
ATOM     66  C   UNL     1       5.915   4.243 -18.880  1.00  0.00     0.198 A 
ATOM     67  F   UNL     1       3.988   3.613 -17.688  1.00  0.00    -0.203 F 
ATOM     68  F   UNL     1       8.801   2.307 -19.904  1.00  0.00    -0.200 F 
ATOM     69  C   UNL     1       7.142   3.922 -19.440  1.00  0.00     0.200 A 
ATOM     70  F   UNL     1       5.465   5.504 -18.934  1.00  0.00    -0.200 F 
ATOM     71  F   UNL     1       7.890   4.876 -20.011  1.00  0.00    -0.200 F 
ENDBRANCH  47  61
BRANCH  48  72
ATOM     72  C   UNL     1       0.477  -5.008 -13.117  1.00  0.00     0.064 A 
ATOM     73  C   UNL     1       0.207  -6.255 -13.699  1.00  0.00     0.173 A 
ATOM     74  C   UNL     1       0.001  -4.778 -11.819  1.00  0.00     0.173 A 
ATOM     75  F   UNL     1       0.625  -6.515 -14.947  1.00  0.00    -0.203 F 
ATOM     76  C   UNL     1      -0.525  -7.225 -13.019  1.00  0.00     0.198 A 
ATOM     77  C   UNL     1      -0.706  -5.761 -11.127  1.00  0.00     0.198 A 
ATOM     78  F   UNL     1       0.236  -3.605 -11.213  1.00  0.00    -0.203 F 
ATOM     79  F   UNL     1      -0.806  -8.390 -13.617  1.00  0.00    -0.200 F 
ATOM     80  C   UNL     1      -0.976  -6.980 -11.731  1.00  0.00     0.200 A 
ATOM     81  F   UNL     1      -1.125  -5.526  -9.876  1.00  0.00    -0.200 F 
ATOM     82  F   UNL     1      -1.675  -7.915 -11.074  1.00  0.00    -0.200 F 
ENDBRANCH  48  72
BRANCH  60  83
ATOM     83  C   UNL     1      -0.798  -1.340 -18.913  1.00  0.00     0.064 A 
ATOM     84  C   UNL     1      -2.047  -0.790 -18.593  1.00  0.00     0.173 A 
ATOM     85  C   UNL     1      -0.614  -1.845 -20.210  1.00  0.00     0.173 A 
ATOM     86  F   UNL     1      -2.279  -0.308 -17.363  1.00  0.00    -0.203 F 
ATOM     87  C   UNL     1      -3.077  -0.763 -19.531  1.00  0.00     0.198 A 
ATOM     88  C   UNL     1      -1.634  -1.784 -21.155  1.00  0.00     0.198 A 
ATOM     89  F   UNL     1       0.564  -2.376 -20.569  1.00  0.00    -0.203 F 
ATOM     90  F   UNL     1      -4.277  -0.273 -19.190  1.00  0.00    -0.200 F 
ATOM     91  C   UNL     1      -2.866  -1.250 -20.813  1.00  0.00     0.200 A 
ATOM     92  F   UNL     1      -1.422  -2.239 -22.398  1.00  0.00    -0.200 F 
ATOM     93  F   UNL     1      -3.854  -1.207 -21.718  1.00  0.00    -0.200 F 
ENDBRANCH  60  83
ENDBRANCH  34  35
ENDBRANCH  26  29
ENDBRANCH  24  25
ENDBRANCH   1  24
TORSDOF 12
