REMARK SMILES O=C(NCCCNC(=O)[C@H]1Cc2[nH]cnc2CN1C(=O)N1CCC[C@H](O)C1)c1ccc(-c2c3nc(c(-c4c(F)c(F)c(F)c(F)c4F)c4ccc([nH]4)c(-c4c(F)c(F)c(F)c(F)c4F)c4nc(c(-c5c(F)c(F)c(F)c(F)c5F)c5ccc2[nH]5)C=C4)C=C3)cc1
REMARK SMILES IDX 5 1 4 2 3 3 1 4 2 5 28 7 29 8 90 9 30 10 89 11 31 12 32 13
REMARK SMILES IDX 33 14 83 15 34 16 88 17 82 18 84 19 35 20 87 21 81 22 80 23
REMARK SMILES IDX 36 25 68 26 48 27 67 28 49 29 52 30 66 31 85 32 50 33 51 34
REMARK SMILES IDX 65 36 86 37 53 38 37 39 38 40 46 41 39 42 40 43 44 44 47 45
REMARK SMILES IDX 41 46 42 47 45 48 43 49 69 50 70 51 78 52 71 53 72 54 76 55
REMARK SMILES IDX 79 56 73 57 74 58 77 59 75 60 54 61 55 62 63 63 56 64 57 65
REMARK SMILES IDX 61 66 64 67 58 68 59 69 62 70 60 71 6 72 7 73 8 74 9 76
REMARK SMILES IDX 10 77 11 78 18 79 12 80 17 81 13 82 16 83 14 84 15 86 19 87
REMARK SMILES IDX 20 88 21 89 22 90 27 91 23 92 25 93 24 94 26 95
REMARK H PARENT 3 6 84 24 52 35 7 75 13 85 26 96
REMARK Flexibility Score: inf
ROOT
ATOM      1  C   UNL     1       5.388  -0.079  -1.569  1.00  0.00     0.042 C 
ENDROOT
BRANCH   1   2
ATOM      2  C   UNL     1       4.757   0.696  -0.417  1.00  0.00     0.118 C 
BRANCH   2   3
ATOM      3  N   UNL     1       3.328   0.898  -0.515  1.00  0.00    -0.352 N 
ATOM      4  O   UNL     1       1.204   0.839   0.144  1.00  0.00    -0.269 OA
ATOM      5  C   UNL     1       2.257   0.212  -0.011  1.00  0.00     0.251 C 
ATOM      6  H   UNL     1       3.076   1.685  -1.050  1.00  0.00     0.163 HD
BRANCH   5   7
ATOM      7  C   UNL     1       2.247  -1.259   0.217  1.00  0.00     0.039 A 
ATOM      8  C   UNL     1       3.359  -2.095   0.139  1.00  0.00     0.014 A 
ATOM      9  C   UNL     1       0.982  -1.845   0.392  1.00  0.00     0.014 A 
ATOM     10  C   UNL     1       3.205  -3.471   0.042  1.00  0.00     0.010 A 
ATOM     11  C   UNL     1       0.824  -3.225   0.367  1.00  0.00     0.010 A 
ATOM     12  C   UNL     1       1.932  -4.032   0.125  1.00  0.00    -0.014 A 
BRANCH  12  13
ATOM     13  C   UNL     1       1.833  -5.490   0.130  1.00  0.00     0.031 A 
ATOM     14  C   UNL     1       2.549  -6.156   1.262  1.00  0.00     0.074 A 
ATOM     15  C   UNL     1       1.028  -6.167  -0.713  1.00  0.00     0.049 A 
ATOM     16  N   UNL     1       3.392  -7.139   1.231  1.00  0.00    -0.248 NA
ATOM     17  C   UNL     1       2.360  -5.579   2.606  1.00  0.00     0.031 C 
ATOM     18  C   UNL     1       0.065  -5.617  -1.671  1.00  0.00     0.029 A 
ATOM     19  N   UNL     1       0.811  -7.510  -0.799  1.00  0.00    -0.354 N 
ATOM     20  C   UNL     1       3.720  -7.408   2.562  1.00  0.00     0.074 A 
ATOM     21  C   UNL     1       3.160  -6.343   3.347  1.00  0.00     0.031 C 
ATOM     22  C   UNL     1      -0.788  -6.593  -2.052  1.00  0.00     0.029 A 
ATOM     23  C   UNL     1      -0.358  -7.850  -1.465  1.00  0.00     0.049 A 
ATOM     24  H   UNL     1       1.429  -8.178  -0.422  1.00  0.00     0.167 HD
ATOM     25  C   UNL     1       4.254  -8.601   2.944  1.00  0.00     0.037 A 
ATOM     26  C   UNL     1      -0.974  -9.058  -1.454  1.00  0.00     0.037 A 
ATOM     27  C   UNL     1       4.912  -9.256   1.846  1.00  0.00     0.049 A 
ATOM     28  C   UNL     1       0.011 -10.067  -0.995  1.00  0.00     0.074 A 
ATOM     29  C   UNL     1       5.984  -8.948   1.031  1.00  0.00     0.029 A 
ATOM     30  N   UNL     1       4.279 -10.305   1.231  1.00  0.00    -0.354 N 
ATOM     31  N   UNL     1       1.053 -10.439  -1.682  1.00  0.00    -0.248 NA
ATOM     32  C   UNL     1       0.066 -10.354   0.431  1.00  0.00     0.031 C 
ATOM     33  C   UNL     1       5.640  -9.477  -0.248  1.00  0.00     0.029 A 
ATOM     34  C   UNL     1       4.403 -10.109  -0.118  1.00  0.00     0.049 A 
ATOM     35  H   UNL     1       3.821 -11.056   1.675  1.00  0.00     0.167 HD
ATOM     36  C   UNL     1       2.054 -10.609  -0.737  1.00  0.00     0.074 A 
ATOM     37  C   UNL     1       1.365 -10.633   0.550  1.00  0.00     0.031 C 
ATOM     38  C   UNL     1       3.366 -10.433  -1.065  1.00  0.00     0.037 A 
BRANCH  25  39
ATOM     39  C   UNL     1       3.846  -9.342   4.202  1.00  0.00     0.064 A 
ATOM     40  C   UNL     1       4.468 -10.574   4.498  1.00  0.00     0.173 A 
ATOM     41  C   UNL     1       2.666  -9.073   4.930  1.00  0.00     0.173 A 
ATOM     42  F   UNL     1       5.602 -10.936   3.879  1.00  0.00    -0.203 F 
ATOM     43  C   UNL     1       3.883 -11.511   5.354  1.00  0.00     0.198 A 
ATOM     44  C   UNL     1       2.112  -9.991   5.821  1.00  0.00     0.198 A 
ATOM     45  F   UNL     1       1.939  -7.968   4.737  1.00  0.00    -0.203 F 
ATOM     46  F   UNL     1       4.434 -12.726   5.485  1.00  0.00    -0.200 F 
ATOM     47  C   UNL     1       2.696 -11.226   6.001  1.00  0.00     0.200 A 
ATOM     48  F   UNL     1       0.957  -9.697   6.435  1.00  0.00    -0.200 F 
ATOM     49  F   UNL     1       2.091 -12.151   6.757  1.00  0.00    -0.200 F 
ENDBRANCH  25  39
BRANCH  26  50
ATOM     50  C   UNL     1      -2.431  -9.335  -1.487  1.00  0.00     0.064 A 
ATOM     51  C   UNL     1      -2.922 -10.610  -1.812  1.00  0.00     0.173 A 
ATOM     52  C   UNL     1      -3.358  -8.428  -0.938  1.00  0.00     0.173 A 
ATOM     53  F   UNL     1      -2.094 -11.550  -2.289  1.00  0.00    -0.203 F 
ATOM     54  C   UNL     1      -4.259 -10.959  -1.588  1.00  0.00     0.198 A 
ATOM     55  C   UNL     1      -4.693  -8.774  -0.724  1.00  0.00     0.198 A 
ATOM     56  F   UNL     1      -2.967  -7.221  -0.507  1.00  0.00    -0.203 F 
ATOM     57  F   UNL     1      -4.679 -12.203  -1.855  1.00  0.00    -0.200 F 
ATOM     58  C   UNL     1      -5.141 -10.042  -1.038  1.00  0.00     0.200 A 
ATOM     59  F   UNL     1      -5.524  -7.890  -0.155  1.00  0.00    -0.200 F 
ATOM     60  F   UNL     1      -6.406 -10.393  -0.770  1.00  0.00    -0.200 F 
ENDBRANCH  26  50
BRANCH  38  61
ATOM     61  C   UNL     1       3.713 -10.307  -2.519  1.00  0.00     0.064 A 
ATOM     62  C   UNL     1       3.271  -9.254  -3.339  1.00  0.00     0.173 A 
ATOM     63  C   UNL     1       4.645 -11.200  -3.063  1.00  0.00     0.173 A 
ATOM     64  F   UNL     1       2.467  -8.297  -2.859  1.00  0.00    -0.203 F 
ATOM     65  C   UNL     1       3.707  -9.132  -4.656  1.00  0.00     0.198 A 
ATOM     66  C   UNL     1       5.107 -11.054  -4.367  1.00  0.00     0.198 A 
ATOM     67  F   UNL     1       5.150 -12.187  -2.306  1.00  0.00    -0.203 F 
ATOM     68  F   UNL     1       3.266  -8.121  -5.420  1.00  0.00    -0.200 F 
ATOM     69  C   UNL     1       4.630 -10.028  -5.167  1.00  0.00     0.200 A 
ATOM     70  F   UNL     1       6.043 -11.890  -4.839  1.00  0.00    -0.200 F 
ATOM     71  F   UNL     1       5.087  -9.883  -6.419  1.00  0.00    -0.200 F 
ENDBRANCH  38  61
ENDBRANCH  12  13
ENDBRANCH   5   7
ENDBRANCH   2   3
ENDBRANCH   1   2
BRANCH   1  72
ATOM     72  C   UNL     1       5.208   0.525  -2.949  1.00  0.00     0.117 C 
BRANCH  72  73
ATOM     73  N   UNL     1       5.921   1.780  -3.113  1.00  0.00    -0.354 N 
ATOM     74  C   UNL     1       6.482   2.407  -4.186  1.00  0.00     0.243 C 
ATOM     75  H   UNL     1       6.020   2.284  -2.273  1.00  0.00     0.163 HD
ATOM     76  O   UNL     1       7.245   3.342  -3.914  1.00  0.00    -0.273 OA
BRANCH  74  77
ATOM     77  C   UNL     1       6.191   2.042  -5.658  1.00  0.00     0.182 C 
ATOM     78  C   UNL     1       5.828   0.557  -5.870  1.00  0.00     0.091 C 
ATOM     79  N   UNL     1       5.446   2.956  -6.606  1.00  0.00    -0.306 N 
ATOM     80  C   UNL     1       5.830   0.251  -7.304  1.00  0.00     0.042 A 
ATOM     81  C   UNL     1       5.689   2.670  -8.061  1.00  0.00     0.180 C 
ATOM     82  N   UNL     1       5.903  -0.966  -7.905  1.00  0.00    -0.348 N 
ATOM     83  C   UNL     1       5.747   1.187  -8.302  1.00  0.00     0.081 A 
ATOM     84  C   UNL     1       5.841  -0.730  -9.252  1.00  0.00     0.197 A 
ATOM     85  H   UNL     1       5.983  -1.841  -7.461  1.00  0.00     0.167 HD
ATOM     86  N   UNL     1       5.765   0.559  -9.522  1.00  0.00    -0.240 NA
BRANCH  79  87
ATOM     87  C   UNL     1       4.351   3.761  -6.344  1.00  0.00     0.321 C 
ATOM     88  O   UNL     1       3.600   4.160  -7.236  1.00  0.00    -0.248 OA
BRANCH  87  89
ATOM     89  N   UNL     1       4.087   4.125  -5.036  1.00  0.00    -0.322 N 
ATOM     90  C   UNL     1       4.919   5.145  -4.397  1.00  0.00     0.121 C 
ATOM     91  C   UNL     1       2.671   4.317  -4.696  1.00  0.00     0.153 C 
ATOM     92  C   UNL     1       4.801   5.113  -2.869  1.00  0.00     0.024 C 
ATOM     93  C   UNL     1       2.481   4.019  -3.211  1.00  0.00     0.134 C 
ATOM     94  C   UNL     1       3.384   4.875  -2.322  1.00  0.00     0.035 C 
BRANCH  93  95
ATOM     95  O   UNL     1       2.813   2.647  -2.986  1.00  0.00    -0.391 OA
ATOM     96  H   UNL     1       3.740   2.495  -3.227  1.00  0.00     0.211 HD
ENDBRANCH  93  95
ENDBRANCH  87  89
ENDBRANCH  79  87
ENDBRANCH  74  77
ENDBRANCH  72  73
ENDBRANCH   1  72
TORSDOF 13
