REMARK SMILES C[N@@H+](C[C@H]1CCC[N@@H+]1CC(=O)NCCCNC(=O)c1ccc(-c2c3nc(c(-c4c(F)c(F)c(F)c(F)c4F)c4ccc([nH]4)c(-c4c(F)c(F)c(F)c(F)c4F)c4nc(c(-c5c(F)c(F)c(F)c(F)c5F)c5ccc2[nH]5)C=C4)C=C3)cc1)C1CC1
REMARK SMILES IDX 13 1 12 2 10 3 11 4 9 6 8 7 4 8 5 9 6 10 7 11 3 13 2 14 1 15
REMARK SMILES IDX 82 17 83 18 84 19 14 20 15 21 16 22 17 23 18 25 19 26 20 27
REMARK SMILES IDX 81 28 21 29 80 30 22 31 23 32 24 33 74 34 25 35 79 36 73 37
REMARK SMILES IDX 75 38 26 39 78 40 72 41 71 42 27 44 59 45 39 46 58 47 40 48
REMARK SMILES IDX 43 49 57 50 76 51 41 52 42 53 56 55 77 56 44 57 28 58 29 59
REMARK SMILES IDX 37 60 30 61 31 62 35 63 38 64 32 65 33 66 36 67 34 68 60 69
REMARK SMILES IDX 61 70 69 71 62 72 63 73 67 74 70 75 64 76 65 77 68 78 66 79
REMARK SMILES IDX 45 80 46 81 54 82 47 83 48 84 52 85 55 86 49 87 50 88 53 89
REMARK SMILES IDX 51 90
REMARK H PARENT 12 5 8 12 2 16 16 24 75 43 43 54
REMARK Flexibility Score: inf
ROOT
ATOM      1  C   UNL     1      -2.055  -0.117   2.230  1.00  0.00     0.118 C 
ENDROOT
BRANCH   1   2
ATOM      2  N   UNL     1      -3.388  -0.436   1.742  1.00  0.00    -0.351 N 
ATOM      3  C   UNL     1      -3.886  -1.467   0.998  1.00  0.00     0.275 C 
ATOM      4  O   UNL     1      -5.111  -1.482   0.835  1.00  0.00    -0.269 OA
ATOM      5  H   UNL     1      -4.070   0.226   2.001  1.00  0.00     0.163 HD
BRANCH   3   6
ATOM      6  C   UNL     1      -2.980  -2.538   0.367  1.00  0.00     0.363 C 
BRANCH   6   7
ATOM      7  N   UNL     1      -2.693  -2.338  -1.079  1.00  0.00    -0.320 N 
ATOM      8  C   UNL     1      -1.965  -1.086  -1.340  1.00  0.00     0.240 C 
ATOM      9  C   UNL     1      -2.998  -0.102  -1.858  1.00  0.00     0.077 C 
ATOM     10  C   UNL     1      -4.011  -0.968  -2.574  1.00  0.00     0.068 C 
ATOM     11  C   UNL     1      -3.900  -2.340  -1.919  1.00  0.00     0.263 C 
ATOM     12  H   UNL     1      -2.112  -3.138  -1.329  1.00  0.00     0.348 HD
BRANCH   8  13
ATOM     13  C   UNL     1      -0.632  -1.233  -2.123  1.00  0.00     0.327 C 
BRANCH  13  14
ATOM     14  N   UNL     1      -0.539  -1.328  -3.576  1.00  0.00    -0.330 N 
ATOM     15  C   UNL     1      -0.718  -0.078  -4.297  1.00  0.00     0.333 C 
ATOM     16  H   UNL     1       0.452  -1.546  -3.675  1.00  0.00     0.348 HD
BRANCH  14  17
ATOM     17  C   UNL     1      -1.167  -2.483  -4.218  1.00  0.00     0.184 C 
ATOM     18  C   UNL     1      -0.242  -3.459  -4.902  1.00  0.00     0.071 C 
ATOM     19  C   UNL     1      -1.022  -3.886  -3.699  1.00  0.00     0.071 C 
ENDBRANCH  14  17
ENDBRANCH  13  14
ENDBRANCH   8  13
ENDBRANCH   6   7
ENDBRANCH   3   6
ENDBRANCH   1   2
BRANCH   1  20
ATOM     20  C   UNL     1      -1.368   1.074   1.541  1.00  0.00     0.042 C 
BRANCH  20  21
ATOM     21  C   UNL     1      -2.254   2.280   1.228  1.00  0.00     0.118 C 
BRANCH  21  22
ATOM     22  N   UNL     1      -2.113   3.315   2.235  1.00  0.00    -0.352 N 
ATOM     23  C   UNL     1      -1.601   4.583   2.111  1.00  0.00     0.251 C 
ATOM     24  H   UNL     1      -2.431   3.074   3.135  1.00  0.00     0.163 HD
ATOM     25  O   UNL     1      -1.307   5.215   3.123  1.00  0.00    -0.269 OA
BRANCH  23  26
ATOM     26  C   UNL     1      -1.399   5.209   0.781  1.00  0.00     0.039 A 
ATOM     27  C   UNL     1      -0.245   5.972   0.569  1.00  0.00     0.014 A 
ATOM     28  C   UNL     1      -2.380   5.148  -0.214  1.00  0.00     0.014 A 
ATOM     29  C   UNL     1      -0.066   6.660  -0.637  1.00  0.00     0.010 A 
ATOM     30  C   UNL     1      -2.184   5.804  -1.433  1.00  0.00     0.010 A 
ATOM     31  C   UNL     1      -1.034   6.581  -1.649  1.00  0.00    -0.014 A 
BRANCH  31  32
ATOM     32  C   UNL     1      -0.887   7.347  -2.915  1.00  0.00     0.031 A 
ATOM     33  C   UNL     1      -1.784   8.523  -3.193  1.00  0.00     0.074 A 
ATOM     34  C   UNL     1       0.023   6.972  -3.834  1.00  0.00     0.049 A 
ATOM     35  N   UNL     1      -1.875   9.261  -4.272  1.00  0.00    -0.248 NA
ATOM     36  C   UNL     1      -2.710   8.911  -2.119  1.00  0.00     0.031 C 
ATOM     37  C   UNL     1       0.954   5.854  -3.693  1.00  0.00     0.029 A 
ATOM     38  N   UNL     1       0.304   7.488  -5.076  1.00  0.00    -0.354 N 
ATOM     39  C   UNL     1      -2.878  10.187  -4.013  1.00  0.00     0.074 A 
ATOM     40  C   UNL     1      -3.385   9.899  -2.688  1.00  0.00     0.031 C 
ATOM     41  C   UNL     1       1.706   5.769  -4.802  1.00  0.00     0.029 A 
ATOM     42  C   UNL     1       1.288   6.804  -5.745  1.00  0.00     0.049 A 
ATOM     43  H   UNL     1      -0.157   8.273  -5.450  1.00  0.00     0.167 HD
ATOM     44  C   UNL     1      -3.327  11.192  -4.803  1.00  0.00     0.037 A 
ATOM     45  C   UNL     1       1.787   6.982  -6.984  1.00  0.00     0.037 A 
ATOM     46  C   UNL     1      -2.810  11.499  -6.111  1.00  0.00     0.049 A 
ATOM     47  C   UNL     1       1.255   8.091  -7.851  1.00  0.00     0.074 A 
ATOM     48  C   UNL     1      -3.179  12.523  -6.967  1.00  0.00     0.029 A 
ATOM     49  N   UNL     1      -1.810  10.785  -6.751  1.00  0.00    -0.354 N 
ATOM     50  N   UNL     1       0.326   8.975  -7.584  1.00  0.00    -0.248 NA
ATOM     51  C   UNL     1       1.844   8.225  -9.192  1.00  0.00     0.031 C 
ATOM     52  C   UNL     1      -2.423  12.409  -8.139  1.00  0.00     0.029 A 
ATOM     53  C   UNL     1      -1.559  11.336  -7.997  1.00  0.00     0.049 A 
ATOM     54  H   UNL     1      -1.347  10.001  -6.376  1.00  0.00     0.167 HD
ATOM     55  C   UNL     1       0.237   9.785  -8.708  1.00  0.00     0.074 A 
ATOM     56  C   UNL     1       1.211   9.292  -9.659  1.00  0.00     0.031 C 
ATOM     57  C   UNL     1      -0.578  10.845  -8.929  1.00  0.00     0.037 A 
BRANCH  44  58
ATOM     58  C   UNL     1      -4.446  12.039  -4.273  1.00  0.00     0.064 A 
ATOM     59  C   UNL     1      -4.233  12.982  -3.256  1.00  0.00     0.173 A 
ATOM     60  C   UNL     1      -5.735  11.935  -4.815  1.00  0.00     0.173 A 
ATOM     61  F   UNL     1      -3.020  13.111  -2.699  1.00  0.00    -0.203 F 
ATOM     62  C   UNL     1      -5.278  13.774  -2.786  1.00  0.00     0.198 A 
ATOM     63  C   UNL     1      -6.771  12.746  -4.359  1.00  0.00     0.198 A 
ATOM     64  F   UNL     1      -5.988  11.053  -5.794  1.00  0.00    -0.203 F 
ATOM     65  F   UNL     1      -5.061  14.640  -1.786  1.00  0.00    -0.200 F 
ATOM     66  C   UNL     1      -6.543  13.659  -3.341  1.00  0.00     0.200 A 
ATOM     67  F   UNL     1      -7.992  12.641  -4.904  1.00  0.00    -0.200 F 
ATOM     68  F   UNL     1      -7.546  14.426  -2.890  1.00  0.00    -0.200 F 
ENDBRANCH  44  58
BRANCH  45  69
ATOM     69  C   UNL     1       2.866   6.090  -7.478  1.00  0.00     0.064 A 
ATOM     70  C   UNL     1       4.177   6.562  -7.621  1.00  0.00     0.173 A 
ATOM     71  C   UNL     1       2.608   4.754  -7.819  1.00  0.00     0.173 A 
ATOM     72  F   UNL     1       4.463   7.840  -7.331  1.00  0.00    -0.203 F 
ATOM     73  C   UNL     1       5.191   5.734  -8.098  1.00  0.00     0.198 A 
ATOM     74  C   UNL     1       3.627   3.921  -8.274  1.00  0.00     0.198 A 
ATOM     75  F   UNL     1       1.369   4.258  -7.699  1.00  0.00    -0.203 F 
ATOM     76  F   UNL     1       6.429   6.219  -8.259  1.00  0.00    -0.200 F 
ATOM     77  C   UNL     1       4.916   4.412  -8.418  1.00  0.00     0.200 A 
ATOM     78  F   UNL     1       3.360   2.643  -8.575  1.00  0.00    -0.200 F 
ATOM     79  F   UNL     1       5.893   3.615  -8.873  1.00  0.00    -0.200 F 
ENDBRANCH  45  69
BRANCH  57  80
ATOM     80  C   UNL     1      -0.427  11.570 -10.233  1.00  0.00     0.064 A 
ATOM     81  C   UNL     1      -0.919  11.035 -11.432  1.00  0.00     0.173 A 
ATOM     82  C   UNL     1       0.177  12.836 -10.275  1.00  0.00     0.173 A 
ATOM     83  F   UNL     1      -1.491   9.821 -11.444  1.00  0.00    -0.203 F 
ATOM     84  C   UNL     1      -0.795  11.734 -12.630  1.00  0.00     0.198 A 
ATOM     85  C   UNL     1       0.279  13.541 -11.470  1.00  0.00     0.198 A 
ATOM     86  F   UNL     1       0.660  13.392  -9.153  1.00  0.00    -0.203 F 
ATOM     87  F   UNL     1      -1.241  11.189 -13.771  1.00  0.00    -0.200 F 
ATOM     88  C   UNL     1      -0.203  12.988 -12.647  1.00  0.00     0.200 A 
ATOM     89  F   UNL     1       0.845  14.756 -11.484  1.00  0.00    -0.200 F 
ATOM     90  F   UNL     1      -0.090  13.661 -13.800  1.00  0.00    -0.200 F 
ENDBRANCH  57  80
ENDBRANCH  31  32
ENDBRANCH  23  26
ENDBRANCH  21  22
ENDBRANCH  20  21
ENDBRANCH   1  20
TORSDOF 14
