REMARK SMILES Cc1ccc(-c2cnnc(-n3nc(C)c4c3NC(=O)C[C@@H]4c3ccc(C(=O)NCCCNC(=O)c4ccc(-c5c6nc(c(-c7c(F)c(F)c(F)c(F)c7F)c7ccc([nH]7)c(-c7c(F)c(F)c(F)c(F)c7F)c7nc(c(-c8c(F)c(F)c(F)c(F)c8F)c8ccc5[nH]8)C=C7)C=C6)cc4)cc3)n2)cc1
REMARK SMILES IDX 29 1 28 2 26 3 27 4 25 6 22 7 23 8 99 9 24 10 98 11 21 12
REMARK SMILES IDX 11 13 12 14 16 15 13 16 15 17 17 18 14 19 18 20 20 22 19 23
REMARK SMILES IDX 10 24 6 25 7 26 100 27 8 28 9 29 5 30 1 31 2 32 3 33 102 34
REMARK SMILES IDX 4 35 101 36 30 37 31 38 32 39 33 40 34 42 35 43 36 44 97 45
REMARK SMILES IDX 37 46 96 47 38 48 39 49 40 50 90 51 41 52 95 53 89 54 91 55
REMARK SMILES IDX 42 56 94 57 88 58 87 59 43 61 75 62 55 63 74 64 56 65 59 66
REMARK SMILES IDX 73 67 92 68 57 69 58 70 72 72 93 73 60 74 44 75 45 76 53 77
REMARK SMILES IDX 46 78 47 79 51 80 54 81 48 82 49 83 52 84 50 85 76 86 77 87
REMARK SMILES IDX 85 88 78 89 79 90 83 91 86 92 80 93 81 94 84 95 82 96 61 97
REMARK SMILES IDX 62 98 70 99 63 100 64 101 68 102 71 103 65 104 66 105 69 106
REMARK SMILES IDX 67 107
REMARK H PARENT 28 5 17 21 32 41 91 60 59 71
REMARK Flexibility Score: inf
ROOT
ATOM      1  C   UNL     1     -11.788   5.070  -6.274  1.00  0.00     0.118 C 
ENDROOT
BRANCH   1   2
ATOM      2  N   UNL     1     -11.569   5.366  -7.687  1.00  0.00    -0.352 N 
ATOM      3  C   UNL     1     -10.627   4.837  -8.545  1.00  0.00     0.251 C 
ATOM      4  O   UNL     1     -10.715   5.004  -9.756  1.00  0.00    -0.269 OA
ATOM      5  H   UNL     1     -12.176   6.033  -8.081  1.00  0.00     0.163 HD
BRANCH   3   6
ATOM      6  C   UNL     1      -9.528   4.017  -7.998  1.00  0.00     0.039 A 
ATOM      7  C   UNL     1      -7.696   2.350  -6.691  1.00  0.00    -0.040 A 
ATOM      8  C   UNL     1      -8.490   1.864  -7.751  1.00  0.00     0.005 A 
ATOM      9  C   UNL     1      -7.724   3.723  -6.414  1.00  0.00     0.005 A 
ATOM     10  C   UNL     1      -9.404   2.691  -8.403  1.00  0.00     0.014 A 
ATOM     11  C   UNL     1      -8.635   4.551  -7.070  1.00  0.00     0.014 A 
BRANCH   7  12
ATOM     12  C   UNL     1      -6.888   1.342  -5.903  1.00  0.00     0.064 C 
ATOM     13  N   UNL     1      -5.936   1.944  -2.462  1.00  0.00    -0.180 N 
ATOM     14  N   UNL     1      -7.252   2.259  -2.300  1.00  0.00    -0.168 NA
ATOM     15  C   UNL     1      -5.617   1.959  -3.808  1.00  0.00     0.143 A 
ATOM     16  C   UNL     1      -7.800   2.050  -3.500  1.00  0.00     0.066 A 
ATOM     17  C   UNL     1      -6.808   1.759  -4.473  1.00  0.00     0.026 A 
ATOM     18  N   UNL     1      -4.421   2.062  -4.490  1.00  0.00    -0.310 N 
ATOM     19  C   UNL     1      -9.271   2.193  -3.642  1.00  0.00     0.069 C 
ATOM     20  C   UNL     1      -4.423   1.878  -5.907  1.00  0.00     0.226 C 
ATOM     21  H   UNL     1      -3.584   2.259  -4.011  1.00  0.00     0.171 HD
ATOM     22  C   UNL     1      -5.517   1.035  -6.499  1.00  0.00     0.113 C 
ATOM     23  O   UNL     1      -3.441   2.293  -6.521  1.00  0.00    -0.275 OA
BRANCH  13  24
ATOM     24  C   UNL     1      -5.172   1.385  -1.396  1.00  0.00     0.272 A 
ATOM     25  C   UNL     1      -3.284   0.397  -0.572  1.00  0.00     0.095 A 
ATOM     26  C   UNL     1      -4.036  -0.143   0.458  1.00  0.00     0.164 A 
ATOM     27  N   UNL     1      -3.847   1.150  -1.558  1.00  0.00    -0.208 NA
ATOM     28  N   UNL     1      -5.342   0.125   0.576  1.00  0.00    -0.153 NA
ATOM     29  N   UNL     1      -5.906   0.932  -0.346  1.00  0.00    -0.109 NA
BRANCH  25  30
ATOM     30  C   UNL     1      -1.823   0.266  -0.556  1.00  0.00     0.002 A 
ATOM     31  C   UNL     1       2.454  -0.043   0.053  1.00  0.00     0.044 C 
ATOM     32  C   UNL     1       0.976   0.071  -0.182  1.00  0.00    -0.051 A 
ATOM     33  C   UNL     1       0.189  -1.083  -0.265  1.00  0.00     0.004 A 
ATOM     34  C   UNL     1       0.364   1.320  -0.316  1.00  0.00     0.004 A 
ATOM     35  C   UNL     1      -1.194  -0.986  -0.449  1.00  0.00     0.011 A 
ATOM     36  C   UNL     1      -1.018   1.415  -0.506  1.00  0.00     0.011 A 
ENDBRANCH  25  30
ENDBRANCH  13  24
ENDBRANCH   7  12
ENDBRANCH   3   6
ENDBRANCH   1   2
BRANCH   1  37
ATOM     37  C   UNL     1     -11.172   6.104  -5.334  1.00  0.00     0.042 C 
BRANCH  37  38
ATOM     38  C   UNL     1     -11.973   7.394  -5.226  1.00  0.00     0.118 C 
BRANCH  38  39
ATOM     39  N   UNL     1     -12.623   7.585  -3.933  1.00  0.00    -0.352 N 
ATOM     40  C   UNL     1     -13.402   8.640  -3.491  1.00  0.00     0.251 C 
ATOM     41  H   UNL     1     -12.488   6.860  -3.282  1.00  0.00     0.163 HD
ATOM     42  O   UNL     1     -13.845   8.639  -2.347  1.00  0.00    -0.269 OA
BRANCH  40  43
ATOM     43  C   UNL     1     -13.815   9.693  -4.447  1.00  0.00     0.039 A 
ATOM     44  C   UNL     1     -15.170  10.041  -4.498  1.00  0.00     0.014 A 
ATOM     45  C   UNL     1     -12.935  10.160  -5.418  1.00  0.00     0.014 A 
ATOM     46  C   UNL     1     -15.680  10.628  -5.653  1.00  0.00     0.010 A 
ATOM     47  C   UNL     1     -13.450  10.629  -6.605  1.00  0.00     0.010 A 
ATOM     48  C   UNL     1     -14.829  10.802  -6.743  1.00  0.00    -0.014 A 
BRANCH  48  49
ATOM     49  C   UNL     1     -15.298  11.069  -8.093  1.00  0.00     0.031 A 
ATOM     50  C   UNL     1     -15.166  12.417  -8.674  1.00  0.00     0.074 A 
ATOM     51  C   UNL     1     -15.746  10.042  -8.850  1.00  0.00     0.049 A 
ATOM     52  N   UNL     1     -15.920  12.865  -9.619  1.00  0.00    -0.248 NA
ATOM     53  C   UNL     1     -14.175  13.386  -8.215  1.00  0.00     0.031 C 
ATOM     54  C   UNL     1     -15.990  10.045 -10.290  1.00  0.00     0.029 A 
ATOM     55  N   UNL     1     -16.251   8.804  -8.414  1.00  0.00    -0.354 N 
ATOM     56  C   UNL     1     -15.355  14.031 -10.077  1.00  0.00     0.074 A 
ATOM     57  C   UNL     1     -14.310  14.350  -9.131  1.00  0.00     0.031 C 
ATOM     58  C   UNL     1     -16.846   9.054 -10.585  1.00  0.00     0.029 A 
ATOM     59  C   UNL     1     -17.282   8.479  -9.326  1.00  0.00     0.049 A 
ATOM     60  H   UNL     1     -15.950   8.277  -7.639  1.00  0.00     0.167 HD
ATOM     61  C   UNL     1     -15.733  14.529 -11.287  1.00  0.00     0.037 A 
ATOM     62  C   UNL     1     -18.582   8.372  -8.924  1.00  0.00     0.037 A 
ATOM     63  C   UNL     1     -16.751  13.697 -11.914  1.00  0.00     0.049 A 
ATOM     64  C   UNL     1     -19.515   9.322  -9.635  1.00  0.00     0.074 A 
ATOM     65  C   UNL     1     -16.676  12.684 -12.857  1.00  0.00     0.029 A 
ATOM     66  N   UNL     1     -18.013  13.602 -11.336  1.00  0.00    -0.354 N 
ATOM     67  N   UNL     1     -19.121  10.413 -10.229  1.00  0.00    -0.248 NA
ATOM     68  C   UNL     1     -20.959   9.128  -9.722  1.00  0.00     0.031 C 
ATOM     69  C   UNL     1     -17.887  11.955 -12.820  1.00  0.00     0.029 A 
ATOM     70  C   UNL     1     -18.707  12.534 -11.869  1.00  0.00     0.049 A 
ATOM     71  H   UNL     1     -18.361  14.211 -10.645  1.00  0.00     0.167 HD
ATOM     72  C   UNL     1     -20.205  11.058 -10.771  1.00  0.00     0.074 A 
ATOM     73  C   UNL     1     -21.330  10.207 -10.434  1.00  0.00     0.031 C 
ATOM     74  C   UNL     1     -20.069  12.235 -11.453  1.00  0.00     0.037 A 
BRANCH  61  75
ATOM     75  C   UNL     1     -14.937  15.589 -12.002  1.00  0.00     0.064 A 
ATOM     76  C   UNL     1     -14.704  15.520 -13.391  1.00  0.00     0.173 A 
ATOM     77  C   UNL     1     -14.332  16.675 -11.345  1.00  0.00     0.173 A 
ATOM     78  F   UNL     1     -15.280  14.583 -14.154  1.00  0.00    -0.203 F 
ATOM     79  C   UNL     1     -13.846  16.404 -14.049  1.00  0.00     0.198 A 
ATOM     80  C   UNL     1     -13.433  17.528 -11.992  1.00  0.00     0.198 A 
ATOM     81  F   UNL     1     -14.609  16.941 -10.060  1.00  0.00    -0.203 F 
ATOM     82  F   UNL     1     -13.649  16.279 -15.369  1.00  0.00    -0.200 F 
ATOM     83  C   UNL     1     -13.182  17.385 -13.343  1.00  0.00     0.200 A 
ATOM     84  F   UNL     1     -12.800  18.482 -11.294  1.00  0.00    -0.200 F 
ATOM     85  F   UNL     1     -12.314  18.196 -13.963  1.00  0.00    -0.200 F 
ENDBRANCH  61  75
BRANCH  62  86
ATOM     86  C   UNL     1     -18.715   7.914  -7.516  1.00  0.00     0.064 A 
ATOM     87  C   UNL     1     -18.238   6.627  -7.195  1.00  0.00     0.173 A 
ATOM     88  C   UNL     1     -18.892   8.819  -6.464  1.00  0.00     0.173 A 
ATOM     89  F   UNL     1     -18.048   5.722  -8.169  1.00  0.00    -0.203 F 
ATOM     90  C   UNL     1     -17.824   6.309  -5.904  1.00  0.00     0.198 A 
ATOM     91  C   UNL     1     -18.494   8.488  -5.166  1.00  0.00     0.198 A 
ATOM     92  F   UNL     1     -19.326  10.064  -6.705  1.00  0.00    -0.203 F 
ATOM     93  F   UNL     1     -17.247   5.123  -5.660  1.00  0.00    -0.200 F 
ATOM     94  C   UNL     1     -17.924   7.251  -4.896  1.00  0.00     0.200 A 
ATOM     95  F   UNL     1     -18.568   9.407  -4.191  1.00  0.00    -0.200 F 
ATOM     96  F   UNL     1     -17.429   6.986  -3.679  1.00  0.00    -0.200 F 
ENDBRANCH  62  86
BRANCH  74  97
ATOM     97  C   UNL     1     -21.173  13.169 -11.901  1.00  0.00     0.064 A 
ATOM     98  C   UNL     1     -22.442  13.239 -11.305  1.00  0.00     0.173 A 
ATOM     99  C   UNL     1     -20.916  14.159 -12.886  1.00  0.00     0.173 A 
ATOM    100  F   UNL     1     -22.779  12.444 -10.282  1.00  0.00    -0.203 F 
ATOM    101  C   UNL     1     -23.396  14.182 -11.700  1.00  0.00     0.198 A 
ATOM    102  C   UNL     1     -21.846  15.137 -13.232  1.00  0.00     0.198 A 
ATOM    103  F   UNL     1     -19.740  14.231 -13.527  1.00  0.00    -0.203 F 
ATOM    104  F   UNL     1     -24.608  14.178 -11.127  1.00  0.00    -0.200 F 
ATOM    105  C   UNL     1     -23.095  15.139 -12.651  1.00  0.00     0.200 A 
ATOM    106  F   UNL     1     -21.514  16.089 -14.116  1.00  0.00    -0.200 F 
ATOM    107  F   UNL     1     -23.994  16.073 -12.987  1.00  0.00    -0.200 F 
ENDBRANCH  74  97
ENDBRANCH  48  49
ENDBRANCH  40  43
ENDBRANCH  38  39
ENDBRANCH  37  38
ENDBRANCH   1  37
TORSDOF 13
