REMARK SMILES O=C(NCCCNC(=O)c1ccc(-c2c3nc(c(-c4c(F)c(F)c(F)c(F)c4F)c4ccc([nH]4)c(-c4c(F)c(F)c(F)c(F)c4F)c4nc(c(-c5c(F)c(F)c(F)c(F)c5F)c5ccc2[nH]5)C=C4)C=C3)cc1)C1=NN(c2ccc(S(=O)(=O)[O-])cc2)C(=O)/C1=C/Nc1ccccc1
REMARK SMILES IDX 5 1 4 2 3 3 1 4 2 5 73 7 74 8 88 9 75 10 86 11 89 12 87 13
REMARK SMILES IDX 76 14 77 15 85 16 78 17 84 18 79 19 80 20 81 21 82 22 83 23
REMARK SMILES IDX 90 24 91 26 92 27 96 28 93 29 95 30 94 31 6 32 7 33 8 34
REMARK SMILES IDX 9 36 10 37 11 38 72 39 12 40 71 41 13 42 14 43 15 44 65 45
REMARK SMILES IDX 16 46 70 47 64 48 66 49 17 50 69 51 63 52 62 53 18 55 50 56
REMARK SMILES IDX 30 57 49 58 31 59 34 60 48 61 67 62 32 63 33 64 47 66 68 67
REMARK SMILES IDX 35 68 19 69 20 70 28 71 21 72 22 73 26 74 29 75 23 76 24 77
REMARK SMILES IDX 27 78 25 79 51 80 52 81 60 82 53 83 54 84 58 85 61 86 55 87
REMARK SMILES IDX 56 88 59 89 57 90 36 91 37 92 45 93 38 94 39 95 43 96 46 97
REMARK SMILES IDX 40 98 41 99 44 100 42 101
REMARK H PARENT 3 6 90 25 7 35 66 54 34 65
REMARK Flexibility Score: inf
ROOT
ATOM      1  C   UNL     1       4.962   1.831  -1.662  1.00  0.00     0.042 C 
ENDROOT
BRANCH   1   2
ATOM      2  C   UNL     1       4.482   1.135  -0.402  1.00  0.00     0.118 C 
BRANCH   2   3
ATOM      3  N   UNL     1       3.041   0.941  -0.379  1.00  0.00    -0.351 N 
ATOM      4  O   UNL     1       1.124  -0.156   0.115  1.00  0.00    -0.267 OA
ATOM      5  C   UNL     1       2.340  -0.182  -0.019  1.00  0.00     0.272 C 
ATOM      6  H   UNL     1       2.499   1.715  -0.657  1.00  0.00     0.163 HD
BRANCH   5   7
ATOM      7  C   UNL     1       3.074  -1.444   0.301  1.00  0.00     0.163 C 
ATOM      8  N   UNL     1       2.992  -2.534  -0.417  1.00  0.00    -0.158 NA
ATOM      9  C   UNL     1       3.942  -1.593   1.469  1.00  0.00     0.091 C 
ATOM     10  N   UNL     1       3.771  -3.478   0.260  1.00  0.00    -0.196 N 
ATOM     11  C   UNL     1       4.468  -2.964   1.367  1.00  0.00     0.282 C 
ATOM     12  C   UNL     1       4.232  -0.752   2.465  1.00  0.00     0.099 C 
ATOM     13  O   UNL     1       5.278  -3.467   2.123  1.00  0.00    -0.267 OA
BRANCH  10  14
ATOM     14  C   UNL     1       3.602  -4.845  -0.057  1.00  0.00     0.069 A 
ATOM     15  C   UNL     1       3.084  -5.243  -1.300  1.00  0.00     0.030 A 
ATOM     16  C   UNL     1       3.856  -5.829   0.911  1.00  0.00     0.030 A 
ATOM     17  C   UNL     1       2.829  -6.594  -1.568  1.00  0.00     0.021 A 
ATOM     18  C   UNL     1       3.575  -7.174   0.664  1.00  0.00     0.021 A 
ATOM     19  C   UNL     1       3.068  -7.550  -0.577  1.00  0.00     0.054 A 
BRANCH  19  20
ATOM     20  S   UNL     1       2.669  -9.244  -0.890  1.00  0.00     0.124 S 
ATOM     21  O   UNL     1       1.298  -9.306  -1.347  1.00  0.00    -0.237 OA
ATOM     22  O   UNL     1       3.752  -9.820  -1.654  1.00  0.00    -0.237 OA
ATOM     23  O   UNL     1       2.703  -9.972   0.551  1.00  0.00    -0.744 OA
ENDBRANCH  19  20
ENDBRANCH  10  14
BRANCH  12  24
ATOM     24  N   UNL     1       3.660   0.459   2.754  1.00  0.00    -0.361 N 
ATOM     25  H   UNL     1       2.766   0.619   2.374  1.00  0.00     0.166 HD
BRANCH  24  26
ATOM     26  C   UNL     1       4.199   1.498   3.527  1.00  0.00     0.038 A 
ATOM     27  C   UNL     1       3.323   2.360   4.201  1.00  0.00     0.026 A 
ATOM     28  C   UNL     1       5.577   1.689   3.685  1.00  0.00     0.026 A 
ATOM     29  C   UNL     1       3.809   3.404   4.989  1.00  0.00     0.002 A 
ATOM     30  C   UNL     1       6.066   2.747   4.456  1.00  0.00     0.002 A 
ATOM     31  C   UNL     1       5.181   3.603   5.108  1.00  0.00     0.000 A 
ENDBRANCH  24  26
ENDBRANCH  12  24
ENDBRANCH   5   7
ENDBRANCH   2   3
ENDBRANCH   1   2
BRANCH   1  32
ATOM     32  C   UNL     1       4.414   3.240  -1.849  1.00  0.00     0.118 C 
BRANCH  32  33
ATOM     33  N   UNL     1       4.907   4.195  -0.865  1.00  0.00    -0.352 N 
ATOM     34  C   UNL     1       5.660   5.335  -1.038  1.00  0.00     0.251 C 
ATOM     35  H   UNL     1       4.665   3.995   0.068  1.00  0.00     0.163 HD
ATOM     36  O   UNL     1       6.080   5.948  -0.062  1.00  0.00    -0.269 OA
BRANCH  34  37
ATOM     37  C   UNL     1       6.006   5.800  -2.399  1.00  0.00     0.039 A 
ATOM     38  C   UNL     1       7.320   6.195  -2.664  1.00  0.00     0.014 A 
ATOM     39  C   UNL     1       5.051   5.827  -3.417  1.00  0.00     0.014 A 
ATOM     40  C   UNL     1       7.698   6.517  -3.971  1.00  0.00     0.010 A 
ATOM     41  C   UNL     1       5.449   6.052  -4.731  1.00  0.00     0.010 A 
ATOM     42  C   UNL     1       6.779   6.393  -5.024  1.00  0.00    -0.014 A 
BRANCH  42  43
ATOM     43  C   UNL     1       7.179   6.598  -6.440  1.00  0.00     0.031 A 
ATOM     44  C   UNL     1       6.528   7.679  -7.257  1.00  0.00     0.074 A 
ATOM     45  C   UNL     1       8.056   5.753  -7.018  1.00  0.00     0.049 A 
ATOM     46  N   UNL     1       6.641   7.934  -8.537  1.00  0.00    -0.248 NA
ATOM     47  C   UNL     1       5.599   8.573  -6.548  1.00  0.00     0.031 C 
ATOM     48  C   UNL     1       8.720   4.633  -6.348  1.00  0.00     0.029 A 
ATOM     49  N   UNL     1       8.524   5.692  -8.307  1.00  0.00    -0.354 N 
ATOM     50  C   UNL     1       5.782   8.995  -8.787  1.00  0.00     0.074 A 
ATOM     51  C   UNL     1       5.117   9.306  -7.540  1.00  0.00     0.031 C 
ATOM     52  C   UNL     1       9.522   4.008  -7.225  1.00  0.00     0.029 A 
ATOM     53  C   UNL     1       9.397   4.654  -8.528  1.00  0.00     0.049 A 
ATOM     54  H   UNL     1       8.260   6.332  -9.007  1.00  0.00     0.167 HD
ATOM     55  C   UNL     1       5.582   9.665  -9.947  1.00  0.00     0.037 A 
ATOM     56  C   UNL     1      10.014   4.257  -9.658  1.00  0.00     0.037 A 
ATOM     57  C   UNL     1       6.273   9.379 -11.177  1.00  0.00     0.049 A 
ATOM     58  C   UNL     1       9.778   5.021 -10.932  1.00  0.00     0.074 A 
ATOM     59  C   UNL     1       6.193  10.047 -12.386  1.00  0.00     0.029 A 
ATOM     60  N   UNL     1       7.173   8.339 -11.352  1.00  0.00    -0.354 N 
ATOM     61  N   UNL     1       9.013   6.064 -11.142  1.00  0.00    -0.248 NA
ATOM     62  C   UNL     1      10.495   4.554 -12.127  1.00  0.00     0.031 C 
ATOM     63  C   UNL     1       7.013   9.385 -13.306  1.00  0.00     0.029 A 
ATOM     64  C   UNL     1       7.641   8.334 -12.656  1.00  0.00     0.049 A 
ATOM     65  H   UNL     1       7.441   7.699 -10.654  1.00  0.00     0.167 HD
ATOM     66  C   UNL     1       9.176   6.395 -12.480  1.00  0.00     0.074 A 
ATOM     67  C   UNL     1      10.123   5.449 -13.032  1.00  0.00     0.031 C 
ATOM     68  C   UNL     1       8.593   7.393 -13.187  1.00  0.00     0.037 A 
BRANCH  55  69
ATOM     69  C   UNL     1       4.577  10.780  -9.941  1.00  0.00     0.064 A 
ATOM     70  C   UNL     1       4.820  11.985  -9.264  1.00  0.00     0.173 A 
ATOM     71  C   UNL     1       3.373  10.657 -10.650  1.00  0.00     0.173 A 
ATOM     72  F   UNL     1       5.951  12.149  -8.561  1.00  0.00    -0.203 F 
ATOM     73  C   UNL     1       3.882  13.014  -9.273  1.00  0.00     0.198 A 
ATOM     74  C   UNL     1       2.450  11.699 -10.682  1.00  0.00     0.198 A 
ATOM     75  F   UNL     1       3.094   9.528 -11.319  1.00  0.00    -0.203 F 
ATOM     76  F   UNL     1       4.114  14.136  -8.578  1.00  0.00    -0.200 F 
ATOM     77  C   UNL     1       2.702  12.873  -9.988  1.00  0.00     0.200 A 
ATOM     78  F   UNL     1       1.316  11.567 -11.383  1.00  0.00    -0.200 F 
ATOM     79  F   UNL     1       1.803  13.867 -10.001  1.00  0.00    -0.200 F 
ENDBRANCH  55  69
BRANCH  56  80
ATOM     80  C   UNL     1      10.933   3.089  -9.630  1.00  0.00     0.064 A 
ATOM     81  C   UNL     1      12.316   3.261  -9.783  1.00  0.00     0.173 A 
ATOM     82  C   UNL     1      10.452   1.784  -9.457  1.00  0.00     0.173 A 
ATOM     83  F   UNL     1      12.821   4.489  -9.973  1.00  0.00    -0.203 F 
ATOM     84  C   UNL     1      13.181   2.169  -9.781  1.00  0.00     0.198 A 
ATOM     85  C   UNL     1      11.322   0.695  -9.428  1.00  0.00     0.198 A 
ATOM     86  F   UNL     1       9.138   1.567  -9.302  1.00  0.00    -0.203 F 
ATOM     87  F   UNL     1      14.494   2.357  -9.972  1.00  0.00    -0.200 F 
ATOM     88  C   UNL     1      12.684   0.887  -9.598  1.00  0.00     0.200 A 
ATOM     89  F   UNL     1      10.839  -0.540  -9.236  1.00  0.00    -0.200 F 
ATOM     90  F   UNL     1      13.517  -0.162  -9.592  1.00  0.00    -0.200 F 
ENDBRANCH  56  80
BRANCH  68  91
ATOM     91  C   UNL     1       8.989   7.541 -14.627  1.00  0.00     0.064 A 
ATOM     92  C   UNL     1       8.553   6.638 -15.607  1.00  0.00     0.173 A 
ATOM     93  C   UNL     1       9.774   8.630 -15.036  1.00  0.00     0.173 A 
ATOM     94  F   UNL     1       7.814   5.573 -15.262  1.00  0.00    -0.203 F 
ATOM     95  C   UNL     1       8.903   6.811 -16.943  1.00  0.00     0.198 A 
ATOM     96  C   UNL     1      10.098   8.815 -16.377  1.00  0.00     0.198 A 
ATOM     97  F   UNL     1      10.211   9.525 -14.138  1.00  0.00    -0.203 F 
ATOM     98  F   UNL     1       8.509   5.914 -17.858  1.00  0.00    -0.200 F 
ATOM     99  C   UNL     1       9.668   7.902 -17.328  1.00  0.00     0.200 A 
ATOM    100  F   UNL     1      10.826   9.877 -16.749  1.00  0.00    -0.200 F 
ATOM    101  F   UNL     1       9.995   8.072 -18.617  1.00  0.00    -0.200 F 
ENDBRANCH  68  91
ENDBRANCH  42  43
ENDBRANCH  34  37
ENDBRANCH  32  33
ENDBRANCH   1  32
TORSDOF 14
