REMARK SMILES O=C(C[C@H]1C[C@H]2CC[C@@H](C1)[N@H+]2C[C@@H]1CNC(=O)O1)NCCCNC(=O)c1ccc(-c2c3nc(c(-c4c(F)c(F)c(F)c(F)c4F)c4ccc([nH]4)c(-c4c(F)c(F)c(F)c(F)c4F)c4nc(c(-c5c(F)c(F)c(F)c(F)c5F)c5ccc2[nH]5)C=C4)C=C3)cc1
REMARK SMILES IDX 20 1 19 2 1 3 2 4 3 6 4 7 5 8 10 9 6 10 9 11 7 12 11 13 8 14
REMARK SMILES IDX 12 16 13 17 14 18 18 19 15 20 16 21 17 23 21 24 22 25 23 26
REMARK SMILES IDX 24 27 25 29 26 30 27 31 88 32 28 33 87 34 29 35 30 36 31 37
REMARK SMILES IDX 81 38 32 39 86 40 80 41 82 42 33 43 85 44 79 45 78 46 34 48
REMARK SMILES IDX 66 49 46 50 65 51 47 52 50 53 64 54 83 55 48 56 49 57 63 59
REMARK SMILES IDX 84 60 51 61 35 62 36 63 44 64 37 65 38 66 42 67 45 68 39 69
REMARK SMILES IDX 40 70 43 71 41 72 67 73 68 74 76 75 69 76 70 77 74 78 77 79
REMARK SMILES IDX 71 80 72 81 75 82 73 83 52 84 53 85 61 86 54 87 55 88 59 89
REMARK SMILES IDX 62 90 56 91 57 92 60 93 58 94
REMARK H PARENT 19 5 11 15 15 22 23 28 82 47 50 58
REMARK Flexibility Score: inf
ROOT
ATOM      1  C   UNL     1       2.105  -2.102  -1.456  1.00  0.00     0.117 C 
ENDROOT
BRANCH   1   2
ATOM      2  N   UNL     1       2.563  -0.915  -0.767  1.00  0.00    -0.356 N 
ATOM      3  O   UNL     1       0.597   0.248  -0.963  1.00  0.00    -0.275 OA
ATOM      4  C   UNL     1       1.745   0.167  -0.535  1.00  0.00     0.220 C 
ATOM      5  H   UNL     1       3.495  -0.881  -0.452  1.00  0.00     0.163 HD
BRANCH   4   6
ATOM      6  C   UNL     1       2.370   1.301   0.262  1.00  0.00     0.104 C 
BRANCH   6   7
ATOM      7  C   UNL     1       3.224   0.847   1.455  1.00  0.00     0.010 C 
ATOM      8  C   UNL     1       3.873   2.051   2.176  1.00  0.00     0.069 C 
ATOM      9  C   UNL     1       2.486  -0.176   2.359  1.00  0.00     0.069 C 
ATOM     10  C   UNL     1       3.463   2.239   3.636  1.00  0.00     0.184 C 
ATOM     11  C   UNL     1       2.214   0.297   3.780  1.00  0.00     0.184 C 
ATOM     12  C   UNL     1       2.002   2.713   3.699  1.00  0.00     0.071 C 
ATOM     13  N   UNL     1       3.364   0.981   4.341  1.00  0.00    -0.327 N 
ATOM     14  C   UNL     1       1.175   1.428   3.748  1.00  0.00     0.071 C 
ATOM     15  H   UNL     1       3.263   1.186   5.335  1.00  0.00     0.348 HD
BRANCH  13  16
ATOM     16  C   UNL     1       4.485   0.259   4.917  1.00  0.00     0.310 C 
BRANCH  16  17
ATOM     17  C   UNL     1       5.627  -0.513   4.198  1.00  0.00     0.252 C 
ATOM     18  C   UNL     1       6.649   0.283   3.414  1.00  0.00     0.170 C 
ATOM     19  O   UNL     1       5.167  -1.539   3.305  1.00  0.00    -0.438 OA
ATOM     20  N   UNL     1       6.531  -0.245   2.100  1.00  0.00    -0.318 N 
ATOM     21  C   UNL     1       5.696  -1.319   2.069  1.00  0.00     0.407 C 
ATOM     22  H   UNL     1       6.994   0.120   1.312  1.00  0.00     0.167 HD
ATOM     23  O   UNL     1       5.411  -1.952   1.061  1.00  0.00    -0.225 OA
ENDBRANCH  16  17
ENDBRANCH  13  16
ENDBRANCH   6   7
ENDBRANCH   4   6
ENDBRANCH   1   2
BRANCH   1  24
ATOM     24  C   UNL     1       2.539  -2.104  -2.915  1.00  0.00     0.042 C 
BRANCH  24  25
ATOM     25  C   UNL     1       4.052  -2.174  -3.099  1.00  0.00     0.118 C 
BRANCH  25  26
ATOM     26  N   UNL     1       4.615  -3.464  -2.719  1.00  0.00    -0.352 N 
ATOM     27  C   UNL     1       5.231  -4.421  -3.489  1.00  0.00     0.251 C 
ATOM     28  H   UNL     1       4.542  -3.684  -1.762  1.00  0.00     0.163 HD
ATOM     29  O   UNL     1       5.480  -5.529  -3.024  1.00  0.00    -0.269 OA
BRANCH  27  30
ATOM     30  C   UNL     1       5.583  -4.128  -4.896  1.00  0.00     0.039 A 
ATOM     31  C   UNL     1       5.308  -5.083  -5.879  1.00  0.00     0.014 A 
ATOM     32  C   UNL     1       6.189  -2.920  -5.247  1.00  0.00     0.014 A 
ATOM     33  C   UNL     1       5.557  -4.788  -7.222  1.00  0.00     0.010 A 
ATOM     34  C   UNL     1       6.359  -2.595  -6.590  1.00  0.00     0.010 A 
ATOM     35  C   UNL     1       6.037  -3.522  -7.593  1.00  0.00    -0.014 A 
BRANCH  35  36
ATOM     36  C   UNL     1       6.192  -3.131  -9.020  1.00  0.00     0.031 A 
ATOM     37  C   UNL     1       7.546  -2.767  -9.561  1.00  0.00     0.074 A 
ATOM     38  C   UNL     1       5.102  -3.016  -9.803  1.00  0.00     0.049 A 
ATOM     39  N   UNL     1       7.868  -2.281 -10.733  1.00  0.00    -0.248 NA
ATOM     40  C   UNL     1       8.690  -2.950  -8.653  1.00  0.00     0.031 C 
ATOM     41  C   UNL     1       3.729  -3.308  -9.390  1.00  0.00     0.029 A 
ATOM     42  N   UNL     1       4.973  -2.603 -11.107  1.00  0.00    -0.354 N 
ATOM     43  C   UNL     1       9.242  -2.085 -10.698  1.00  0.00     0.074 A 
ATOM     44  C   UNL     1       9.687  -2.456  -9.372  1.00  0.00     0.031 C 
ATOM     45  C   UNL     1       2.900  -3.079 -10.420  1.00  0.00     0.029 A 
ATOM     46  C   UNL     1       3.673  -2.573 -11.550  1.00  0.00     0.049 A 
ATOM     47  H   UNL     1       5.741  -2.351 -11.671  1.00  0.00     0.167 HD
ATOM     48  C   UNL     1      10.060  -1.654 -11.688  1.00  0.00     0.037 A 
ATOM     49  C   UNL     1       3.158  -2.163 -12.726  1.00  0.00     0.037 A 
ATOM     50  C   UNL     1       9.614  -1.300 -13.010  1.00  0.00     0.049 A 
ATOM     51  C   UNL     1       4.085  -1.648 -13.796  1.00  0.00     0.074 A 
ATOM     52  C   UNL     1      10.372  -0.902 -14.097  1.00  0.00     0.029 A 
ATOM     53  N   UNL     1       8.289  -1.293 -13.423  1.00  0.00    -0.354 N 
ATOM     54  N   UNL     1       5.389  -1.525 -13.772  1.00  0.00    -0.248 NA
ATOM     55  C   UNL     1       3.467  -1.214 -15.057  1.00  0.00     0.031 C 
ATOM     56  C   UNL     1       9.503  -0.592 -15.147  1.00  0.00     0.029 A 
ATOM     57  C   UNL     1       8.208  -0.866 -14.739  1.00  0.00     0.049 A 
ATOM     58  H   UNL     1       7.521  -1.551 -12.864  1.00  0.00     0.167 HD
ATOM     59  C   UNL     1       5.751  -1.040 -15.022  1.00  0.00     0.074 A 
ATOM     60  C   UNL     1       4.529  -0.895 -15.784  1.00  0.00     0.031 C 
ATOM     61  C   UNL     1       6.986  -0.745 -15.495  1.00  0.00     0.037 A 
BRANCH  48  62
ATOM     62  C   UNL     1      11.526  -1.531 -11.379  1.00  0.00     0.064 A 
ATOM     63  C   UNL     1      12.329  -2.658 -11.146  1.00  0.00     0.173 A 
ATOM     64  C   UNL     1      12.145  -0.272 -11.359  1.00  0.00     0.173 A 
ATOM     65  F   UNL     1      11.787  -3.886 -11.146  1.00  0.00    -0.203 F 
ATOM     66  C   UNL     1      13.688  -2.527 -10.873  1.00  0.00     0.198 A 
ATOM     67  C   UNL     1      13.511  -0.147 -11.121  1.00  0.00     0.198 A 
ATOM     68  F   UNL     1      11.428   0.839 -11.583  1.00  0.00    -0.203 F 
ATOM     69  F   UNL     1      14.423  -3.614 -10.601  1.00  0.00    -0.200 F 
ATOM     70  C   UNL     1      14.280  -1.273 -10.869  1.00  0.00     0.200 A 
ATOM     71  F   UNL     1      14.085   1.065 -11.136  1.00  0.00    -0.200 F 
ATOM     72  F   UNL     1      15.590  -1.149 -10.616  1.00  0.00    -0.200 F 
ENDBRANCH  48  62
BRANCH  49  73
ATOM     73  C   UNL     1       1.690  -2.226 -12.958  1.00  0.00     0.064 A 
ATOM     74  C   UNL     1       1.147  -3.109 -13.902  1.00  0.00     0.173 A 
ATOM     75  C   UNL     1       0.801  -1.399 -12.255  1.00  0.00     0.173 A 
ATOM     76  F   UNL     1       1.956  -3.905 -14.617  1.00  0.00    -0.203 F 
ATOM     77  C   UNL     1      -0.224  -3.145 -14.151  1.00  0.00     0.198 A 
ATOM     78  C   UNL     1      -0.573  -1.460 -12.480  1.00  0.00     0.198 A 
ATOM     79  F   UNL     1       1.267  -0.537 -11.338  1.00  0.00    -0.203 F 
ATOM     80  F   UNL     1      -0.709  -3.960 -15.098  1.00  0.00    -0.200 F 
ATOM     81  C   UNL     1      -1.083  -2.326 -13.435  1.00  0.00     0.200 A 
ATOM     82  F   UNL     1      -1.401  -0.677 -11.775  1.00  0.00    -0.200 F 
ATOM     83  F   UNL     1      -2.401  -2.362 -13.674  1.00  0.00    -0.200 F 
ENDBRANCH  49  73
BRANCH  61  84
ATOM     84  C   UNL     1       7.098  -0.288 -16.922  1.00  0.00     0.064 A 
ATOM     85  C   UNL     1       6.658   0.978 -17.332  1.00  0.00     0.173 A 
ATOM     86  C   UNL     1       7.721  -1.108 -17.877  1.00  0.00     0.173 A 
ATOM     87  F   UNL     1       6.043   1.794 -16.464  1.00  0.00    -0.203 F 
ATOM     88  C   UNL     1       6.824   1.401 -18.649  1.00  0.00     0.198 A 
ATOM     89  C   UNL     1       7.915  -0.669 -19.183  1.00  0.00     0.198 A 
ATOM     90  F   UNL     1       8.166  -2.327 -17.535  1.00  0.00    -0.203 F 
ATOM     91  F   UNL     1       6.360   2.599 -19.030  1.00  0.00    -0.200 F 
ATOM     92  C   UNL     1       7.462   0.582 -19.570  1.00  0.00     0.200 A 
ATOM     93  F   UNL     1       8.549  -1.455 -20.065  1.00  0.00    -0.200 F 
ATOM     94  F   UNL     1       7.638   0.999 -20.831  1.00  0.00    -0.200 F 
ENDBRANCH  61  84
ENDBRANCH  35  36
ENDBRANCH  27  30
ENDBRANCH  25  26
ENDBRANCH  24  25
ENDBRANCH   1  24
TORSDOF 13
