REMARK SMILES O=C(CCCN1C(=O)C(=O)/C(=C(/[O-])c2ccc(Cl)cc2)[C@@H]1c1ccccc1[N+](=O)[O-])NCCCNC(=O)c1ccc(-c2c3nc(c(-c4c(F)c(F)c(F)c(F)c4F)c4ccc([nH]4)c(-c4c(F)c(F)c(F)c(F)c4F)c4nc(c(-c5c(F)c(F)c(F)c(F)c5F)c5ccc2[nH]5)C=C4)C=C3)cc1
REMARK SMILES IDX 1 1 2 2 31 3 3 5 4 6 5 7 6 8 7 9 21 10 8 11 9 12 11 13 10 14
REMARK SMILES IDX 12 15 13 16 22 17 23 18 27 19 24 20 26 21 25 22 28 23 29 24
REMARK SMILES IDX 30 25 14 26 15 27 20 28 16 29 19 30 17 31 18 32 32 33 33 34
REMARK SMILES IDX 34 35 35 36 36 37 37 39 38 40 39 41 100 42 40 43 99 44 41 45
REMARK SMILES IDX 42 46 43 47 93 48 44 49 98 50 92 51 94 52 45 53 97 54 91 55
REMARK SMILES IDX 90 56 46 58 78 59 58 60 77 61 59 62 62 63 76 64 95 65 60 66
REMARK SMILES IDX 61 67 75 69 96 70 63 71 47 72 48 73 56 74 49 75 50 76 54 77
REMARK SMILES IDX 57 78 51 79 52 80 55 81 53 82 79 83 80 84 88 85 81 86 82 87
REMARK SMILES IDX 86 88 89 89 83 90 84 91 87 92 85 93 64 94 65 95 73 96 66 97
REMARK SMILES IDX 67 98 71 99 74 100 68 101 69 102 72 103 70 104
REMARK H PARENT 31 4 35 38 94 57 62 68
REMARK Flexibility Score: inf
ROOT
ATOM      1  O   UNL     1       0.495   0.930   0.591  1.00  0.00    -0.275 OA
ATOM      2  C   UNL     1       1.706   1.083   0.758  1.00  0.00     0.220 C 
ATOM      3  N   UNL     1       2.337   0.644   1.895  1.00  0.00    -0.356 N 
ATOM      4  H   UNL     1       3.305   0.797   1.985  1.00  0.00     0.163 HD
ENDROOT
BRANCH   2   5
ATOM      5  C   UNL     1       2.527   1.887  -0.247  1.00  0.00     0.102 C 
BRANCH   5   6
ATOM      6  C   UNL     1       4.064   1.861  -0.388  1.00  0.00     0.031 C 
BRANCH   6   7
ATOM      7  C   UNL     1       5.021   0.808   0.229  1.00  0.00     0.121 C 
BRANCH   7   8
ATOM      8  N   UNL     1       5.455  -0.311  -0.614  1.00  0.00    -0.324 N 
ATOM      9  C   UNL     1       6.246  -0.032  -1.728  1.00  0.00     0.295 C 
ATOM     10  C   UNL     1       5.670  -1.688  -0.123  1.00  0.00     0.157 C 
ATOM     11  O   UNL     1       6.539   1.052  -2.183  1.00  0.00    -0.265 OA
ATOM     12  C   UNL     1       6.865  -1.345  -2.193  1.00  0.00     0.248 C 
ATOM     13  C   UNL     1       6.660  -2.317  -1.088  1.00  0.00     0.025 C 
ATOM     14  O   UNL     1       7.499  -1.476  -3.212  1.00  0.00    -0.283 OA
ATOM     15  C   UNL     1       7.228  -3.537  -1.029  1.00  0.00    -0.092 C 
ATOM     16  O   UNL     1       7.171  -4.349   0.084  1.00  0.00    -0.872 OA
BRANCH  10  17
ATOM     17  C   UNL     1       4.415  -2.564   0.000  1.00  0.00     0.057 A 
ATOM     18  C   UNL     1       4.421  -3.655   0.899  1.00  0.00     0.013 A 
ATOM     19  C   UNL     1       3.257  -2.458  -0.784  1.00  0.00     0.275 A 
ATOM     20  C   UNL     1       3.329  -4.527   1.046  1.00  0.00     0.001 A 
ATOM     21  C   UNL     1       2.142  -3.301  -0.629  1.00  0.00     0.086 A 
ATOM     22  C   UNL     1       2.178  -4.333   0.297  1.00  0.00     0.007 A 
BRANCH  19  23
ATOM     23  N   UNL     1       3.143  -1.483  -1.837  1.00  0.00     0.063 N 
ATOM     24  O   UNL     1       2.314  -0.591  -1.663  1.00  0.00    -0.258 OA
ATOM     25  O   UNL     1       3.860  -1.632  -2.830  1.00  0.00    -0.258 OA
ENDBRANCH  19  23
ENDBRANCH  10  17
BRANCH  15  26
ATOM     26  C   UNL     1       7.671  -4.252  -2.230  1.00  0.00    -0.033 A 
ATOM     27  C   UNL     1       8.929  -4.062  -2.804  1.00  0.00     0.009 A 
ATOM     28  C   UNL     1       6.746  -5.110  -2.849  1.00  0.00     0.009 A 
ATOM     29  C   UNL     1       9.239  -4.686  -4.016  1.00  0.00     0.021 A 
ATOM     30  C   UNL     1       7.058  -5.736  -4.055  1.00  0.00     0.021 A 
ATOM     31  C   UNL     1       8.301  -5.510  -4.639  1.00  0.00     0.041 A 
ATOM     32  Cl  UNL     1       8.674  -6.244  -6.150  1.00  0.00    -0.084 Cl
ENDBRANCH  15  26
ENDBRANCH   7   8
ENDBRANCH   6   7
ENDBRANCH   5   6
ENDBRANCH   2   5
BRANCH   3  33
ATOM     33  C   UNL     1       1.637  -0.038   2.972  1.00  0.00     0.117 C 
BRANCH  33  34
ATOM     34  C   UNL     1       2.069  -1.486   3.217  1.00  0.00     0.042 C 
BRANCH  34  35
ATOM     35  C   UNL     1       3.562  -1.760   3.392  1.00  0.00     0.118 C 
BRANCH  35  36
ATOM     36  N   UNL     1       4.176  -1.199   4.576  1.00  0.00    -0.352 N 
ATOM     37  C   UNL     1       4.955  -1.778   5.552  1.00  0.00     0.251 C 
ATOM     38  H   UNL     1       4.008  -0.238   4.705  1.00  0.00     0.163 HD
ATOM     39  O   UNL     1       5.371  -1.063   6.462  1.00  0.00    -0.269 OA
BRANCH  37  40
ATOM     40  C   UNL     1       5.291  -3.229   5.583  1.00  0.00     0.039 A 
ATOM     41  C   UNL     1       5.192  -3.889   6.813  1.00  0.00     0.014 A 
ATOM     42  C   UNL     1       5.796  -3.933   4.487  1.00  0.00     0.014 A 
ATOM     43  C   UNL     1       5.532  -5.244   6.930  1.00  0.00     0.010 A 
ATOM     44  C   UNL     1       6.085  -5.309   4.589  1.00  0.00     0.010 A 
ATOM     45  C   UNL     1       5.946  -5.987   5.812  1.00  0.00    -0.014 A 
BRANCH  45  46
ATOM     46  C   UNL     1       6.175  -7.463   5.932  1.00  0.00     0.031 A 
ATOM     47  C   UNL     1       7.539  -8.080   5.744  1.00  0.00     0.074 A 
ATOM     48  C   UNL     1       5.133  -8.275   6.213  1.00  0.00     0.049 A 
ATOM     49  N   UNL     1       7.899  -9.340   5.821  1.00  0.00    -0.248 NA
ATOM     50  C   UNL     1       8.641  -7.166   5.417  1.00  0.00     0.031 C 
ATOM     51  C   UNL     1       3.752  -7.833   6.404  1.00  0.00     0.029 A 
ATOM     52  N   UNL     1       5.069  -9.639   6.388  1.00  0.00    -0.354 N 
ATOM     53  C   UNL     1       9.262  -9.372   5.551  1.00  0.00     0.074 A 
ATOM     54  C   UNL     1       9.655  -8.007   5.263  1.00  0.00     0.031 C 
ATOM     55  C   UNL     1       2.984  -8.895   6.693  1.00  0.00     0.029 A 
ATOM     56  C   UNL     1       3.804 -10.103   6.663  1.00  0.00     0.049 A 
ATOM     57  H   UNL     1       5.856 -10.227   6.322  1.00  0.00     0.167 HD
ATOM     58  C   UNL     1      10.111 -10.431   5.559  1.00  0.00     0.037 A 
ATOM     59  C   UNL     1       3.344 -11.355   6.858  1.00  0.00     0.037 A 
ATOM     60  C   UNL     1       9.730 -11.793   5.851  1.00  0.00     0.049 A 
ATOM     61  C   UNL     1       4.299 -12.519   6.814  1.00  0.00     0.074 A 
ATOM     62  C   UNL     1      10.537 -12.917   5.928  1.00  0.00     0.029 A 
ATOM     63  N   UNL     1       8.434 -12.221   6.101  1.00  0.00    -0.354 N 
ATOM     64  N   UNL     1       5.595 -12.520   6.622  1.00  0.00    -0.248 NA
ATOM     65  C   UNL     1       3.725 -13.857   7.020  1.00  0.00     0.031 C 
ATOM     66  C   UNL     1       9.723 -14.032   6.154  1.00  0.00     0.029 A 
ATOM     67  C   UNL     1       8.417 -13.596   6.295  1.00  0.00     0.049 A 
ATOM     68  H   UNL     1       7.643 -11.636   6.135  1.00  0.00     0.167 HD
ATOM     69  C   UNL     1       5.994 -13.848   6.717  1.00  0.00     0.074 A 
ATOM     70  C   UNL     1       4.806 -14.623   7.000  1.00  0.00     0.031 C 
ATOM     71  C   UNL     1       7.237 -14.372   6.582  1.00  0.00     0.037 A 
BRANCH  58  72
ATOM     72  C   UNL     1      11.558 -10.173   5.230  1.00  0.00     0.064 A 
ATOM     73  C   UNL     1      12.397  -9.457   6.097  1.00  0.00     0.173 A 
ATOM     74  C   UNL     1      12.130 -10.706   4.063  1.00  0.00     0.173 A 
ATOM     75  F   UNL     1      11.905  -8.925   7.226  1.00  0.00    -0.203 F 
ATOM     76  C   UNL     1      13.742  -9.254   5.792  1.00  0.00     0.198 A 
ATOM     77  C   UNL     1      13.482 -10.531   3.778  1.00  0.00     0.198 A 
ATOM     78  F   UNL     1      11.380 -11.414   3.204  1.00  0.00    -0.203 F 
ATOM     79  F   UNL     1      14.509  -8.522   6.611  1.00  0.00    -0.200 F 
ATOM     80  C   UNL     1      14.285  -9.797   4.638  1.00  0.00     0.200 A 
ATOM     81  F   UNL     1      14.009 -11.074   2.672  1.00  0.00    -0.200 F 
ATOM     82  F   UNL     1      15.580  -9.607   4.351  1.00  0.00    -0.200 F 
ENDBRANCH  58  72
BRANCH  59  83
ATOM     83  C   UNL     1       1.895 -11.582   7.116  1.00  0.00     0.064 A 
ATOM     84  C   UNL     1       1.444 -12.064   8.354  1.00  0.00     0.173 A 
ATOM     85  C   UNL     1       0.933 -11.344   6.123  1.00  0.00     0.173 A 
ATOM     86  F   UNL     1       2.326 -12.332   9.329  1.00  0.00    -0.203 F 
ATOM     87  C   UNL     1       0.093 -12.321   8.579  1.00  0.00     0.198 A 
ATOM     88  C   UNL     1      -0.421 -11.566   6.361  1.00  0.00     0.198 A 
ATOM     89  F   UNL     1       1.309 -10.880   4.922  1.00  0.00    -0.203 F 
ATOM     90  F   UNL     1      -0.302 -12.835   9.752  1.00  0.00    -0.200 F 
ATOM     91  C   UNL     1      -0.839 -12.066   7.585  1.00  0.00     0.200 A 
ATOM     92  F   UNL     1      -1.320 -11.300   5.404  1.00  0.00    -0.200 F 
ATOM     93  F   UNL     1      -2.139 -12.308   7.804  1.00  0.00    -0.200 F 
ENDBRANCH  59  83
BRANCH  71  94
ATOM     94  C   UNL     1       7.394 -15.856   6.781  1.00  0.00     0.064 A 
ATOM     95  C   UNL     1       6.874 -16.787   5.870  1.00  0.00     0.173 A 
ATOM     96  C   UNL     1       8.104 -16.352   7.886  1.00  0.00     0.173 A 
ATOM     97  F   UNL     1       6.173 -16.370   4.804  1.00  0.00    -0.203 F 
ATOM     98  C   UNL     1       7.033 -18.157   6.072  1.00  0.00     0.198 A 
ATOM     99  C   UNL     1       8.292 -17.721   8.066  1.00  0.00     0.198 A 
ATOM    100  F   UNL     1       8.628 -15.509   8.788  1.00  0.00    -0.203 F 
ATOM    101  F   UNL     1       6.479 -19.027   5.217  1.00  0.00    -0.200 F 
ATOM    102  C   UNL     1       7.748 -18.622   7.165  1.00  0.00     0.200 A 
ATOM    103  F   UNL     1       8.998 -18.166   9.115  1.00  0.00    -0.200 F 
ATOM    104  F   UNL     1       7.907 -19.939   7.353  1.00  0.00    -0.200 F 
ENDBRANCH  71  94
ENDBRANCH  45  46
ENDBRANCH  37  40
ENDBRANCH  35  36
ENDBRANCH  34  35
ENDBRANCH  33  34
ENDBRANCH   3  33
TORSDOF 16
