REMARK SMILES CN(CCS(C)(=O)=O)S(=O)(=O)c1cc(C(=O)NCCCNC(=O)c2ccc(-c3c4nc(c(-c5c(F)c(F)c(F)c(F)c5F)c5ccc([nH]5)c(-c5c(F)c(F)c(F)c(F)c5F)c5nc(c(-c6c(F)c(F)c(F)c(F)c6F)c6ccc3[nH]6)C=C5)C=C4)cc2)ccc1F
REMARK SMILES IDX 15 1 16 2 17 3 14 5 12 6 13 7 89 8 88 9 90 10 87 11 9 12
REMARK SMILES IDX 10 13 11 14 2 15 1 16 3 17 4 18 5 19 6 20 7 21 8 22 18 23
REMARK SMILES IDX 19 24 20 25 21 26 22 27 23 29 24 30 25 31 86 32 26 33 85 34
REMARK SMILES IDX 27 35 28 36 29 37 79 38 30 39 84 40 78 41 80 42 31 43 83 44
REMARK SMILES IDX 77 45 76 46 32 48 64 49 44 50 63 51 45 52 48 53 62 54 81 55
REMARK SMILES IDX 46 56 47 57 61 59 82 60 49 61 33 62 34 63 42 64 35 65 36 66
REMARK SMILES IDX 40 67 43 68 37 69 38 70 41 71 39 72 65 73 66 74 74 75 67 76
REMARK SMILES IDX 68 77 72 78 75 79 69 80 70 81 73 82 71 83 50 84 51 85 59 86
REMARK SMILES IDX 52 87 53 88 57 89 60 90 54 91 55 92 58 93 56 94
REMARK H PARENT 17 4 21 28 80 47 48 58
REMARK Flexibility Score: inf
ROOT
ATOM      1  C   UNL     1      -0.621   2.368   6.782  1.00  0.00     0.251 C 
ATOM      2  O   UNL     1      -1.041   1.214   6.845  1.00  0.00    -0.269 OA
ATOM      3  N   UNL     1      -0.857   3.191   7.852  1.00  0.00    -0.352 N 
ATOM      4  H   UNL     1      -1.399   2.774   8.561  1.00  0.00     0.163 HD
ENDROOT
BRANCH   1   5
ATOM      5  C   UNL     1       0.084   2.797   5.542  1.00  0.00     0.041 A 
ATOM      6  C   UNL     1       1.275   2.118   3.531  1.00  0.00     0.119 A 
ATOM      7  C   UNL     1       0.744   1.805   4.790  1.00  0.00     0.038 A 
ATOM      8  C   UNL     1       1.217   3.418   3.049  1.00  0.00     0.143 A 
ATOM      9  C   UNL     1       0.579   4.407   3.789  1.00  0.00     0.041 A 
ATOM     10  F   UNL     1       1.692   3.742   1.841  1.00  0.00    -0.206 F 
ATOM     11  C   UNL     1      -0.017   4.089   5.014  1.00  0.00     0.017 A 
BRANCH   6  12
ATOM     12  S   UNL     1       1.896   0.862   2.461  1.00  0.00     0.245 S 
ATOM     13  O   UNL     1       1.861  -0.409   3.152  1.00  0.00    -0.207 OA
ATOM     14  O   UNL     1       3.134   1.340   1.888  1.00  0.00    -0.207 OA
BRANCH  12  15
ATOM     15  N   UNL     1       0.715   0.789   1.234  1.00  0.00    -0.200 NA
ATOM     16  C   UNL     1       1.133   0.094   0.001  1.00  0.00     0.124 C 
BRANCH  15  17
ATOM     17  C   UNL     1      -0.730   0.668   1.580  1.00  0.00     0.118 C 
BRANCH  17  18
ATOM     18  C   UNL     1      -1.294  -0.727   1.776  1.00  0.00     0.153 C 
BRANCH  18  19
ATOM     19  S   UNL     1      -1.759  -1.182   3.442  1.00  0.00     0.148 S 
ATOM     20  C   UNL     1      -2.673   0.181   4.128  1.00  0.00     0.158 C 
ATOM     21  O   UNL     1      -2.699  -2.283   3.319  1.00  0.00    -0.229 OA
ATOM     22  O   UNL     1      -0.561  -1.338   4.236  1.00  0.00    -0.229 OA
ENDBRANCH  18  19
ENDBRANCH  17  18
ENDBRANCH  15  17
ENDBRANCH  12  15
ENDBRANCH   6  12
ENDBRANCH   1   5
BRANCH   3  23
ATOM     23  C   UNL     1      -0.462   4.557   8.145  1.00  0.00     0.118 C 
BRANCH  23  24
ATOM     24  C   UNL     1      -1.646   5.520   8.022  1.00  0.00     0.042 C 
BRANCH  24  25
ATOM     25  C   UNL     1      -2.596   5.490   9.221  1.00  0.00     0.118 C 
BRANCH  25  26
ATOM     26  N   UNL     1      -1.975   6.027  10.424  1.00  0.00    -0.352 N 
ATOM     27  C   UNL     1      -2.292   7.119  11.191  1.00  0.00     0.251 C 
ATOM     28  H   UNL     1      -1.195   5.518  10.742  1.00  0.00     0.163 HD
ATOM     29  O   UNL     1      -1.485   7.516  12.028  1.00  0.00    -0.269 OA
BRANCH  27  30
ATOM     30  C   UNL     1      -3.579   7.832  11.029  1.00  0.00     0.039 A 
ATOM     31  C   UNL     1      -3.593   9.225  11.164  1.00  0.00     0.014 A 
ATOM     32  C   UNL     1      -4.779   7.146  10.824  1.00  0.00     0.014 A 
ATOM     33  C   UNL     1      -4.793   9.930  11.039  1.00  0.00     0.010 A 
ATOM     34  C   UNL     1      -5.965   7.854  10.632  1.00  0.00     0.010 A 
ATOM     35  C   UNL     1      -5.986   9.252  10.740  1.00  0.00    -0.014 A 
BRANCH  35  36
ATOM     36  C   UNL     1      -7.255   9.993  10.518  1.00  0.00     0.031 A 
ATOM     37  C   UNL     1      -8.425   9.802  11.441  1.00  0.00     0.074 A 
ATOM     38  C   UNL     1      -7.374  10.790   9.439  1.00  0.00     0.049 A 
ATOM     39  N   UNL     1      -9.631  10.307  11.363  1.00  0.00    -0.248 NA
ATOM     40  C   UNL     1      -8.223   8.905  12.589  1.00  0.00     0.031 C 
ATOM     41  C   UNL     1      -6.325  11.024   8.447  1.00  0.00     0.029 A 
ATOM     42  N   UNL     1      -8.432  11.542   8.990  1.00  0.00    -0.354 N 
ATOM     43  C   UNL     1     -10.334   9.777  12.437  1.00  0.00     0.074 A 
ATOM     44  C   UNL     1      -9.435   8.875  13.125  1.00  0.00     0.031 C 
ATOM     45  C   UNL     1      -6.782  11.878   7.519  1.00  0.00     0.029 A 
ATOM     46  C   UNL     1      -8.168  12.220   7.826  1.00  0.00     0.049 A 
ATOM     47  H   UNL     1      -9.297  11.590   9.458  1.00  0.00     0.167 HD
ATOM     48  C   UNL     1     -11.606  10.036  12.823  1.00  0.00     0.037 A 
ATOM     49  C   UNL     1      -8.954  13.022   7.082  1.00  0.00     0.037 A 
ATOM     50  C   UNL     1     -12.485  10.957  12.150  1.00  0.00     0.049 A 
ATOM     51  C   UNL     1     -10.362  13.295   7.527  1.00  0.00     0.074 A 
ATOM     52  C   UNL     1     -13.764  11.345  12.511  1.00  0.00     0.029 A 
ATOM     53  N   UNL     1     -12.180  11.629  10.975  1.00  0.00    -0.354 N 
ATOM     54  N   UNL     1     -10.996  12.838   8.579  1.00  0.00    -0.248 NA
ATOM     55  C   UNL     1     -11.164  14.195   6.686  1.00  0.00     0.031 C 
ATOM     56  C   UNL     1     -14.254  12.206  11.524  1.00  0.00     0.029 A 
ATOM     57  C   UNL     1     -13.260  12.403  10.579  1.00  0.00     0.049 A 
ATOM     58  H   UNL     1     -11.324  11.565  10.493  1.00  0.00     0.167 HD
ATOM     59  C   UNL     1     -12.263  13.404   8.539  1.00  0.00     0.074 A 
ATOM     60  C   UNL     1     -12.305  14.249   7.363  1.00  0.00     0.031 C 
ATOM     61  C   UNL     1     -13.295  13.236   9.401  1.00  0.00     0.037 A 
BRANCH  48  62
ATOM     62  C   UNL     1     -12.131   9.314  14.031  1.00  0.00     0.064 A 
ATOM     63  C   UNL     1     -13.162   8.370  13.903  1.00  0.00     0.173 A 
ATOM     64  C   UNL     1     -11.655   9.591  15.322  1.00  0.00     0.173 A 
ATOM     65  F   UNL     1     -13.661   8.072  12.694  1.00  0.00    -0.203 F 
ATOM     66  C   UNL     1     -13.696   7.734  15.021  1.00  0.00     0.198 A 
ATOM     67  C   UNL     1     -12.169   8.929  16.434  1.00  0.00     0.198 A 
ATOM     68  F   UNL     1     -10.666  10.480  15.500  1.00  0.00    -0.203 F 
ATOM     69  F   UNL     1     -14.698   6.856  14.876  1.00  0.00    -0.200 F 
ATOM     70  C   UNL     1     -13.194   8.008  16.284  1.00  0.00     0.200 A 
ATOM     71  F   UNL     1     -11.664   9.176  17.651  1.00  0.00    -0.200 F 
ATOM     72  F   UNL     1     -13.696   7.380  17.357  1.00  0.00    -0.200 F 
ENDBRANCH  48  62
BRANCH  49  73
ATOM     73  C   UNL     1      -8.390  13.646   5.857  1.00  0.00     0.064 A 
ATOM     74  C   UNL     1      -8.092  12.880   4.720  1.00  0.00     0.173 A 
ATOM     75  C   UNL     1      -8.063  15.008   5.833  1.00  0.00     0.173 A 
ATOM     76  F   UNL     1      -8.377  11.570   4.699  1.00  0.00    -0.203 F 
ATOM     77  C   UNL     1      -7.457  13.448   3.618  1.00  0.00     0.198 A 
ATOM     78  C   UNL     1      -7.451  15.580   4.720  1.00  0.00     0.198 A 
ATOM     79  F   UNL     1      -8.345  15.783   6.891  1.00  0.00    -0.203 F 
ATOM     80  F   UNL     1      -7.137  12.684   2.565  1.00  0.00    -0.200 F 
ATOM     81  C   UNL     1      -7.137  14.797   3.619  1.00  0.00     0.200 A 
ATOM     82  F   UNL     1      -7.157  16.887   4.718  1.00  0.00    -0.200 F 
ATOM     83  F   UNL     1      -6.521  15.342   2.561  1.00  0.00    -0.200 F 
ENDBRANCH  49  73
BRANCH  61  84
ATOM     84  C   UNL     1     -14.567  13.982   9.123  1.00  0.00     0.064 A 
ATOM     85  C   UNL     1     -14.975  15.031   9.961  1.00  0.00     0.173 A 
ATOM     86  C   UNL     1     -15.426  13.602   8.081  1.00  0.00     0.173 A 
ATOM     87  F   UNL     1     -14.193  15.428  10.976  1.00  0.00    -0.203 F 
ATOM     88  C   UNL     1     -16.205  15.657   9.781  1.00  0.00     0.198 A 
ATOM     89  C   UNL     1     -16.643  14.250   7.886  1.00  0.00     0.198 A 
ATOM     90  F   UNL     1     -15.075  12.614   7.244  1.00  0.00    -0.203 F 
ATOM     91  F   UNL     1     -16.591  16.628  10.619  1.00  0.00    -0.200 F 
ATOM     92  C   UNL     1     -17.037  15.267   8.742  1.00  0.00     0.200 A 
ATOM     93  F   UNL     1     -17.436  13.889   6.867  1.00  0.00    -0.200 F 
ATOM     94  F   UNL     1     -18.218  15.874   8.565  1.00  0.00    -0.200 F 
ENDBRANCH  61  84
ENDBRANCH  35  36
ENDBRANCH  27  30
ENDBRANCH  25  26
ENDBRANCH  24  25
ENDBRANCH  23  24
ENDBRANCH   3  23
TORSDOF 15
