REMARK SMILES C[C@@H]1C[C@@H](C)CN(C(=O)C[C@@H](C)CC(=O)NCCCNC(=O)c2ccc(-c3c4nc(c(-c5c(F)c(F)c(F)c(F)c5F)c5ccc([nH]5)c(-c5c(F)c(F)c(F)c(F)c5F)c5nc(c(-c6c(F)c(F)c(F)c(F)c6F)c6ccc3[nH]6)C=C5)C=C4)cc2)C1
REMARK SMILES IDX 17 1 16 2 14 3 15 4 13 6 11 7 12 8 10 9 8 10 1 11 2 12 3 13
REMARK SMILES IDX 86 14 4 15 7 16 6 17 5 18 9 19 18 20 19 21 20 22 21 23 22 25
REMARK SMILES IDX 23 26 24 27 85 28 25 29 84 30 26 31 27 32 28 33 78 34 29 35
REMARK SMILES IDX 83 36 77 37 79 38 30 39 82 40 76 41 75 42 31 44 63 45 43 46
REMARK SMILES IDX 62 47 44 48 47 49 61 50 80 51 45 52 46 53 60 55 81 56 48 57
REMARK SMILES IDX 32 58 33 59 41 60 34 61 35 62 39 63 42 64 36 65 37 66 40 67
REMARK SMILES IDX 38 68 64 69 65 70 73 71 66 72 67 73 71 74 74 75 68 76 69 77
REMARK SMILES IDX 72 78 70 79 49 80 50 81 58 82 51 83 52 84 56 85 59 86 53 87
REMARK SMILES IDX 54 88 57 89 55 90
REMARK H PARENT 16 5 20 24 79 43 47 54
REMARK Flexibility Score: inf
ROOT
ATOM      1  C   UNL     1      -5.699   0.293  -3.003  1.00  0.00     0.117 C 
ENDROOT
BRANCH   1   2
ATOM      2  N   UNL     1      -4.917   0.454  -4.219  1.00  0.00    -0.356 N 
ATOM      3  C   UNL     1      -3.878  -0.265  -4.724  1.00  0.00     0.220 C 
ATOM      4  O   UNL     1      -3.350   0.139  -5.762  1.00  0.00    -0.275 OA
ATOM      5  H   UNL     1      -5.187   1.220  -4.775  1.00  0.00     0.163 HD
BRANCH   3   6
ATOM      6  C   UNL     1      -3.386  -1.531  -4.049  1.00  0.00     0.103 C 
BRANCH   6   7
ATOM      7  C   UNL     1      -2.186  -1.284  -3.108  1.00  0.00     0.004 C 
ATOM      8  C   UNL     1      -1.314  -2.537  -3.044  1.00  0.00     0.009 C 
BRANCH   7   9
ATOM      9  C   UNL     1      -2.703  -0.905  -1.720  1.00  0.00     0.104 C 
BRANCH   9  10
ATOM     10  C   UNL     1      -1.727  -0.254  -0.763  1.00  0.00     0.222 C 
ATOM     11  C   UNL     1       1.577  -0.174   0.287  1.00  0.00     0.009 C 
ATOM     12  C   UNL     1       0.794  -0.759   1.467  1.00  0.00     0.006 C 
ATOM     13  C   UNL     1       0.847  -2.305   1.492  1.00  0.00     0.010 C 
ATOM     14  C   UNL     1      -0.661  -0.268   1.450  1.00  0.00     0.122 C 
ATOM     15  C   UNL     1      -0.053  -2.943   0.420  1.00  0.00     0.006 C 
ATOM     16  N   UNL     1      -1.421  -0.939   0.399  1.00  0.00    -0.342 N 
ATOM     17  C   UNL     1      -1.476  -2.388   0.539  1.00  0.00     0.122 C 
ATOM     18  C   UNL     1      -0.070  -4.465   0.480  1.00  0.00     0.009 C 
ATOM     19  O   UNL     1      -1.325   0.889  -0.989  1.00  0.00    -0.275 OA
ENDBRANCH   9  10
ENDBRANCH   7   9
ENDBRANCH   6   7
ENDBRANCH   3   6
ENDBRANCH   1   2
BRANCH   1  20
ATOM     20  C   UNL     1      -5.411   1.405  -1.992  1.00  0.00     0.042 C 
BRANCH  20  21
ATOM     21  C   UNL     1      -5.918   2.772  -2.408  1.00  0.00     0.118 C 
BRANCH  21  22
ATOM     22  N   UNL     1      -7.334   2.933  -2.144  1.00  0.00    -0.352 N 
ATOM     23  C   UNL     1      -7.965   3.795  -1.286  1.00  0.00     0.251 C 
ATOM     24  H   UNL     1      -7.928   2.338  -2.656  1.00  0.00     0.163 HD
ATOM     25  O   UNL     1      -9.163   3.622  -1.038  1.00  0.00    -0.269 OA
BRANCH  23  26
ATOM     26  C   UNL     1      -7.243   4.921  -0.646  1.00  0.00     0.039 A 
ATOM     27  C   UNL     1      -7.615   5.308   0.645  1.00  0.00     0.014 A 
ATOM     28  C   UNL     1      -6.257   5.646  -1.322  1.00  0.00     0.014 A 
ATOM     29  C   UNL     1      -6.999   6.405   1.254  1.00  0.00     0.010 A 
ATOM     30  C   UNL     1      -5.570   6.672  -0.676  1.00  0.00     0.010 A 
ATOM     31  C   UNL     1      -5.966   7.094   0.600  1.00  0.00    -0.014 A 
BRANCH  31  32
ATOM     32  C   UNL     1      -5.369   8.324   1.184  1.00  0.00     0.031 A 
ATOM     33  C   UNL     1      -5.540   9.642   0.469  1.00  0.00     0.074 A 
ATOM     34  C   UNL     1      -4.666   8.264   2.331  1.00  0.00     0.049 A 
ATOM     35  N   UNL     1      -5.053  10.821   0.768  1.00  0.00    -0.248 NA
ATOM     36  C   UNL     1      -6.343   9.627  -0.766  1.00  0.00     0.031 C 
ATOM     37  C   UNL     1      -4.399   7.049   3.100  1.00  0.00     0.029 A 
ATOM     38  N   UNL     1      -4.044   9.255   3.049  1.00  0.00    -0.354 N 
ATOM     39  C   UNL     1      -5.476  11.673  -0.244  1.00  0.00     0.074 A 
ATOM     40  C   UNL     1      -6.202  10.870  -1.201  1.00  0.00     0.031 C 
ATOM     41  C   UNL     1      -3.691   7.369   4.196  1.00  0.00     0.029 A 
ATOM     42  C   UNL     1      -3.426   8.805   4.190  1.00  0.00     0.049 A 
ATOM     43  H   UNL     1      -4.041  10.200   2.773  1.00  0.00     0.167 HD
ATOM     44  C   UNL     1      -5.308  13.012  -0.353  1.00  0.00     0.037 A 
ATOM     45  C   UNL     1      -2.726   9.478   5.123  1.00  0.00     0.037 A 
ATOM     46  C   UNL     1      -4.620  13.820   0.618  1.00  0.00     0.049 A 
ATOM     47  C   UNL     1      -2.564  10.970   4.983  1.00  0.00     0.074 A 
ATOM     48  C   UNL     1      -4.408  15.187   0.612  1.00  0.00     0.029 A 
ATOM     49  N   UNL     1      -4.047  13.329   1.782  1.00  0.00    -0.354 N 
ATOM     50  N   UNL     1      -3.004  11.768   4.041  1.00  0.00    -0.248 NA
ATOM     51  C   UNL     1      -1.819  11.657   6.048  1.00  0.00     0.031 C 
ATOM     52  C   UNL     1      -3.686  15.522   1.762  1.00  0.00     0.029 A 
ATOM     53  C   UNL     1      -3.486  14.369   2.504  1.00  0.00     0.049 A 
ATOM     54  H   UNL     1      -4.039  12.383   2.053  1.00  0.00     0.167 HD
ATOM     55  C   UNL     1      -2.629  13.050   4.420  1.00  0.00     0.074 A 
ATOM     56  C   UNL     1      -1.937  12.925   5.685  1.00  0.00     0.031 C 
ATOM     57  C   UNL     1      -2.836  14.226   3.780  1.00  0.00     0.037 A 
BRANCH  44  58
ATOM     58  C   UNL     1      -5.901  13.693  -1.552  1.00  0.00     0.064 A 
ATOM     59  C   UNL     1      -7.289  13.841  -1.695  1.00  0.00     0.173 A 
ATOM     60  C   UNL     1      -5.077  14.243  -2.545  1.00  0.00     0.173 A 
ATOM     61  F   UNL     1      -8.121  13.320  -0.780  1.00  0.00    -0.203 F 
ATOM     62  C   UNL     1      -7.831  14.494  -2.798  1.00  0.00     0.198 A 
ATOM     63  C   UNL     1      -5.622  14.922  -3.632  1.00  0.00     0.198 A 
ATOM     64  F   UNL     1      -3.743  14.134  -2.455  1.00  0.00    -0.203 F 
ATOM     65  F   UNL     1      -9.161  14.584  -2.935  1.00  0.00    -0.200 F 
ATOM     66  C   UNL     1      -6.997  15.041  -3.761  1.00  0.00     0.200 A 
ATOM     67  F   UNL     1      -4.815  15.462  -4.556  1.00  0.00    -0.200 F 
ATOM     68  F   UNL     1      -7.520  15.681  -4.817  1.00  0.00    -0.200 F 
ENDBRANCH  44  58
BRANCH  45  69
ATOM     69  C   UNL     1      -2.148   8.765   6.293  1.00  0.00     0.064 A 
ATOM     70  C   UNL     1      -2.638   8.992   7.588  1.00  0.00     0.173 A 
ATOM     71  C   UNL     1      -1.071   7.880   6.151  1.00  0.00     0.173 A 
ATOM     72  F   UNL     1      -3.655   9.846   7.779  1.00  0.00    -0.203 F 
ATOM     73  C   UNL     1      -2.046   8.393   8.698  1.00  0.00     0.198 A 
ATOM     74  C   UNL     1      -0.500   7.256   7.259  1.00  0.00     0.198 A 
ATOM     75  F   UNL     1      -0.568   7.623   4.935  1.00  0.00    -0.203 F 
ATOM     76  F   UNL     1      -2.492   8.680   9.929  1.00  0.00    -0.200 F 
ATOM     77  C   UNL     1      -0.979   7.524   8.533  1.00  0.00     0.200 A 
ATOM     78  F   UNL     1       0.523   6.406   7.094  1.00  0.00    -0.200 F 
ATOM     79  F   UNL     1      -0.405   6.954   9.601  1.00  0.00    -0.200 F 
ENDBRANCH  45  69
BRANCH  57  80
ATOM     80  C   UNL     1      -2.375  15.476   4.470  1.00  0.00     0.064 A 
ATOM     81  C   UNL     1      -1.015  15.796   4.591  1.00  0.00     0.173 A 
ATOM     82  C   UNL     1      -3.314  16.380   4.991  1.00  0.00     0.173 A 
ATOM     83  F   UNL     1      -0.080  14.958   4.120  1.00  0.00    -0.203 F 
ATOM     84  C   UNL     1      -0.611  16.960   5.240  1.00  0.00     0.198 A 
ATOM     85  C   UNL     1      -2.907  17.557   5.612  1.00  0.00     0.198 A 
ATOM     86  F   UNL     1      -4.627  16.124   4.892  1.00  0.00    -0.203 F 
ATOM     87  F   UNL     1       0.695  17.219   5.394  1.00  0.00    -0.200 F 
ATOM     88  C   UNL     1      -1.556  17.841   5.744  1.00  0.00     0.200 A 
ATOM     89  F   UNL     1      -3.821  18.414   6.086  1.00  0.00    -0.200 F 
ATOM     90  F   UNL     1      -1.164  18.961   6.367  1.00  0.00    -0.200 F 
ENDBRANCH  57  80
ENDBRANCH  31  32
ENDBRANCH  23  26
ENDBRANCH  21  22
ENDBRANCH  20  21
ENDBRANCH   1  20
TORSDOF 13
