REMARK SMILES COc1ccc(/C=C(/Sc2nc(C)n[nH]2)C(=O)NCCCNC(=O)c2ccc(-c3c4nc(c(-c5c(F)c(F)c(F)c(F)c5F)c5ccc([nH]5)c(-c5c(F)c(F)c(F)c(F)c5F)c5nc(c(-c6c(F)c(F)c(F)c(F)c6F)c6ccc3[nH]6)C=C5)C=C4)cc2)cc1OC
REMARK SMILES IDX 20 1 19 2 18 3 16 4 17 5 8 7 7 8 6 9 3 10 4 11 89 12 5 13
REMARK SMILES IDX 88 14 2 15 1 16 90 17 91 18 9 19 10 20 11 21 15 22 12 23
REMARK SMILES IDX 14 24 13 26 21 27 22 28 23 29 24 31 25 32 26 33 87 34 27 35
REMARK SMILES IDX 86 36 28 37 29 38 30 39 80 40 31 41 85 42 79 43 81 44 32 45
REMARK SMILES IDX 84 46 78 47 77 48 33 50 65 51 45 52 64 53 46 54 49 55 63 56
REMARK SMILES IDX 82 57 47 58 48 59 62 61 83 62 50 63 34 64 35 65 43 66 36 67
REMARK SMILES IDX 37 68 41 69 44 70 38 71 39 72 42 73 40 74 66 75 67 76 75 77
REMARK SMILES IDX 68 78 69 79 73 80 76 81 70 82 71 83 74 84 72 85 51 86 52 87
REMARK SMILES IDX 60 88 53 89 54 90 58 91 61 92 55 93 56 94 59 95 57 96
REMARK H PARENT 18 6 15 25 22 30 81 49 49 60
REMARK Flexibility Score: inf
ROOT
ATOM      1  C   UNL     1      -0.578  -1.073  10.709  1.00  0.00     0.042 C 
ENDROOT
BRANCH   1   2
ATOM      2  C   UNL     1      -0.771  -2.200   9.691  1.00  0.00     0.118 C 
BRANCH   2   3
ATOM      3  N   UNL     1      -0.927  -1.764   8.306  1.00  0.00    -0.352 N 
ATOM      4  C   UNL     1      -0.135  -1.874   7.193  1.00  0.00     0.258 C 
ATOM      5  O   UNL     1      -0.763  -2.011   6.139  1.00  0.00    -0.269 OA
ATOM      6  H   UNL     1      -1.775  -1.293   8.137  1.00  0.00     0.163 HD
BRANCH   4   7
ATOM      7  C   UNL     1       1.385  -1.794   7.197  1.00  0.00     0.081 C 
ATOM      8  C   UNL     1       2.082  -1.376   6.110  1.00  0.00     0.029 C 
BRANCH   8   9
ATOM      9  C   UNL     1       1.712  -0.902   4.745  1.00  0.00    -0.020 A 
ATOM     10  C   UNL     1       1.295   0.113   2.119  1.00  0.00     0.160 A 
ATOM     11  C   UNL     1       0.350   0.319   3.130  1.00  0.00     0.051 A 
ATOM     12  C   UNL     1       2.476  -0.571   2.413  1.00  0.00     0.161 A 
ATOM     13  C   UNL     1       0.570  -0.162   4.432  1.00  0.00     0.012 A 
ATOM     14  C   UNL     1       2.655  -1.083   3.715  1.00  0.00     0.058 A 
BRANCH  10  15
ATOM     15  O   UNL     1       1.077   0.736   0.919  1.00  0.00    -0.493 OA
ATOM     16  C   UNL     1       0.260  -0.041   0.043  1.00  0.00     0.278 C 
ENDBRANCH  10  15
BRANCH  12  17
ATOM     17  O   UNL     1       3.559  -0.801   1.608  1.00  0.00    -0.493 OA
ATOM     18  C   UNL     1       3.509  -0.411   0.245  1.00  0.00     0.278 C 
ENDBRANCH  12  17
ENDBRANCH   8   9
BRANCH   7  19
ATOM     19  S   UNL     1       2.168  -2.201   8.701  1.00  0.00    -0.045 SA
BRANCH  19  20
ATOM     20  C   UNL     1       3.774  -2.652   8.320  1.00  0.00     0.188 A 
ATOM     21  N   UNL     1       4.802  -1.845   8.240  1.00  0.00    -0.206 NA
ATOM     22  N   UNL     1       4.203  -3.937   8.454  1.00  0.00    -0.254 N 
ATOM     23  C   UNL     1       5.868  -2.696   8.372  1.00  0.00     0.148 A 
ATOM     24  N   UNL     1       5.548  -3.993   8.488  1.00  0.00    -0.158 NA
ATOM     25  H   UNL     1       3.610  -4.720   8.518  1.00  0.00     0.192 HD
ATOM     26  C   UNL     1       7.247  -2.188   8.503  1.00  0.00     0.092 C 
ENDBRANCH  19  20
ENDBRANCH   7  19
ENDBRANCH   4   7
ENDBRANCH   2   3
ENDBRANCH   1   2
BRANCH   1  27
ATOM     27  C   UNL     1      -1.900  -0.424  11.086  1.00  0.00     0.118 C 
BRANCH  27  28
ATOM     28  N   UNL     1      -2.832  -1.361  11.731  1.00  0.00    -0.352 N 
ATOM     29  C   UNL     1      -4.130  -1.154  12.170  1.00  0.00     0.251 C 
ATOM     30  H   UNL     1      -2.482  -2.270  11.872  1.00  0.00     0.163 HD
ATOM     31  O   UNL     1      -4.684  -1.946  12.904  1.00  0.00    -0.269 OA
BRANCH  29  32
ATOM     32  C   UNL     1      -4.822   0.068  11.728  1.00  0.00     0.039 A 
ATOM     33  C   UNL     1      -5.593   0.833  12.607  1.00  0.00     0.014 A 
ATOM     34  C   UNL     1      -4.618   0.473  10.416  1.00  0.00     0.014 A 
ATOM     35  C   UNL     1      -6.076   2.063  12.168  1.00  0.00     0.010 A 
ATOM     36  C   UNL     1      -4.893   1.763  10.068  1.00  0.00     0.010 A 
ATOM     37  C   UNL     1      -5.695   2.529  10.901  1.00  0.00    -0.014 A 
BRANCH  37  38
ATOM     38  C   UNL     1      -6.050   3.862  10.438  1.00  0.00     0.031 A 
ATOM     39  C   UNL     1      -5.629   4.965  11.340  1.00  0.00     0.074 A 
ATOM     40  C   UNL     1      -6.506   4.083   9.185  1.00  0.00     0.049 A 
ATOM     41  N   UNL     1      -6.387   5.787  11.986  1.00  0.00    -0.248 NA
ATOM     42  C   UNL     1      -4.199   5.093  11.669  1.00  0.00     0.031 C 
ATOM     43  C   UNL     1      -6.663   3.126   8.080  1.00  0.00     0.029 A 
ATOM     44  N   UNL     1      -6.827   5.262   8.595  1.00  0.00    -0.354 N 
ATOM     45  C   UNL     1      -5.532   6.660  12.654  1.00  0.00     0.074 A 
ATOM     46  C   UNL     1      -4.218   6.079  12.569  1.00  0.00     0.031 C 
ATOM     47  C   UNL     1      -6.807   3.794   6.915  1.00  0.00     0.029 A 
ATOM     48  C   UNL     1      -6.939   5.206   7.211  1.00  0.00     0.049 A 
ATOM     49  H   UNL     1      -6.968   6.091   9.106  1.00  0.00     0.167 HD
ATOM     50  C   UNL     1      -5.948   7.907  13.009  1.00  0.00     0.037 A 
ATOM     51  C   UNL     1      -7.101   6.259   6.374  1.00  0.00     0.037 A 
ATOM     52  C   UNL     1      -7.388   7.997  12.974  1.00  0.00     0.049 A 
ATOM     53  C   UNL     1      -7.606   7.390   7.195  1.00  0.00     0.074 A 
ATOM     54  C   UNL     1      -8.413   7.335  13.624  1.00  0.00     0.029 A 
ATOM     55  N   UNL     1      -7.972   8.593  11.882  1.00  0.00    -0.354 N 
ATOM     56  N   UNL     1      -8.784   7.404   7.756  1.00  0.00    -0.248 NA
ATOM     57  C   UNL     1      -6.619   8.278   7.791  1.00  0.00     0.031 C 
ATOM     58  C   UNL     1      -9.416   7.144  12.628  1.00  0.00     0.029 A 
ATOM     59  C   UNL     1      -8.984   7.770  11.458  1.00  0.00     0.049 A 
ATOM     60  H   UNL     1      -7.711   9.453  11.478  1.00  0.00     0.167 HD
ATOM     61  C   UNL     1      -8.570   7.952   9.012  1.00  0.00     0.074 A 
ATOM     62  C   UNL     1      -7.234   8.543   8.947  1.00  0.00     0.031 C 
ATOM     63  C   UNL     1      -9.363   7.618  10.073  1.00  0.00     0.037 A 
BRANCH  50  64
ATOM     64  C   UNL     1      -5.070   9.137  13.017  1.00  0.00     0.064 A 
ATOM     65  C   UNL     1      -5.604  10.353  13.491  1.00  0.00     0.173 A 
ATOM     66  C   UNL     1      -3.854   9.248  12.307  1.00  0.00     0.173 A 
ATOM     67  F   UNL     1      -6.760  10.373  14.174  1.00  0.00    -0.203 F 
ATOM     68  C   UNL     1      -5.019  11.586  13.191  1.00  0.00     0.198 A 
ATOM     69  C   UNL     1      -3.245  10.476  12.057  1.00  0.00     0.198 A 
ATOM     70  F   UNL     1      -3.264   8.197  11.729  1.00  0.00    -0.203 F 
ATOM     71  F   UNL     1      -5.638  12.720  13.546  1.00  0.00    -0.200 F 
ATOM     72  C   UNL     1      -3.844  11.647  12.466  1.00  0.00     0.200 A 
ATOM     73  F   UNL     1      -2.114  10.513  11.338  1.00  0.00    -0.200 F 
ATOM     74  F   UNL     1      -3.318  12.828  12.117  1.00  0.00    -0.200 F 
ENDBRANCH  50  64
BRANCH  51  75
ATOM     75  C   UNL     1      -6.558   6.438   5.008  1.00  0.00     0.064 A 
ATOM     76  C   UNL     1      -7.053   7.441   4.159  1.00  0.00     0.173 A 
ATOM     77  C   UNL     1      -5.357   5.818   4.610  1.00  0.00     0.173 A 
ATOM     78  F   UNL     1      -8.169   8.109   4.485  1.00  0.00    -0.203 F 
ATOM     79  C   UNL     1      -6.370   7.823   2.998  1.00  0.00     0.198 A 
ATOM     80  C   UNL     1      -4.680   6.196   3.449  1.00  0.00     0.198 A 
ATOM     81  F   UNL     1      -4.765   4.901   5.389  1.00  0.00    -0.203 F 
ATOM     82  F   UNL     1      -6.840   8.829   2.247  1.00  0.00    -0.200 F 
ATOM     83  C   UNL     1      -5.178   7.208   2.651  1.00  0.00     0.200 A 
ATOM     84  F   UNL     1      -3.509   5.617   3.144  1.00  0.00    -0.200 F 
ATOM     85  F   UNL     1      -4.491   7.618   1.576  1.00  0.00    -0.200 F 
ENDBRANCH  51  75
BRANCH  63  86
ATOM     86  C   UNL     1     -10.616   6.831   9.795  1.00  0.00     0.064 A 
ATOM     87  C   UNL     1     -10.631   5.533   9.253  1.00  0.00     0.173 A 
ATOM     88  C   UNL     1     -11.839   7.353  10.235  1.00  0.00     0.173 A 
ATOM     89  F   UNL     1      -9.497   4.917   8.903  1.00  0.00    -0.203 F 
ATOM     90  C   UNL     1     -11.819   4.814   9.118  1.00  0.00     0.198 A 
ATOM     91  C   UNL     1     -13.018   6.620  10.134  1.00  0.00     0.198 A 
ATOM     92  F   UNL     1     -11.882   8.563  10.814  1.00  0.00    -0.203 F 
ATOM     93  F   UNL     1     -11.803   3.582   8.588  1.00  0.00    -0.200 F 
ATOM     94  C   UNL     1     -13.010   5.356   9.566  1.00  0.00     0.200 A 
ATOM     95  F   UNL     1     -14.161   7.129  10.616  1.00  0.00    -0.200 F 
ATOM     96  F   UNL     1     -14.147   4.651   9.476  1.00  0.00    -0.200 F 
ENDBRANCH  63  86
ENDBRANCH  37  38
ENDBRANCH  29  32
ENDBRANCH  27  28
ENDBRANCH   1  27
TORSDOF 15
