REMARK SMILES O=C(NCCCNC(=O)c1ccccc1-c1ccc(/C=C2/SC(=S)N(Cc3ccccc3)C2=O)o1)c1ccc(-c2c3nc(c(-c4c(F)c(F)c(F)c(F)c4F)c4ccc([nH]4)c(-c4c(F)c(F)c(F)c(F)c4F)c4nc(c(-c5c(F)c(F)c(F)c(F)c5F)c5ccc2[nH]5)C=C4)C=C3)cc1
REMARK SMILES IDX 6 1 5 2 4 3 3 4 1 5 2 6 36 8 37 9 98 10 38 11 97 12 39 13
REMARK SMILES IDX 40 14 41 15 91 16 42 17 96 18 90 19 92 20 43 21 95 22 89 23
REMARK SMILES IDX 88 24 44 26 76 27 56 28 75 29 57 30 60 31 74 32 93 33 58 34
REMARK SMILES IDX 59 35 73 37 94 38 61 39 45 40 46 41 54 42 47 43 48 44 52 45
REMARK SMILES IDX 55 46 49 47 50 48 53 49 51 50 77 51 78 52 86 53 79 54 80 55
REMARK SMILES IDX 84 56 87 57 81 58 82 59 85 60 83 61 62 62 63 63 71 64 64 65
REMARK SMILES IDX 65 66 69 67 72 68 66 69 67 70 70 71 68 72 7 73 8 74 9 76
REMARK SMILES IDX 10 77 11 78 15 79 12 80 14 81 13 82 16 83 17 84 35 85 18 86
REMARK SMILES IDX 19 87 20 88 21 89 22 90 33 91 23 92 25 93 34 94 24 95 26 96
REMARK SMILES IDX 27 97 28 98 32 99 29 100 31 101 30 102
REMARK H PARENT 3 7 92 25 60 36 7 75
REMARK Flexibility Score: inf
ROOT
ATOM      1  C   UNL     1       4.732   0.075  -3.611  1.00  0.00     0.118 C 
ENDROOT
BRANCH   1   2
ATOM      2  C   UNL     1       5.168  -0.253  -2.201  1.00  0.00     0.042 C 
BRANCH   2   3
ATOM      3  C   UNL     1       4.612   0.714  -1.172  1.00  0.00     0.118 C 
BRANCH   3   4
ATOM      4  N   UNL     1       3.160   0.633  -1.020  1.00  0.00    -0.352 N 
ATOM      5  O   UNL     1       1.175  -0.006  -0.159  1.00  0.00    -0.269 OA
ATOM      6  C   UNL     1       2.389   0.103  -0.011  1.00  0.00     0.251 C 
ATOM      7  H   UNL     1       2.648   1.024  -1.765  1.00  0.00     0.163 HD
BRANCH   6   8
ATOM      8  C   UNL     1       3.029  -0.371   1.235  1.00  0.00     0.039 A 
ATOM      9  C   UNL     1       4.091   0.336   1.786  1.00  0.00     0.014 A 
ATOM     10  C   UNL     1       2.588  -1.549   1.847  1.00  0.00     0.014 A 
ATOM     11  C   UNL     1       4.873  -0.254   2.763  1.00  0.00     0.010 A 
ATOM     12  C   UNL     1       3.282  -2.061   2.950  1.00  0.00     0.010 A 
ATOM     13  C   UNL     1       4.464  -1.444   3.385  1.00  0.00    -0.014 A 
BRANCH  13  14
ATOM     14  C   UNL     1       5.275  -1.953   4.522  1.00  0.00     0.031 A 
ATOM     15  C   UNL     1       5.928  -3.307   4.485  1.00  0.00     0.074 A 
ATOM     16  C   UNL     1       5.486  -1.128   5.568  1.00  0.00     0.049 A 
ATOM     17  N   UNL     1       6.713  -3.865   5.374  1.00  0.00    -0.248 NA
ATOM     18  C   UNL     1       5.664  -4.151   3.310  1.00  0.00     0.031 C 
ATOM     19  C   UNL     1       4.891   0.204   5.720  1.00  0.00     0.029 A 
ATOM     20  N   UNL     1       6.283  -1.258   6.675  1.00  0.00    -0.354 N 
ATOM     21  C   UNL     1       7.023  -5.124   4.875  1.00  0.00     0.074 A 
ATOM     22  C   UNL     1       6.316  -5.264   3.620  1.00  0.00     0.031 C 
ATOM     23  C   UNL     1       5.403   0.797   6.805  1.00  0.00     0.029 A 
ATOM     24  C   UNL     1       6.287  -0.143   7.479  1.00  0.00     0.049 A 
ATOM     25  H   UNL     1       6.801  -2.070   6.875  1.00  0.00     0.167 HD
ATOM     26  C   UNL     1       7.832  -6.069   5.413  1.00  0.00     0.037 A 
ATOM     27  C   UNL     1       6.912   0.092   8.646  1.00  0.00     0.037 A 
ATOM     28  C   UNL     1       8.540  -5.916   6.660  1.00  0.00     0.049 A 
ATOM     29  C   UNL     1       7.786  -0.981   9.223  1.00  0.00     0.074 A 
ATOM     30  C   UNL     1       9.382  -6.815   7.293  1.00  0.00     0.029 A 
ATOM     31  N   UNL     1       8.491  -4.786   7.465  1.00  0.00    -0.354 N 
ATOM     32  N   UNL     1       8.073  -2.163   8.735  1.00  0.00    -0.248 NA
ATOM     33  C   UNL     1       8.420  -0.690  10.514  1.00  0.00     0.031 C 
ATOM     34  C   UNL     1       9.810  -6.246   8.497  1.00  0.00     0.029 A 
ATOM     35  C   UNL     1       9.277  -4.971   8.592  1.00  0.00     0.049 A 
ATOM     36  H   UNL     1       7.974  -3.972   7.264  1.00  0.00     0.167 HD
ATOM     37  C   UNL     1       8.925  -2.755   9.654  1.00  0.00     0.074 A 
ATOM     38  C   UNL     1       9.138  -1.786  10.710  1.00  0.00     0.031 C 
ATOM     39  C   UNL     1       9.474  -3.994   9.633  1.00  0.00     0.037 A 
BRANCH  26  40
ATOM     40  C   UNL     1       7.994  -7.362   4.665  1.00  0.00     0.064 A 
ATOM     41  C   UNL     1       8.725  -7.434   3.469  1.00  0.00     0.173 A 
ATOM     42  C   UNL     1       7.465  -8.556   5.180  1.00  0.00     0.173 A 
ATOM     43  F   UNL     1       9.243  -6.322   2.927  1.00  0.00    -0.203 F 
ATOM     44  C   UNL     1       8.903  -8.648   2.809  1.00  0.00     0.198 A 
ATOM     45  C   UNL     1       7.669  -9.772   4.532  1.00  0.00     0.198 A 
ATOM     46  F   UNL     1       6.764  -8.547   6.324  1.00  0.00    -0.203 F 
ATOM     47  F   UNL     1       9.573  -8.685   1.648  1.00  0.00    -0.200 F 
ATOM     48  C   UNL     1       8.383  -9.816   3.345  1.00  0.00     0.200 A 
ATOM     49  F   UNL     1       7.178 -10.902   5.059  1.00  0.00    -0.200 F 
ATOM     50  F   UNL     1       8.567 -10.985   2.714  1.00  0.00    -0.200 F 
ENDBRANCH  26  40
BRANCH  27  51
ATOM     51  C   UNL     1       6.703   1.385   9.349  1.00  0.00     0.064 A 
ATOM     52  C   UNL     1       7.750   2.301   9.516  1.00  0.00     0.173 A 
ATOM     53  C   UNL     1       5.445   1.730   9.867  1.00  0.00     0.173 A 
ATOM     54  F   UNL     1       8.975   2.011   9.053  1.00  0.00    -0.203 F 
ATOM     55  C   UNL     1       7.551   3.502  10.194  1.00  0.00     0.198 A 
ATOM     56  C   UNL     1       5.239   2.947  10.510  1.00  0.00     0.198 A 
ATOM     57  F   UNL     1       4.407   0.892   9.726  1.00  0.00    -0.203 F 
ATOM     58  F   UNL     1       8.581   4.338  10.386  1.00  0.00    -0.200 F 
ATOM     59  C   UNL     1       6.295   3.827  10.684  1.00  0.00     0.200 A 
ATOM     60  F   UNL     1       4.018   3.265  10.960  1.00  0.00    -0.200 F 
ATOM     61  F   UNL     1       6.104   4.986  11.329  1.00  0.00    -0.200 F 
ENDBRANCH  27  51
BRANCH  39  62
ATOM     62  C   UNL     1      10.375  -4.352  10.778  1.00  0.00     0.064 A 
ATOM     63  C   UNL     1       9.869  -4.575  12.068  1.00  0.00     0.173 A 
ATOM     64  C   UNL     1      11.758  -4.473  10.583  1.00  0.00     0.173 A 
ATOM     65  F   UNL     1       8.555  -4.452  12.309  1.00  0.00    -0.203 F 
ATOM     66  C   UNL     1      10.722  -4.870  13.128  1.00  0.00     0.198 A 
ATOM     67  C   UNL     1      12.604  -4.800  11.639  1.00  0.00     0.198 A 
ATOM     68  F   UNL     1      12.290  -4.274   9.368  1.00  0.00    -0.203 F 
ATOM     69  F   UNL     1      10.224  -5.016  14.364  1.00  0.00    -0.200 F 
ATOM     70  C   UNL     1      12.086  -4.987  12.912  1.00  0.00     0.200 A 
ATOM     71  F   UNL     1      13.921  -4.924  11.427  1.00  0.00    -0.200 F 
ATOM     72  F   UNL     1      12.906  -5.268  13.934  1.00  0.00    -0.200 F 
ENDBRANCH  39  62
ENDBRANCH  13  14
ENDBRANCH   6   8
ENDBRANCH   3   4
ENDBRANCH   2   3
ENDBRANCH   1   2
BRANCH   1  73
ATOM     73  N   UNL     1       5.165   1.389  -4.061  1.00  0.00    -0.352 N 
ATOM     74  C   UNL     1       5.747   1.740  -5.252  1.00  0.00     0.252 C 
ATOM     75  H   UNL     1       5.019   2.126  -3.424  1.00  0.00     0.163 HD
ATOM     76  O   UNL     1       6.045   2.910  -5.470  1.00  0.00    -0.269 OA
BRANCH  74  77
ATOM     77  C   UNL     1       6.067   0.702  -6.253  1.00  0.00     0.050 A 
ATOM     78  C   UNL     1       7.422   0.551  -6.575  1.00  0.00     0.014 A 
ATOM     79  C   UNL     1       5.086  -0.119  -6.841  1.00  0.00     0.030 A 
ATOM     80  C   UNL     1       7.817  -0.457  -7.450  1.00  0.00     0.001 A 
ATOM     81  C   UNL     1       5.505  -1.139  -7.704  1.00  0.00     0.013 A 
ATOM     82  C   UNL     1       6.861  -1.308  -8.004  1.00  0.00     0.001 A 
BRANCH  79  83
ATOM     83  C   UNL     1       3.671   0.050  -6.551  1.00  0.00     0.135 A 
ATOM     84  C   UNL     1       2.807   1.118  -6.606  1.00  0.00     0.051 A 
ATOM     85  O   UNL     1       3.059  -1.017  -5.957  1.00  0.00    -0.457 OA
ATOM     86  C   UNL     1       1.614   0.687  -5.984  1.00  0.00     0.051 A 
ATOM     87  C   UNL     1       1.796  -0.631  -5.578  1.00  0.00     0.128 A 
BRANCH  87  88
ATOM     88  C   UNL     1       0.893  -1.452  -4.851  1.00  0.00     0.068 C 
ATOM     89  C   UNL     1      -0.203  -1.947  -5.436  1.00  0.00     0.084 C 
ATOM     90  S   UNL     1      -1.572  -2.560  -4.596  1.00  0.00    -0.054 SA
ATOM     91  C   UNL     1      -0.512  -1.877  -6.882  1.00  0.00     0.266 C 
ATOM     92  C   UNL     1      -2.635  -2.242  -5.976  1.00  0.00     0.148 C 
ATOM     93  N   UNL     1      -1.878  -1.874  -7.067  1.00  0.00    -0.288 N 
ATOM     94  O   UNL     1       0.335  -1.873  -7.767  1.00  0.00    -0.268 OA
ATOM     95  S   UNL     1      -4.291  -2.399  -5.870  1.00  0.00    -0.052 S 
BRANCH  93  96
ATOM     96  C   UNL     1      -2.387  -1.552  -8.397  1.00  0.00     0.163 C 
BRANCH  96  97
ATOM     97  C   UNL     1      -2.464  -0.055  -8.645  1.00  0.00    -0.028 A 
ATOM     98  C   UNL     1      -3.703   0.568  -8.850  1.00  0.00     0.005 A 
ATOM     99  C   UNL     1      -1.302   0.732  -8.725  1.00  0.00     0.005 A 
ATOM    100  C   UNL     1      -3.773   1.936  -9.132  1.00  0.00     0.000 A 
ATOM    101  C   UNL     1      -1.375   2.101  -8.989  1.00  0.00     0.000 A 
ATOM    102  C   UNL     1      -2.611   2.701  -9.199  1.00  0.00     0.000 A 
ENDBRANCH  96  97
ENDBRANCH  93  96
ENDBRANCH  87  88
ENDBRANCH  79  83
ENDBRANCH  74  77
ENDBRANCH   1  73
TORSDOF 14
