REMARK SMILES C/C=C(\C)[C@@H]1C(C)=C[C@@H]2[C@H]([C@@H]1/C=C/C=C/C(=O)NCCCNC(=O)c1ccc(-c3c4nc(c(-c5c(F)c(F)c(F)c(F)c5F)c5ccc([nH]5)c(-c5c(F)c(F)c(F)c(F)c5F)c5nc(c(-c6c(F)c(F)c(F)c(F)c6F)c6ccc3[nH]6)C=C5)C=C4)cc1)[C@@H](C)CC[C@@H]2O
REMARK SMILES IDX 19 1 18 2 16 3 17 4 15 6 14 7 13 8 12 9 11 10 5 11 6 12 7 13
REMARK SMILES IDX 8 14 10 15 9 16 88 17 92 18 89 19 90 20 91 21 3 22 1 23 2 24
REMARK SMILES IDX 4 25 93 26 20 28 21 29 22 30 23 31 24 33 25 34 26 35 87 36
REMARK SMILES IDX 27 37 86 38 28 39 29 40 30 41 80 42 31 43 85 44 79 45 81 46
REMARK SMILES IDX 32 47 84 48 78 49 77 50 33 52 65 53 45 54 64 55 46 56 49 57
REMARK SMILES IDX 63 58 82 59 47 60 48 61 62 63 83 64 50 65 34 66 35 67 43 68
REMARK SMILES IDX 36 69 37 70 41 71 44 72 38 73 39 74 42 75 40 76 66 77 67 78
REMARK SMILES IDX 75 79 68 80 69 81 73 82 76 83 70 84 71 85 74 86 72 87 51 88
REMARK SMILES IDX 52 89 60 90 53 91 54 92 58 93 61 94 55 95 56 96 59 97 57 98
REMARK H PARENT 18 5 93 27 22 32 81 51 49 62
REMARK Flexibility Score: inf
ROOT
ATOM      1  C   UNL     1      -6.775  -3.308   4.763  1.00  0.00     0.118 C 
ENDROOT
BRANCH   1   2
ATOM      2  N   UNL     1      -7.222  -2.138   5.508  1.00  0.00    -0.352 N 
ATOM      3  C   UNL     1      -6.636  -0.919   5.673  1.00  0.00     0.243 C 
ATOM      4  O   UNL     1      -7.248  -0.015   6.236  1.00  0.00    -0.270 OA
ATOM      5  H   UNL     1      -8.088  -2.246   5.965  1.00  0.00     0.163 HD
BRANCH   3   6
ATOM      6  C   UNL     1      -5.303  -0.654   5.091  1.00  0.00     0.071 C 
ATOM      7  C   UNL     1      -4.264  -1.472   5.297  1.00  0.00     0.005 C 
BRANCH   7   8
ATOM      8  C   UNL     1      -2.990  -1.323   4.640  1.00  0.00    -0.004 C 
ATOM      9  C   UNL     1      -2.158  -2.370   4.528  1.00  0.00    -0.022 C 
BRANCH   9  10
ATOM     10  C   UNL     1      -0.831  -2.353   3.793  1.00  0.00     0.027 C 
ATOM     11  C   UNL     1      -0.912  -2.806   2.274  1.00  0.00     0.047 C 
ATOM     12  C   UNL     1       0.190  -3.768   1.854  1.00  0.00    -0.069 C 
ATOM     13  C   UNL     1       0.595  -3.766   0.406  1.00  0.00     0.040 C 
ATOM     14  C   UNL     1       0.753  -4.607   2.740  1.00  0.00    -0.021 C 
ATOM     15  C   UNL     1       0.221  -3.119   4.666  1.00  0.00     0.009 C 
ATOM     16  C   UNL     1       0.341  -4.591   4.196  1.00  0.00     0.044 C 
ATOM     17  C   UNL     1       1.629  -2.439   4.737  1.00  0.00    -0.010 C 
ATOM     18  C   UNL     1       1.291  -5.363   5.131  1.00  0.00     0.121 C 
ATOM     19  C   UNL     1       1.575  -1.025   5.330  1.00  0.00     0.008 C 
ATOM     20  C   UNL     1       2.604  -3.278   5.594  1.00  0.00     0.006 C 
ATOM     21  C   UNL     1       2.681  -4.742   5.178  1.00  0.00     0.033 C 
BRANCH  11  22
ATOM     22  C   UNL     1      -2.279  -3.316   1.757  1.00  0.00    -0.070 C 
ATOM     23  C   UNL     1      -4.317  -2.882   0.266  1.00  0.00     0.035 C 
ATOM     24  C   UNL     1      -2.994  -2.565   0.891  1.00  0.00    -0.031 C 
ATOM     25  C   UNL     1      -2.716  -4.694   2.203  1.00  0.00     0.040 C 
ENDBRANCH  11  22
BRANCH  18  26
ATOM     26  O   UNL     1       1.365  -6.743   4.780  1.00  0.00    -0.393 OA
ATOM     27  H   UNL     1       1.740  -6.830   3.890  1.00  0.00     0.210 HD
ENDBRANCH  18  26
ENDBRANCH   9  10
ENDBRANCH   7   8
ENDBRANCH   3   6
ENDBRANCH   1   2
BRANCH   1  28
ATOM     28  C   UNL     1      -6.384  -4.459   5.690  1.00  0.00     0.042 C 
BRANCH  28  29
ATOM     29  C   UNL     1      -7.575  -5.139   6.362  1.00  0.00     0.118 C 
BRANCH  29  30
ATOM     30  N   UNL     1      -8.386  -5.892   5.416  1.00  0.00    -0.352 N 
ATOM     31  C   UNL     1      -8.792  -7.201   5.441  1.00  0.00     0.251 C 
ATOM     32  H   UNL     1      -8.693  -5.379   4.633  1.00  0.00     0.163 HD
ATOM     33  O   UNL     1      -9.322  -7.687   4.441  1.00  0.00    -0.269 OA
BRANCH  31  34
ATOM     34  C   UNL     1      -8.592  -8.046   6.639  1.00  0.00     0.039 A 
ATOM     35  C   UNL     1      -8.213  -9.381   6.460  1.00  0.00     0.014 A 
ATOM     36  C   UNL     1      -8.828  -7.558   7.928  1.00  0.00     0.014 A 
ATOM     37  C   UNL     1      -8.021 -10.209   7.569  1.00  0.00     0.010 A 
ATOM     38  C   UNL     1      -8.578  -8.367   9.037  1.00  0.00     0.010 A 
ATOM     39  C   UNL     1      -8.175  -9.701   8.868  1.00  0.00    -0.014 A 
BRANCH  39  40
ATOM     40  C   UNL     1      -7.915 -10.549  10.060  1.00  0.00     0.031 A 
ATOM     41  C   UNL     1      -9.036 -10.914  10.992  1.00  0.00     0.074 A 
ATOM     42  C   UNL     1      -6.656 -10.938  10.336  1.00  0.00     0.049 A 
ATOM     43  N   UNL     1      -8.992 -11.575  12.122  1.00  0.00    -0.248 NA
ATOM     44  C   UNL     1     -10.382 -10.455  10.618  1.00  0.00     0.031 C 
ATOM     45  C   UNL     1      -5.477 -10.615   9.531  1.00  0.00     0.029 A 
ATOM     46  N   UNL     1      -6.155 -11.678  11.378  1.00  0.00    -0.354 N 
ATOM     47  C   UNL     1     -10.295 -11.595  12.601  1.00  0.00     0.074 A 
ATOM     48  C   UNL     1     -11.101 -10.846  11.661  1.00  0.00     0.031 C 
ATOM     49  C   UNL     1      -4.393 -11.165  10.101  1.00  0.00     0.029 A 
ATOM     50  C   UNL     1      -4.793 -11.849  11.327  1.00  0.00     0.049 A 
ATOM     51  H   UNL     1      -6.719 -12.050  12.094  1.00  0.00     0.167 HD
ATOM     52  C   UNL     1     -10.778 -12.199  13.714  1.00  0.00     0.037 A 
ATOM     53  C   UNL     1      -3.961 -12.478  12.178  1.00  0.00     0.037 A 
ATOM     54  C   UNL     1      -9.980 -12.969  14.632  1.00  0.00     0.049 A 
ATOM     55  C   UNL     1      -4.523 -13.143  13.403  1.00  0.00     0.074 A 
ATOM     56  C   UNL     1     -10.388 -13.669  15.754  1.00  0.00     0.029 A 
ATOM     57  N   UNL     1      -8.607 -13.139  14.534  1.00  0.00    -0.354 N 
ATOM     58  N   UNL     1      -5.766 -13.205  13.814  1.00  0.00    -0.248 NA
ATOM     59  C   UNL     1      -3.566 -13.832  14.280  1.00  0.00     0.031 C 
ATOM     60  C   UNL     1      -9.257 -14.232  16.355  1.00  0.00     0.029 A 
ATOM     61  C   UNL     1      -8.150 -13.918  15.585  1.00  0.00     0.049 A 
ATOM     62  H   UNL     1      -8.040 -12.761  13.822  1.00  0.00     0.167 HD
ATOM     63  C   UNL     1      -5.745 -13.958  14.980  1.00  0.00     0.074 A 
ATOM     64  C   UNL     1      -4.368 -14.342  15.205  1.00  0.00     0.031 C 
ATOM     65  C   UNL     1      -6.776 -14.298  15.791  1.00  0.00     0.037 A 
BRANCH  52  66
ATOM     66  C   UNL     1     -12.243 -12.053  14.002  1.00  0.00     0.064 A 
ATOM     67  C   UNL     1     -13.213 -12.707  13.226  1.00  0.00     0.173 A 
ATOM     68  C   UNL     1     -12.683 -11.282  15.089  1.00  0.00     0.173 A 
ATOM     69  F   UNL     1     -12.845 -13.447  12.170  1.00  0.00    -0.203 F 
ATOM     70  C   UNL     1     -14.569 -12.572  13.512  1.00  0.00     0.198 A 
ATOM     71  C   UNL     1     -14.038 -11.172  15.388  1.00  0.00     0.198 A 
ATOM     72  F   UNL     1     -11.797 -10.642  15.866  1.00  0.00    -0.203 F 
ATOM     73  F   UNL     1     -15.479 -13.170  12.731  1.00  0.00    -0.200 F 
ATOM     74  C   UNL     1     -14.980 -11.811  14.596  1.00  0.00     0.200 A 
ATOM     75  F   UNL     1     -14.434 -10.447  16.444  1.00  0.00    -0.200 F 
ATOM     76  F   UNL     1     -16.286 -11.688  14.874  1.00  0.00    -0.200 F 
ENDBRANCH  52  66
BRANCH  53  77
ATOM     77  C   UNL     1      -2.506 -12.527  11.885  1.00  0.00     0.064 A 
ATOM     78  C   UNL     1      -1.893 -13.726  11.494  1.00  0.00     0.173 A 
ATOM     79  C   UNL     1      -1.701 -11.383  11.986  1.00  0.00     0.173 A 
ATOM     80  F   UNL     1      -2.619 -14.850  11.405  1.00  0.00    -0.203 F 
ATOM     81  C   UNL     1      -0.526 -13.782  11.232  1.00  0.00     0.198 A 
ATOM     82  C   UNL     1      -0.339 -11.436  11.699  1.00  0.00     0.198 A 
ATOM     83  F   UNL     1      -2.241 -10.212  12.353  1.00  0.00    -0.203 F 
ATOM     84  F   UNL     1       0.042 -14.950  10.900  1.00  0.00    -0.200 F 
ATOM     85  C   UNL     1       0.249 -12.636  11.328  1.00  0.00     0.200 A 
ATOM     86  F   UNL     1       0.405 -10.324  11.783  1.00  0.00    -0.200 F 
ATOM     87  F   UNL     1       1.563 -12.691  11.073  1.00  0.00    -0.200 F 
ENDBRANCH  53  77
BRANCH  65  88
ATOM     88  C   UNL     1      -6.459 -15.155  16.981  1.00  0.00     0.064 A 
ATOM     89  C   UNL     1      -5.793 -14.638  18.102  1.00  0.00     0.173 A 
ATOM     90  C   UNL     1      -6.859 -16.500  17.014  1.00  0.00     0.173 A 
ATOM     91  F   UNL     1      -5.377 -13.363  18.110  1.00  0.00    -0.203 F 
ATOM     92  C   UNL     1      -5.520 -15.443  19.204  1.00  0.00     0.198 A 
ATOM     93  C   UNL     1      -6.607 -17.294  18.129  1.00  0.00     0.198 A 
ATOM     94  F   UNL     1      -7.502 -17.040  15.968  1.00  0.00    -0.203 F 
ATOM     95  F   UNL     1      -4.845 -14.940  20.248  1.00  0.00    -0.200 F 
ATOM     96  C   UNL     1      -5.933 -16.767  19.220  1.00  0.00     0.200 A 
ATOM     97  F   UNL     1      -7.016 -18.570  18.147  1.00  0.00    -0.200 F 
ATOM     98  F   UNL     1      -5.674 -17.538  20.285  1.00  0.00    -0.200 F 
ENDBRANCH  65  88
ENDBRANCH  39  40
ENDBRANCH  31  34
ENDBRANCH  29  30
ENDBRANCH  28  29
ENDBRANCH   1  28
TORSDOF 14
