REMARK SMILES Cc1cccc(O[C@H]2CC[C@@]([NH2+]C(C)C)(C(=O)NCCCNC(=O)c3ccc(-c4c5nc(c(-c6c(F)c(F)c(F)c(F)c6F)c6ccc([nH]6)c(-c6c(F)c(F)c(F)c(F)c6F)c6nc(c(-c7c(F)c(F)c(F)c(F)c7F)c7ccc4[nH]7)C=C6)C=C5)cc3)C2)c1
REMARK SMILES IDX 20 1 19 2 18 3 16 4 17 5 11 7 8 8 9 9 88 10 10 11 7 12 6 13
REMARK SMILES IDX 1 14 2 15 3 16 89 17 4 18 5 19 12 20 13 23 14 24 15 25 21 26
REMARK SMILES IDX 22 27 23 28 24 30 25 31 26 32 87 33 27 34 86 35 28 36 29 37
REMARK SMILES IDX 30 38 80 39 31 40 85 41 79 42 81 43 32 44 84 45 78 46 77 47
REMARK SMILES IDX 33 49 65 50 45 51 64 52 46 53 49 54 63 55 82 56 47 57 48 58
REMARK SMILES IDX 62 60 83 61 50 62 34 63 35 64 43 65 36 66 37 67 41 68 44 69
REMARK SMILES IDX 38 70 39 71 42 72 40 73 66 74 67 75 75 76 68 77 69 78 73 79
REMARK SMILES IDX 76 80 70 81 71 82 74 83 72 84 51 85 52 86 60 87 53 88 54 89
REMARK SMILES IDX 58 90 61 91 55 92 56 93 59 94 57 95
REMARK H PARENT 18 6 12 21 12 22 22 29 81 48 49 59
REMARK Flexibility Score: inf
ROOT
ATOM      1  C   UNL     1       2.650   7.797  -0.231  1.00  0.00     0.042 C 
ENDROOT
BRANCH   1   2
ATOM      2  C   UNL     1       2.471   7.242   1.176  1.00  0.00     0.118 C 
BRANCH   2   3
ATOM      3  N   UNL     1       1.075   7.162   1.586  1.00  0.00    -0.351 N 
ATOM      4  C   UNL     1       0.222   6.086   1.640  1.00  0.00     0.281 C 
ATOM      5  O   UNL     1      -0.879   6.284   2.163  1.00  0.00    -0.268 OA
ATOM      6  H   UNL     1       0.678   8.018   1.869  1.00  0.00     0.163 HD
BRANCH   4   7
ATOM      7  C   UNL     1       0.644   4.684   1.085  1.00  0.00     0.179 C 
ATOM      8  C   UNL     1      -1.110   3.547  -0.234  1.00  0.00     0.180 C 
ATOM      9  C   UNL     1       0.123   3.700  -1.115  1.00  0.00     0.052 C 
ATOM     10  C   UNL     1      -0.495   3.627   1.168  1.00  0.00     0.124 C 
ATOM     11  C   UNL     1       0.900   4.818  -0.437  1.00  0.00     0.083 C 
BRANCH   8  12
ATOM     12  O   UNL     1      -2.015   4.639  -0.381  1.00  0.00    -0.490 OA
BRANCH  12  13
ATOM     13  C   UNL     1      -2.922   4.611  -1.403  1.00  0.00     0.119 A 
ATOM     14  C   UNL     1      -5.940   6.785  -2.248  1.00  0.00     0.044 C 
ATOM     15  C   UNL     1      -4.884   5.724  -2.328  1.00  0.00    -0.047 A 
ATOM     16  C   UNL     1      -4.849   4.852  -3.420  1.00  0.00     0.003 A 
ATOM     17  C   UNL     1      -3.908   5.601  -1.331  1.00  0.00     0.049 A 
ATOM     18  C   UNL     1      -3.874   3.858  -3.494  1.00  0.00     0.004 A 
ATOM     19  C   UNL     1      -2.919   3.730  -2.483  1.00  0.00     0.046 A 
ENDBRANCH  12  13
ENDBRANCH   8  12
BRANCH   7  20
ATOM     20  N   UNL     1       1.874   4.187   1.756  1.00  0.00    -0.332 N 
ATOM     21  H   UNL     1       2.656   4.748   1.418  1.00  0.00     0.347 HD
ATOM     22  H   UNL     1       1.921   3.196   1.520  1.00  0.00     0.347 HD
BRANCH  20  23
ATOM     23  C   UNL     1       1.900   4.230   3.225  1.00  0.00     0.176 C 
ATOM     24  C   UNL     1       1.234   3.019   3.875  1.00  0.00     0.075 C 
ATOM     25  C   UNL     1       3.375   4.285   3.641  1.00  0.00     0.075 C 
ENDBRANCH  20  23
ENDBRANCH   7  20
ENDBRANCH   4   7
ENDBRANCH   2   3
ENDBRANCH   1   2
BRANCH   1  26
ATOM     26  C   UNL     1       2.541   9.311  -0.301  1.00  0.00     0.118 C 
BRANCH  26  27
ATOM     27  N   UNL     1       3.830   9.995  -0.375  1.00  0.00    -0.352 N 
ATOM     28  C   UNL     1       4.094  11.354  -0.464  1.00  0.00     0.251 C 
ATOM     29  H   UNL     1       4.622   9.410  -0.358  1.00  0.00     0.163 HD
ATOM     30  O   UNL     1       5.236  11.769  -0.512  1.00  0.00    -0.269 OA
BRANCH  28  31
ATOM     31  C   UNL     1       2.956  12.298  -0.361  1.00  0.00     0.039 A 
ATOM     32  C   UNL     1       3.014  13.285   0.629  1.00  0.00     0.014 A 
ATOM     33  C   UNL     1       1.772  12.049  -1.047  1.00  0.00     0.014 A 
ATOM     34  C   UNL     1       1.827  13.828   1.110  1.00  0.00     0.010 A 
ATOM     35  C   UNL     1       0.590  12.495  -0.496  1.00  0.00     0.010 A 
ATOM     36  C   UNL     1       0.619  13.327   0.629  1.00  0.00    -0.014 A 
BRANCH  36  37
ATOM     37  C   UNL     1      -0.654  13.528   1.310  1.00  0.00     0.031 A 
ATOM     38  C   UNL     1      -1.662  14.446   0.745  1.00  0.00     0.074 A 
ATOM     39  C   UNL     1      -0.934  12.788   2.406  1.00  0.00     0.049 A 
ATOM     40  N   UNL     1      -2.627  14.976   1.417  1.00  0.00    -0.248 NA
ATOM     41  C   UNL     1      -1.626  14.880  -0.645  1.00  0.00     0.031 C 
ATOM     42  C   UNL     1      -2.230  12.622   3.058  1.00  0.00     0.029 A 
ATOM     43  N   UNL     1      -0.021  12.173   3.283  1.00  0.00    -0.354 N 
ATOM     44  C   UNL     1      -3.478  15.590   0.525  1.00  0.00     0.074 A 
ATOM     45  C   UNL     1      -2.777  15.554  -0.737  1.00  0.00     0.031 C 
ATOM     46  C   UNL     1      -2.027  12.244   4.331  1.00  0.00     0.029 A 
ATOM     47  C   UNL     1      -0.595  12.304   4.569  1.00  0.00     0.049 A 
ATOM     48  H   UNL     1       0.834  11.743   3.050  1.00  0.00     0.167 HD
ATOM     49  C   UNL     1      -4.731  15.941   0.939  1.00  0.00     0.037 A 
ATOM     50  C   UNL     1       0.001  13.049   5.543  1.00  0.00     0.037 A 
ATOM     51  C   UNL     1      -4.892  15.700   2.373  1.00  0.00     0.049 A 
ATOM     52  C   UNL     1      -0.861  14.176   6.060  1.00  0.00     0.074 A 
ATOM     53  C   UNL     1      -5.446  14.652   3.089  1.00  0.00     0.029 A 
ATOM     54  N   UNL     1      -4.155  16.453   3.282  1.00  0.00    -0.354 N 
ATOM     55  N   UNL     1      -1.861  14.687   5.397  1.00  0.00    -0.248 NA
ATOM     56  C   UNL     1      -0.645  14.834   7.345  1.00  0.00     0.031 C 
ATOM     57  C   UNL     1      -4.987  14.742   4.426  1.00  0.00     0.029 A 
ATOM     58  C   UNL     1      -4.175  15.858   4.529  1.00  0.00     0.049 A 
ATOM     59  H   UNL     1      -3.686  17.291   3.067  1.00  0.00     0.167 HD
ATOM     60  C   UNL     1      -2.409  15.712   6.121  1.00  0.00     0.074 A 
ATOM     61  C   UNL     1      -1.622  15.757   7.338  1.00  0.00     0.031 C 
ATOM     62  C   UNL     1      -3.463  16.444   5.653  1.00  0.00     0.037 A 
BRANCH  49  63
ATOM     63  C   UNL     1      -5.895  16.205   0.001  1.00  0.00     0.064 A 
ATOM     64  C   UNL     1      -7.221  15.919   0.397  1.00  0.00     0.173 A 
ATOM     65  C   UNL     1      -5.773  16.667  -1.322  1.00  0.00     0.173 A 
ATOM     66  F   UNL     1      -7.521  15.592   1.660  1.00  0.00    -0.203 F 
ATOM     67  C   UNL     1      -8.300  15.957  -0.492  1.00  0.00     0.198 A 
ATOM     68  C   UNL     1      -6.840  16.652  -2.228  1.00  0.00     0.198 A 
ATOM     69  F   UNL     1      -4.636  17.214  -1.767  1.00  0.00    -0.203 F 
ATOM     70  F   UNL     1      -9.533  15.661  -0.056  1.00  0.00    -0.200 F 
ATOM     71  C   UNL     1      -8.102  16.281  -1.817  1.00  0.00     0.200 A 
ATOM     72  F   UNL     1      -6.631  17.004  -3.505  1.00  0.00    -0.200 F 
ATOM     73  F   UNL     1      -9.124  16.270  -2.682  1.00  0.00    -0.200 F 
ENDBRANCH  49  63
BRANCH  50  74
ATOM     74  C   UNL     1       1.482  13.091   5.432  1.00  0.00     0.064 A 
ATOM     75  C   UNL     1       2.196  11.883   5.561  1.00  0.00     0.173 A 
ATOM     76  C   UNL     1       2.146  14.174   4.844  1.00  0.00     0.173 A 
ATOM     77  F   UNL     1       1.606  10.814   6.120  1.00  0.00    -0.203 F 
ATOM     78  C   UNL     1       3.467  11.729   5.014  1.00  0.00     0.198 A 
ATOM     79  C   UNL     1       3.428  14.020   4.311  1.00  0.00     0.198 A 
ATOM     80  F   UNL     1       1.517  15.345   4.675  1.00  0.00    -0.203 F 
ATOM     81  F   UNL     1       4.070  10.532   5.050  1.00  0.00    -0.200 F 
ATOM     82  C   UNL     1       4.071  12.791   4.364  1.00  0.00     0.200 A 
ATOM     83  F   UNL     1       4.003  15.039   3.655  1.00  0.00    -0.200 F 
ATOM     84  F   UNL     1       5.251  12.620   3.751  1.00  0.00    -0.200 F 
ENDBRANCH  50  74
BRANCH  62  85
ATOM     85  C   UNL     1      -3.986  17.719   6.263  1.00  0.00     0.064 A 
ATOM     86  C   UNL     1      -3.181  18.642   6.951  1.00  0.00     0.173 A 
ATOM     87  C   UNL     1      -5.323  18.126   6.033  1.00  0.00     0.173 A 
ATOM     88  F   UNL     1      -1.871  18.426   7.127  1.00  0.00    -0.203 F 
ATOM     89  C   UNL     1      -3.690  19.852   7.431  1.00  0.00     0.198 A 
ATOM     90  C   UNL     1      -5.812  19.358   6.464  1.00  0.00     0.198 A 
ATOM     91  F   UNL     1      -6.186  17.349   5.362  1.00  0.00    -0.203 F 
ATOM     92  F   UNL     1      -2.892  20.680   8.118  1.00  0.00    -0.200 F 
ATOM     93  C   UNL     1      -5.000  20.214   7.178  1.00  0.00     0.200 A 
ATOM     94  F   UNL     1      -7.068  19.718   6.165  1.00  0.00    -0.200 F 
ATOM     95  F   UNL     1      -5.470  21.395   7.601  1.00  0.00    -0.200 F 
ENDBRANCH  62  85
ENDBRANCH  36  37
ENDBRANCH  28  31
ENDBRANCH  26  27
ENDBRANCH   1  26
TORSDOF 14
