REMARK SMILES C/C(=N\NC(N)=S)c1nnn(-c2ccc(C(=O)NCCCNC(=O)c3ccc(-c4c5nc(c(-c6c(F)c(F)c(F)c(F)c6F)c6ccc([nH]6)c(-c6c(F)c(F)c(F)c(F)c6F)c6nc(c(-c7c(F)c(F)c(F)c(F)c7F)c7ccc4[nH]7)C=C6)C=C5)cc3)cc2)c1C
REMARK SMILES IDX 16 1 17 2 18 3 15 5 12 6 13 7 89 8 14 9 88 10 11 11 8 12
REMARK SMILES IDX 9 13 90 14 10 15 91 16 2 17 1 18 3 19 4 20 5 22 7 23 6 24
REMARK SMILES IDX 19 27 20 28 21 29 22 30 23 31 24 33 25 34 26 35 87 36 27 37
REMARK SMILES IDX 86 38 28 39 29 40 30 41 80 42 31 43 85 44 79 45 81 46 32 47
REMARK SMILES IDX 84 48 78 49 77 50 33 52 65 53 45 54 64 55 46 56 49 57 63 58
REMARK SMILES IDX 82 59 47 60 48 61 62 63 83 64 50 65 34 66 35 67 43 68 36 69
REMARK SMILES IDX 37 70 41 71 44 72 38 73 39 74 42 75 40 76 66 77 67 78 75 79
REMARK SMILES IDX 68 80 69 81 73 82 76 83 70 84 71 85 74 86 72 87 51 88 52 89
REMARK SMILES IDX 60 90 53 91 54 92 58 93 61 94 55 95 56 96 59 97 57 98
REMARK H PARENT 18 4 4 21 6 25 6 26 22 32 81 51 49 62
REMARK Flexibility Score: inf
ROOT
ATOM      1  C   UNL     1       6.540   6.968  -2.719  1.00  0.00     0.251 C 
ATOM      2  O   UNL     1       6.514   8.149  -2.373  1.00  0.00    -0.269 OA
ATOM      3  N   UNL     1       7.763   6.414  -3.031  1.00  0.00    -0.352 N 
ATOM      4  H   UNL     1       8.503   7.063  -3.053  1.00  0.00     0.163 HD
ENDROOT
BRANCH   1   5
ATOM      5  C   UNL     1       5.272   6.184  -2.728  1.00  0.00     0.039 A 
ATOM      6  C   UNL     1       2.990   4.607  -2.461  1.00  0.00     0.067 A 
ATOM      7  C   UNL     1       3.059   5.815  -1.767  1.00  0.00     0.029 A 
ATOM      8  C   UNL     1       3.973   4.245  -3.375  1.00  0.00     0.029 A 
ATOM      9  C   UNL     1       4.222   6.589  -1.884  1.00  0.00     0.016 A 
ATOM     10  C   UNL     1       5.082   5.061  -3.533  1.00  0.00     0.016 A 
BRANCH   6  11
ATOM     11  N   UNL     1       1.992   3.669  -2.169  1.00  0.00    -0.217 N 
ATOM     12  C   UNL     1       0.901   1.873  -1.637  1.00  0.00     0.132 A 
ATOM     13  N   UNL     1       0.006   2.839  -2.025  1.00  0.00    -0.128 NA
ATOM     14  C   UNL     1       2.181   2.385  -1.693  1.00  0.00     0.071 A 
ATOM     15  N   UNL     1       0.681   3.954  -2.271  1.00  0.00    -0.061 NA
ATOM     16  C   UNL     1       3.482   1.845  -1.230  1.00  0.00     0.069 C 
BRANCH  12  17
ATOM     17  C   UNL     1       0.473   0.618  -1.049  1.00  0.00     0.087 C 
ATOM     18  C   UNL     1       0.499   0.563   0.455  1.00  0.00     0.071 C 
ATOM     19  N   UNL     1       0.070  -0.289  -1.889  1.00  0.00    -0.176 NA
BRANCH  19  20
ATOM     20  N   UNL     1      -0.462  -1.477  -1.483  1.00  0.00    -0.254 N 
ATOM     21  H   UNL     1      -1.392  -1.638  -1.763  1.00  0.00     0.193 HD
BRANCH  20  22
ATOM     22  C   UNL     1       0.111  -2.488  -0.739  1.00  0.00     0.184 C 
ATOM     23  S   UNL     1       1.626  -2.587  -0.062  1.00  0.00    -0.040 S 
BRANCH  22  24
ATOM     24  N   UNL     1      -0.746  -3.544  -0.570  1.00  0.00    -0.375 N 
ATOM     25  H   UNL     1      -1.649  -3.512  -0.960  1.00  0.00     0.159 HD
ATOM     26  H   UNL     1      -0.458  -4.334  -0.059  1.00  0.00     0.159 HD
ENDBRANCH  22  24
ENDBRANCH  20  22
ENDBRANCH  19  20
ENDBRANCH  12  17
ENDBRANCH   6  11
ENDBRANCH   1   5
BRANCH   3  27
ATOM     27  C   UNL     1       8.165   5.045  -3.336  1.00  0.00     0.118 C 
BRANCH  27  28
ATOM     28  C   UNL     1       8.208   4.767  -4.847  1.00  0.00     0.042 C 
BRANCH  28  29
ATOM     29  C   UNL     1       9.493   5.231  -5.498  1.00  0.00     0.118 C 
BRANCH  29  30
ATOM     30  N   UNL     1      10.639   4.394  -5.149  1.00  0.00    -0.352 N 
ATOM     31  C   UNL     1      11.967   4.580  -5.494  1.00  0.00     0.251 C 
ATOM     32  H   UNL     1      10.443   3.601  -4.600  1.00  0.00     0.163 HD
ATOM     33  O   UNL     1      12.760   3.658  -5.465  1.00  0.00    -0.269 OA
BRANCH  31  34
ATOM     34  C   UNL     1      12.393   5.927  -5.916  1.00  0.00     0.039 A 
ATOM     35  C   UNL     1      13.268   6.107  -6.988  1.00  0.00     0.014 A 
ATOM     36  C   UNL     1      11.844   7.019  -5.252  1.00  0.00     0.014 A 
ATOM     37  C   UNL     1      13.509   7.402  -7.438  1.00  0.00     0.010 A 
ATOM     38  C   UNL     1      11.921   8.263  -5.819  1.00  0.00     0.010 A 
ATOM     39  C   UNL     1      12.805   8.476  -6.866  1.00  0.00    -0.014 A 
BRANCH  39  40
ATOM     40  C   UNL     1      12.931   9.823  -7.406  1.00  0.00     0.031 A 
ATOM     41  C   UNL     1      12.706   9.925  -8.870  1.00  0.00     0.074 A 
ATOM     42  C   UNL     1      13.071  10.924  -6.638  1.00  0.00     0.049 A 
ATOM     43  N   UNL     1      13.599  10.116  -9.783  1.00  0.00    -0.248 NA
ATOM     44  C   UNL     1      11.363   9.646  -9.400  1.00  0.00     0.031 C 
ATOM     45  C   UNL     1      12.980  11.038  -5.175  1.00  0.00     0.029 A 
ATOM     46  N   UNL     1      13.244  12.218  -7.026  1.00  0.00    -0.354 N 
ATOM     47  C   UNL     1      12.909  10.181 -10.989  1.00  0.00     0.074 A 
ATOM     48  C   UNL     1      11.575   9.714 -10.717  1.00  0.00     0.031 C 
ATOM     49  C   UNL     1      12.861  12.336  -4.825  1.00  0.00     0.029 A 
ATOM     50  C   UNL     1      13.072  13.146  -6.008  1.00  0.00     0.049 A 
ATOM     51  H   UNL     1      13.471  12.473  -7.949  1.00  0.00     0.167 HD
ATOM     52  C   UNL     1      13.431  10.865 -12.045  1.00  0.00     0.037 A 
ATOM     53  C   UNL     1      13.101  14.492  -6.131  1.00  0.00     0.037 A 
ATOM     54  C   UNL     1      14.810  11.205 -11.798  1.00  0.00     0.049 A 
ATOM     55  C   UNL     1      13.862  14.798  -7.363  1.00  0.00     0.074 A 
ATOM     56  C   UNL     1      16.004  10.525 -11.707  1.00  0.00     0.029 A 
ATOM     57  N   UNL     1      14.992  12.422 -11.195  1.00  0.00    -0.354 N 
ATOM     58  N   UNL     1      15.135  14.552  -7.509  1.00  0.00    -0.248 NA
ATOM     59  C   UNL     1      13.131  15.051  -8.596  1.00  0.00     0.031 C 
ATOM     60  C   UNL     1      16.793  11.258 -10.769  1.00  0.00     0.029 A 
ATOM     61  C   UNL     1      16.072  12.381 -10.358  1.00  0.00     0.049 A 
ATOM     62  H   UNL     1      14.425  13.214 -11.344  1.00  0.00     0.167 HD
ATOM     63  C   UNL     1      15.266  14.187  -8.836  1.00  0.00     0.074 A 
ATOM     64  C   UNL     1      14.058  14.682  -9.484  1.00  0.00     0.031 C 
ATOM     65  C   UNL     1      16.193  13.257  -9.211  1.00  0.00     0.037 A 
BRANCH  52  66
ATOM     66  C   UNL     1      12.628  11.638 -13.069  1.00  0.00     0.064 A 
ATOM     67  C   UNL     1      13.297  12.201 -14.178  1.00  0.00     0.173 A 
ATOM     68  C   UNL     1      11.325  12.126 -12.837  1.00  0.00     0.173 A 
ATOM     69  F   UNL     1      14.551  11.831 -14.477  1.00  0.00    -0.203 F 
ATOM     70  C   UNL     1      12.730  13.223 -14.944  1.00  0.00     0.198 A 
ATOM     71  C   UNL     1      10.742  13.109 -13.636  1.00  0.00     0.198 A 
ATOM     72  F   UNL     1      10.611  11.766 -11.764  1.00  0.00    -0.203 F 
ATOM     73  F   UNL     1      13.452  13.815 -15.906  1.00  0.00    -0.200 F 
ATOM     74  C   UNL     1      11.455  13.680 -14.669  1.00  0.00     0.200 A 
ATOM     75  F   UNL     1       9.514  13.557 -13.337  1.00  0.00    -0.200 F 
ATOM     76  F   UNL     1      10.932  14.701 -15.361  1.00  0.00    -0.200 F 
ENDBRANCH  52  66
BRANCH  53  77
ATOM     77  C   UNL     1      12.285  15.500  -5.420  1.00  0.00     0.064 A 
ATOM     78  C   UNL     1      12.644  16.857  -5.431  1.00  0.00     0.173 A 
ATOM     79  C   UNL     1      10.983  15.196  -4.976  1.00  0.00     0.173 A 
ATOM     80  F   UNL     1      13.853  17.230  -5.873  1.00  0.00    -0.203 F 
ATOM     81  C   UNL     1      11.737  17.857  -5.065  1.00  0.00     0.198 A 
ATOM     82  C   UNL     1      10.080  16.194  -4.608  1.00  0.00     0.198 A 
ATOM     83  F   UNL     1      10.530  13.934  -4.991  1.00  0.00    -0.203 F 
ATOM     84  F   UNL     1      12.089  19.146  -5.162  1.00  0.00    -0.200 F 
ATOM     85  C   UNL     1      10.451  17.525  -4.670  1.00  0.00     0.200 A 
ATOM     86  F   UNL     1       8.828  15.864  -4.263  1.00  0.00    -0.200 F 
ATOM     87  F   UNL     1       9.559  18.486  -4.393  1.00  0.00    -0.200 F 
ENDBRANCH  53  77
BRANCH  65  88
ATOM     88  C   UNL     1      17.337  13.008  -8.271  1.00  0.00     0.064 A 
ATOM     89  C   UNL     1      17.215  12.450  -6.988  1.00  0.00     0.173 A 
ATOM     90  C   UNL     1      18.632  13.270  -8.740  1.00  0.00     0.173 A 
ATOM     91  F   UNL     1      16.021  12.093  -6.499  1.00  0.00    -0.203 F 
ATOM     92  C   UNL     1      18.338  12.207  -6.197  1.00  0.00     0.198 A 
ATOM     93  C   UNL     1      19.753  12.990  -7.965  1.00  0.00     0.198 A 
ATOM     94  F   UNL     1      18.811  13.762  -9.976  1.00  0.00    -0.203 F 
ATOM     95  F   UNL     1      18.197  11.693  -4.966  1.00  0.00    -0.200 F 
ATOM     96  C   UNL     1      19.606  12.471  -6.690  1.00  0.00     0.200 A 
ATOM     97  F   UNL     1      20.977  13.206  -8.466  1.00  0.00    -0.200 F 
ATOM     98  F   UNL     1      20.688  12.205  -5.945  1.00  0.00    -0.200 F 
ENDBRANCH  65  88
ENDBRANCH  39  40
ENDBRANCH  31  34
ENDBRANCH  29  30
ENDBRANCH  28  29
ENDBRANCH  27  28
ENDBRANCH   3  27
TORSDOF 15
