REMARK SMILES Nc1cc(C(=O)NCCCNC(=O)c2ccc(-c3c4nc(c(-c5c(F)c(F)c(F)c(F)c5F)c5ccc([nH]5)c(-c5c(F)c(F)c(F)c(F)c5F)c5nc(c(-c6c(F)c(F)c(F)c(F)c6F)c6ccc3[nH]6)C=C5)C=C4)cc2)nc2ccccc12
REMARK SMILES IDX 9 1 8 2 7 3 5 4 6 5 4 7 2 8 3 9 83 10 78 11 82 12 77 13
REMARK SMILES IDX 79 14 81 15 80 16 1 17 10 20 11 21 12 22 13 24 14 25 15 26
REMARK SMILES IDX 76 27 16 28 75 29 17 30 18 31 19 32 69 33 20 34 74 35 68 36
REMARK SMILES IDX 70 37 21 38 73 39 67 40 66 41 22 43 54 44 34 45 53 46 35 47
REMARK SMILES IDX 38 48 52 49 71 50 36 51 37 52 51 54 72 55 39 56 23 57 24 58
REMARK SMILES IDX 32 59 25 60 26 61 30 62 33 63 27 64 28 65 31 66 29 67 55 68
REMARK SMILES IDX 56 69 64 70 57 71 58 72 62 73 65 74 59 75 60 76 63 77 61 78
REMARK SMILES IDX 40 79 41 80 49 81 42 82 43 83 47 84 50 85 44 86 45 87 48 88
REMARK SMILES IDX 46 89
REMARK H PARENT 7 6 1 18 1 19 11 23 70 42 38 53
REMARK Flexibility Score: inf
ROOT
ATOM      1  C   UNL     1       2.765  -4.263   1.062  1.00  0.00     0.042 C 
ENDROOT
BRANCH   1   2
ATOM      2  C   UNL     1       2.669  -4.281  -0.463  1.00  0.00     0.118 C 
BRANCH   2   3
ATOM      3  N   UNL     1       1.432  -4.896  -0.897  1.00  0.00    -0.351 N 
ATOM      4  C   UNL     1       0.195  -4.393  -1.234  1.00  0.00     0.269 C 
ATOM      5  O   UNL     1      -0.638  -5.232  -1.588  1.00  0.00    -0.268 OA
ATOM      6  H   UNL     1       1.487  -5.877  -0.967  1.00  0.00     0.163 HD
BRANCH   4   7
ATOM      7  C   UNL     1      -0.171  -2.929  -1.215  1.00  0.00     0.130 A 
ATOM      8  C   UNL     1       0.121  -0.619  -0.608  1.00  0.00     0.043 A 
ATOM      9  C   UNL     1       0.516  -1.955  -0.513  1.00  0.00     0.060 A 
ATOM     10  C   UNL     1      -1.042  -0.302  -1.345  1.00  0.00     0.023 A 
ATOM     11  C   UNL     1      -1.718  -1.368  -1.974  1.00  0.00     0.073 A 
ATOM     12  C   UNL     1      -1.563   1.008  -1.485  1.00  0.00     0.012 A 
ATOM     13  N   UNL     1      -1.283  -2.634  -1.931  1.00  0.00    -0.242 NA
ATOM     14  C   UNL     1      -2.892  -1.107  -2.667  1.00  0.00     0.029 A 
ATOM     15  C   UNL     1      -2.740   1.246  -2.194  1.00  0.00     0.001 A 
ATOM     16  C   UNL     1      -3.413   0.183  -2.776  1.00  0.00     0.002 A 
BRANCH   8  17
ATOM     17  N   UNL     1       0.835   0.326   0.128  1.00  0.00    -0.398 N 
ATOM     18  H   UNL     1       1.641   0.056   0.626  1.00  0.00     0.156 HD
ATOM     19  H   UNL     1       0.534   1.263   0.149  1.00  0.00     0.156 HD
ENDBRANCH   8  17
ENDBRANCH   4   7
ENDBRANCH   2   3
ENDBRANCH   1   2
BRANCH   1  20
ATOM     20  C   UNL     1       3.166  -5.614   1.647  1.00  0.00     0.118 C 
BRANCH  20  21
ATOM     21  N   UNL     1       4.549  -5.956   1.338  1.00  0.00    -0.352 N 
ATOM     22  C   UNL     1       5.606  -6.226   2.173  1.00  0.00     0.251 C 
ATOM     23  H   UNL     1       4.760  -5.999   0.377  1.00  0.00     0.163 HD
ATOM     24  O   UNL     1       6.743  -6.276   1.720  1.00  0.00    -0.269 OA
BRANCH  22  25
ATOM     25  C   UNL     1       5.378  -6.436   3.619  1.00  0.00     0.039 A 
ATOM     26  C   UNL     1       4.274  -7.161   4.070  1.00  0.00     0.014 A 
ATOM     27  C   UNL     1       6.293  -5.912   4.537  1.00  0.00     0.014 A 
ATOM     28  C   UNL     1       3.990  -7.209   5.429  1.00  0.00     0.010 A 
ATOM     29  C   UNL     1       6.058  -6.048   5.908  1.00  0.00     0.010 A 
ATOM     30  C   UNL     1       4.878  -6.655   6.365  1.00  0.00    -0.014 A 
BRANCH  30  31
ATOM     31  C   UNL     1       4.545  -6.721   7.811  1.00  0.00     0.031 A 
ATOM     32  C   UNL     1       4.305  -5.463   8.601  1.00  0.00     0.074 A 
ATOM     33  C   UNL     1       4.397  -7.926   8.396  1.00  0.00     0.049 A 
ATOM     34  N   UNL     1       3.990  -5.330   9.865  1.00  0.00    -0.248 NA
ATOM     35  C   UNL     1       4.439  -4.186   7.883  1.00  0.00     0.031 C 
ATOM     36  C   UNL     1       4.588  -9.213   7.725  1.00  0.00     0.029 A 
ATOM     37  N   UNL     1       4.026  -8.268   9.671  1.00  0.00    -0.354 N 
ATOM     38  C   UNL     1       3.902  -3.963  10.094  1.00  0.00     0.074 A 
ATOM     39  C   UNL     1       4.233  -3.304   8.851  1.00  0.00     0.031 C 
ATOM     40  C   UNL     1       4.276 -10.202   8.575  1.00  0.00     0.029 A 
ATOM     41  C   UNL     1       3.935  -9.624   9.870  1.00  0.00     0.049 A 
ATOM     42  H   UNL     1       3.843  -7.606  10.376  1.00  0.00     0.167 HD
ATOM     43  C   UNL     1       3.558  -3.320  11.235  1.00  0.00     0.037 A 
ATOM     44  C   UNL     1       3.628 -10.327  10.977  1.00  0.00     0.037 A 
ATOM     45  C   UNL     1       3.207  -3.985  12.464  1.00  0.00     0.049 A 
ATOM     46  C   UNL     1       3.308  -9.586  12.244  1.00  0.00     0.074 A 
ATOM     47  C   UNL     1       2.827  -3.421  13.669  1.00  0.00     0.029 A 
ATOM     48  N   UNL     1       3.189  -5.361  12.643  1.00  0.00    -0.354 N 
ATOM     49  N   UNL     1       3.222  -8.293  12.445  1.00  0.00    -0.248 NA
ATOM     50  C   UNL     1       3.054 -10.399  13.441  1.00  0.00     0.031 C 
ATOM     51  C   UNL     1       2.631  -4.452  14.592  1.00  0.00     0.029 A 
ATOM     52  C   UNL     1       2.831  -5.662  13.947  1.00  0.00     0.049 A 
ATOM     53  H   UNL     1       3.400  -6.024  11.947  1.00  0.00     0.167 HD
ATOM     54  C   UNL     1       2.889  -8.137  13.783  1.00  0.00     0.074 A 
ATOM     55  C   UNL     1       2.767  -9.468  14.341  1.00  0.00     0.031 C 
ATOM     56  C   UNL     1       2.710  -6.993  14.486  1.00  0.00     0.037 A 
BRANCH  43  57
ATOM     57  C   UNL     1       3.542  -1.818  11.222  1.00  0.00     0.064 A 
ATOM     58  C   UNL     1       2.553  -1.099  10.535  1.00  0.00     0.173 A 
ATOM     59  C   UNL     1       4.480  -1.090  11.972  1.00  0.00     0.173 A 
ATOM     60  F   UNL     1       1.640  -1.744   9.794  1.00  0.00    -0.203 F 
ATOM     61  C   UNL     1       2.511   0.293  10.589  1.00  0.00     0.198 A 
ATOM     62  C   UNL     1       4.417   0.299  12.046  1.00  0.00     0.198 A 
ATOM     63  F   UNL     1       5.444  -1.729  12.652  1.00  0.00    -0.203 F 
ATOM     64  F   UNL     1       1.577   0.960   9.897  1.00  0.00    -0.200 F 
ATOM     65  C   UNL     1       3.436   0.989  11.353  1.00  0.00     0.200 A 
ATOM     66  F   UNL     1       5.303   0.969  12.797  1.00  0.00    -0.200 F 
ATOM     67  F   UNL     1       3.382   2.327  11.418  1.00  0.00    -0.200 F 
ENDBRANCH  43  57
BRANCH  44  68
ATOM     68  C   UNL     1       3.610 -11.812  10.924  1.00  0.00     0.064 A 
ATOM     69  C   UNL     1       2.411 -12.524  11.054  1.00  0.00     0.173 A 
ATOM     70  C   UNL     1       4.786 -12.549  10.711  1.00  0.00     0.173 A 
ATOM     71  F   UNL     1       1.263 -11.867  11.279  1.00  0.00    -0.203 F 
ATOM     72  C   UNL     1       2.388 -13.915  10.980  1.00  0.00     0.198 A 
ATOM     73  C   UNL     1       4.757 -13.937  10.604  1.00  0.00     0.198 A 
ATOM     74  F   UNL     1       5.961 -11.916  10.577  1.00  0.00    -0.203 F 
ATOM     75  F   UNL     1       1.232 -14.573  11.142  1.00  0.00    -0.200 F 
ATOM     76  C   UNL     1       3.559 -14.620  10.744  1.00  0.00     0.200 A 
ATOM     77  F   UNL     1       5.889 -14.611  10.357  1.00  0.00    -0.200 F 
ATOM     78  F   UNL     1       3.534 -15.956  10.656  1.00  0.00    -0.200 F 
ENDBRANCH  44  68
BRANCH  56  79
ATOM     79  C   UNL     1       2.346  -7.121  15.937  1.00  0.00     0.064 A 
ATOM     80  C   UNL     1       3.283  -7.543  16.892  1.00  0.00     0.173 A 
ATOM     81  C   UNL     1       1.071  -6.746  16.387  1.00  0.00     0.173 A 
ATOM     82  F   UNL     1       4.511  -7.924  16.510  1.00  0.00    -0.203 F 
ATOM     83  C   UNL     1       2.951  -7.599  18.242  1.00  0.00     0.198 A 
ATOM     84  C   UNL     1       0.753  -6.773  17.741  1.00  0.00     0.198 A 
ATOM     85  F   UNL     1       0.141  -6.328  15.514  1.00  0.00    -0.203 F 
ATOM     86  F   UNL     1       3.850  -8.039  19.133  1.00  0.00    -0.200 F 
ATOM     87  C   UNL     1       1.691  -7.203  18.667  1.00  0.00     0.200 A 
ATOM     88  F   UNL     1      -0.459  -6.373  18.152  1.00  0.00    -0.200 F 
ATOM     89  F   UNL     1       1.381  -7.239  19.970  1.00  0.00    -0.200 F 
ENDBRANCH  56  79
ENDBRANCH  30  31
ENDBRANCH  22  25
ENDBRANCH  20  21
ENDBRANCH   1  20
TORSDOF 11
