REMARK SMILES O=C(CC1CCN(C(=O)N2CCCC[C@@H]2CCO)CC1)NCCCNC(=O)c1ccc(-c2c3nc(c(-c4c(F)c(F)c(F)c(F)c4F)c4ccc([nH]4)c(-c4c(F)c(F)c(F)c(F)c4F)c4nc(c(-c5c(F)c(F)c(F)c(F)c5F)c5ccc2[nH]5)C=C4)C=C3)cc1
REMARK SMILES IDX 1 1 2 2 21 3 3 5 4 6 5 7 20 8 6 9 19 10 7 11 8 12 9 13 10 14
REMARK SMILES IDX 11 15 15 16 12 17 14 18 13 19 16 20 17 21 18 22 22 24 23 25
REMARK SMILES IDX 24 26 25 27 26 28 27 30 28 31 29 32 90 33 30 34 89 35 31 36
REMARK SMILES IDX 32 37 33 38 83 39 34 40 88 41 82 42 84 43 35 44 87 45 81 46
REMARK SMILES IDX 80 47 36 49 68 50 48 51 67 52 49 53 52 54 66 55 85 56 50 57
REMARK SMILES IDX 51 58 65 60 86 61 53 62 37 63 38 64 46 65 39 66 40 67 44 68
REMARK SMILES IDX 47 69 41 70 42 71 45 72 43 73 69 74 70 75 78 76 71 77 72 78
REMARK SMILES IDX 76 79 79 80 73 81 74 82 77 83 75 84 54 85 55 86 63 87 56 88
REMARK SMILES IDX 57 89 61 90 64 91 58 92 59 93 62 94 60 95
REMARK H PARENT 21 4 18 23 25 29 84 48 52 59
REMARK Flexibility Score: inf
ROOT
ATOM      1  O   UNL     1       0.896  -0.264   0.029  1.00  0.00    -0.275 OA
ATOM      2  C   UNL     1       2.105  -0.133   0.178  1.00  0.00     0.220 C 
ATOM      3  N   UNL     1       2.703   0.993   0.700  1.00  0.00    -0.356 N 
ATOM      4  H   UNL     1       3.651   0.945   0.962  1.00  0.00     0.163 HD
ENDROOT
BRANCH   2   5
ATOM      5  C   UNL     1       3.099  -1.188  -0.262  1.00  0.00     0.103 C 
BRANCH   5   6
ATOM      6  C   UNL     1       3.895  -0.908  -1.564  1.00  0.00     0.002 C 
ATOM      7  C   UNL     1       3.966   0.548  -2.063  1.00  0.00     0.026 C 
ATOM      8  C   UNL     1       3.421  -1.787  -2.735  1.00  0.00     0.026 C 
ATOM      9  C   UNL     1       2.664   1.041  -2.700  1.00  0.00     0.121 C 
ATOM     10  C   UNL     1       2.112  -1.287  -3.337  1.00  0.00     0.121 C 
ATOM     11  N   UNL     1       2.195   0.125  -3.729  1.00  0.00    -0.325 N 
ATOM     12  C   UNL     1       1.883   0.651  -4.972  1.00  0.00     0.320 C 
ATOM     13  O   UNL     1       2.139   1.815  -5.281  1.00  0.00    -0.248 OA
BRANCH  12  14
ATOM     14  N   UNL     1       1.411  -0.231  -5.918  1.00  0.00    -0.322 N 
ATOM     15  C   UNL     1       2.170  -0.295  -7.161  1.00  0.00     0.121 C 
ATOM     16  C   UNL     1       0.054  -0.832  -5.922  1.00  0.00     0.089 C 
ATOM     17  C   UNL     1       1.383   0.242  -8.346  1.00  0.00     0.022 C 
ATOM     18  C   UNL     1      -0.734  -0.377  -7.175  1.00  0.00     0.025 C 
ATOM     19  C   UNL     1       0.065  -0.506  -8.467  1.00  0.00     0.004 C 
BRANCH  16  20
ATOM     20  C   UNL     1      -0.825  -0.553  -4.680  1.00  0.00     0.053 C 
BRANCH  20  21
ATOM     21  C   UNL     1      -2.051  -1.457  -4.567  1.00  0.00     0.158 C 
BRANCH  21  22
ATOM     22  O   UNL     1      -1.672  -2.828  -4.554  1.00  0.00    -0.396 OA
ATOM     23  H   UNL     1      -1.212  -3.044  -5.380  1.00  0.00     0.210 HD
ENDBRANCH  21  22
ENDBRANCH  20  21
ENDBRANCH  16  20
ENDBRANCH  12  14
ENDBRANCH   5   6
ENDBRANCH   2   5
BRANCH   3  24
ATOM     24  C   UNL     1       1.994   2.243   0.878  1.00  0.00     0.117 C 
BRANCH  24  25
ATOM     25  C   UNL     1       2.314   2.915   2.204  1.00  0.00     0.042 C 
BRANCH  25  26
ATOM     26  C   UNL     1       3.789   3.234   2.420  1.00  0.00     0.118 C 
BRANCH  26  27
ATOM     27  N   UNL     1       4.310   4.257   1.525  1.00  0.00    -0.352 N 
ATOM     28  C   UNL     1       5.047   5.380   1.823  1.00  0.00     0.251 C 
ATOM     29  H   UNL     1       4.107   4.127   0.571  1.00  0.00     0.163 HD
ATOM     30  O   UNL     1       5.312   6.194   0.943  1.00  0.00    -0.269 OA
BRANCH  28  31
ATOM     31  C   UNL     1       5.491   5.634   3.213  1.00  0.00     0.039 A 
ATOM     32  C   UNL     1       5.338   6.918   3.742  1.00  0.00     0.014 A 
ATOM     33  C   UNL     1       6.043   4.618   3.997  1.00  0.00     0.014 A 
ATOM     34  C   UNL     1       5.668   7.163   5.077  1.00  0.00     0.010 A 
ATOM     35  C   UNL     1       6.290   4.841   5.350  1.00  0.00     0.010 A 
ATOM     36  C   UNL     1       6.106   6.117   5.906  1.00  0.00    -0.014 A 
BRANCH  36  37
ATOM     37  C   UNL     1       6.368   6.339   7.353  1.00  0.00     0.031 A 
ATOM     38  C   UNL     1       7.748   6.140   7.916  1.00  0.00     0.074 A 
ATOM     39  C   UNL     1       5.350   6.667   8.173  1.00  0.00     0.049 A 
ATOM     40  N   UNL     1       8.160   6.236   9.156  1.00  0.00    -0.248 NA
ATOM     41  C   UNL     1       8.802   5.755   6.964  1.00  0.00     0.031 C 
ATOM     42  C   UNL     1       3.956   6.842   7.763  1.00  0.00     0.029 A 
ATOM     43  N   UNL     1       5.328   6.904   9.526  1.00  0.00    -0.354 N 
ATOM     44  C   UNL     1       9.511   5.915   9.132  1.00  0.00     0.074 A 
ATOM     45  C   UNL     1       9.837   5.562   7.768  1.00  0.00     0.031 C 
ATOM     46  C   UNL     1       3.221   7.184   8.833  1.00  0.00     0.029 A 
ATOM     47  C   UNL     1       4.081   7.213  10.012  1.00  0.00     0.049 A 
ATOM     48  H   UNL     1       6.131   6.856  10.094  1.00  0.00     0.167 HD
ATOM     49  C   UNL     1      10.405   5.937  10.150  1.00  0.00     0.037 A 
ATOM     50  C   UNL     1       3.674   7.482  11.268  1.00  0.00     0.037 A 
ATOM     51  C   UNL     1      10.083   6.305  11.505  1.00  0.00     0.049 A 
ATOM     52  C   UNL     1       4.685   7.485  12.383  1.00  0.00     0.074 A 
ATOM     53  C   UNL     1      10.929   6.411  12.595  1.00  0.00     0.029 A 
ATOM     54  N   UNL     1       8.810   6.623  11.956  1.00  0.00    -0.354 N 
ATOM     55  N   UNL     1       5.974   7.250  12.335  1.00  0.00    -0.248 NA
ATOM     56  C   UNL     1       4.184   7.801  13.728  1.00  0.00     0.031 C 
ATOM     57  C   UNL     1      10.160   6.737  13.717  1.00  0.00     0.029 A 
ATOM     58  C   UNL     1       8.845   6.899  13.314  1.00  0.00     0.049 A 
ATOM     59  H   UNL     1       8.001   6.649  11.395  1.00  0.00     0.167 HD
ATOM     60  C   UNL     1       6.442   7.421  13.631  1.00  0.00     0.074 A 
ATOM     61  C   UNL     1       5.301   7.798  14.440  1.00  0.00     0.031 C 
ATOM     62  C   UNL     1       7.704   7.280  14.108  1.00  0.00     0.037 A 
BRANCH  49  63
ATOM     63  C   UNL     1      11.824   5.551   9.838  1.00  0.00     0.064 A 
ATOM     64  C   UNL     1      12.648   6.356   9.036  1.00  0.00     0.173 A 
ATOM     65  C   UNL     1      12.379   4.380  10.378  1.00  0.00     0.173 A 
ATOM     66  F   UNL     1      12.166   7.480   8.486  1.00  0.00    -0.203 F 
ATOM     67  C   UNL     1      13.963   5.987   8.760  1.00  0.00     0.198 A 
ATOM     68  C   UNL     1      13.704   4.032  10.128  1.00  0.00     0.198 A 
ATOM     69  F   UNL     1      11.639   3.576  11.156  1.00  0.00    -0.203 F 
ATOM     70  F   UNL     1      14.712   6.744   7.947  1.00  0.00    -0.200 F 
ATOM     71  C   UNL     1      14.492   4.830   9.313  1.00  0.00     0.200 A 
ATOM     72  F   UNL     1      14.218   2.922  10.675  1.00  0.00    -0.200 F 
ATOM     73  F   UNL     1      15.759   4.481   9.053  1.00  0.00    -0.200 F 
ENDBRANCH  49  63
BRANCH  50  74
ATOM     74  C   UNL     1       2.245   7.793  11.537  1.00  0.00     0.064 A 
ATOM     75  C   UNL     1       1.850   9.077  11.940  1.00  0.00     0.173 A 
ATOM     76  C   UNL     1       1.248   6.814  11.414  1.00  0.00     0.173 A 
ATOM     77  F   UNL     1       2.769  10.042  12.094  1.00  0.00    -0.203 F 
ATOM     78  C   UNL     1       0.518   9.363  12.234  1.00  0.00     0.198 A 
ATOM     79  C   UNL     1      -0.088   7.110  11.676  1.00  0.00     0.198 A 
ATOM     80  F   UNL     1       1.570   5.571  11.027  1.00  0.00    -0.203 F 
ATOM     81  F   UNL     1       0.178  10.584  12.669  1.00  0.00    -0.200 F 
ATOM     82  C   UNL     1      -0.451   8.381  12.096  1.00  0.00     0.200 A 
ATOM     83  F   UNL     1      -1.024   6.162  11.527  1.00  0.00    -0.200 F 
ATOM     84  F   UNL     1      -1.732   8.656  12.377  1.00  0.00    -0.200 F 
ENDBRANCH  50  74
BRANCH  62  85
ATOM     85  C   UNL     1       7.927   7.578  15.564  1.00  0.00     0.064 A 
ATOM     86  C   UNL     1       7.427   6.745  16.577  1.00  0.00     0.173 A 
ATOM     87  C   UNL     1       8.678   8.700  15.950  1.00  0.00     0.173 A 
ATOM     88  F   UNL     1       6.692   5.668  16.263  1.00  0.00    -0.203 F 
ATOM     89  C   UNL     1       7.640   7.045  17.920  1.00  0.00     0.198 A 
ATOM     90  C   UNL     1       8.918   8.976  17.293  1.00  0.00     0.198 A 
ATOM     91  F   UNL     1       9.187   9.525  15.023  1.00  0.00    -0.203 F 
ATOM     92  F   UNL     1       7.102   6.267  18.870  1.00  0.00    -0.200 F 
ATOM     93  C   UNL     1       8.391   8.154  18.277  1.00  0.00     0.200 A 
ATOM     94  F   UNL     1       9.659  10.039  17.635  1.00  0.00    -0.200 F 
ATOM     95  F   UNL     1       8.598   8.437  19.570  1.00  0.00    -0.200 F 
ENDBRANCH  62  85
ENDBRANCH  36  37
ENDBRANCH  28  31
ENDBRANCH  26  27
ENDBRANCH  25  26
ENDBRANCH  24  25
ENDBRANCH   3  24
TORSDOF 15
