REMARK SMILES CC(C)[C@H](NC(=O)[C@H](C)NC(=O)C[NH3+])C(=O)NCCCNC(=O)c1ccc(-c2c3nc(c(-c4c(F)c(F)c(F)c(F)c4F)c4ccc([nH]4)c(-c4c(F)c(F)c(F)c(F)c4F)c4nc(c(-c5c(F)c(F)c(F)c(F)c5F)c5ccc2[nH]5)C=C4)C=C3)cc1
REMARK SMILES IDX 15 1 16 2 17 3 4 5 2 6 1 7 3 8 5 9 6 10 7 12 8 13 9 14 10 15
REMARK SMILES IDX 11 16 12 18 13 19 14 20 18 24 19 25 20 26 21 27 22 28 23 30
REMARK SMILES IDX 24 31 25 32 86 33 26 34 85 35 27 36 28 37 29 38 79 39 30 40
REMARK SMILES IDX 84 41 78 42 80 43 31 44 83 45 77 46 76 47 32 49 64 50 44 51
REMARK SMILES IDX 63 52 45 53 48 54 62 55 81 56 46 57 47 58 61 60 82 61 49 62
REMARK SMILES IDX 33 63 34 64 42 65 35 66 36 67 40 68 43 69 37 70 38 71 41 72
REMARK SMILES IDX 39 73 65 74 66 75 74 76 67 77 68 78 72 79 75 80 69 81 70 82
REMARK SMILES IDX 73 83 71 84 50 85 51 86 59 87 52 88 53 89 57 90 60 91 54 92
REMARK SMILES IDX 55 93 58 94 56 95
REMARK H PARENT 17 4 5 11 10 17 14 21 14 22 14 23 21 29 80 48 48 59
REMARK Flexibility Score: inf
ROOT
ATOM      1  C   UNL     1      -0.565  -1.698   6.238  1.00  0.00     0.242 C 
ATOM      2  O   UNL     1      -0.900  -2.629   6.972  1.00  0.00    -0.273 OA
ATOM      3  N   UNL     1       0.625  -1.064   6.532  1.00  0.00    -0.354 N 
ATOM      4  H   UNL     1       0.702  -0.534   7.358  1.00  0.00     0.163 HD
ENDROOT
BRANCH   1   5
ATOM      5  C   UNL     1      -1.528  -1.093   5.161  1.00  0.00     0.173 C 
BRANCH   5   6
ATOM      6  C   UNL     1      -2.445  -2.113   4.430  1.00  0.00     0.015 C 
ATOM      7  C   UNL     1      -3.557  -2.648   5.349  1.00  0.00     0.010 C 
ATOM      8  C   UNL     1      -3.157  -1.542   3.192  1.00  0.00     0.010 C 
ENDBRANCH   5   6
BRANCH   5   9
ATOM      9  N   UNL     1      -0.993  -0.010   4.336  1.00  0.00    -0.342 N 
ATOM     10  C   UNL     1      -0.306   0.155   3.188  1.00  0.00     0.242 C 
ATOM     11  H   UNL     1      -1.196   0.864   4.742  1.00  0.00     0.164 HD
ATOM     12  O   UNL     1      -0.107   1.352   2.922  1.00  0.00    -0.273 OA
BRANCH  10  13
ATOM     13  C   UNL     1       0.398  -0.955   2.348  1.00  0.00     0.168 C 
ATOM     14  C   UNL     1       0.768  -0.316   0.997  1.00  0.00     0.041 C 
BRANCH  13  15
ATOM     15  N   UNL     1      -0.262  -2.230   2.067  1.00  0.00    -0.340 N 
ATOM     16  C   UNL     1       0.035  -3.519   2.389  1.00  0.00     0.275 C 
ATOM     17  H   UNL     1      -1.087  -2.137   1.539  1.00  0.00     0.164 HD
ATOM     18  O   UNL     1      -0.516  -4.401   1.722  1.00  0.00    -0.268 OA
BRANCH  16  19
ATOM     19  C   UNL     1       0.902  -3.908   3.585  1.00  0.00     0.360 C 
BRANCH  19  20
ATOM     20  N   UNL     1       2.320  -3.548   3.425  1.00  0.00    -0.350 N 
ATOM     21  H   UNL     1       2.709  -4.047   2.625  1.00  0.00     0.344 HD
ATOM     22  H   UNL     1       2.833  -3.804   4.268  1.00  0.00     0.344 HD
ATOM     23  H   UNL     1       2.399  -2.543   3.270  1.00  0.00     0.344 HD
ENDBRANCH  19  20
ENDBRANCH  16  19
ENDBRANCH  13  15
ENDBRANCH  10  13
ENDBRANCH   5   9
ENDBRANCH   1   5
BRANCH   3  24
ATOM     24  C   UNL     1       1.761  -1.169   5.639  1.00  0.00     0.117 C 
BRANCH  24  25
ATOM     25  C   UNL     1       2.428   0.138   5.277  1.00  0.00     0.042 C 
BRANCH  25  26
ATOM     26  C   UNL     1       3.753  -0.037   4.531  1.00  0.00     0.118 C 
BRANCH  26  27
ATOM     27  N   UNL     1       3.787  -0.927   3.371  1.00  0.00    -0.352 N 
ATOM     28  C   UNL     1       4.561  -0.860   2.221  1.00  0.00     0.251 C 
ATOM     29  H   UNL     1       3.166  -1.689   3.412  1.00  0.00     0.163 HD
ATOM     30  O   UNL     1       4.428  -1.700   1.343  1.00  0.00    -0.269 OA
BRANCH  28  31
ATOM     31  C   UNL     1       5.524   0.258   2.027  1.00  0.00     0.039 A 
ATOM     32  C   UNL     1       5.719   0.800   0.751  1.00  0.00     0.014 A 
ATOM     33  C   UNL     1       6.207   0.808   3.107  1.00  0.00     0.014 A 
ATOM     34  C   UNL     1       6.484   1.966   0.597  1.00  0.00     0.010 A 
ATOM     35  C   UNL     1       6.828   2.040   2.980  1.00  0.00     0.010 A 
ATOM     36  C   UNL     1       6.981   2.639   1.724  1.00  0.00    -0.014 A 
BRANCH  36  37
ATOM     37  C   UNL     1       7.657   3.964   1.651  1.00  0.00     0.031 A 
ATOM     38  C   UNL     1       9.022   4.145   2.266  1.00  0.00     0.074 A 
ATOM     39  C   UNL     1       6.996   5.034   1.166  1.00  0.00     0.049 A 
ATOM     40  N   UNL     1       9.702   5.245   2.479  1.00  0.00    -0.248 NA
ATOM     41  C   UNL     1       9.685   2.930   2.767  1.00  0.00     0.031 C 
ATOM     42  C   UNL     1       5.641   5.017   0.611  1.00  0.00     0.029 A 
ATOM     43  N   UNL     1       7.370   6.353   1.081  1.00  0.00    -0.354 N 
ATOM     44  C   UNL     1      10.842   4.854   3.170  1.00  0.00     0.074 A 
ATOM     45  C   UNL     1      10.722   3.434   3.415  1.00  0.00     0.031 C 
ATOM     46  C   UNL     1       5.316   6.254   0.203  1.00  0.00     0.029 A 
ATOM     47  C   UNL     1       6.415   7.161   0.513  1.00  0.00     0.049 A 
ATOM     48  H   UNL     1       8.240   6.687   1.397  1.00  0.00     0.167 HD
ATOM     49  C   UNL     1      11.912   5.600   3.537  1.00  0.00     0.037 A 
ATOM     50  C   UNL     1       6.425   8.486   0.273  1.00  0.00     0.037 A 
ATOM     51  C   UNL     1      12.050   7.002   3.247  1.00  0.00     0.049 A 
ATOM     52  C   UNL     1       7.631   9.294   0.667  1.00  0.00     0.074 A 
ATOM     53  C   UNL     1      13.123   7.837   3.502  1.00  0.00     0.029 A 
ATOM     54  N   UNL     1      11.078   7.777   2.628  1.00  0.00    -0.354 N 
ATOM     55  N   UNL     1       8.734   8.903   1.257  1.00  0.00    -0.248 NA
ATOM     56  C   UNL     1       7.593  10.730   0.357  1.00  0.00     0.031 C 
ATOM     57  C   UNL     1      12.783   9.127   3.077  1.00  0.00     0.029 A 
ATOM     58  C   UNL     1      11.520   9.084   2.508  1.00  0.00     0.049 A 
ATOM     59  H   UNL     1      10.204   7.446   2.320  1.00  0.00     0.167 HD
ATOM     60  C   UNL     1       9.535  10.033   1.359  1.00  0.00     0.074 A 
ATOM     61  C   UNL     1       8.793  11.123   0.759  1.00  0.00     0.031 C 
ATOM     62  C   UNL     1      10.773  10.155   1.898  1.00  0.00     0.037 A 
BRANCH  49  63
ATOM     63  C   UNL     1      13.019   4.900   4.278  1.00  0.00     0.064 A 
ATOM     64  C   UNL     1      13.798   3.901   3.672  1.00  0.00     0.173 A 
ATOM     65  C   UNL     1      13.299   5.222   5.615  1.00  0.00     0.173 A 
ATOM     66  F   UNL     1      13.568   3.545   2.398  1.00  0.00    -0.203 F 
ATOM     67  C   UNL     1      14.773   3.213   4.390  1.00  0.00     0.198 A 
ATOM     68  C   UNL     1      14.303   4.560   6.318  1.00  0.00     0.198 A 
ATOM     69  F   UNL     1      12.595   6.175   6.245  1.00  0.00    -0.203 F 
ATOM     70  F   UNL     1      15.443   2.207   3.811  1.00  0.00    -0.200 F 
ATOM     71  C   UNL     1      15.028   3.546   5.710  1.00  0.00     0.200 A 
ATOM     72  F   UNL     1      14.560   4.894   7.590  1.00  0.00    -0.200 F 
ATOM     73  F   UNL     1      15.963   2.880   6.402  1.00  0.00    -0.200 F 
ENDBRANCH  49  63
BRANCH  50  74
ATOM     74  C   UNL     1       5.279   9.119  -0.433  1.00  0.00     0.064 A 
ATOM     75  C   UNL     1       5.421   9.570  -1.753  1.00  0.00     0.173 A 
ATOM     76  C   UNL     1       4.026   9.271   0.177  1.00  0.00     0.173 A 
ATOM     77  F   UNL     1       6.606   9.465  -2.372  1.00  0.00    -0.203 F 
ATOM     78  C   UNL     1       4.358  10.164  -2.431  1.00  0.00     0.198 A 
ATOM     79  C   UNL     1       2.956   9.841  -0.511  1.00  0.00     0.198 A 
ATOM     80  F   UNL     1       3.836   8.852   1.437  1.00  0.00    -0.203 F 
ATOM     81  F   UNL     1       4.534  10.622  -3.678  1.00  0.00    -0.200 F 
ATOM     82  C   UNL     1       3.124  10.292  -1.812  1.00  0.00     0.200 A 
ATOM     83  F   UNL     1       1.761   9.951   0.085  1.00  0.00    -0.200 F 
ATOM     84  F   UNL     1       2.100  10.856  -2.467  1.00  0.00    -0.200 F 
ENDBRANCH  50  74
BRANCH  62  85
ATOM     85  C   UNL     1      11.426  11.505   1.823  1.00  0.00     0.064 A 
ATOM     86  C   UNL     1      10.985  12.584   2.603  1.00  0.00     0.173 A 
ATOM     87  C   UNL     1      12.536  11.708   0.988  1.00  0.00     0.173 A 
ATOM     88  F   UNL     1       9.919  12.446   3.406  1.00  0.00    -0.203 F 
ATOM     89  C   UNL     1      11.615  13.824   2.530  1.00  0.00     0.198 A 
ATOM     90  C   UNL     1      13.183  12.939   0.942  1.00  0.00     0.198 A 
ATOM     91  F   UNL     1      13.002  10.707   0.228  1.00  0.00    -0.203 F 
ATOM     92  F   UNL     1      11.146  14.855   3.247  1.00  0.00    -0.200 F 
ATOM     93  C   UNL     1      12.717  13.998   1.706  1.00  0.00     0.200 A 
ATOM     94  F   UNL     1      14.258  13.101   0.158  1.00  0.00    -0.200 F 
ATOM     95  F   UNL     1      13.327  15.190   1.644  1.00  0.00    -0.200 F 
ENDBRANCH  62  85
ENDBRANCH  36  37
ENDBRANCH  28  31
ENDBRANCH  26  27
ENDBRANCH  25  26
ENDBRANCH  24  25
ENDBRANCH   3  24
TORSDOF 16
