REMARK SMILES O=C(C[N@@H+]1CCC[C@@H]1C(=O)NCCCNC(=O)c1ccc(-c2c3nc(c(-c4c(F)c(F)c(F)c(F)c4F)c4ccc([nH]4)c(-c4c(F)c(F)c(F)c(F)c4F)c4nc(c(-c5c(F)c(F)c(F)c(F)c5F)c5ccc2[nH]5)C=C4)C=C3)cc1)NCc1ccc(Cl)cc1
REMARK SMILES IDX 12 1 11 2 9 3 10 4 8 6 4 7 5 8 6 10 7 11 3 12 2 13 1 14
REMARK SMILES IDX 81 15 82 17 83 18 84 19 89 20 85 21 88 22 86 23 87 24 13 25
REMARK SMILES IDX 14 26 15 27 16 28 17 30 18 31 19 32 80 33 20 34 79 35 21 36
REMARK SMILES IDX 22 37 23 38 73 39 24 40 78 41 72 42 74 43 25 44 77 45 71 46
REMARK SMILES IDX 70 47 26 49 58 50 38 51 57 52 39 53 42 54 56 55 75 56 40 57
REMARK SMILES IDX 41 58 55 60 76 61 43 62 27 63 28 64 36 65 29 66 30 67 34 68
REMARK SMILES IDX 37 69 31 70 32 71 35 72 33 73 59 74 60 75 68 76 61 77 62 78
REMARK SMILES IDX 66 79 69 80 63 81 64 82 67 83 65 84 44 85 45 86 53 87 46 88
REMARK SMILES IDX 47 89 51 90 54 91 48 92 49 93 52 94 50 95
REMARK H PARENT 11 5 4 9 81 16 15 29 74 48 42 59
REMARK Flexibility Score: inf
ROOT
ATOM      1  C   UNL     1       2.245  -1.189   3.683  1.00  0.00     0.118 C 
ENDROOT
BRANCH   1   2
ATOM      2  N   UNL     1       3.385  -0.299   3.717  1.00  0.00    -0.351 N 
ATOM      3  C   UNL     1       4.481  -0.254   2.907  1.00  0.00     0.278 C 
ATOM      4  O   UNL     1       5.223   0.726   3.035  1.00  0.00    -0.268 OA
ATOM      5  H   UNL     1       3.367   0.376   4.434  1.00  0.00     0.163 HD
BRANCH   3   6
ATOM      6  C   UNL     1       4.808  -1.356   1.881  1.00  0.00     0.274 C 
ATOM      7  N   UNL     1       3.954  -1.437   0.666  1.00  0.00    -0.317 N 
ATOM      8  C   UNL     1       3.700  -2.860   0.402  1.00  0.00     0.263 C 
ATOM      9  H   UNL     1       4.480  -1.003  -0.093  1.00  0.00     0.349 HD
ATOM     10  C   UNL     1       4.003  -3.633   1.676  1.00  0.00     0.068 C 
ATOM     11  C   UNL     1       4.942  -2.754   2.476  1.00  0.00     0.081 C 
BRANCH   7  12
ATOM     12  C   UNL     1       2.743  -0.612   0.632  1.00  0.00     0.364 C 
BRANCH  12  13
ATOM     13  C   UNL     1       2.190  -0.440  -0.779  1.00  0.00     0.275 C 
ATOM     14  O   UNL     1       1.122  -0.934  -1.130  1.00  0.00    -0.268 OA
ATOM     15  N   UNL     1       2.943   0.396  -1.562  1.00  0.00    -0.347 N 
ATOM     16  H   UNL     1       3.855   0.624  -1.271  1.00  0.00     0.164 HD
BRANCH  15  17
ATOM     17  C   UNL     1       2.449   0.955  -2.794  1.00  0.00     0.151 C 
BRANCH  17  18
ATOM     18  C   UNL     1       2.699   2.443  -2.803  1.00  0.00    -0.029 A 
ATOM     19  C   UNL     1       3.998   2.937  -3.000  1.00  0.00     0.007 A 
ATOM     20  C   UNL     1       1.657   3.348  -2.550  1.00  0.00     0.007 A 
ATOM     21  C   UNL     1       4.249   4.309  -2.956  1.00  0.00     0.021 A 
ATOM     22  C   UNL     1       1.908   4.723  -2.514  1.00  0.00     0.021 A 
ATOM     23  C   UNL     1       3.202   5.196  -2.717  1.00  0.00     0.041 A 
ATOM     24  Cl  UNL     1       3.513   6.888  -2.666  1.00  0.00    -0.084 Cl
ENDBRANCH  17  18
ENDBRANCH  15  17
ENDBRANCH  12  13
ENDBRANCH   7  12
ENDBRANCH   3   6
ENDBRANCH   1   2
BRANCH   1  25
ATOM     25  C   UNL     1       1.869  -1.743   5.037  1.00  0.00     0.042 C 
BRANCH  25  26
ATOM     26  C   UNL     1       1.209  -0.705   5.926  1.00  0.00     0.118 C 
BRANCH  26  27
ATOM     27  N   UNL     1      -0.081  -0.249   5.412  1.00  0.00    -0.352 N 
ATOM     28  C   UNL     1      -1.332  -0.331   5.974  1.00  0.00     0.251 C 
ATOM     29  H   UNL     1      -0.049   0.182   4.527  1.00  0.00     0.163 HD
ATOM     30  O   UNL     1      -2.327  -0.038   5.320  1.00  0.00    -0.269 OA
BRANCH  28  31
ATOM     31  C   UNL     1      -1.471  -0.803   7.364  1.00  0.00     0.039 A 
ATOM     32  C   UNL     1      -2.474  -1.722   7.680  1.00  0.00     0.014 A 
ATOM     33  C   UNL     1      -0.580  -0.364   8.345  1.00  0.00     0.014 A 
ATOM     34  C   UNL     1      -2.526  -2.265   8.964  1.00  0.00     0.010 A 
ATOM     35  C   UNL     1      -0.556  -0.994   9.579  1.00  0.00     0.010 A 
ATOM     36  C   UNL     1      -1.538  -1.939   9.907  1.00  0.00    -0.014 A 
BRANCH  36  37
ATOM     37  C   UNL     1      -1.518  -2.548  11.258  1.00  0.00     0.031 A 
ATOM     38  C   UNL     1      -1.634  -1.665  12.471  1.00  0.00     0.074 A 
ATOM     39  C   UNL     1      -1.306  -3.870  11.394  1.00  0.00     0.049 A 
ATOM     40  N   UNL     1      -1.542  -1.980  13.737  1.00  0.00    -0.248 NA
ATOM     41  C   UNL     1      -1.833  -0.227  12.225  1.00  0.00     0.031 C 
ATOM     42  C   UNL     1      -1.113  -4.816  10.293  1.00  0.00     0.029 A 
ATOM     43  N   UNL     1      -1.211  -4.648  12.519  1.00  0.00    -0.354 N 
ATOM     44  C   UNL     1      -1.636  -0.780  14.430  1.00  0.00     0.074 A 
ATOM     45  C   UNL     1      -1.726   0.274  13.445  1.00  0.00     0.031 C 
ATOM     46  C   UNL     1      -0.965  -6.053  10.796  1.00  0.00     0.029 A 
ATOM     47  C   UNL     1      -1.013  -5.981  12.252  1.00  0.00     0.049 A 
ATOM     48  H   UNL     1      -1.278  -4.286  13.432  1.00  0.00     0.167 HD
ATOM     49  C   UNL     1      -1.674  -0.579  15.767  1.00  0.00     0.037 A 
ATOM     50  C   UNL     1      -0.889  -7.024  13.094  1.00  0.00     0.037 A 
ATOM     51  C   UNL     1      -1.644  -1.639  16.737  1.00  0.00     0.049 A 
ATOM     52  C   UNL     1      -0.966  -6.778  14.576  1.00  0.00     0.074 A 
ATOM     53  C   UNL     1      -1.778  -1.557  18.111  1.00  0.00     0.029 A 
ATOM     54  N   UNL     1      -1.471  -2.981  16.429  1.00  0.00    -0.354 N 
ATOM     55  N   UNL     1      -1.141  -5.649  15.220  1.00  0.00    -0.248 NA
ATOM     56  C   UNL     1      -0.831  -7.952  15.447  1.00  0.00     0.031 C 
ATOM     57  C   UNL     1      -1.645  -2.846  18.639  1.00  0.00     0.029 A 
ATOM     58  C   UNL     1      -1.472  -3.736  17.590  1.00  0.00     0.049 A 
ATOM     59  H   UNL     1      -1.364  -3.342  15.519  1.00  0.00     0.167 HD
ATOM     60  C   UNL     1      -1.168  -5.979  16.567  1.00  0.00     0.074 A 
ATOM     61  C   UNL     1      -1.003  -7.416  16.647  1.00  0.00     0.031 C 
ATOM     62  C   UNL     1      -1.317  -5.167  17.642  1.00  0.00     0.037 A 
BRANCH  49  63
ATOM     63  C   UNL     1      -1.761   0.840  16.251  1.00  0.00     0.064 A 
ATOM     64  C   UNL     1      -2.911   1.620  16.053  1.00  0.00     0.173 A 
ATOM     65  C   UNL     1      -0.681   1.426  16.928  1.00  0.00     0.173 A 
ATOM     66  F   UNL     1      -3.966   1.113  15.398  1.00  0.00    -0.203 F 
ATOM     67  C   UNL     1      -2.962   2.945  16.479  1.00  0.00     0.198 A 
ATOM     68  C   UNL     1      -0.748   2.741  17.382  1.00  0.00     0.198 A 
ATOM     69  F   UNL     1       0.441   0.725  17.148  1.00  0.00    -0.203 F 
ATOM     70  F   UNL     1      -4.047   3.688  16.221  1.00  0.00    -0.200 F 
ATOM     71  C   UNL     1      -1.883   3.502  17.148  1.00  0.00     0.200 A 
ATOM     72  F   UNL     1       0.291   3.276  18.038  1.00  0.00    -0.200 F 
ATOM     73  F   UNL     1      -1.933   4.777  17.557  1.00  0.00    -0.200 F 
ENDBRANCH  49  63
BRANCH  50  74
ATOM     74  C   UNL     1      -0.738  -8.400  12.555  1.00  0.00     0.064 A 
ATOM     75  C   UNL     1      -1.785  -9.327  12.665  1.00  0.00     0.173 A 
ATOM     76  C   UNL     1       0.440  -8.818  11.920  1.00  0.00     0.173 A 
ATOM     77  F   UNL     1      -2.924  -8.978  13.280  1.00  0.00    -0.203 F 
ATOM     78  C   UNL     1      -1.653 -10.625  12.176  1.00  0.00     0.198 A 
ATOM     79  C   UNL     1       0.561 -10.109  11.409  1.00  0.00     0.198 A 
ATOM     80  F   UNL     1       1.468  -7.968  11.783  1.00  0.00    -0.203 F 
ATOM     81  F   UNL     1      -2.654 -11.501  12.331  1.00  0.00    -0.200 F 
ATOM     82  C   UNL     1      -0.482 -11.014  11.544  1.00  0.00     0.200 A 
ATOM     83  F   UNL     1       1.689 -10.478  10.786  1.00  0.00    -0.200 F 
ATOM     84  F   UNL     1      -0.356 -12.261  11.070  1.00  0.00    -0.200 F 
ENDBRANCH  50  74
BRANCH  62  85
ATOM     85  C   UNL     1      -1.343  -5.818  18.993  1.00  0.00     0.064 A 
ATOM     86  C   UNL     1      -0.181  -6.340  19.579  1.00  0.00     0.173 A 
ATOM     87  C   UNL     1      -2.538  -5.880  19.726  1.00  0.00     0.173 A 
ATOM     88  F   UNL     1       0.981  -6.317  18.910  1.00  0.00    -0.203 F 
ATOM     89  C   UNL     1      -0.220  -6.923  20.842  1.00  0.00     0.198 A 
ATOM     90  C   UNL     1      -2.566  -6.438  21.001  1.00  0.00     0.198 A 
ATOM     91  F   UNL     1      -3.674  -5.388  19.211  1.00  0.00    -0.203 F 
ATOM     92  F   UNL     1       0.892  -7.458  21.365  1.00  0.00    -0.200 F 
ATOM     93  C   UNL     1      -1.409  -6.965  21.555  1.00  0.00     0.200 A 
ATOM     94  F   UNL     1      -3.713  -6.465  21.693  1.00  0.00    -0.200 F 
ATOM     95  F   UNL     1      -1.443  -7.520  22.774  1.00  0.00    -0.200 F 
ENDBRANCH  62  85
ENDBRANCH  36  37
ENDBRANCH  28  31
ENDBRANCH  26  27
ENDBRANCH  25  26
ENDBRANCH   1  25
TORSDOF 14
