REMARK SMILES CN(C(=O)CC(=O)NCCCNC(=O)c1ccc(-c2c3nc(c(-c4c(F)c(F)c(F)c(F)c4F)c4ccc([nH]4)c(-c4c(F)c(F)c(F)c(F)c4F)c4nc(c(-c5c(F)c(F)c(F)c(F)c5F)c5ccc2[nH]5)C=C4)C=C3)cc1)C1CCC(C)(C)CC1
REMARK SMILES IDX 9 1 8 2 6 3 7 4 5 6 3 7 4 8 2 9 1 10 78 11 79 12 85 13 80 14
REMARK SMILES IDX 84 15 81 16 82 17 83 18 10 19 11 20 12 21 13 22 14 24 15 25
REMARK SMILES IDX 16 26 77 27 17 28 76 29 18 30 19 31 20 32 70 33 21 34 75 35
REMARK SMILES IDX 69 36 71 37 22 38 74 39 68 40 67 41 23 43 55 44 35 45 54 46
REMARK SMILES IDX 36 47 39 48 53 49 72 50 37 51 38 52 52 54 73 55 40 56 24 57
REMARK SMILES IDX 25 58 33 59 26 60 27 61 31 62 34 63 28 64 29 65 32 66 30 67
REMARK SMILES IDX 56 68 57 69 65 70 58 71 59 72 63 73 66 74 60 75 61 76 64 77
REMARK SMILES IDX 62 78 41 79 42 80 50 81 43 82 44 83 48 84 51 85 45 86 46 87
REMARK SMILES IDX 49 88 47 89
REMARK H PARENT 8 5 12 23 71 42 39 53
REMARK Flexibility Score: inf
ROOT
ATOM      1  C   UNL     1       0.853  -2.892  -3.838  1.00  0.00     0.117 C 
ENDROOT
BRANCH   1   2
ATOM      2  N   UNL     1       0.993  -3.290  -2.448  1.00  0.00    -0.356 N 
ATOM      3  C   UNL     1       0.314  -2.845  -1.355  1.00  0.00     0.229 C 
ATOM      4  O   UNL     1       0.610  -3.322  -0.257  1.00  0.00    -0.275 OA
ATOM      5  H   UNL     1       1.675  -3.977  -2.271  1.00  0.00     0.163 HD
BRANCH   3   6
ATOM      6  C   UNL     1      -0.785  -1.823  -1.493  1.00  0.00     0.200 C 
BRANCH   6   7
ATOM      7  C   UNL     1      -0.314  -0.459  -1.941  1.00  0.00     0.231 C 
ATOM      8  O   UNL     1      -0.525  -0.126  -3.112  1.00  0.00    -0.274 OA
BRANCH   7   9
ATOM      9  N   UNL     1       0.356   0.375  -1.035  1.00  0.00    -0.342 N 
ATOM     10  C   UNL     1       0.866  -0.164   0.226  1.00  0.00     0.147 C 
BRANCH   9  11
ATOM     11  C   UNL     1       0.918   1.655  -1.563  1.00  0.00     0.084 C 
ATOM     12  C   UNL     1      -0.139   2.610  -2.165  1.00  0.00     0.025 C 
ATOM     13  C   UNL     1       1.797   2.467  -0.585  1.00  0.00     0.025 C 
ATOM     14  C   UNL     1      -0.969   3.324  -1.103  1.00  0.00     0.008 C 
ATOM     15  C   UNL     1       1.004   3.247   0.472  1.00  0.00     0.008 C 
ATOM     16  C   UNL     1      -0.118   4.133  -0.105  1.00  0.00    -0.035 C 
ATOM     17  C   UNL     1      -1.030   4.604   1.045  1.00  0.00     0.011 C 
ATOM     18  C   UNL     1       0.485   5.382  -0.775  1.00  0.00     0.011 C 
ENDBRANCH   9  11
ENDBRANCH   7   9
ENDBRANCH   6   7
ENDBRANCH   3   6
ENDBRANCH   1   2
BRANCH   1  19
ATOM     19  C   UNL     1       1.928  -1.898  -4.271  1.00  0.00     0.042 C 
BRANCH  19  20
ATOM     20  C   UNL     1       3.354  -2.434  -4.195  1.00  0.00     0.118 C 
BRANCH  20  21
ATOM     21  N   UNL     1       3.572  -3.592  -5.050  1.00  0.00    -0.352 N 
ATOM     22  C   UNL     1       4.445  -3.783  -6.088  1.00  0.00     0.251 C 
ATOM     23  H   UNL     1       2.996  -4.365  -4.849  1.00  0.00     0.163 HD
ATOM     24  O   UNL     1       4.337  -4.789  -6.791  1.00  0.00    -0.269 OA
BRANCH  22  25
ATOM     25  C   UNL     1       5.506  -2.799  -6.388  1.00  0.00     0.039 A 
ATOM     26  C   UNL     1       5.784  -2.500  -7.726  1.00  0.00     0.014 A 
ATOM     27  C   UNL     1       6.263  -2.209  -5.372  1.00  0.00     0.014 A 
ATOM     28  C   UNL     1       6.775  -1.568  -8.042  1.00  0.00     0.010 A 
ATOM     29  C   UNL     1       7.203  -1.228  -5.685  1.00  0.00     0.010 A 
ATOM     30  C   UNL     1       7.471  -0.900  -7.022  1.00  0.00    -0.014 A 
BRANCH  30  31
ATOM     31  C   UNL     1       8.482   0.142  -7.334  1.00  0.00     0.031 A 
ATOM     32  C   UNL     1       9.926  -0.072  -6.975  1.00  0.00     0.074 A 
ATOM     33  C   UNL     1       8.091   1.308  -7.883  1.00  0.00     0.049 A 
ATOM     34  N   UNL     1      10.940   0.750  -7.086  1.00  0.00    -0.248 NA
ATOM     35  C   UNL     1      10.273  -1.377  -6.391  1.00  0.00     0.031 C 
ATOM     36  C   UNL     1       6.716   1.651  -8.247  1.00  0.00     0.029 A 
ATOM     37  N   UNL     1       8.812   2.426  -8.219  1.00  0.00    -0.354 N 
ATOM     38  C   UNL     1      12.036   0.070  -6.573  1.00  0.00     0.074 A 
ATOM     39  C   UNL     1      11.556  -1.212  -6.104  1.00  0.00     0.031 C 
ATOM     40  C   UNL     1       6.696   2.884  -8.776  1.00  0.00     0.029 A 
ATOM     41  C   UNL     1       8.047   3.435  -8.750  1.00  0.00     0.049 A 
ATOM     42  H   UNL     1       9.786   2.498  -8.091  1.00  0.00     0.167 HD
ATOM     43  C   UNL     1      13.330   0.470  -6.518  1.00  0.00     0.037 A 
ATOM     44  C   UNL     1       8.396   4.669  -9.162  1.00  0.00     0.037 A 
ATOM     45  C   UNL     1      13.809   1.738  -7.004  1.00  0.00     0.049 A 
ATOM     46  C   UNL     1       9.835   5.097  -9.071  1.00  0.00     0.074 A 
ATOM     47  C   UNL     1      15.107   2.217  -7.035  1.00  0.00     0.029 A 
ATOM     48  N   UNL     1      13.004   2.731  -7.544  1.00  0.00    -0.354 N 
ATOM     49  N   UNL     1      10.872   4.426  -8.632  1.00  0.00    -0.248 NA
ATOM     50  C   UNL     1      10.152   6.454  -9.536  1.00  0.00     0.031 C 
ATOM     51  C   UNL     1      15.082   3.515  -7.555  1.00  0.00     0.029 A 
ATOM     52  C   UNL     1      13.775   3.828  -7.894  1.00  0.00     0.049 A 
ATOM     53  H   UNL     1      12.028   2.665  -7.661  1.00  0.00     0.167 HD
ATOM     54  C   UNL     1      11.967   5.264  -8.797  1.00  0.00     0.074 A 
ATOM     55  C   UNL     1      11.469   6.490  -9.386  1.00  0.00     0.031 C 
ATOM     56  C   UNL     1      13.267   5.037  -8.490  1.00  0.00     0.037 A 
BRANCH  43  57
ATOM     57  C   UNL     1      14.321  -0.480  -5.908  1.00  0.00     0.064 A 
ATOM     58  C   UNL     1      14.686  -1.673  -6.550  1.00  0.00     0.173 A 
ATOM     59  C   UNL     1      14.933  -0.182  -4.681  1.00  0.00     0.173 A 
ATOM     60  F   UNL     1      14.123  -2.010  -7.720  1.00  0.00    -0.203 F 
ATOM     61  C   UNL     1      15.600  -2.550  -5.970  1.00  0.00     0.198 A 
ATOM     62  C   UNL     1      15.870  -1.046  -4.119  1.00  0.00     0.198 A 
ATOM     63  F   UNL     1      14.626   0.948  -4.028  1.00  0.00    -0.203 F 
ATOM     64  F   UNL     1      15.891  -3.709  -6.576  1.00  0.00    -0.200 F 
ATOM     65  C   UNL     1      16.195  -2.233  -4.758  1.00  0.00     0.200 A 
ATOM     66  F   UNL     1      16.454  -0.732  -2.954  1.00  0.00    -0.200 F 
ATOM     67  F   UNL     1      17.077  -3.075  -4.203  1.00  0.00    -0.200 F 
ENDBRANCH  43  57
BRANCH  44  68
ATOM     68  C   UNL     1       7.367   5.580  -9.727  1.00  0.00     0.064 A 
ATOM     69  C   UNL     1       7.365   5.898 -11.092  1.00  0.00     0.173 A 
ATOM     70  C   UNL     1       6.370   6.149  -8.922  1.00  0.00     0.173 A 
ATOM     71  F   UNL     1       8.312   5.395 -11.898  1.00  0.00    -0.203 F 
ATOM     72  C   UNL     1       6.415   6.765 -11.627  1.00  0.00     0.198 A 
ATOM     73  C   UNL     1       5.404   6.995  -9.463  1.00  0.00     0.198 A 
ATOM     74  F   UNL     1       6.327   5.873  -7.610  1.00  0.00    -0.203 F 
ATOM     75  F   UNL     1       6.463   7.087 -12.927  1.00  0.00    -0.200 F 
ATOM     76  C   UNL     1       5.432   7.308 -10.814  1.00  0.00     0.200 A 
ATOM     77  F   UNL     1       4.449   7.508  -8.677  1.00  0.00    -0.200 F 
ATOM     78  F   UNL     1       4.517   8.140 -11.330  1.00  0.00    -0.200 F 
ENDBRANCH  44  68
BRANCH  56  79
ATOM     79  C   UNL     1      14.252   6.119  -8.823  1.00  0.00     0.064 A 
ATOM     80  C   UNL     1      14.310   7.314  -8.092  1.00  0.00     0.173 A 
ATOM     81  C   UNL     1      15.175   5.940  -9.865  1.00  0.00     0.173 A 
ATOM     82  F   UNL     1      13.438   7.540  -7.098  1.00  0.00    -0.203 F 
ATOM     83  C   UNL     1      15.241   8.301  -8.407  1.00  0.00     0.198 A 
ATOM     84  C   UNL     1      16.124   6.915 -10.158  1.00  0.00     0.198 A 
ATOM     85  F   UNL     1      15.165   4.812 -10.591  1.00  0.00    -0.203 F 
ATOM     86  F   UNL     1      15.249   9.454  -7.725  1.00  0.00    -0.200 F 
ATOM     87  C   UNL     1      16.151   8.098  -9.434  1.00  0.00     0.200 A 
ATOM     88  F   UNL     1      17.011   6.712 -11.142  1.00  0.00    -0.200 F 
ATOM     89  F   UNL     1      17.052   9.045  -9.730  1.00  0.00    -0.200 F 
ENDBRANCH  56  79
ENDBRANCH  30  31
ENDBRANCH  22  25
ENDBRANCH  20  21
ENDBRANCH  19  20
ENDBRANCH   1  19
TORSDOF 13
