REMARK SMILES COC[C@@H](C)Nc1ccc([N+](=O)[O-])c(C(=O)NCCCNC(=O)c2ccc(-c3c4nc(c(-c5c(F)c(F)c(F)c(F)c5F)c5ccc([nH]5)c(-c5c(F)c(F)c(F)c(F)c5F)c5nc(c(-c6c(F)c(F)c(F)c(F)c6F)c6ccc3[nH]6)C=C5)C=C4)cc2)c1
REMARK SMILES IDX 18 1 17 2 15 3 16 4 14 6 7 7 8 8 87 9 9 10 10 11 6 12 4 14
REMARK SMILES IDX 5 15 3 16 2 17 1 18 11 19 12 20 13 21 19 22 20 23 21 24
REMARK SMILES IDX 22 25 23 27 24 28 25 29 86 30 26 31 85 32 27 33 28 34 29 35
REMARK SMILES IDX 79 36 30 37 84 38 78 39 80 40 31 41 83 42 77 43 76 44 32 46
REMARK SMILES IDX 64 47 44 48 63 49 45 50 48 51 62 52 81 53 46 54 47 55 61 57
REMARK SMILES IDX 82 58 49 59 33 60 34 61 42 62 35 63 36 64 40 65 43 66 37 67
REMARK SMILES IDX 38 68 41 69 39 70 65 71 66 72 74 73 67 74 68 75 72 76 75 77
REMARK SMILES IDX 69 78 70 79 73 80 71 81 50 82 51 83 59 84 52 85 53 86 57 87
REMARK SMILES IDX 60 88 54 89 55 90 58 91 56 92
REMARK H PARENT 17 5 6 13 21 26 80 45 48 56
REMARK Flexibility Score: inf
ROOT
ATOM      1  C   UNL     1      -2.444   3.971  -2.679  1.00  0.00     0.118 C 
ENDROOT
BRANCH   1   2
ATOM      2  N   UNL     1      -3.158   4.170  -3.936  1.00  0.00    -0.352 N 
ATOM      3  C   UNL     1      -2.997   3.755  -5.238  1.00  0.00     0.258 C 
ATOM      4  O   UNL     1      -3.720   4.308  -6.063  1.00  0.00    -0.269 OA
ATOM      5  H   UNL     1      -3.951   4.744  -3.825  1.00  0.00     0.163 HD
BRANCH   3   6
ATOM      6  C   UNL     1      -1.956   2.789  -5.697  1.00  0.00     0.119 A 
ATOM      7  C   UNL     1       0.026   1.468  -5.098  1.00  0.00     0.036 A 
ATOM      8  C   UNL     1       0.407   1.459  -6.442  1.00  0.00     0.033 A 
ATOM      9  C   UNL     1      -1.217   2.029  -4.790  1.00  0.00     0.046 A 
ATOM     10  C   UNL     1      -0.427   1.997  -7.425  1.00  0.00     0.088 A 
ATOM     11  C   UNL     1      -1.602   2.661  -7.040  1.00  0.00     0.282 A 
BRANCH   7  12
ATOM     12  N   UNL     1       0.844   0.893  -4.144  1.00  0.00    -0.380 N 
ATOM     13  H   UNL     1       1.682   0.481  -4.457  1.00  0.00     0.160 HD
BRANCH  12  14
ATOM     14  C   UNL     1       0.566   0.846  -2.700  1.00  0.00     0.102 C 
ATOM     15  C   UNL     1       1.122   2.108  -2.033  1.00  0.00     0.033 C 
BRANCH  14  16
ATOM     16  C   UNL     1       1.170  -0.448  -2.111  1.00  0.00     0.184 C 
BRANCH  16  17
ATOM     17  O   UNL     1       0.531  -0.887  -0.911  1.00  0.00    -0.383 OA
ATOM     18  C   UNL     1       1.017  -0.278   0.274  1.00  0.00     0.194 C 
ENDBRANCH  16  17
ENDBRANCH  14  16
ENDBRANCH  12  14
ENDBRANCH   7  12
BRANCH  11  19
ATOM     19  N   UNL     1      -2.515   3.038  -8.104  1.00  0.00     0.063 N 
ATOM     20  O   UNL     1      -2.079   3.807  -8.972  1.00  0.00    -0.258 OA
ATOM     21  O   UNL     1      -3.602   2.442  -8.144  1.00  0.00    -0.258 OA
ENDBRANCH  11  19
ENDBRANCH   3   6
ENDBRANCH   1   2
BRANCH   1  22
ATOM     22  C   UNL     1      -1.843   5.250  -2.123  1.00  0.00     0.042 C 
BRANCH  22  23
ATOM     23  C   UNL     1      -2.875   6.239  -1.616  1.00  0.00     0.118 C 
BRANCH  23  24
ATOM     24  N   UNL     1      -3.634   5.717  -0.485  1.00  0.00    -0.352 N 
ATOM     25  C   UNL     1      -3.595   6.045   0.848  1.00  0.00     0.251 C 
ATOM     26  H   UNL     1      -4.283   5.014  -0.716  1.00  0.00     0.163 HD
ATOM     27  O   UNL     1      -4.144   5.316   1.668  1.00  0.00    -0.269 OA
BRANCH  25  28
ATOM     28  C   UNL     1      -2.885   7.260   1.304  1.00  0.00     0.039 A 
ATOM     29  C   UNL     1      -2.202   7.235   2.523  1.00  0.00     0.014 A 
ATOM     30  C   UNL     1      -2.922   8.435   0.553  1.00  0.00     0.014 A 
ATOM     31  C   UNL     1      -1.507   8.369   2.952  1.00  0.00     0.010 A 
ATOM     32  C   UNL     1      -2.136   9.519   0.919  1.00  0.00     0.010 A 
ATOM     33  C   UNL     1      -1.440   9.508   2.135  1.00  0.00    -0.014 A 
BRANCH  33  34
ATOM     34  C   UNL     1      -0.691  10.723   2.544  1.00  0.00     0.031 A 
ATOM     35  C   UNL     1      -1.422  12.029   2.706  1.00  0.00     0.074 A 
ATOM     36  C   UNL     1       0.646  10.670   2.692  1.00  0.00     0.049 A 
ATOM     37  N   UNL     1      -0.945  13.223   2.951  1.00  0.00    -0.248 NA
ATOM     38  C   UNL     1      -2.884  11.996   2.530  1.00  0.00     0.031 C 
ATOM     39  C   UNL     1       1.472   9.475   2.511  1.00  0.00     0.029 A 
ATOM     40  N   UNL     1       1.549  11.651   3.015  1.00  0.00    -0.354 N 
ATOM     41  C   UNL     1      -2.040  14.078   2.933  1.00  0.00     0.074 A 
ATOM     42  C   UNL     1      -3.196  13.281   2.588  1.00  0.00     0.031 C 
ATOM     43  C   UNL     1       2.755   9.786   2.751  1.00  0.00     0.029 A 
ATOM     44  C   UNL     1       2.849  11.210   3.059  1.00  0.00     0.049 A 
ATOM     45  H   UNL     1       1.290  12.583   3.198  1.00  0.00     0.167 HD
ATOM     46  C   UNL     1      -2.083  15.403   3.208  1.00  0.00     0.037 A 
ATOM     47  C   UNL     1       3.988  11.882   3.312  1.00  0.00     0.037 A 
ATOM     48  C   UNL     1      -0.934  16.182   3.585  1.00  0.00     0.049 A 
ATOM     49  C   UNL     1       3.912  13.354   3.622  1.00  0.00     0.074 A 
ATOM     50  C   UNL     1      -0.876  17.517   3.944  1.00  0.00     0.029 A 
ATOM     51  N   UNL     1       0.362  15.691   3.653  1.00  0.00    -0.354 N 
ATOM     52  N   UNL     1       2.863  14.138   3.667  1.00  0.00    -0.248 NA
ATOM     53  C   UNL     1       5.180  14.031   3.926  1.00  0.00     0.031 C 
ATOM     54  C   UNL     1       0.462  17.846   4.180  1.00  0.00     0.029 A 
ATOM     55  C   UNL     1       1.230  16.702   4.030  1.00  0.00     0.049 A 
ATOM     56  H   UNL     1       0.625  14.762   3.461  1.00  0.00     0.167 HD
ATOM     57  C   UNL     1       3.336  15.389   4.041  1.00  0.00     0.074 A 
ATOM     58  C   UNL     1       4.767  15.255   4.221  1.00  0.00     0.031 C 
ATOM     59  C   UNL     1       2.650  16.544   4.221  1.00  0.00     0.037 A 
BRANCH  46  60
ATOM     60  C   UNL     1      -3.417  16.090   3.117  1.00  0.00     0.064 A 
ATOM     61  C   UNL     1      -4.455  15.812   4.021  1.00  0.00     0.173 A 
ATOM     62  C   UNL     1      -3.653  17.058   2.129  1.00  0.00     0.173 A 
ATOM     63  F   UNL     1      -4.288  14.885   4.977  1.00  0.00    -0.203 F 
ATOM     64  C   UNL     1      -5.688  16.451   3.917  1.00  0.00     0.198 A 
ATOM     65  C   UNL     1      -4.875  17.721   2.051  1.00  0.00     0.198 A 
ATOM     66  F   UNL     1      -2.696  17.367   1.242  1.00  0.00    -0.203 F 
ATOM     67  F   UNL     1      -6.681  16.125   4.755  1.00  0.00    -0.200 F 
ATOM     68  C   UNL     1      -5.894  17.410   2.938  1.00  0.00     0.200 A 
ATOM     69  F   UNL     1      -5.068  18.659   1.113  1.00  0.00    -0.200 F 
ATOM     70  F   UNL     1      -7.079  18.030   2.845  1.00  0.00    -0.200 F 
ENDBRANCH  46  60
BRANCH  47  71
ATOM     71  C   UNL     1       5.291  11.166   3.316  1.00  0.00     0.064 A 
ATOM     72  C   UNL     1       6.006  10.981   4.507  1.00  0.00     0.173 A 
ATOM     73  C   UNL     1       5.851  10.659   2.134  1.00  0.00     0.173 A 
ATOM     74  F   UNL     1       5.521  11.462   5.661  1.00  0.00    -0.203 F 
ATOM     75  C   UNL     1       7.243  10.339   4.513  1.00  0.00     0.198 A 
ATOM     76  C   UNL     1       7.073   9.989   2.146  1.00  0.00     0.198 A 
ATOM     77  F   UNL     1       5.203  10.800   0.968  1.00  0.00    -0.203 F 
ATOM     78  F   UNL     1       7.928  10.220   5.659  1.00  0.00    -0.200 F 
ATOM     79  C   UNL     1       7.773   9.839   3.333  1.00  0.00     0.200 A 
ATOM     80  F   UNL     1       7.572   9.491   1.007  1.00  0.00    -0.200 F 
ATOM     81  F   UNL     1       8.960   9.218   3.340  1.00  0.00    -0.200 F 
ENDBRANCH  47  71
BRANCH  59  82
ATOM     82  C   UNL     1       3.425  17.742   4.689  1.00  0.00     0.064 A 
ATOM     83  C   UNL     1       4.335  18.408   3.855  1.00  0.00     0.173 A 
ATOM     84  C   UNL     1       3.222  18.252   5.980  1.00  0.00     0.173 A 
ATOM     85  F   UNL     1       4.575  17.952   2.616  1.00  0.00    -0.203 F 
ATOM     86  C   UNL     1       5.036  19.523   4.308  1.00  0.00     0.198 A 
ATOM     87  C   UNL     1       3.898  19.387   6.418  1.00  0.00     0.198 A 
ATOM     88  F   UNL     1       2.356  17.657   6.814  1.00  0.00    -0.203 F 
ATOM     89  F   UNL     1       5.941  20.111   3.514  1.00  0.00    -0.200 F 
ATOM     90  C   UNL     1       4.811  20.016   5.585  1.00  0.00     0.200 A 
ATOM     91  F   UNL     1       3.666  19.872   7.645  1.00  0.00    -0.200 F 
ATOM     92  F   UNL     1       5.480  21.094   6.016  1.00  0.00    -0.200 F 
ENDBRANCH  59  82
ENDBRANCH  33  34
ENDBRANCH  25  28
ENDBRANCH  23  24
ENDBRANCH  22  23
ENDBRANCH   1  22
TORSDOF 15
