REMARK SMILES CC[C@H](Oc1cccc(/C=C2\SC(=S)N(NC(=O)c3cccc(O)c3)C2=O)c1)C(=O)NCCCNC(=O)c1ccc(-c2c3nc(c(-c4c(F)c(F)c(F)c(F)c4F)c4ccc([nH]4)c(-c4c(F)c(F)c(F)c(F)c4F)c4nc(c(-c5c(F)c(F)c(F)c(F)c5F)c5ccc2[nH]5)C=C4)C=C3)cc1
REMARK SMILES IDX 29 1 30 2 31 3 3 5 2 6 1 7 4 8 5 9 6 10 28 11 7 12 9 13 8 14
REMARK SMILES IDX 10 15 11 16 12 17 26 18 13 19 15 20 27 21 14 22 16 23 17 24
REMARK SMILES IDX 18 26 19 27 20 28 25 29 21 30 23 31 22 32 24 33 32 35 33 36
REMARK SMILES IDX 34 37 35 38 36 39 37 41 38 42 39 43 100 44 40 45 99 46 41 47
REMARK SMILES IDX 42 48 43 49 93 50 44 51 98 52 92 53 94 54 45 55 97 56 91 57
REMARK SMILES IDX 90 58 46 60 78 61 58 62 77 63 59 64 62 65 76 66 95 67 60 68
REMARK SMILES IDX 61 69 75 71 96 72 63 73 47 74 48 75 56 76 49 77 50 78 54 79
REMARK SMILES IDX 57 80 51 81 52 82 55 83 53 84 79 85 80 86 88 87 81 88 82 89
REMARK SMILES IDX 86 90 89 91 83 92 84 93 87 94 85 95 64 96 65 97 73 98 66 99
REMARK SMILES IDX 67 100 71 101 74 102 68 103 69 104 72 105 70 106
REMARK H PARENT 31 4 16 25 24 34 35 40 94 59 62 70
REMARK Flexibility Score: inf
ROOT
ATOM      1  C   UNL     1       0.794  -3.515   0.546  1.00  0.00     0.261 C 
ATOM      2  O   UNL     1       1.643  -4.346   0.215  1.00  0.00    -0.271 OA
ATOM      3  N   UNL     1      -0.534  -3.813   0.318  1.00  0.00    -0.353 N 
ATOM      4  H   UNL     1      -0.703  -4.661  -0.153  1.00  0.00     0.163 HD
ENDROOT
BRANCH   1   5
ATOM      5  C   UNL     1       1.179  -2.195   1.250  1.00  0.00     0.261 C 
BRANCH   5   6
ATOM      6  C   UNL     1       0.696  -2.358   2.710  1.00  0.00     0.052 C 
ATOM      7  C   UNL     1       0.870  -1.203   3.672  1.00  0.00     0.008 C 
ENDBRANCH   5   6
BRANCH   5   8
ATOM      8  O   UNL     1       0.564  -1.278   0.348  1.00  0.00    -0.481 OA
BRANCH   8   9
ATOM      9  C   UNL     1       0.525   0.064   0.481  1.00  0.00     0.121 A 
ATOM     10  C   UNL     1       1.266   0.845   1.343  1.00  0.00     0.046 A 
ATOM     11  C   UNL     1      -0.419   0.664  -0.364  1.00  0.00     0.054 A 
ATOM     12  C   UNL     1       0.944   2.194   1.484  1.00  0.00     0.004 A 
ATOM     13  C   UNL     1      -0.747   2.015  -0.267  1.00  0.00    -0.021 A 
ATOM     14  C   UNL     1      -0.065   2.767   0.701  1.00  0.00     0.008 A 
BRANCH  13  15
ATOM     15  C   UNL     1      -1.767   2.701  -1.086  1.00  0.00     0.029 C 
ATOM     16  C   UNL     1      -2.607   2.274  -2.042  1.00  0.00     0.082 C 
ATOM     17  S   UNL     1      -2.804   0.726  -2.760  1.00  0.00    -0.052 SA
ATOM     18  C   UNL     1      -3.502   3.250  -2.723  1.00  0.00     0.285 C 
ATOM     19  C   UNL     1      -3.725   1.359  -4.114  1.00  0.00     0.168 C 
ATOM     20  N   UNL     1      -3.902   2.716  -3.936  1.00  0.00    -0.198 N 
ATOM     21  O   UNL     1      -3.834   4.328  -2.238  1.00  0.00    -0.266 OA
ATOM     22  S   UNL     1      -4.286   0.411  -5.363  1.00  0.00    -0.050 S 
BRANCH  20  23
ATOM     23  N   UNL     1      -4.639   3.470  -4.857  1.00  0.00    -0.255 N 
ATOM     24  C   UNL     1      -4.375   4.761  -5.265  1.00  0.00     0.270 C 
ATOM     25  H   UNL     1      -5.428   3.034  -5.254  1.00  0.00     0.192 HD
ATOM     26  O   UNL     1      -5.222   5.365  -5.921  1.00  0.00    -0.267 OA
BRANCH  24  27
ATOM     27  C   UNL     1      -3.121   5.460  -4.894  1.00  0.00     0.045 A 
ATOM     28  C   UNL     1      -3.235   6.791  -4.466  1.00  0.00     0.014 A 
ATOM     29  C   UNL     1      -1.865   4.841  -4.936  1.00  0.00     0.060 A 
ATOM     30  C   UNL     1      -2.111   7.483  -4.019  1.00  0.00     0.005 A 
ATOM     31  C   UNL     1      -0.755   5.540  -4.467  1.00  0.00     0.116 A 
ATOM     32  C   UNL     1      -0.871   6.848  -4.004  1.00  0.00     0.046 A 
BRANCH  31  33
ATOM     33  O   UNL     1       0.483   4.970  -4.425  1.00  0.00    -0.508 OA
ATOM     34  H   UNL     1       1.214   5.461  -4.105  1.00  0.00     0.293 HD
ENDBRANCH  31  33
ENDBRANCH  24  27
ENDBRANCH  20  23
ENDBRANCH  13  15
ENDBRANCH   8   9
ENDBRANCH   5   8
ENDBRANCH   1   5
BRANCH   3  35
ATOM     35  C   UNL     1      -1.723  -3.044   0.677  1.00  0.00     0.118 C 
BRANCH  35  36
ATOM     36  C   UNL     1      -2.664  -2.806  -0.493  1.00  0.00     0.042 C 
BRANCH  36  37
ATOM     37  C   UNL     1      -3.440  -4.046  -0.910  1.00  0.00     0.118 C 
BRANCH  37  38
ATOM     38  N   UNL     1      -4.383  -4.492   0.110  1.00  0.00    -0.352 N 
ATOM     39  C   UNL     1      -5.747  -4.639   0.061  1.00  0.00     0.251 C 
ATOM     40  H   UNL     1      -3.974  -4.726   0.975  1.00  0.00     0.163 HD
ATOM     41  O   UNL     1      -6.369  -4.878   1.093  1.00  0.00    -0.269 OA
BRANCH  39  42
ATOM     42  C   UNL     1      -6.478  -4.484  -1.216  1.00  0.00     0.039 A 
ATOM     43  C   UNL     1      -7.700  -3.804  -1.215  1.00  0.00     0.014 A 
ATOM     44  C   UNL     1      -5.978  -5.012  -2.407  1.00  0.00     0.014 A 
ATOM     45  C   UNL     1      -8.375  -3.583  -2.418  1.00  0.00     0.010 A 
ATOM     46  C   UNL     1      -6.605  -4.717  -3.614  1.00  0.00     0.010 A 
ATOM     47  C   UNL     1      -7.809  -3.997  -3.634  1.00  0.00    -0.014 A 
BRANCH  47  48
ATOM     48  C   UNL     1      -8.453  -3.691  -4.938  1.00  0.00     0.031 A 
ATOM     49  C   UNL     1      -8.894  -4.807  -5.847  1.00  0.00     0.074 A 
ATOM     50  C   UNL     1      -8.563  -2.412  -5.348  1.00  0.00     0.049 A 
ATOM     51  N   UNL     1      -9.343  -4.748  -7.076  1.00  0.00    -0.248 NA
ATOM     52  C   UNL     1      -8.787  -6.174  -5.313  1.00  0.00     0.031 C 
ATOM     53  C   UNL     1      -8.126  -1.232  -4.597  1.00  0.00     0.029 A 
ATOM     54  N   UNL     1      -9.051  -1.894  -6.522  1.00  0.00    -0.354 N 
ATOM     55  C   UNL     1      -9.556  -6.064  -7.465  1.00  0.00     0.074 A 
ATOM     56  C   UNL     1      -9.138  -6.903  -6.362  1.00  0.00     0.031 C 
ATOM     57  C   UNL     1      -8.357  -0.132  -5.332  1.00  0.00     0.029 A 
ATOM     58  C   UNL     1      -8.923  -0.530  -6.615  1.00  0.00     0.049 A 
ATOM     59  H   UNL     1      -9.454  -2.447  -7.229  1.00  0.00     0.167 HD
ATOM     60  C   UNL     1     -10.078  -6.531  -8.624  1.00  0.00     0.037 A 
ATOM     61  C   UNL     1      -9.199   0.301  -7.635  1.00  0.00     0.037 A 
ATOM     62  C   UNL     1     -10.526  -5.700  -9.711  1.00  0.00     0.049 A 
ATOM     63  C   UNL     1      -9.750  -0.243  -8.920  1.00  0.00     0.074 A 
ATOM     64  C   UNL     1     -11.154  -6.079 -10.885  1.00  0.00     0.029 A 
ATOM     65  N   UNL     1     -10.387  -4.322  -9.760  1.00  0.00    -0.354 N 
ATOM     66  N   UNL     1      -9.995  -1.484  -9.256  1.00  0.00    -0.248 NA
ATOM     67  C   UNL     1     -10.061   0.740  -9.969  1.00  0.00     0.031 C 
ATOM     68  C   UNL     1     -11.356  -4.936 -11.665  1.00  0.00     0.029 A 
ATOM     69  C   UNL     1     -10.896  -3.839 -10.956  1.00  0.00     0.049 A 
ATOM     70  H   UNL     1      -9.987  -3.768  -9.051  1.00  0.00     0.167 HD
ATOM     71  C   UNL     1     -10.504  -1.432 -10.546  1.00  0.00     0.074 A 
ATOM     72  C   UNL     1     -10.537  -0.037 -10.931  1.00  0.00     0.031 C 
ATOM     73  C   UNL     1     -10.914  -2.452 -11.336  1.00  0.00     0.037 A 
BRANCH  60  74
ATOM     74  C   UNL     1     -10.211  -8.018  -8.778  1.00  0.00     0.064 A 
ATOM     75  C   UNL     1     -11.159  -8.748  -8.046  1.00  0.00     0.173 A 
ATOM     76  C   UNL     1      -9.420  -8.712  -9.705  1.00  0.00     0.173 A 
ATOM     77  F   UNL     1     -11.934  -8.132  -7.141  1.00  0.00    -0.203 F 
ATOM     78  C   UNL     1     -11.293 -10.123  -8.218  1.00  0.00     0.198 A 
ATOM     79  C   UNL     1      -9.576 -10.082  -9.895  1.00  0.00     0.198 A 
ATOM     80  F   UNL     1      -8.504  -8.059 -10.436  1.00  0.00    -0.203 F 
ATOM     81  F   UNL     1     -12.175 -10.806  -7.476  1.00  0.00    -0.200 F 
ATOM     82  C   UNL     1     -10.507 -10.787  -9.147  1.00  0.00     0.200 A 
ATOM     83  F   UNL     1      -8.826 -10.721 -10.804  1.00  0.00    -0.200 F 
ATOM     84  F   UNL     1     -10.644 -12.110  -9.319  1.00  0.00    -0.200 F 
ENDBRANCH  60  74
BRANCH  61  85
ATOM     85  C   UNL     1      -8.902   1.747  -7.525  1.00  0.00     0.064 A 
ATOM     86  C   UNL     1      -9.912   2.683  -7.277  1.00  0.00     0.173 A 
ATOM     87  C   UNL     1      -7.608   2.219  -7.776  1.00  0.00     0.173 A 
ATOM     88  F   UNL     1     -11.172   2.271  -7.076  1.00  0.00    -0.203 F 
ATOM     89  C   UNL     1      -9.639   4.049  -7.302  1.00  0.00     0.198 A 
ATOM     90  C   UNL     1      -7.338   3.583  -7.807  1.00  0.00     0.198 A 
ATOM     91  F   UNL     1      -6.615   1.355  -8.027  1.00  0.00    -0.203 F 
ATOM     92  F   UNL     1     -10.631   4.930  -7.110  1.00  0.00    -0.200 F 
ATOM     93  C   UNL     1      -8.354   4.499  -7.571  1.00  0.00     0.200 A 
ATOM     94  F   UNL     1      -6.102   3.998  -8.107  1.00  0.00    -0.200 F 
ATOM     95  F   UNL     1      -8.106   5.814  -7.634  1.00  0.00    -0.200 F 
ENDBRANCH  61  85
BRANCH  73  96
ATOM     96  C   UNL     1     -11.468  -2.093 -12.682  1.00  0.00     0.064 A 
ATOM     97  C   UNL     1     -10.639  -1.669 -13.730  1.00  0.00     0.173 A 
ATOM     98  C   UNL     1     -12.845  -2.194 -12.929  1.00  0.00     0.173 A 
ATOM     99  F   UNL     1      -9.319  -1.535 -13.535  1.00  0.00    -0.203 F 
ATOM    100  C   UNL     1     -11.173  -1.340 -14.973  1.00  0.00     0.198 A 
ATOM    101  C   UNL     1     -13.372  -1.889 -14.180  1.00  0.00     0.198 A 
ATOM    102  F   UNL     1     -13.679  -2.593 -11.957  1.00  0.00    -0.203 F 
ATOM    103  F   UNL     1     -10.370  -0.893 -15.948  1.00  0.00    -0.200 F 
ATOM    104  C   UNL     1     -12.537  -1.457 -15.199  1.00  0.00     0.200 A 
ATOM    105  F   UNL     1     -14.689  -2.011 -14.399  1.00  0.00    -0.200 F 
ATOM    106  F   UNL     1     -13.048  -1.143 -16.397  1.00  0.00    -0.200 F 
ENDBRANCH  73  96
ENDBRANCH  47  48
ENDBRANCH  39  42
ENDBRANCH  37  38
ENDBRANCH  36  37
ENDBRANCH  35  36
ENDBRANCH   3  35
TORSDOF 17
