REMARK SMILES O=C(CNC(=O)c1ccco1)Nc1cccc(C(=O)NCCCNC(=O)c2ccc(-c3c4nc(c(-c5c(F)c(F)c(F)c(F)c5F)c5ccc([nH]5)c(-c5c(F)c(F)c(F)c(F)c5F)c5nc(c(-c6c(F)c(F)c(F)c(F)c6F)c6ccc3[nH]6)C=C5)C=C4)cc2)c1
REMARK SMILES IDX 21 1 20 2 18 3 19 4 17 6 13 7 14 8 90 9 15 10 16 11 12 12
REMARK SMILES IDX 1 13 2 14 3 16 4 17 5 18 6 20 7 21 8 22 11 23 9 24 10 25
REMARK SMILES IDX 22 26 23 27 24 28 25 29 26 31 27 32 28 33 89 34 29 35 88 36
REMARK SMILES IDX 30 37 31 38 32 39 82 40 33 41 87 42 81 43 83 44 34 45 86 46
REMARK SMILES IDX 80 47 79 48 35 50 67 51 47 52 66 53 48 54 51 55 65 56 84 57
REMARK SMILES IDX 49 58 50 59 64 61 85 62 52 63 36 64 37 65 45 66 38 67 39 68
REMARK SMILES IDX 43 69 46 70 40 71 41 72 44 73 42 74 68 75 69 76 77 77 70 78
REMARK SMILES IDX 71 79 75 80 78 81 72 82 73 83 76 84 74 85 53 86 54 87 62 88
REMARK SMILES IDX 55 89 56 90 60 91 63 92 57 93 58 94 61 95 59 96
REMARK H PARENT 20 5 12 15 4 19 24 30 83 49 51 60
REMARK Flexibility Score: inf
ROOT
ATOM      1  C   UNL     1      -0.401   0.112   3.218  1.00  0.00     0.118 C 
ENDROOT
BRANCH   1   2
ATOM      2  N   UNL     1      -0.812   1.378   3.814  1.00  0.00    -0.352 N 
ATOM      3  C   UNL     1      -0.378   2.675   3.631  1.00  0.00     0.251 C 
ATOM      4  O   UNL     1      -0.904   3.562   4.302  1.00  0.00    -0.269 OA
ATOM      5  H   UNL     1      -1.538   1.290   4.473  1.00  0.00     0.163 HD
BRANCH   3   6
ATOM      6  C   UNL     1       0.746   3.027   2.720  1.00  0.00     0.041 A 
ATOM      7  C   UNL     1       2.274   2.395   0.946  1.00  0.00     0.042 A 
ATOM      8  C   UNL     1       3.109   3.460   1.296  1.00  0.00     0.026 A 
ATOM      9  C   UNL     1       1.033   2.293   1.571  1.00  0.00     0.040 A 
ATOM     10  C   UNL     1       2.734   4.343   2.314  1.00  0.00     0.003 A 
ATOM     11  C   UNL     1       1.576   4.101   3.055  1.00  0.00     0.014 A 
BRANCH   7  12
ATOM     12  N   UNL     1       2.775   1.390   0.083  1.00  0.00    -0.325 N 
ATOM     13  O   UNL     1       1.007  -0.140   0.083  1.00  0.00    -0.273 OA
ATOM     14  C   UNL     1       2.160   0.176  -0.204  1.00  0.00     0.243 C 
ATOM     15  H   UNL     1       3.639   1.568  -0.355  1.00  0.00     0.169 HD
BRANCH  14  16
ATOM     16  C   UNL     1       3.126  -0.909  -0.687  1.00  0.00     0.216 C 
BRANCH  16  17
ATOM     17  N   UNL     1       4.166  -0.418  -1.568  1.00  0.00    -0.340 N 
ATOM     18  C   UNL     1       5.524  -0.628  -1.519  1.00  0.00     0.287 C 
ATOM     19  H   UNL     1       3.854   0.149  -2.311  1.00  0.00     0.164 HD
ATOM     20  O   UNL     1       6.204   0.016  -2.315  1.00  0.00    -0.266 OA
BRANCH  18  21
ATOM     21  C   UNL     1       6.080  -1.543  -0.544  1.00  0.00     0.191 A 
ATOM     22  C   UNL     1       5.696  -2.783  -0.061  1.00  0.00     0.056 A 
ATOM     23  O   UNL     1       7.260  -1.183   0.054  1.00  0.00    -0.459 OA
ATOM     24  C   UNL     1       6.664  -3.172   0.899  1.00  0.00     0.043 A 
ATOM     25  C   UNL     1       7.597  -2.164   0.927  1.00  0.00     0.196 A 
ENDBRANCH  18  21
ENDBRANCH  16  17
ENDBRANCH  14  16
ENDBRANCH   7  12
ENDBRANCH   3   6
ENDBRANCH   1   2
BRANCH   1  26
ATOM     26  C   UNL     1       0.039  -0.946   4.216  1.00  0.00     0.042 C 
BRANCH  26  27
ATOM     27  C   UNL     1      -1.061  -1.489   5.109  1.00  0.00     0.118 C 
BRANCH  27  28
ATOM     28  N   UNL     1      -2.128  -2.145   4.366  1.00  0.00    -0.352 N 
ATOM     29  C   UNL     1      -2.521  -3.458   4.296  1.00  0.00     0.251 C 
ATOM     30  H   UNL     1      -2.666  -1.535   3.812  1.00  0.00     0.163 HD
ATOM     31  O   UNL     1      -3.343  -3.788   3.444  1.00  0.00    -0.269 OA
BRANCH  29  32
ATOM     32  C   UNL     1      -1.966  -4.491   5.203  1.00  0.00     0.039 A 
ATOM     33  C   UNL     1      -1.821  -5.795   4.716  1.00  0.00     0.014 A 
ATOM     34  C   UNL     1      -1.637  -4.217   6.531  1.00  0.00     0.014 A 
ATOM     35  C   UNL     1      -1.293  -6.793   5.538  1.00  0.00     0.010 A 
ATOM     36  C   UNL     1      -1.002  -5.182   7.312  1.00  0.00     0.010 A 
ATOM     37  C   UNL     1      -0.837  -6.486   6.831  1.00  0.00    -0.014 A 
BRANCH  37  38
ATOM     38  C   UNL     1      -0.189  -7.527   7.671  1.00  0.00     0.031 A 
ATOM     39  C   UNL     1      -0.788  -7.942   8.988  1.00  0.00     0.074 A 
ATOM     40  C   UNL     1       0.963  -8.085   7.250  1.00  0.00     0.049 A 
ATOM     41  N   UNL     1      -0.384  -8.866   9.825  1.00  0.00    -0.248 NA
ATOM     42  C   UNL     1      -1.981  -7.210   9.441  1.00  0.00     0.031 C 
ATOM     43  C   UNL     1       1.683  -7.713   6.030  1.00  0.00     0.029 A 
ATOM     44  N   UNL     1       1.726  -9.088   7.790  1.00  0.00    -0.354 N 
ATOM     45  C   UNL     1      -1.267  -8.820  10.897  1.00  0.00     0.074 A 
ATOM     46  C   UNL     1      -2.185  -7.732  10.640  1.00  0.00     0.031 C 
ATOM     47  C   UNL     1       2.750  -8.513   5.886  1.00  0.00     0.029 A 
ATOM     48  C   UNL     1       2.814  -9.426   7.022  1.00  0.00     0.049 A 
ATOM     49  H   UNL     1       1.515  -9.525   8.647  1.00  0.00     0.167 HD
ATOM     50  C   UNL     1      -1.327  -9.630  11.982  1.00  0.00     0.037 A 
ATOM     51  C   UNL     1       3.752 -10.373   7.207  1.00  0.00     0.037 A 
ATOM     52  C   UNL     1      -0.417 -10.719  12.226  1.00  0.00     0.049 A 
ATOM     53  C   UNL     1       3.656 -11.266   8.414  1.00  0.00     0.074 A 
ATOM     54  C   UNL     1      -0.424 -11.636  13.263  1.00  0.00     0.029 A 
ATOM     55  N   UNL     1       0.671 -11.034  11.424  1.00  0.00    -0.354 N 
ATOM     56  N   UNL     1       2.763 -11.270   9.374  1.00  0.00    -0.248 NA
ATOM     57  C   UNL     1       4.693 -12.296   8.553  1.00  0.00     0.031 C 
ATOM     58  C   UNL     1       0.693 -12.466  13.121  1.00  0.00     0.029 A 
ATOM     59  C   UNL     1       1.359 -12.113  11.959  1.00  0.00     0.049 A 
ATOM     60  H   UNL     1       0.918 -10.561  10.597  1.00  0.00     0.167 HD
ATOM     61  C   UNL     1       3.115 -12.315  10.218  1.00  0.00     0.074 A 
ATOM     62  C   UNL     1       4.284 -12.942   9.635  1.00  0.00     0.031 C 
ATOM     63  C   UNL     1       2.529 -12.718  11.373  1.00  0.00     0.037 A 
BRANCH  50  64
ATOM     64  C   UNL     1      -2.417  -9.370  12.986  1.00  0.00     0.064 A 
ATOM     65  C   UNL     1      -3.771  -9.581  12.679  1.00  0.00     0.173 A 
ATOM     66  C   UNL     1      -2.103  -8.936  14.283  1.00  0.00     0.173 A 
ATOM     67  F   UNL     1      -4.130  -9.985  11.451  1.00  0.00    -0.203 F 
ATOM     68  C   UNL     1      -4.769  -9.336  13.620  1.00  0.00     0.198 A 
ATOM     69  C   UNL     1      -3.101  -8.727  15.233  1.00  0.00     0.198 A 
ATOM     70  F   UNL     1      -0.827  -8.723  14.636  1.00  0.00    -0.203 F 
ATOM     71  F   UNL     1      -6.057  -9.492  13.283  1.00  0.00    -0.200 F 
ATOM     72  C   UNL     1      -4.433  -8.918  14.898  1.00  0.00     0.200 A 
ATOM     73  F   UNL     1      -2.773  -8.337  16.472  1.00  0.00    -0.200 F 
ATOM     74  F   UNL     1      -5.393  -8.691  15.805  1.00  0.00    -0.200 F 
ENDBRANCH  50  64
BRANCH  51  75
ATOM     75  C   UNL     1       4.840 -10.550   6.208  1.00  0.00     0.064 A 
ATOM     76  C   UNL     1       4.915 -11.706   5.417  1.00  0.00     0.173 A 
ATOM     77  C   UNL     1       5.827  -9.571   6.024  1.00  0.00     0.173 A 
ATOM     78  F   UNL     1       4.003 -12.679   5.565  1.00  0.00    -0.203 F 
ATOM     79  C   UNL     1       5.950 -11.888   4.503  1.00  0.00     0.198 A 
ATOM     80  C   UNL     1       6.842  -9.739   5.084  1.00  0.00     0.198 A 
ATOM     81  F   UNL     1       5.797  -8.442   6.746  1.00  0.00    -0.203 F 
ATOM     82  F   UNL     1       6.027 -13.026   3.799  1.00  0.00    -0.200 F 
ATOM     83  C   UNL     1       6.909 -10.902   4.332  1.00  0.00     0.200 A 
ATOM     84  F   UNL     1       7.754  -8.773   4.907  1.00  0.00    -0.200 F 
ATOM     85  F   UNL     1       7.901 -11.073   3.448  1.00  0.00    -0.200 F 
ENDBRANCH  51  75
BRANCH  63  86
ATOM     86  C   UNL     1       3.137 -13.907  12.064  1.00  0.00     0.064 A 
ATOM     87  C   UNL     1       4.412 -13.851  12.648  1.00  0.00     0.173 A 
ATOM     88  C   UNL     1       2.438 -15.122  12.133  1.00  0.00     0.173 A 
ATOM     89  F   UNL     1       5.128 -12.717  12.599  1.00  0.00    -0.203 F 
ATOM     90  C   UNL     1       4.986 -14.980  13.226  1.00  0.00     0.198 A 
ATOM     91  C   UNL     1       2.999 -16.238  12.749  1.00  0.00     0.198 A 
ATOM     92  F   UNL     1       1.212 -15.230  11.602  1.00  0.00    -0.203 F 
ATOM     93  F   UNL     1       6.237 -14.922  13.705  1.00  0.00    -0.200 F 
ATOM     94  C   UNL     1       4.278 -16.171  13.280  1.00  0.00     0.200 A 
ATOM     95  F   UNL     1       2.306 -17.383  12.816  1.00  0.00    -0.200 F 
ATOM     96  F   UNL     1       4.834 -17.258  13.831  1.00  0.00    -0.200 F 
ENDBRANCH  63  86
ENDBRANCH  37  38
ENDBRANCH  29  32
ENDBRANCH  27  28
ENDBRANCH  26  27
ENDBRANCH   1  26
TORSDOF 14
