REMARK SMILES O=C(NCCCNC(=O)[C@H]1C[C@](O)(c2ccccc2Cl)[C@@H](c2ccccc2Cl)O1)c1ccc(-c2c3nc(c(-c4c(F)c(F)c(F)c(F)c4F)c4ccc([nH]4)c(-c4c(F)c(F)c(F)c(F)c4F)c4nc(c(-c5c(F)c(F)c(F)c(F)c5F)c5ccc2[nH]5)C=C4)C=C3)cc1
REMARK SMILES IDX 4 1 3 2 1 3 2 4 30 6 31 7 92 8 32 9 91 10 33 11 34 12 35 13
REMARK SMILES IDX 85 14 36 15 90 16 84 17 86 18 37 19 89 20 83 21 82 22 38 24
REMARK SMILES IDX 70 25 50 26 69 27 51 28 54 29 68 30 87 31 52 32 53 33 67 35
REMARK SMILES IDX 88 36 55 37 39 38 40 39 48 40 41 41 42 42 46 43 49 44 43 45
REMARK SMILES IDX 44 46 47 47 45 48 71 49 72 50 80 51 73 52 74 53 78 54 81 55
REMARK SMILES IDX 75 56 76 57 79 58 77 59 56 60 57 61 65 62 58 63 59 64 63 65
REMARK SMILES IDX 66 66 60 67 61 68 64 69 62 70 5 71 6 72 7 73 8 74 9 76 10 77
REMARK SMILES IDX 11 78 29 79 12 80 21 81 14 82 15 83 19 84 16 85 18 86 20 87
REMARK SMILES IDX 17 88 13 89 22 91 23 92 27 93 24 94 26 95 28 96 25 97
REMARK H PARENT 3 5 86 23 54 34 7 75 13 90
REMARK Flexibility Score: inf
ROOT
ATOM      1  C   UNL     1       6.939  -2.868   4.074  1.00  0.00     0.118 C 
ENDROOT
BRANCH   1   2
ATOM      2  N   UNL     1       7.114  -1.427   3.941  1.00  0.00    -0.352 N 
ATOM      3  O   UNL     1       6.947   0.753   4.464  1.00  0.00    -0.269 OA
ATOM      4  C   UNL     1       6.931  -0.418   4.850  1.00  0.00     0.251 C 
ATOM      5  H   UNL     1       7.412  -1.130   3.051  1.00  0.00     0.163 HD
BRANCH   4   6
ATOM      6  C   UNL     1       6.705  -0.705   6.283  1.00  0.00     0.039 A 
ATOM      7  C   UNL     1       7.434  -1.690   6.950  1.00  0.00     0.014 A 
ATOM      8  C   UNL     1       5.785   0.076   6.992  1.00  0.00     0.014 A 
ATOM      9  C   UNL     1       7.149  -1.987   8.281  1.00  0.00     0.010 A 
ATOM     10  C   UNL     1       5.561  -0.165   8.351  1.00  0.00     0.010 A 
ATOM     11  C   UNL     1       6.219  -1.220   9.001  1.00  0.00    -0.014 A 
BRANCH  11  12
ATOM     12  C   UNL     1       5.992  -1.502  10.442  1.00  0.00     0.031 A 
ATOM     13  C   UNL     1       4.659  -1.983  10.940  1.00  0.00     0.074 A 
ATOM     14  C   UNL     1       7.011  -1.334  11.307  1.00  0.00     0.049 A 
ATOM     15  N   UNL     1       4.296  -2.300  12.159  1.00  0.00    -0.248 NA
ATOM     16  C   UNL     1       3.588  -2.119   9.942  1.00  0.00     0.031 C 
ATOM     17  C   UNL     1       8.348  -0.858  10.948  1.00  0.00     0.029 A 
ATOM     18  N   UNL     1       7.089  -1.555  12.659  1.00  0.00    -0.354 N 
ATOM     19  C   UNL     1       2.956  -2.657  12.077  1.00  0.00     0.074 A 
ATOM     20  C   UNL     1       2.560  -2.483  10.695  1.00  0.00     0.031 C 
ATOM     21  C   UNL     1       9.125  -0.864  12.041  1.00  0.00     0.029 A 
ATOM     22  C   UNL     1       8.327  -1.287  13.187  1.00  0.00     0.049 A 
ATOM     23  H   UNL     1       6.330  -1.876  13.198  1.00  0.00     0.167 HD
ATOM     24  C   UNL     1       2.137  -3.099  13.063  1.00  0.00     0.037 A 
ATOM     25  C   UNL     1       8.771  -1.360  14.456  1.00  0.00     0.037 A 
ATOM     26  C   UNL     1       2.539  -3.272  14.437  1.00  0.00     0.049 A 
ATOM     27  C   UNL     1       7.831  -1.813  15.536  1.00  0.00     0.074 A 
ATOM     28  C   UNL     1       1.795  -3.754  15.500  1.00  0.00     0.029 A 
ATOM     29  N   UNL     1       3.792  -2.954  14.942  1.00  0.00    -0.354 N 
ATOM     30  N   UNL     1       6.582  -2.198  15.438  1.00  0.00    -0.248 NA
ATOM     31  C   UNL     1       8.364  -1.841  16.904  1.00  0.00     0.031 C 
ATOM     32  C   UNL     1       2.577  -3.671  16.658  1.00  0.00     0.029 A 
ATOM     33  C   UNL     1       3.832  -3.199  16.307  1.00  0.00     0.049 A 
ATOM     34  H   UNL     1       4.543  -2.605  14.409  1.00  0.00     0.167 HD
ATOM     35  C   UNL     1       6.186  -2.538  16.724  1.00  0.00     0.074 A 
ATOM     36  C   UNL     1       7.335  -2.328  17.582  1.00  0.00     0.031 C 
ATOM     37  C   UNL     1       4.980  -2.986  17.153  1.00  0.00     0.037 A 
BRANCH  24  38
ATOM     38  C   UNL     1       0.710  -3.400  12.695  1.00  0.00     0.064 A 
ATOM     39  C   UNL     1       0.368  -4.484  11.872  1.00  0.00     0.173 A 
ATOM     40  C   UNL     1      -0.335  -2.605  13.193  1.00  0.00     0.173 A 
ATOM     41  F   UNL     1       1.326  -5.274  11.363  1.00  0.00    -0.203 F 
ATOM     42  C   UNL     1      -0.958  -4.736  11.529  1.00  0.00     0.198 A 
ATOM     43  C   UNL     1      -1.663  -2.880  12.876  1.00  0.00     0.198 A 
ATOM     44  F   UNL     1      -0.069  -1.562  13.994  1.00  0.00    -0.203 F 
ATOM     45  F   UNL     1      -1.253  -5.742  10.693  1.00  0.00    -0.200 F 
ATOM     46  C   UNL     1      -1.973  -3.938  12.035  1.00  0.00     0.200 A 
ATOM     47  F   UNL     1      -2.643  -2.117  13.380  1.00  0.00    -0.200 F 
ATOM     48  F   UNL     1      -3.249  -4.182  11.705  1.00  0.00    -0.200 F 
ENDBRANCH  24  38
BRANCH  25  49
ATOM     49  C   UNL     1      10.181  -1.006  14.761  1.00  0.00     0.064 A 
ATOM     50  C   UNL     1      11.101  -1.988  15.152  1.00  0.00     0.173 A 
ATOM     51  C   UNL     1      10.644   0.313  14.643  1.00  0.00     0.173 A 
ATOM     52  F   UNL     1      10.701  -3.260  15.297  1.00  0.00    -0.203 F 
ATOM     53  C   UNL     1      12.428  -1.663  15.424  1.00  0.00     0.198 A 
ATOM     54  C   UNL     1      11.978   0.632  14.885  1.00  0.00     0.198 A 
ATOM     55  F   UNL     1       9.804   1.288  14.266  1.00  0.00    -0.203 F 
ATOM     56  F   UNL     1      13.278  -2.614  15.832  1.00  0.00    -0.200 F 
ATOM     57  C   UNL     1      12.867  -0.355  15.282  1.00  0.00     0.200 A 
ATOM     58  F   UNL     1      12.402   1.893  14.728  1.00  0.00    -0.200 F 
ATOM     59  F   UNL     1      14.147  -0.045  15.530  1.00  0.00    -0.200 F 
ENDBRANCH  25  49
BRANCH  37  60
ATOM     60  C   UNL     1       4.851  -3.317  18.613  1.00  0.00     0.064 A 
ATOM     61  C   UNL     1       4.846  -2.321  19.601  1.00  0.00     0.173 A 
ATOM     62  C   UNL     1       4.702  -4.651  19.026  1.00  0.00     0.173 A 
ATOM     63  F   UNL     1       5.002  -1.033  19.262  1.00  0.00    -0.203 F 
ATOM     64  C   UNL     1       4.727  -2.651  20.949  1.00  0.00     0.198 A 
ATOM     65  C   UNL     1       4.549  -4.973  20.371  1.00  0.00     0.198 A 
ATOM     66  F   UNL     1       4.695  -5.642  18.122  1.00  0.00    -0.203 F 
ATOM     67  F   UNL     1       4.781  -1.687  21.879  1.00  0.00    -0.200 F 
ATOM     68  C   UNL     1       4.571  -3.974  21.332  1.00  0.00     0.200 A 
ATOM     69  F   UNL     1       4.384  -6.252  20.738  1.00  0.00    -0.200 F 
ATOM     70  F   UNL     1       4.451  -4.288  22.629  1.00  0.00    -0.200 F 
ENDBRANCH  37  60
ENDBRANCH  11  12
ENDBRANCH   4   6
ENDBRANCH   1   2
BRANCH   1  71
ATOM     71  C   UNL     1       5.765  -3.396   3.259  1.00  0.00     0.042 C 
BRANCH  71  72
ATOM     72  C   UNL     1       5.929  -3.264   1.747  1.00  0.00     0.117 C 
BRANCH  72  73
ATOM     73  N   UNL     1       7.118  -3.917   1.236  1.00  0.00    -0.354 N 
ATOM     74  C   UNL     1       7.244  -5.153   0.670  1.00  0.00     0.249 C 
ATOM     75  H   UNL     1       7.951  -3.397   1.307  1.00  0.00     0.163 HD
ATOM     76  O   UNL     1       8.357  -5.464   0.241  1.00  0.00    -0.272 OA
BRANCH  74  77
ATOM     77  C   UNL     1       6.007  -6.078   0.549  1.00  0.00     0.211 C 
ATOM     78  C   UNL     1       6.387  -7.494   0.122  1.00  0.00     0.085 C 
ATOM     79  O   UNL     1       5.256  -6.168   1.760  1.00  0.00    -0.357 OA
ATOM     80  C   UNL     1       5.844  -8.425   1.207  1.00  0.00     0.124 C 
ATOM     81  C   UNL     1       5.454  -7.462   2.358  1.00  0.00     0.187 C 
BRANCH  80  82
ATOM     82  C   UNL     1       4.775  -9.350   0.584  1.00  0.00     0.005 A 
ATOM     83  C   UNL     1       5.265 -10.445  -0.179  1.00  0.00     0.008 A 
ATOM     84  C   UNL     1       3.372  -9.219   0.641  1.00  0.00     0.047 A 
ATOM     85  C   UNL     1       4.425 -11.390  -0.773  1.00  0.00     0.001 A 
ATOM     86  C   UNL     1       2.532 -10.201   0.082  1.00  0.00     0.021 A 
ATOM     87  Cl  UNL     1       2.524  -7.853   1.275  1.00  0.00    -0.084 Cl
ATOM     88  C   UNL     1       3.053 -11.285  -0.616  1.00  0.00     0.002 A 
ENDBRANCH  80  82
BRANCH  80  89
ATOM     89  O   UNL     1       6.917  -9.287   1.639  1.00  0.00    -0.382 OA
ATOM     90  H   UNL     1       7.619  -8.753   2.041  1.00  0.00     0.212 HD
ENDBRANCH  80  89
BRANCH  81  91
ATOM     91  C   UNL     1       6.363  -7.264   3.571  1.00  0.00     0.003 A 
ATOM     92  C   UNL     1       7.723  -6.934   3.413  1.00  0.00     0.008 A 
ATOM     93  C   UNL     1       5.858  -7.302   4.889  1.00  0.00     0.046 A 
ATOM     94  C   UNL     1       8.524  -6.594   4.507  1.00  0.00     0.000 A 
ATOM     95  C   UNL     1       6.669  -6.976   5.984  1.00  0.00     0.021 A 
ATOM     96  Cl  UNL     1       4.227  -7.747   5.262  1.00  0.00    -0.084 Cl
ATOM     97  C   UNL     1       7.996  -6.605   5.792  1.00  0.00     0.002 A 
ENDBRANCH  81  91
ENDBRANCH  74  77
ENDBRANCH  72  73
ENDBRANCH  71  72
ENDBRANCH   1  71
TORSDOF 13
