REMARK SMILES O=C(NCCCNC(=O)[C@@H]1[C@@H](C(=O)NCCCn2ccnc2)[C@@H]2C=C[C@H]1C2)c1ccc(-c2c3nc(c(-c4c(F)c(F)c(F)c(F)c4F)c4ccc([nH]4)c(-c4c(F)c(F)c(F)c(F)c4F)c4nc(c(-c5c(F)c(F)c(F)c(F)c5F)c5ccc2[nH]5)C=C4)C=C3)cc1
REMARK SMILES IDX 7 1 8 2 9 3 6 5 5 6 4 7 3 8 1 9 2 10 28 12 29 13 90 14 30 15
REMARK SMILES IDX 89 16 31 17 32 18 33 19 83 20 34 21 88 22 82 23 84 24 35 25
REMARK SMILES IDX 87 26 81 27 80 28 36 30 68 31 48 32 67 33 49 34 52 35 66 36
REMARK SMILES IDX 85 37 50 38 51 39 65 41 86 42 53 43 37 44 38 45 46 46 39 47
REMARK SMILES IDX 40 48 44 49 47 50 41 51 42 52 45 53 43 54 69 55 70 56 78 57
REMARK SMILES IDX 71 58 72 59 76 60 79 61 73 62 74 63 77 64 75 65 54 66 55 67
REMARK SMILES IDX 63 68 56 69 57 70 61 71 64 72 58 73 59 74 62 75 60 76 10 77
REMARK SMILES IDX 11 78 26 79 23 80 25 81 27 82 24 83 12 84 13 85 14 86 15 88
REMARK SMILES IDX 16 89 17 90 18 91 19 92 22 93 20 94 21 95
REMARK H PARENT 7 4 3 11 84 29 52 40 14 87
REMARK Flexibility Score: inf
ROOT
ATOM      1  N   UNL     1       4.839   0.099   4.074  1.00  0.00    -0.356 N 
ATOM      2  C   UNL     1       5.680   0.063   5.145  1.00  0.00     0.224 C 
ATOM      3  O   UNL     1       5.711  -1.005   5.767  1.00  0.00    -0.275 OA
ATOM      4  H   UNL     1       4.542  -0.793   3.779  1.00  0.00     0.163 HD
ENDROOT
BRANCH   1   5
ATOM      5  C   UNL     1       4.289   1.186   3.273  1.00  0.00     0.117 C 
BRANCH   5   6
ATOM      6  C   UNL     1       4.828   1.252   1.834  1.00  0.00     0.042 C 
BRANCH   6   7
ATOM      7  C   UNL     1       4.478   0.053   0.961  1.00  0.00     0.118 C 
BRANCH   7   8
ATOM      8  N   UNL     1       3.058  -0.144   0.779  1.00  0.00    -0.352 N 
ATOM      9  O   UNL     1       1.072  -0.436  -0.101  1.00  0.00    -0.269 OA
ATOM     10  C   UNL     1       2.163   0.168  -0.194  1.00  0.00     0.251 C 
ATOM     11  H   UNL     1       2.642  -0.614   1.538  1.00  0.00     0.163 HD
BRANCH  10  12
ATOM     12  C   UNL     1       2.293   1.215  -1.250  1.00  0.00     0.039 A 
ATOM     13  C   UNL     1       3.428   1.900  -1.681  1.00  0.00     0.014 A 
ATOM     14  C   UNL     1       1.086   1.536  -1.892  1.00  0.00     0.014 A 
ATOM     15  C   UNL     1       3.280   3.052  -2.502  1.00  0.00     0.010 A 
ATOM     16  C   UNL     1       0.973   2.595  -2.788  1.00  0.00     0.010 A 
ATOM     17  C   UNL     1       2.008   3.496  -2.947  1.00  0.00    -0.014 A 
BRANCH  17  18
ATOM     18  C   UNL     1       1.807   4.604  -3.935  1.00  0.00     0.031 A 
ATOM     19  C   UNL     1       2.503   4.167  -5.194  1.00  0.00     0.074 A 
ATOM     20  C   UNL     1       1.068   5.769  -3.817  1.00  0.00     0.049 A 
ATOM     21  N   UNL     1       3.686   4.549  -5.545  1.00  0.00    -0.248 NA
ATOM     22  C   UNL     1       2.055   2.982  -5.963  1.00  0.00     0.031 C 
ATOM     23  C   UNL     1       0.218   6.253  -2.708  1.00  0.00     0.029 A 
ATOM     24  N   UNL     1       0.921   6.846  -4.711  1.00  0.00    -0.354 N 
ATOM     25  C   UNL     1       3.961   3.922  -6.756  1.00  0.00     0.074 A 
ATOM     26  C   UNL     1       3.056   2.815  -6.838  1.00  0.00     0.031 C 
ATOM     27  C   UNL     1      -0.538   7.325  -3.087  1.00  0.00     0.029 A 
ATOM     28  C   UNL     1      -0.162   7.751  -4.424  1.00  0.00     0.049 A 
ATOM     29  H   UNL     1       1.519   6.973  -5.483  1.00  0.00     0.167 HD
ATOM     30  C   UNL     1       4.661   4.614  -7.698  1.00  0.00     0.037 A 
ATOM     31  C   UNL     1      -0.603   8.848  -5.154  1.00  0.00     0.037 A 
ATOM     32  C   UNL     1       5.296   5.748  -7.063  1.00  0.00     0.049 A 
ATOM     33  C   UNL     1       0.505   9.242  -6.057  1.00  0.00     0.074 A 
ATOM     34  C   UNL     1       6.254   5.930  -6.088  1.00  0.00     0.029 A 
ATOM     35  N   UNL     1       4.512   6.868  -7.060  1.00  0.00    -0.354 N 
ATOM     36  N   UNL     1       1.629   9.721  -5.608  1.00  0.00    -0.248 NA
ATOM     37  C   UNL     1       0.551   8.513  -7.313  1.00  0.00     0.031 C 
ATOM     38  C   UNL     1       5.783   7.021  -5.292  1.00  0.00     0.029 A 
ATOM     39  C   UNL     1       4.666   7.579  -5.909  1.00  0.00     0.049 A 
ATOM     40  H   UNL     1       3.912   7.127  -7.796  1.00  0.00     0.167 HD
ATOM     41  C   UNL     1       2.573   8.896  -6.191  1.00  0.00     0.074 A 
ATOM     42  C   UNL     1       1.837   8.161  -7.233  1.00  0.00     0.031 C 
ATOM     43  C   UNL     1       3.750   8.631  -5.550  1.00  0.00     0.037 A 
BRANCH  30  44
ATOM     44  C   UNL     1       4.316   4.650  -9.179  1.00  0.00     0.064 A 
ATOM     45  C   UNL     1       5.117   5.438 -10.036  1.00  0.00     0.173 A 
ATOM     46  C   UNL     1       3.083   4.233  -9.729  1.00  0.00     0.173 A 
ATOM     47  F   UNL     1       6.290   5.929  -9.610  1.00  0.00    -0.203 F 
ATOM     48  C   UNL     1       4.692   5.821 -11.314  1.00  0.00     0.198 A 
ATOM     49  C   UNL     1       2.684   4.579 -11.023  1.00  0.00     0.198 A 
ATOM     50  F   UNL     1       2.168   3.574  -9.013  1.00  0.00    -0.203 F 
ATOM     51  F   UNL     1       5.441   6.662 -12.040  1.00  0.00    -0.200 F 
ATOM     52  C   UNL     1       3.477   5.389 -11.808  1.00  0.00     0.200 A 
ATOM     53  F   UNL     1       1.485   4.179 -11.472  1.00  0.00    -0.200 F 
ATOM     54  F   UNL     1       3.051   5.785 -13.015  1.00  0.00    -0.200 F 
ENDBRANCH  30  44
BRANCH  31  55
ATOM     55  C   UNL     1      -1.994   9.359  -5.492  1.00  0.00     0.064 A 
ATOM     56  C   UNL     1      -2.262  10.581  -6.179  1.00  0.00     0.173 A 
ATOM     57  C   UNL     1      -3.069   8.460  -5.459  1.00  0.00     0.173 A 
ATOM     58  F   UNL     1      -1.298  11.501  -6.340  1.00  0.00    -0.203 F 
ATOM     59  C   UNL     1      -3.510  10.853  -6.787  1.00  0.00     0.198 A 
ATOM     60  C   UNL     1      -4.300   8.724  -6.079  1.00  0.00     0.198 A 
ATOM     61  F   UNL     1      -2.908   7.252  -4.907  1.00  0.00    -0.203 F 
ATOM     62  F   UNL     1      -3.711  11.998  -7.462  1.00  0.00    -0.200 F 
ATOM     63  C   UNL     1      -4.522   9.912  -6.750  1.00  0.00     0.200 A 
ATOM     64  F   UNL     1      -5.251   7.779  -6.078  1.00  0.00    -0.200 F 
ATOM     65  F   UNL     1      -5.684  10.125  -7.386  1.00  0.00    -0.200 F 
ENDBRANCH  31  55
BRANCH  43  66
ATOM     66  C   UNL     1       4.114   9.477  -4.362  1.00  0.00     0.064 A 
ATOM     67  C   UNL     1       3.434   9.509  -3.131  1.00  0.00     0.173 A 
ATOM     68  C   UNL     1       5.296  10.219  -4.464  1.00  0.00     0.173 A 
ATOM     69  F   UNL     1       2.360   8.737  -2.914  1.00  0.00    -0.203 F 
ATOM     70  C   UNL     1       3.893  10.306  -2.079  1.00  0.00     0.198 A 
ATOM     71  C   UNL     1       5.770  10.980  -3.405  1.00  0.00     0.198 A 
ATOM     72  F   UNL     1       6.023  10.166  -5.591  1.00  0.00    -0.203 F 
ATOM     73  F   UNL     1       3.226  10.341  -0.914  1.00  0.00    -0.200 F 
ATOM     74  C   UNL     1       5.058  11.045  -2.221  1.00  0.00     0.200 A 
ATOM     75  F   UNL     1       6.933  11.633  -3.531  1.00  0.00    -0.200 F 
ATOM     76  F   UNL     1       5.508  11.803  -1.211  1.00  0.00    -0.200 F 
ENDBRANCH  43  66
ENDBRANCH  17  18
ENDBRANCH  10  12
ENDBRANCH   7   8
ENDBRANCH   6   7
ENDBRANCH   5   6
ENDBRANCH   1   5
BRANCH   2  77
ATOM     77  C   UNL     1       6.471   1.284   5.651  1.00  0.00     0.098 C 
ATOM     78  C   UNL     1       7.072   2.191   4.560  1.00  0.00     0.098 C 
ATOM     79  C   UNL     1       7.776   0.872   6.432  1.00  0.00     0.025 C 
ATOM     80  C   UNL     1       8.606   2.030   4.712  1.00  0.00     0.025 C 
ATOM     81  C   UNL     1       8.498  -0.123   5.550  1.00  0.00    -0.027 C 
ATOM     82  C   UNL     1       8.813   1.992   6.213  1.00  0.00     0.017 C 
ATOM     83  C   UNL     1       8.951   0.563   4.485  1.00  0.00    -0.027 C 
BRANCH  78  84
ATOM     84  C   UNL     1       6.465   3.598   4.528  1.00  0.00     0.224 C 
ATOM     85  O   UNL     1       6.216   4.115   3.432  1.00  0.00    -0.275 OA
ATOM     86  N   UNL     1       6.091   4.320   5.619  1.00  0.00    -0.356 N 
ATOM     87  H   UNL     1       5.568   5.125   5.400  1.00  0.00     0.163 HD
BRANCH  86  88
ATOM     88  C   UNL     1       6.311   4.136   7.040  1.00  0.00     0.117 C 
BRANCH  88  89
ATOM     89  C   UNL     1       6.398   5.438   7.819  1.00  0.00     0.043 C 
BRANCH  89  90
ATOM     90  C   UNL     1       5.040   6.083   8.077  1.00  0.00     0.125 C 
BRANCH  90  91
ATOM     91  N   UNL     1       4.174   5.273   8.911  1.00  0.00    -0.337 N 
ATOM     92  C   UNL     1       3.491   4.147   8.541  1.00  0.00     0.107 A 
ATOM     93  C   UNL     1       3.933   5.477  10.239  1.00  0.00     0.199 A 
ATOM     94  C   UNL     1       2.991   3.634   9.714  1.00  0.00     0.130 A 
ATOM     95  N   UNL     1       3.249   4.482  10.757  1.00  0.00    -0.245 NA
ENDBRANCH  90  91
ENDBRANCH  89  90
ENDBRANCH  88  89
ENDBRANCH  86  88
ENDBRANCH  78  84
ENDBRANCH   2  77
TORSDOF 15
