REMARK SMILES [NH3+]C[C@H]1C[C@]1(C(=O)NCCCNC(=O)c1ccc(-c2c3nc(c(-c4c(F)c(F)c(F)c(F)c4F)c4ccc([nH]4)c(-c4c(F)c(F)c(F)c(F)c4F)c4nc(c(-c5c(F)c(F)c(F)c(F)c5F)c5ccc2[nH]5)C=C4)C=C3)cc1)c1ccccc1
REMARK SMILES IDX 10 1 9 2 8 3 6 4 7 5 5 7 3 8 4 9 2 10 1 11 78 15 79 16 83 17
REMARK SMILES IDX 80 18 82 19 81 20 11 21 12 22 13 23 14 25 15 26 16 27 77 28
REMARK SMILES IDX 17 29 76 30 18 31 19 32 20 33 70 34 21 35 75 36 69 37 71 38
REMARK SMILES IDX 22 39 74 40 68 41 67 42 23 44 55 45 35 46 54 47 36 48 39 49
REMARK SMILES IDX 53 50 72 51 37 52 38 53 52 55 73 56 40 57 24 58 25 59 33 60
REMARK SMILES IDX 26 61 27 62 31 63 34 64 28 65 29 66 32 67 30 68 56 69 57 70
REMARK SMILES IDX 65 71 58 72 59 73 63 74 66 75 60 76 61 77 64 78 62 79 41 80
REMARK SMILES IDX 42 81 50 82 43 83 44 84 48 85 51 86 45 87 46 88 49 89 47 90
REMARK H PARENT 8 6 1 12 1 13 1 14 12 24 71 43 39 54
REMARK Flexibility Score: inf
ROOT
ATOM      1  C   UNL     1       4.957   2.103   2.632  1.00  0.00     0.042 C 
ENDROOT
BRANCH   1   2
ATOM      2  C   UNL     1       4.109   3.254   2.096  1.00  0.00     0.117 C 
BRANCH   2   3
ATOM      3  N   UNL     1       3.934   3.191   0.664  1.00  0.00    -0.355 N 
ATOM      4  C   UNL     1       2.904   3.062  -0.222  1.00  0.00     0.231 C 
ATOM      5  O   UNL     1       3.267   3.264  -1.387  1.00  0.00    -0.274 OA
ATOM      6  H   UNL     1       4.798   3.260   0.197  1.00  0.00     0.163 HD
BRANCH   4   7
ATOM      7  C   UNL     1       1.425   2.767   0.057  1.00  0.00     0.083 C 
ATOM      8  C   UNL     1       0.746   2.143   1.301  1.00  0.00     0.065 C 
ATOM      9  C   UNL     1       0.822   3.638   1.169  1.00  0.00     0.033 C 
BRANCH   8  10
ATOM     10  C   UNL     1       1.425   1.312   2.323  1.00  0.00     0.263 C 
BRANCH  10  11
ATOM     11  N   UNL     1       1.278   1.883   3.653  1.00  0.00    -0.357 N 
ATOM     12  H   UNL     1       1.755   1.290   4.333  1.00  0.00     0.344 HD
ATOM     13  H   UNL     1       0.288   1.943   3.890  1.00  0.00     0.344 HD
ATOM     14  H   UNL     1       1.689   2.817   3.669  1.00  0.00     0.344 HD
ENDBRANCH  10  11
ENDBRANCH   8  10
BRANCH   7  15
ATOM     15  C   UNL     1       0.591   2.464  -1.247  1.00  0.00    -0.032 A 
ATOM     16  C   UNL     1       1.108   1.616  -2.252  1.00  0.00     0.005 A 
ATOM     17  C   UNL     1      -0.679   3.016  -1.501  1.00  0.00     0.005 A 
ATOM     18  C   UNL     1       0.448   1.409  -3.467  1.00  0.00     0.000 A 
ATOM     19  C   UNL     1      -1.361   2.786  -2.701  1.00  0.00     0.000 A 
ATOM     20  C   UNL     1      -0.787   2.000  -3.694  1.00  0.00     0.000 A 
ENDBRANCH   7  15
ENDBRANCH   4   7
ENDBRANCH   2   3
ENDBRANCH   1   2
BRANCH   1  21
ATOM     21  C   UNL     1       6.345   1.989   2.011  1.00  0.00     0.118 C 
BRANCH  21  22
ATOM     22  N   UNL     1       7.166   3.166   2.245  1.00  0.00    -0.352 N 
ATOM     23  C   UNL     1       8.305   3.323   2.990  1.00  0.00     0.251 C 
ATOM     24  H   UNL     1       6.853   3.983   1.794  1.00  0.00     0.163 HD
ATOM     25  O   UNL     1       8.723   4.460   3.217  1.00  0.00    -0.269 OA
BRANCH  23  26
ATOM     26  C   UNL     1       9.025   2.158   3.546  1.00  0.00     0.039 A 
ATOM     27  C   UNL     1       9.562   2.256   4.833  1.00  0.00     0.014 A 
ATOM     28  C   UNL     1       9.213   0.988   2.803  1.00  0.00     0.014 A 
ATOM     29  C   UNL     1      10.225   1.165   5.396  1.00  0.00     0.010 A 
ATOM     30  C   UNL     1       9.800  -0.128   3.397  1.00  0.00     0.010 A 
ATOM     31  C   UNL     1      10.315  -0.051   4.698  1.00  0.00    -0.014 A 
BRANCH  31  32
ATOM     32  C   UNL     1      10.928  -1.246   5.332  1.00  0.00     0.031 A 
ATOM     33  C   UNL     1      12.182  -1.856   4.769  1.00  0.00     0.074 A 
ATOM     34  C   UNL     1      10.323  -1.809   6.395  1.00  0.00     0.049 A 
ATOM     35  N   UNL     1      12.851  -2.902   5.185  1.00  0.00    -0.248 NA
ATOM     36  C   UNL     1      12.744  -1.226   3.565  1.00  0.00     0.031 C 
ATOM     37  C   UNL     1       9.068  -1.349   6.993  1.00  0.00     0.029 A 
ATOM     38  N   UNL     1      10.678  -2.891   7.161  1.00  0.00    -0.354 N 
ATOM     39  C   UNL     1      13.903  -3.060   4.292  1.00  0.00     0.074 A 
ATOM     40  C   UNL     1      13.752  -2.038   3.279  1.00  0.00     0.031 C 
ATOM     41  C   UNL     1       8.776  -2.121   8.051  1.00  0.00     0.029 A 
ATOM     42  C   UNL     1       9.803  -3.148   8.188  1.00  0.00     0.049 A 
ATOM     43  H   UNL     1      11.483  -3.431   6.991  1.00  0.00     0.167 HD
ATOM     44  C   UNL     1      14.915  -3.959   4.328  1.00  0.00     0.037 A 
ATOM     45  C   UNL     1       9.828  -4.104   9.136  1.00  0.00     0.037 A 
ATOM     46  C   UNL     1      15.074  -4.962   5.350  1.00  0.00     0.049 A 
ATOM     47  C   UNL     1      10.973  -5.078   9.162  1.00  0.00     0.074 A 
ATOM     48  C   UNL     1      16.099  -5.877   5.511  1.00  0.00     0.029 A 
ATOM     49  N   UNL     1      14.176  -5.183   6.385  1.00  0.00    -0.354 N 
ATOM     50  N   UNL     1      12.005  -5.166   8.358  1.00  0.00    -0.248 NA
ATOM     51  C   UNL     1      10.961  -6.080  10.237  1.00  0.00     0.031 C 
ATOM     52  C   UNL     1      15.800  -6.681   6.617  1.00  0.00     0.029 A 
ATOM     53  C   UNL     1      14.613  -6.235   7.175  1.00  0.00     0.049 A 
ATOM     54  H   UNL     1      13.350  -4.668   6.535  1.00  0.00     0.167 HD
ATOM     55  C   UNL     1      12.773  -6.217   8.838  1.00  0.00     0.074 A 
ATOM     56  C   UNL     1      12.102  -6.718  10.021  1.00  0.00     0.031 C 
ATOM     57  C   UNL     1      13.928  -6.726   8.343  1.00  0.00     0.037 A 
BRANCH  44  58
ATOM     58  C   UNL     1      15.939  -3.896   3.231  1.00  0.00     0.064 A 
ATOM     59  C   UNL     1      16.852  -2.833   3.137  1.00  0.00     0.173 A 
ATOM     60  C   UNL     1      16.035  -4.926   2.283  1.00  0.00     0.173 A 
ATOM     61  F   UNL     1      16.796  -1.817   4.010  1.00  0.00    -0.203 F 
ATOM     62  C   UNL     1      17.802  -2.790   2.119  1.00  0.00     0.198 A 
ATOM     63  C   UNL     1      17.006  -4.895   1.285  1.00  0.00     0.198 A 
ATOM     64  F   UNL     1      15.192  -5.969   2.329  1.00  0.00    -0.203 F 
ATOM     65  F   UNL     1      18.630  -1.741   2.022  1.00  0.00    -0.200 F 
ATOM     66  C   UNL     1      17.883  -3.824   1.199  1.00  0.00     0.200 A 
ATOM     67  F   UNL     1      17.092  -5.902   0.404  1.00  0.00    -0.200 F 
ATOM     68  F   UNL     1      18.803  -3.785   0.225  1.00  0.00    -0.200 F 
ENDBRANCH  44  58
BRANCH  45  69
ATOM     69  C   UNL     1       8.752  -4.162  10.159  1.00  0.00     0.064 A 
ATOM     70  C   UNL     1       9.014  -3.834  11.496  1.00  0.00     0.173 A 
ATOM     71  C   UNL     1       7.446  -4.545   9.824  1.00  0.00     0.173 A 
ATOM     72  F   UNL     1      10.253  -3.481  11.869  1.00  0.00    -0.203 F 
ATOM     73  C   UNL     1       8.015  -3.908  12.464  1.00  0.00     0.198 A 
ATOM     74  C   UNL     1       6.440  -4.590  10.787  1.00  0.00     0.198 A 
ATOM     75  F   UNL     1       7.143  -4.861   8.556  1.00  0.00    -0.203 F 
ATOM     76  F   UNL     1       8.303  -3.633  13.744  1.00  0.00    -0.200 F 
ATOM     77  C   UNL     1       6.727  -4.280  12.108  1.00  0.00     0.200 A 
ATOM     78  F   UNL     1       5.194  -4.935  10.436  1.00  0.00    -0.200 F 
ATOM     79  F   UNL     1       5.765  -4.346  13.038  1.00  0.00    -0.200 F 
ENDBRANCH  45  69
BRANCH  57  80
ATOM     80  C   UNL     1      14.542  -7.873   9.094  1.00  0.00     0.064 A 
ATOM     81  C   UNL     1      13.956  -9.148   9.094  1.00  0.00     0.173 A 
ATOM     82  C   UNL     1      15.732  -7.697   9.815  1.00  0.00     0.173 A 
ATOM     83  F   UNL     1      12.808  -9.363   8.433  1.00  0.00    -0.203 F 
ATOM     84  C   UNL     1      14.518 -10.194   9.820  1.00  0.00     0.198 A 
ATOM     85  C   UNL     1      16.309  -8.754  10.513  1.00  0.00     0.198 A 
ATOM     86  F   UNL     1      16.337  -6.500   9.841  1.00  0.00    -0.203 F 
ATOM     87  F   UNL     1      13.907 -11.386   9.856  1.00  0.00    -0.200 F 
ATOM     88  C   UNL     1      15.696  -9.998  10.525  1.00  0.00     0.200 A 
ATOM     89  F   UNL     1      17.455  -8.567  11.184  1.00  0.00    -0.200 F 
ATOM     90  F   UNL     1      16.235 -11.005  11.225  1.00  0.00    -0.200 F 
ENDBRANCH  57  80
ENDBRANCH  31  32
ENDBRANCH  23  26
ENDBRANCH  21  22
ENDBRANCH   1  21
TORSDOF 13
