REMARK SMILES COCCNC(=O)NC(=O)C[N@H+]1CC[C@H](C(=O)NCCCNC(=O)c2ccc(-c3c4nc(c(-c5c(F)c(F)c(F)c(F)c5F)c5ccc([nH]5)c(-c5c(F)c(F)c(F)c(F)c5F)c5nc(c(-c6c(F)c(F)c(F)c(F)c6F)c6ccc3[nH]6)C=C5)C=C4)cc2)[C@@H]1C
REMARK SMILES IDX 16 1 17 2 18 3 15 5 12 6 13 7 88 8 14 10 89 11 11 12 9 13
REMARK SMILES IDX 5 14 6 15 7 17 8 18 10 20 4 21 3 22 2 23 1 24 19 25 20 26
REMARK SMILES IDX 21 27 22 28 23 29 24 31 25 32 26 33 87 34 27 35 86 36 28 37
REMARK SMILES IDX 29 38 30 39 80 40 31 41 85 42 79 43 81 44 32 45 84 46 78 47
REMARK SMILES IDX 77 48 33 50 65 51 45 52 64 53 46 54 49 55 63 56 82 57 47 58
REMARK SMILES IDX 48 59 62 61 83 62 50 63 34 64 35 65 43 66 36 67 37 68 41 69
REMARK SMILES IDX 44 70 38 71 39 72 42 73 40 74 66 75 67 76 75 77 68 78 69 79
REMARK SMILES IDX 73 80 76 81 70 82 71 83 74 84 72 85 51 86 52 87 60 88 53 89
REMARK SMILES IDX 54 90 58 91 61 92 55 93 56 94 59 95 57 96
REMARK H PARENT 18 4 12 9 5 16 8 19 22 30 81 49 49 60
REMARK Flexibility Score: inf
ROOT
ATOM      1  C   UNL     1       3.766   0.449   0.121  1.00  0.00     0.229 C 
ATOM      2  O   UNL     1       4.729   0.469   0.888  1.00  0.00    -0.275 OA
ATOM      3  N   UNL     1       3.377   1.632  -0.432  1.00  0.00    -0.356 N 
ATOM      4  H   UNL     1       3.837   2.424  -0.071  1.00  0.00     0.163 HD
ENDROOT
BRANCH   1   5
ATOM      5  C   UNL     1       3.033  -0.826  -0.235  1.00  0.00     0.142 C 
ATOM      6  N   UNL     1       2.922  -2.958   0.813  1.00  0.00    -0.324 N 
ATOM      7  C   UNL     1       4.068  -3.020  -0.068  1.00  0.00     0.263 C 
ATOM      8  C   UNL     1       2.437  -1.596   0.943  1.00  0.00     0.194 C 
ATOM      9  H   UNL     1       3.313  -3.241   1.712  1.00  0.00     0.348 HD
ATOM     10  C   UNL     1       3.944  -1.805  -0.971  1.00  0.00     0.081 C 
ATOM     11  C   UNL     1       2.671  -1.075   2.358  1.00  0.00     0.076 C 
BRANCH   6  12
ATOM     12  C   UNL     1       1.969  -4.053   0.912  1.00  0.00     0.364 C 
BRANCH  12  13
ATOM     13  C   UNL     1       1.722  -4.842  -0.369  1.00  0.00     0.283 C 
ATOM     14  N   UNL     1      -0.209  -2.341  -1.026  1.00  0.00    -0.335 N 
ATOM     15  C   UNL     1       0.667  -3.076  -1.744  1.00  0.00     0.321 C 
ATOM     16  H   UNL     1      -0.152  -1.367  -1.164  1.00  0.00     0.165 HD
ATOM     17  O   UNL     1       1.133  -2.594  -2.774  1.00  0.00    -0.248 OA
ATOM     18  N   UNL     1       0.933  -4.356  -1.385  1.00  0.00    -0.273 N 
ATOM     19  H   UNL     1       0.494  -5.043  -1.937  1.00  0.00     0.175 HD
ATOM     20  O   UNL     1       2.244  -5.951  -0.536  1.00  0.00    -0.268 OA
BRANCH  14  21
ATOM     21  C   UNL     1      -1.225  -2.773  -0.079  1.00  0.00     0.146 C 
BRANCH  21  22
ATOM     22  C   UNL     1      -1.349  -1.882   1.166  1.00  0.00     0.181 C 
BRANCH  22  23
ATOM     23  O   UNL     1      -1.807  -0.561   0.867  1.00  0.00    -0.383 OA
ATOM     24  C   UNL     1      -0.777   0.388   0.631  1.00  0.00     0.194 C 
ENDBRANCH  22  23
ENDBRANCH  21  22
ENDBRANCH  14  21
ENDBRANCH  12  13
ENDBRANCH   6  12
ENDBRANCH   1   5
BRANCH   3  25
ATOM     25  C   UNL     1       2.397   1.917  -1.465  1.00  0.00     0.117 C 
BRANCH  25  26
ATOM     26  C   UNL     1       1.548   3.138  -1.136  1.00  0.00     0.042 C 
BRANCH  26  27
ATOM     27  C   UNL     1       2.338   4.418  -0.901  1.00  0.00     0.118 C 
BRANCH  27  28
ATOM     28  N   UNL     1       3.188   4.783  -2.024  1.00  0.00    -0.352 N 
ATOM     29  C   UNL     1       3.321   5.990  -2.661  1.00  0.00     0.251 C 
ATOM     30  H   UNL     1       3.749   4.056  -2.379  1.00  0.00     0.163 HD
ATOM     31  O   UNL     1       3.986   6.068  -3.693  1.00  0.00    -0.269 OA
BRANCH  29  32
ATOM     32  C   UNL     1       2.644   7.190  -2.130  1.00  0.00     0.039 A 
ATOM     33  C   UNL     1       2.003   8.051  -3.024  1.00  0.00     0.014 A 
ATOM     34  C   UNL     1       2.640   7.471  -0.761  1.00  0.00     0.014 A 
ATOM     35  C   UNL     1       1.304   9.157  -2.539  1.00  0.00     0.010 A 
ATOM     36  C   UNL     1       1.873   8.524  -0.272  1.00  0.00     0.010 A 
ATOM     37  C   UNL     1       1.200   9.380  -1.156  1.00  0.00    -0.014 A 
BRANCH  37  38
ATOM     38  C   UNL     1       0.398  10.509  -0.618  1.00  0.00     0.031 A 
ATOM     39  C   UNL     1       1.068  11.604   0.166  1.00  0.00     0.074 A 
ATOM     40  C   UNL     1      -0.938  10.521  -0.793  1.00  0.00     0.049 A 
ATOM     41  N   UNL     1       0.534  12.635   0.771  1.00  0.00    -0.248 NA
ATOM     42  C   UNL     1       2.530  11.517   0.309  1.00  0.00     0.031 C 
ATOM     43  C   UNL     1      -1.707   9.499  -1.505  1.00  0.00     0.029 A 
ATOM     44  N   UNL     1      -1.887  11.423  -0.382  1.00  0.00    -0.354 N 
ATOM     45  C   UNL     1       1.591  13.315   1.363  1.00  0.00     0.074 A 
ATOM     46  C   UNL     1       2.788  12.544   1.105  1.00  0.00     0.031 C 
ATOM     47  C   UNL     1      -3.004   9.845  -1.506  1.00  0.00     0.029 A 
ATOM     48  C   UNL     1      -3.166  11.088  -0.757  1.00  0.00     0.049 A 
ATOM     49  H   UNL     1      -1.672  12.233   0.134  1.00  0.00     0.167 HD
ATOM     50  C   UNL     1       1.570  14.491   2.033  1.00  0.00     0.037 A 
ATOM     51  C   UNL     1      -4.336  11.709  -0.515  1.00  0.00     0.037 A 
ATOM     52  C   UNL     1       0.379  15.261   2.280  1.00  0.00     0.049 A 
ATOM     53  C   UNL     1      -4.332  12.990   0.277  1.00  0.00     0.074 A 
ATOM     54  C   UNL     1       0.256  16.476   2.931  1.00  0.00     0.029 A 
ATOM     55  N   UNL     1      -0.897  14.887   1.886  1.00  0.00    -0.354 N 
ATOM     56  N   UNL     1      -3.320  13.651   0.783  1.00  0.00    -0.248 NA
ATOM     57  C   UNL     1      -5.639  13.615   0.527  1.00  0.00     0.031 C 
ATOM     58  C   UNL     1      -1.100  16.815   2.971  1.00  0.00     0.029 A 
ATOM     59  C   UNL     1      -1.816  15.841   2.295  1.00  0.00     0.049 A 
ATOM     60  H   UNL     1      -1.118  14.066   1.390  1.00  0.00     0.167 HD
ATOM     61  C   UNL     1      -3.861  14.786   1.372  1.00  0.00     0.074 A 
ATOM     62  C   UNL     1      -5.290  14.732   1.147  1.00  0.00     0.031 C 
ATOM     63  C   UNL     1      -3.233  15.783   2.042  1.00  0.00     0.037 A 
BRANCH  50  64
ATOM     64  C   UNL     1       2.880  15.028   2.536  1.00  0.00     0.064 A 
ATOM     65  C   UNL     1       3.862  15.504   1.653  1.00  0.00     0.173 A 
ATOM     66  C   UNL     1       3.139  15.116   3.912  1.00  0.00     0.173 A 
ATOM     67  F   UNL     1       3.670  15.433   0.327  1.00  0.00    -0.203 F 
ATOM     68  C   UNL     1       5.064  16.023   2.128  1.00  0.00     0.198 A 
ATOM     69  C   UNL     1       4.328  15.665   4.384  1.00  0.00     0.198 A 
ATOM     70  F   UNL     1       2.233  14.681   4.800  1.00  0.00    -0.203 F 
ATOM     71  F   UNL     1       6.005  16.427   1.264  1.00  0.00    -0.200 F 
ATOM     72  C   UNL     1       5.292  16.112   3.493  1.00  0.00     0.200 A 
ATOM     73  F   UNL     1       4.541  15.765   5.704  1.00  0.00    -0.200 F 
ATOM     74  F   UNL     1       6.444  16.623   3.949  1.00  0.00    -0.200 F 
ENDBRANCH  50  64
BRANCH  51  75
ATOM     75  C   UNL     1      -5.611  11.147  -1.036  1.00  0.00     0.064 A 
ATOM     76  C   UNL     1      -6.358  11.835  -2.004  1.00  0.00     0.173 A 
ATOM     77  C   UNL     1      -6.134   9.940  -0.550  1.00  0.00     0.173 A 
ATOM     78  F   UNL     1      -5.911  13.004  -2.488  1.00  0.00    -0.203 F 
ATOM     79  C   UNL     1      -7.594  11.359  -2.436  1.00  0.00     0.198 A 
ATOM     80  C   UNL     1      -7.354   9.446  -1.008  1.00  0.00     0.198 A 
ATOM     81  F   UNL     1      -5.459   9.238   0.372  1.00  0.00    -0.203 F 
ATOM     82  F   UNL     1      -8.316  12.072  -3.310  1.00  0.00    -0.200 F 
ATOM     83  C   UNL     1      -8.090  10.163  -1.940  1.00  0.00     0.200 A 
ATOM     84  F   UNL     1      -7.822   8.282  -0.538  1.00  0.00    -0.200 F 
ATOM     85  F   UNL     1      -9.282   9.708  -2.349  1.00  0.00    -0.200 F 
ENDBRANCH  51  75
BRANCH  63  86
ATOM     86  C   UNL     1      -4.077  16.926   2.529  1.00  0.00     0.064 A 
ATOM     87  C   UNL     1      -4.991  16.776   3.582  1.00  0.00     0.173 A 
ATOM     88  C   UNL     1      -3.943  18.199   1.952  1.00  0.00     0.173 A 
ATOM     89  F   UNL     1      -5.168  15.577   4.157  1.00  0.00    -0.203 F 
ATOM     90  C   UNL     1      -5.763  17.850   4.018  1.00  0.00     0.198 A 
ATOM     91  C   UNL     1      -4.690  19.279   2.415  1.00  0.00     0.198 A 
ATOM     92  F   UNL     1      -3.078  18.399   0.947  1.00  0.00    -0.203 F 
ATOM     93  F   UNL     1      -6.671  17.670   4.987  1.00  0.00    -0.200 F 
ATOM     94  C   UNL     1      -5.606  19.101   3.440  1.00  0.00     0.200 A 
ATOM     95  F   UNL     1      -4.525  20.490   1.866  1.00  0.00    -0.200 F 
ATOM     96  F   UNL     1      -6.345  20.135   3.867  1.00  0.00    -0.200 F 
ENDBRANCH  63  86
ENDBRANCH  37  38
ENDBRANCH  29  32
ENDBRANCH  27  28
ENDBRANCH  26  27
ENDBRANCH  25  26
ENDBRANCH   3  25
TORSDOF 15
