REMARK SMILES Cc1ccc(C(=O)NCCCNC(=O)c2ccc(-c3c4nc(c(-c5c(F)c(F)c(F)c(F)c5F)c5ccc([nH]5)c(-c5c(F)c(F)c(F)c(F)c5F)c5nc(c(-c6c(F)c(F)c(F)c(F)c6F)c6ccc3[nH]6)C=C5)C=C4)cc2)cc1NC(=O)C(=O)NC[C@@H](c1ccccc1)[NH+]1CC[NH+](C)CC1
REMARK SMILES IDX 6 1 7 2 8 3 5 5 1 6 2 7 3 8 79 9 4 10 78 11 80 12 81 13
REMARK SMILES IDX 82 15 83 16 84 17 85 18 86 20 87 21 94 22 95 23 100 24 96 26
REMARK SMILES IDX 99 27 97 28 98 29 88 31 89 32 93 33 90 34 92 35 91 36 9 37
REMARK SMILES IDX 10 38 11 39 12 40 13 41 14 43 15 44 16 45 77 46 17 47 76 48
REMARK SMILES IDX 18 49 19 50 20 51 70 52 21 53 75 54 69 55 71 56 22 57 74 58
REMARK SMILES IDX 68 59 67 60 23 62 55 63 35 64 54 65 36 66 39 67 53 68 72 69
REMARK SMILES IDX 37 70 38 71 52 73 73 74 40 75 24 76 25 77 33 78 26 79 27 80
REMARK SMILES IDX 31 81 34 82 28 83 29 84 32 85 30 86 56 87 57 88 65 89 58 90
REMARK SMILES IDX 59 91 63 92 66 93 60 94 61 95 64 96 62 97 41 98 42 99 50 100
REMARK SMILES IDX 43 101 44 102 48 103 51 104 45 105 46 106 49 107 47 108
REMARK H PARENT 8 4 80 14 85 19 94 25 97 30 12 42 71 61 39 72
REMARK Flexibility Score: inf
ROOT
ATOM      1  C   UNL     1       3.075  10.196  -5.888  1.00  0.00     0.251 C 
ATOM      2  O   UNL     1       4.033  10.327  -6.647  1.00  0.00    -0.269 OA
ATOM      3  N   UNL     1       2.865   8.967  -5.310  1.00  0.00    -0.352 N 
ATOM      4  H   UNL     1       3.536   8.284  -5.536  1.00  0.00     0.163 HD
ENDROOT
BRANCH   1   5
ATOM      5  C   UNL     1       2.148  11.344  -5.679  1.00  0.00     0.041 A 
ATOM      6  C   UNL     1      -0.747  14.542  -5.449  1.00  0.00     0.046 C 
ATOM      7  C   UNL     1       0.271  13.436  -5.463  1.00  0.00    -0.027 A 
ATOM      8  C   UNL     1       1.006  13.240  -6.649  1.00  0.00     0.006 A 
ATOM      9  C   UNL     1       0.510  12.590  -4.365  1.00  0.00     0.045 A 
ATOM     10  C   UNL     1       1.911  12.185  -6.767  1.00  0.00     0.014 A 
ATOM     11  C   UNL     1       1.518  11.622  -4.460  1.00  0.00     0.040 A 
BRANCH   9  12
ATOM     12  N   UNL     1      -0.240  12.712  -3.172  1.00  0.00    -0.318 N 
ATOM     13  C   UNL     1      -0.732  11.691  -2.356  1.00  0.00     0.313 C 
ATOM     14  H   UNL     1      -0.441  13.631  -2.880  1.00  0.00     0.170 HD
ATOM     15  O   UNL     1      -1.189  11.917  -1.241  1.00  0.00    -0.263 OA
BRANCH  13  16
ATOM     16  C   UNL     1      -0.871  10.282  -2.975  1.00  0.00     0.309 C 
ATOM     17  O   UNL     1      -1.088  10.163  -4.180  1.00  0.00    -0.264 OA
ATOM     18  N   UNL     1      -0.791   9.128  -2.231  1.00  0.00    -0.341 N 
ATOM     19  H   UNL     1      -0.446   8.352  -2.729  1.00  0.00     0.164 HD
BRANCH  18  20
ATOM     20  C   UNL     1      -1.128   8.837  -0.825  1.00  0.00     0.186 C 
BRANCH  20  21
ATOM     21  C   UNL     1      -1.805   7.404  -0.702  1.00  0.00     0.235 C 
BRANCH  21  22
ATOM     22  N   UNL     1      -3.201   7.199  -1.166  1.00  0.00    -0.318 N 
ATOM     23  C   UNL     1      -3.581   7.786  -2.456  1.00  0.00     0.325 C 
ATOM     24  C   UNL     1      -4.259   7.466  -0.183  1.00  0.00     0.325 C 
ATOM     25  H   UNL     1      -3.146   6.191  -1.310  1.00  0.00     0.349 HD
ATOM     26  C   UNL     1      -4.080   9.250  -2.405  1.00  0.00     0.324 C 
ATOM     27  C   UNL     1      -4.622   8.950  -0.041  1.00  0.00     0.324 C 
ATOM     28  N   UNL     1      -5.022   9.567  -1.317  1.00  0.00    -0.328 N 
ATOM     29  C   UNL     1      -5.122  11.019  -1.155  1.00  0.00     0.333 C 
ATOM     30  H   UNL     1      -5.930   9.181  -1.575  1.00  0.00     0.348 HD
ENDBRANCH  21  22
BRANCH  21  31
ATOM     31  C   UNL     1      -1.513   6.606   0.577  1.00  0.00     0.011 A 
ATOM     32  C   UNL     1      -1.698   5.204   0.535  1.00  0.00     0.010 A 
ATOM     33  C   UNL     1      -1.031   7.166   1.764  1.00  0.00     0.010 A 
ATOM     34  C   UNL     1      -1.352   4.386   1.610  1.00  0.00     0.001 A 
ATOM     35  C   UNL     1      -0.693   6.343   2.848  1.00  0.00     0.001 A 
ATOM     36  C   UNL     1      -0.839   4.958   2.766  1.00  0.00     0.000 A 
ENDBRANCH  21  31
ENDBRANCH  20  21
ENDBRANCH  18  20
ENDBRANCH  13  16
ENDBRANCH   9  12
ENDBRANCH   1   5
BRANCH   3  37
ATOM     37  C   UNL     1       1.815   8.518  -4.423  1.00  0.00     0.118 C 
BRANCH  37  38
ATOM     38  C   UNL     1       0.896   7.470  -5.016  1.00  0.00     0.042 C 
BRANCH  38  39
ATOM     39  C   UNL     1       1.079   6.114  -4.367  1.00  0.00     0.118 C 
BRANCH  39  40
ATOM     40  N   UNL     1       0.784   6.066  -2.934  1.00  0.00    -0.352 N 
ATOM     41  C   UNL     1       0.755   4.959  -2.099  1.00  0.00     0.251 C 
ATOM     42  H   UNL     1       0.581   6.930  -2.508  1.00  0.00     0.163 HD
ATOM     43  O   UNL     1       0.834   5.116  -0.887  1.00  0.00    -0.269 OA
BRANCH  41  44
ATOM     44  C   UNL     1       0.863   3.601  -2.672  1.00  0.00     0.039 A 
ATOM     45  C   UNL     1       2.044   2.948  -2.315  1.00  0.00     0.014 A 
ATOM     46  C   UNL     1       0.232   3.340  -3.881  1.00  0.00     0.014 A 
ATOM     47  C   UNL     1       2.823   2.415  -3.327  1.00  0.00     0.010 A 
ATOM     48  C   UNL     1       1.039   2.884  -4.907  1.00  0.00     0.010 A 
ATOM     49  C   UNL     1       2.373   2.542  -4.640  1.00  0.00    -0.014 A 
BRANCH  49  50
ATOM     50  C   UNL     1       3.295   2.466  -5.767  1.00  0.00     0.031 A 
ATOM     51  C   UNL     1       3.272   1.270  -6.623  1.00  0.00     0.074 A 
ATOM     52  C   UNL     1       4.228   3.420  -6.003  1.00  0.00     0.049 A 
ATOM     53  N   UNL     1       4.336   0.713  -7.094  1.00  0.00    -0.248 NA
ATOM     54  C   UNL     1       2.041   0.575  -6.969  1.00  0.00     0.031 C 
ATOM     55  C   UNL     1       5.106   3.500  -7.170  1.00  0.00     0.029 A 
ATOM     56  N   UNL     1       4.707   4.420  -5.141  1.00  0.00    -0.354 N 
ATOM     57  C   UNL     1       3.934  -0.246  -7.990  1.00  0.00     0.074 A 
ATOM     58  C   UNL     1       2.499  -0.336  -7.831  1.00  0.00     0.031 C 
ATOM     59  C   UNL     1       6.169   4.259  -6.868  1.00  0.00     0.029 A 
ATOM     60  C   UNL     1       6.068   4.628  -5.470  1.00  0.00     0.049 A 
ATOM     61  H   UNL     1       4.194   4.887  -4.442  1.00  0.00     0.167 HD
ATOM     62  C   UNL     1       4.834  -0.771  -8.868  1.00  0.00     0.037 A 
ATOM     63  C   UNL     1       7.070   4.544  -4.549  1.00  0.00     0.037 A 
ATOM     64  C   UNL     1       6.152  -0.162  -8.719  1.00  0.00     0.049 A 
ATOM     65  C   UNL     1       8.095   3.483  -4.856  1.00  0.00     0.074 A 
ATOM     66  C   UNL     1       6.767   0.879  -9.397  1.00  0.00     0.029 A 
ATOM     67  N   UNL     1       6.910  -0.388  -7.575  1.00  0.00    -0.354 N 
ATOM     68  N   UNL     1       7.933   2.574  -5.775  1.00  0.00    -0.248 NA
ATOM     69  C   UNL     1       9.330   3.297  -4.097  1.00  0.00     0.031 C 
ATOM     70  C   UNL     1       7.895   1.288  -8.651  1.00  0.00     0.029 A 
ATOM     71  C   UNL     1       7.969   0.500  -7.516  1.00  0.00     0.049 A 
ATOM     72  H   UNL     1       6.720  -1.082  -6.903  1.00  0.00     0.167 HD
ATOM     73  C   UNL     1       8.932   1.643  -5.670  1.00  0.00     0.074 A 
ATOM     74  C   UNL     1       9.811   2.167  -4.643  1.00  0.00     0.031 C 
ATOM     75  C   UNL     1       8.909   0.493  -6.404  1.00  0.00     0.037 A 
BRANCH  62  76
ATOM     76  C   UNL     1       4.415  -1.584 -10.070  1.00  0.00     0.064 A 
ATOM     77  C   UNL     1       5.116  -1.498 -11.290  1.00  0.00     0.173 A 
ATOM     78  C   UNL     1       3.286  -2.423 -10.094  1.00  0.00     0.173 A 
ATOM     79  F   UNL     1       6.284  -0.850 -11.385  1.00  0.00    -0.203 F 
ATOM     80  C   UNL     1       4.640  -2.077 -12.468  1.00  0.00     0.198 A 
ATOM     81  C   UNL     1       2.772  -2.949 -11.283  1.00  0.00     0.198 A 
ATOM     82  F   UNL     1       2.672  -2.789  -8.960  1.00  0.00    -0.203 F 
ATOM     83  F   UNL     1       5.342  -1.948 -13.602  1.00  0.00    -0.200 F 
ATOM     84  C   UNL     1       3.442  -2.761 -12.475  1.00  0.00     0.200 A 
ATOM     85  F   UNL     1       1.620  -3.634 -11.264  1.00  0.00    -0.200 F 
ATOM     86  F   UNL     1       2.951  -3.260 -13.616  1.00  0.00    -0.200 F 
ENDBRANCH  62  76
BRANCH  63  87
ATOM     87  C   UNL     1       6.629   4.921  -3.185  1.00  0.00     0.064 A 
ATOM     88  C   UNL     1       6.234   6.254  -2.971  1.00  0.00     0.173 A 
ATOM     89  C   UNL     1       6.191   3.953  -2.276  1.00  0.00     0.173 A 
ATOM     90  F   UNL     1       6.641   7.217  -3.814  1.00  0.00    -0.203 F 
ATOM     91  C   UNL     1       5.306   6.577  -1.988  1.00  0.00     0.198 A 
ATOM     92  C   UNL     1       5.280   4.286  -1.275  1.00  0.00     0.198 A 
ATOM     93  F   UNL     1       6.538   2.667  -2.433  1.00  0.00    -0.203 F 
ATOM     94  F   UNL     1       4.826   7.827  -1.907  1.00  0.00    -0.200 F 
ATOM     95  C   UNL     1       4.804   5.586  -1.162  1.00  0.00     0.200 A 
ATOM     96  F   UNL     1       4.786   3.325  -0.482  1.00  0.00    -0.200 F 
ATOM     97  F   UNL     1       3.833   5.876  -0.287  1.00  0.00    -0.200 F 
ENDBRANCH  63  87
BRANCH  75  98
ATOM     98  C   UNL     1       9.823  -0.687  -6.205  1.00  0.00     0.064 A 
ATOM     99  C   UNL     1      10.368  -1.054  -4.963  1.00  0.00     0.173 A 
ATOM    100  C   UNL     1      10.087  -1.573  -7.275  1.00  0.00     0.173 A 
ATOM    101  F   UNL     1      10.080  -0.372  -3.847  1.00  0.00    -0.203 F 
ATOM    102  C   UNL     1      11.190  -2.176  -4.820  1.00  0.00     0.198 A 
ATOM    103  C   UNL     1      10.860  -2.723  -7.116  1.00  0.00     0.198 A 
ATOM    104  F   UNL     1       9.584  -1.359  -8.500  1.00  0.00    -0.203 F 
ATOM    105  F   UNL     1      11.730  -2.454  -3.625  1.00  0.00    -0.200 F 
ATOM    106  C   UNL     1      11.430  -3.012  -5.894  1.00  0.00     0.200 A 
ATOM    107  F   UNL     1      11.036  -3.555  -8.152  1.00  0.00    -0.200 F 
ATOM    108  F   UNL     1      12.190  -4.105  -5.745  1.00  0.00    -0.200 F 
ENDBRANCH  75  98
ENDBRANCH  49  50
ENDBRANCH  41  44
ENDBRANCH  39  40
ENDBRANCH  38  39
ENDBRANCH  37  38
ENDBRANCH   3  37
TORSDOF 16
