REMARK SMILES C[C@@H]1C[N@@H+](CC(C)(C)C(=O)NCCCNC(=O)c2ccc(-c3c4nc(c(-c5c(F)c(F)c(F)c(F)c5F)c5ccc([nH]5)c(-c5c(F)c(F)c(F)c(F)c5F)c5nc(c(-c6c(F)c(F)c(F)c(F)c6F)c6ccc3[nH]6)C=C5)C=C4)cc2)CC[C@@H]1[NH3+]
REMARK SMILES IDX 12 1 11 2 9 3 10 4 6 6 7 7 8 8 5 9 4 10 1 11 2 12 3 13 83 14
REMARK SMILES IDX 82 15 81 16 84 18 13 22 14 23 15 24 16 25 17 27 18 28 19 29
REMARK SMILES IDX 80 30 20 31 79 32 21 33 22 34 23 35 73 36 24 37 78 38 72 39
REMARK SMILES IDX 74 40 25 41 77 42 71 43 70 44 26 46 58 47 38 48 57 49 39 50
REMARK SMILES IDX 42 51 56 52 75 53 40 54 41 55 55 57 76 58 43 59 27 60 28 61
REMARK SMILES IDX 36 62 29 63 30 64 34 65 37 66 31 67 32 68 35 69 33 70 59 71
REMARK SMILES IDX 60 72 68 73 61 74 62 75 66 76 69 77 63 78 64 79 67 80 65 81
REMARK SMILES IDX 44 82 45 83 53 84 46 85 47 86 51 87 54 88 48 89 49 90 52 91
REMARK SMILES IDX 50 92
REMARK H PARENT 11 5 4 17 84 19 84 20 84 21 15 26 74 45 42 56
REMARK Flexibility Score: inf
ROOT
ATOM      1  C   UNL     1      -3.262  -2.995   5.296  1.00  0.00     0.117 C 
ENDROOT
BRANCH   1   2
ATOM      2  N   UNL     1      -2.070  -2.967   4.474  1.00  0.00    -0.355 N 
ATOM      3  C   UNL     1      -1.889  -3.181   3.148  1.00  0.00     0.231 C 
ATOM      4  O   UNL     1      -0.787  -3.654   2.849  1.00  0.00    -0.274 OA
ATOM      5  H   UNL     1      -1.244  -2.755   4.966  1.00  0.00     0.163 HD
BRANCH   3   6
ATOM      6  C   UNL     1      -2.973  -2.926   2.088  1.00  0.00     0.092 C 
ATOM      7  C   UNL     1      -4.055  -1.901   2.460  1.00  0.00     0.027 C 
ATOM      8  C   UNL     1      -3.667  -4.287   1.867  1.00  0.00     0.027 C 
BRANCH   6   9
ATOM      9  C   UNL     1      -2.264  -2.501   0.742  1.00  0.00     0.278 C 
BRANCH   9  10
ATOM     10  N   UNL     1      -1.523  -1.224   0.592  1.00  0.00    -0.333 N 
ATOM     11  C   UNL     1       1.211   0.068  -0.254  1.00  0.00     0.020 C 
ATOM     12  C   UNL     1       0.547   0.114   1.131  1.00  0.00     0.099 C 
ATOM     13  C   UNL     1      -0.294  -1.151   1.394  1.00  0.00     0.271 C 
ATOM     14  C   UNL     1      -0.361   1.337   1.355  1.00  0.00     0.194 C 
ATOM     15  C   UNL     1      -1.554   1.274   0.403  1.00  0.00     0.126 C 
ATOM     16  C   UNL     1      -2.341  -0.015   0.655  1.00  0.00     0.268 C 
ATOM     17  H   UNL     1      -1.210  -1.247  -0.378  1.00  0.00     0.348 HD
BRANCH  14  18
ATOM     18  N   UNL     1       0.362   2.603   1.224  1.00  0.00    -0.355 N 
ATOM     19  H   UNL     1       0.726   2.691   0.276  1.00  0.00     0.344 HD
ATOM     20  H   UNL     1       1.136   2.623   1.889  1.00  0.00     0.344 HD
ATOM     21  H   UNL     1      -0.273   3.378   1.418  1.00  0.00     0.344 HD
ENDBRANCH  14  18
ENDBRANCH   9  10
ENDBRANCH   6   9
ENDBRANCH   3   6
ENDBRANCH   1   2
BRANCH   1  22
ATOM     22  C   UNL     1      -3.352  -4.306   6.065  1.00  0.00     0.042 C 
BRANCH  22  23
ATOM     23  C   UNL     1      -2.205  -4.514   7.045  1.00  0.00     0.118 C 
BRANCH  23  24
ATOM     24  N   UNL     1      -2.189  -3.509   8.099  1.00  0.00    -0.352 N 
ATOM     25  C   UNL     1      -2.451  -3.637   9.440  1.00  0.00     0.251 C 
ATOM     26  H   UNL     1      -1.954  -2.600   7.805  1.00  0.00     0.163 HD
ATOM     27  O   UNL     1      -2.620  -2.636  10.128  1.00  0.00    -0.269 OA
BRANCH  25  28
ATOM     28  C   UNL     1      -2.545  -4.978  10.052  1.00  0.00     0.039 A 
ATOM     29  C   UNL     1      -3.536  -5.219  11.006  1.00  0.00     0.014 A 
ATOM     30  C   UNL     1      -1.648  -5.990   9.703  1.00  0.00     0.014 A 
ATOM     31  C   UNL     1      -3.663  -6.493  11.563  1.00  0.00     0.010 A 
ATOM     32  C   UNL     1      -1.839  -7.282  10.180  1.00  0.00     0.010 A 
ATOM     33  C   UNL     1      -2.837  -7.543  11.128  1.00  0.00    -0.014 A 
BRANCH  33  34
ATOM     34  C   UNL     1      -2.990  -8.915  11.673  1.00  0.00     0.031 A 
ATOM     35  C   UNL     1      -1.861  -9.555  12.435  1.00  0.00     0.074 A 
ATOM     36  C   UNL     1      -4.123  -9.603  11.436  1.00  0.00     0.049 A 
ATOM     37  N   UNL     1      -1.787 -10.754  12.955  1.00  0.00    -0.248 NA
ATOM     38  C   UNL     1      -0.639  -8.752  12.609  1.00  0.00     0.031 C 
ATOM     39  C   UNL     1      -5.262  -9.114  10.658  1.00  0.00     0.029 A 
ATOM     40  N   UNL     1      -4.502 -10.864  11.822  1.00  0.00    -0.354 N 
ATOM     41  C   UNL     1      -0.514 -10.851  13.501  1.00  0.00     0.074 A 
ATOM     42  C   UNL     1       0.175  -9.618  13.193  1.00  0.00     0.031 C 
ATOM     43  C   UNL     1      -6.225 -10.049  10.652  1.00  0.00     0.029 A 
ATOM     44  C   UNL     1      -5.758 -11.216  11.393  1.00  0.00     0.049 A 
ATOM     45  H   UNL     1      -3.928 -11.460  12.356  1.00  0.00     0.167 HD
ATOM     46  C   UNL     1       0.023 -11.865  14.221  1.00  0.00     0.037 A 
ATOM     47  C   UNL     1      -6.453 -12.355  11.578  1.00  0.00     0.037 A 
ATOM     48  C   UNL     1      -0.677 -13.079  14.548  1.00  0.00     0.049 A 
ATOM     49  C   UNL     1      -5.836 -13.463  12.387  1.00  0.00     0.074 A 
ATOM     50  C   UNL     1      -0.249 -14.140  15.327  1.00  0.00     0.029 A 
ATOM     51  N   UNL     1      -1.955 -13.394  14.111  1.00  0.00    -0.354 N 
ATOM     52  N   UNL     1      -4.661 -13.512  12.967  1.00  0.00    -0.248 NA
ATOM     53  C   UNL     1      -6.648 -14.673  12.574  1.00  0.00     0.031 C 
ATOM     54  C   UNL     1      -1.248 -15.118  15.319  1.00  0.00     0.029 A 
ATOM     55  C   UNL     1      -2.322 -14.645  14.583  1.00  0.00     0.049 A 
ATOM     56  H   UNL     1      -2.519 -12.815  13.548  1.00  0.00     0.167 HD
ATOM     57  C   UNL     1      -4.602 -14.742  13.607  1.00  0.00     0.074 A 
ATOM     58  C   UNL     1      -5.870 -15.399  13.364  1.00  0.00     0.031 C 
ATOM     59  C   UNL     1      -3.589 -15.283  14.329  1.00  0.00     0.037 A 
BRANCH  46  60
ATOM     60  C   UNL     1       1.434 -11.699  14.709  1.00  0.00     0.064 A 
ATOM     61  C   UNL     1       1.766 -10.761  15.699  1.00  0.00     0.173 A 
ATOM     62  C   UNL     1       2.464 -12.506  14.202  1.00  0.00     0.173 A 
ATOM     63  F   UNL     1       0.822  -9.954  16.209  1.00  0.00    -0.203 F 
ATOM     64  C   UNL     1       3.079 -10.614  16.139  1.00  0.00     0.198 A 
ATOM     65  C   UNL     1       3.770 -12.380  14.669  1.00  0.00     0.198 A 
ATOM     66  F   UNL     1       2.203 -13.422  13.258  1.00  0.00    -0.203 F 
ATOM     67  F   UNL     1       3.379  -9.673  17.045  1.00  0.00    -0.200 F 
ATOM     68  C   UNL     1       4.078 -11.428  15.629  1.00  0.00     0.200 A 
ATOM     69  F   UNL     1       4.733 -13.177  14.185  1.00  0.00    -0.200 F 
ATOM     70  F   UNL     1       5.340 -11.291  16.059  1.00  0.00    -0.200 F 
ENDBRANCH  46  60
BRANCH  47  71
ATOM     71  C   UNL     1      -7.821 -12.491  11.014  1.00  0.00     0.064 A 
ATOM     72  C   UNL     1      -8.944 -12.538  11.852  1.00  0.00     0.173 A 
ATOM     73  C   UNL     1      -8.036 -12.585   9.631  1.00  0.00     0.173 A 
ATOM     74  F   UNL     1      -8.789 -12.471  13.183  1.00  0.00    -0.203 F 
ATOM     75  C   UNL     1     -10.226 -12.698  11.332  1.00  0.00     0.198 A 
ATOM     76  C   UNL     1      -9.322 -12.714   9.110  1.00  0.00     0.198 A 
ATOM     77  F   UNL     1      -6.997 -12.538   8.785  1.00  0.00    -0.203 F 
ATOM     78  F   UNL     1     -11.276 -12.789  12.159  1.00  0.00    -0.200 F 
ATOM     79  C   UNL     1     -10.415 -12.780   9.960  1.00  0.00     0.200 A 
ATOM     80  F   UNL     1      -9.501 -12.777   7.783  1.00  0.00    -0.200 F 
ATOM     81  F   UNL     1     -11.648 -12.931   9.460  1.00  0.00    -0.200 F 
ENDBRANCH  47  71
BRANCH  59  82
ATOM     82  C   UNL     1      -3.823 -16.640  14.926  1.00  0.00     0.064 A 
ATOM     83  C   UNL     1      -3.898 -17.792  14.129  1.00  0.00     0.173 A 
ATOM     84  C   UNL     1      -3.953 -16.793  16.315  1.00  0.00     0.173 A 
ATOM     85  F   UNL     1      -3.795 -17.698  12.795  1.00  0.00    -0.203 F 
ATOM     86  C   UNL     1      -4.128 -19.042  14.698  1.00  0.00     0.198 A 
ATOM     87  C   UNL     1      -4.149 -18.048  16.883  1.00  0.00     0.198 A 
ATOM     88  F   UNL     1      -3.881 -15.724  17.123  1.00  0.00    -0.203 F 
ATOM     89  F   UNL     1      -4.255 -20.120  13.912  1.00  0.00    -0.200 F 
ATOM     90  C   UNL     1      -4.247 -19.170  16.074  1.00  0.00     0.200 A 
ATOM     91  F   UNL     1      -4.247 -18.172  18.214  1.00  0.00    -0.200 F 
ATOM     92  F   UNL     1      -4.465 -20.374  16.619  1.00  0.00    -0.200 F 
ENDBRANCH  59  82
ENDBRANCH  33  34
ENDBRANCH  25  28
ENDBRANCH  23  24
ENDBRANCH  22  23
ENDBRANCH   1  22
TORSDOF 13
