REMARK SMILES COc1cc([C@H]2c3c(-c4ccccc4)n[nH]c3C(=O)N2c2ccc(C(=O)NCCCNC(=O)c3ccc(-c4c5nc(c(-c6c(F)c(F)c(F)c(F)c6F)c6ccc([nH]6)c(-c6c(F)c(F)c(F)c(F)c6F)c6nc(c(-c7c(F)c(F)c(F)c(F)c7F)c7ccc4[nH]7)C=C6)C=C5)cc3)cc2)ccc1O
REMARK SMILES IDX 28 1 27 2 25 3 26 4 24 6 21 7 22 8 98 9 23 10 97 11 20 12
REMARK SMILES IDX 6 13 7 14 8 15 17 16 18 17 15 18 16 19 19 20 5 22 3 23 4 24
REMARK SMILES IDX 101 25 100 26 99 27 2 28 1 29 102 30 9 32 10 33 14 34 11 35
REMARK SMILES IDX 13 36 12 37 29 38 30 39 31 40 32 41 33 43 34 44 35 45 96 46
REMARK SMILES IDX 36 47 95 48 37 49 38 50 39 51 89 52 40 53 94 54 88 55 90 56
REMARK SMILES IDX 41 57 93 58 87 59 86 60 42 62 74 63 54 64 73 65 55 66 58 67
REMARK SMILES IDX 72 68 91 69 56 70 57 71 71 73 92 74 59 75 43 76 44 77 52 78
REMARK SMILES IDX 45 79 46 80 50 81 53 82 47 83 48 84 51 85 49 86 75 87 76 88
REMARK SMILES IDX 84 89 77 90 78 91 82 92 85 93 79 94 80 95 83 96 81 97 60 98
REMARK SMILES IDX 61 99 69 100 62 101 63 102 67 103 70 104 64 105 65 106
REMARK SMILES IDX 68 107 66 108
REMARK H PARENT 27 5 16 21 102 31 31 42 90 61 58 72
REMARK Flexibility Score: inf
ROOT
ATOM      1  C   UNL     1       3.321  -4.737   7.365  1.00  0.00     0.118 C 
ENDROOT
BRANCH   1   2
ATOM      2  N   UNL     1       4.573  -5.433   7.100  1.00  0.00    -0.352 N 
ATOM      3  C   UNL     1       5.029  -6.130   6.005  1.00  0.00     0.251 C 
ATOM      4  O   UNL     1       6.190  -6.539   6.036  1.00  0.00    -0.269 OA
ATOM      5  H   UNL     1       5.215  -5.397   7.846  1.00  0.00     0.163 HD
BRANCH   3   6
ATOM      6  C   UNL     1       4.203  -6.376   4.786  1.00  0.00     0.039 A 
ATOM      7  C   UNL     1       2.752  -6.771   2.406  1.00  0.00     0.045 A 
ATOM      8  C   UNL     1       4.140  -6.912   2.408  1.00  0.00     0.027 A 
ATOM      9  C   UNL     1       2.088  -6.491   3.595  1.00  0.00     0.027 A 
ATOM     10  C   UNL     1       4.864  -6.683   3.587  1.00  0.00     0.016 A 
ATOM     11  C   UNL     1       2.809  -6.351   4.776  1.00  0.00     0.016 A 
BRANCH   7  12
ATOM     12  N   UNL     1       2.003  -6.962   1.239  1.00  0.00    -0.295 N 
ATOM     13  C   UNL     1       0.947  -6.002   0.805  1.00  0.00     0.156 C 
ATOM     14  C   UNL     1       0.337  -6.785  -0.295  1.00  0.00     0.038 A 
ATOM     15  C   UNL     1      -0.657  -6.782  -1.285  1.00  0.00     0.099 A 
ATOM     16  C   UNL     1       0.945  -8.002  -0.398  1.00  0.00     0.129 A 
ATOM     17  C   UNL     1       2.017  -8.170   0.515  1.00  0.00     0.277 C 
ATOM     18  N   UNL     1      -0.712  -7.994  -1.886  1.00  0.00    -0.174 NA
ATOM     19  N   UNL     1       0.292  -8.714  -1.328  1.00  0.00    -0.272 N 
ATOM     20  O   UNL     1       2.714  -9.153   0.654  1.00  0.00    -0.267 OA
ATOM     21  H   UNL     1       0.514  -9.641  -1.574  1.00  0.00     0.190 HD
BRANCH  13  22
ATOM     22  C   UNL     1       1.486  -4.712   0.227  1.00  0.00    -0.016 A 
ATOM     23  C   UNL     1       1.308  -2.258   0.055  1.00  0.00     0.160 A 
ATOM     24  C   UNL     1       0.905  -3.486   0.609  1.00  0.00     0.056 A 
ATOM     25  C   UNL     1       2.324  -2.269  -0.901  1.00  0.00     0.157 A 
ATOM     26  C   UNL     1       2.945  -3.466  -1.263  1.00  0.00     0.050 A 
ATOM     27  C   UNL     1       2.532  -4.678  -0.706  1.00  0.00     0.010 A 
BRANCH  23  28
ATOM     28  O   UNL     1       0.592  -1.202   0.543  1.00  0.00    -0.493 OA
ATOM     29  C   UNL     1       1.015   0.126   0.283  1.00  0.00     0.278 C 
ENDBRANCH  23  28
BRANCH  25  30
ATOM     30  O   UNL     1       2.764  -1.168  -1.577  1.00  0.00    -0.504 OA
ATOM     31  H   UNL     1       2.396  -0.326  -1.392  1.00  0.00     0.293 HD
ENDBRANCH  25  30
ENDBRANCH  13  22
BRANCH  15  32
ATOM     32  C   UNL     1      -1.536  -5.697  -1.695  1.00  0.00     0.002 A 
ATOM     33  C   UNL     1      -2.925  -5.847  -1.653  1.00  0.00     0.010 A 
ATOM     34  C   UNL     1      -0.992  -4.502  -2.181  1.00  0.00     0.010 A 
ATOM     35  C   UNL     1      -3.756  -4.802  -2.068  1.00  0.00     0.001 A 
ATOM     36  C   UNL     1      -1.821  -3.455  -2.585  1.00  0.00     0.001 A 
ATOM     37  C   UNL     1      -3.204  -3.606  -2.527  1.00  0.00     0.000 A 
ENDBRANCH  15  32
ENDBRANCH   7  12
ENDBRANCH   3   6
ENDBRANCH   1   2
BRANCH   1  38
ATOM     38  C   UNL     1       2.294  -5.634   8.077  1.00  0.00     0.042 C 
BRANCH  38  39
ATOM     39  C   UNL     1       2.484  -5.662   9.580  1.00  0.00     0.118 C 
BRANCH  39  40
ATOM     40  N   UNL     1       2.152  -4.377  10.211  1.00  0.00    -0.352 N 
ATOM     41  C   UNL     1       2.365  -3.950  11.510  1.00  0.00     0.251 C 
ATOM     42  H   UNL     1       1.712  -3.723   9.622  1.00  0.00     0.163 HD
ATOM     43  O   UNL     1       1.725  -3.014  11.975  1.00  0.00    -0.269 OA
BRANCH  41  44
ATOM     44  C   UNL     1       3.378  -4.637  12.327  1.00  0.00     0.039 A 
ATOM     45  C   UNL     1       3.259  -4.808  13.709  1.00  0.00     0.014 A 
ATOM     46  C   UNL     1       4.467  -5.159  11.648  1.00  0.00     0.014 A 
ATOM     47  C   UNL     1       4.239  -5.548  14.370  1.00  0.00     0.010 A 
ATOM     48  C   UNL     1       5.200  -6.146  12.225  1.00  0.00     0.010 A 
ATOM     49  C   UNL     1       5.208  -6.212  13.603  1.00  0.00    -0.014 A 
BRANCH  49  50
ATOM     50  C   UNL     1       6.250  -7.044  14.172  1.00  0.00     0.031 A 
ATOM     51  C   UNL     1       5.738  -8.230  14.889  1.00  0.00     0.074 A 
ATOM     52  C   UNL     1       7.547  -6.913  13.811  1.00  0.00     0.049 A 
ATOM     53  N   UNL     1       5.766  -8.450  16.159  1.00  0.00    -0.248 NA
ATOM     54  C   UNL     1       4.949  -9.212  14.128  1.00  0.00     0.031 C 
ATOM     55  C   UNL     1       8.141  -6.028  12.799  1.00  0.00     0.029 A 
ATOM     56  N   UNL     1       8.613  -7.655  14.206  1.00  0.00    -0.354 N 
ATOM     57  C   UNL     1       5.190  -9.702  16.336  1.00  0.00     0.074 A 
ATOM     58  C   UNL     1       4.507 -10.004  15.107  1.00  0.00     0.031 C 
ATOM     59  C   UNL     1       9.392  -6.447  12.503  1.00  0.00     0.029 A 
ATOM     60  C   UNL     1       9.747  -7.522  13.410  1.00  0.00     0.049 A 
ATOM     61  H   UNL     1       8.587  -8.243  14.995  1.00  0.00     0.167 HD
ATOM     62  C   UNL     1       5.564 -10.496  17.377  1.00  0.00     0.037 A 
ATOM     63  C   UNL     1      10.859  -8.298  13.482  1.00  0.00     0.037 A 
ATOM     64  C   UNL     1       6.295  -9.733  18.364  1.00  0.00     0.049 A 
ATOM     65  C   UNL     1      10.821  -8.986  14.803  1.00  0.00     0.074 A 
ATOM     66  C   UNL     1       6.015  -8.598  19.105  1.00  0.00     0.029 A 
ATOM     67  N   UNL     1       7.664  -9.860  18.396  1.00  0.00    -0.354 N 
ATOM     68  N   UNL     1      10.963  -8.370  15.945  1.00  0.00    -0.248 NA
ATOM     69  C   UNL     1      10.126 -10.266  14.866  1.00  0.00     0.031 C 
ATOM     70  C   UNL     1       7.223  -7.838  19.081  1.00  0.00     0.029 A 
ATOM     71  C   UNL     1       8.190  -8.592  18.417  1.00  0.00     0.049 A 
ATOM     72  H   UNL     1       8.172 -10.703  18.402  1.00  0.00     0.167 HD
ATOM     73  C   UNL     1      10.017  -8.950  16.778  1.00  0.00     0.074 A 
ATOM     74  C   UNL     1       9.578 -10.156  16.079  1.00  0.00     0.031 C 
ATOM     75  C   UNL     1       9.450  -8.246  17.803  1.00  0.00     0.037 A 
BRANCH  62  76
ATOM     76  C   UNL     1       5.619 -12.005  17.330  1.00  0.00     0.064 A 
ATOM     77  C   UNL     1       5.934 -12.705  18.512  1.00  0.00     0.173 A 
ATOM     78  C   UNL     1       5.667 -12.773  16.145  1.00  0.00     0.173 A 
ATOM     79  F   UNL     1       5.926 -12.079  19.699  1.00  0.00    -0.203 F 
ATOM     80  C   UNL     1       6.359 -14.035  18.495  1.00  0.00     0.198 A 
ATOM     81  C   UNL     1       6.035 -14.117  16.139  1.00  0.00     0.198 A 
ATOM     82  F   UNL     1       5.473 -12.244  14.933  1.00  0.00    -0.203 F 
ATOM     83  F   UNL     1       6.780 -14.612  19.628  1.00  0.00    -0.200 F 
ATOM     84  C   UNL     1       6.418 -14.738  17.307  1.00  0.00     0.200 A 
ATOM     85  F   UNL     1       6.097 -14.776  14.972  1.00  0.00    -0.200 F 
ATOM     86  F   UNL     1       6.886 -15.992  17.277  1.00  0.00    -0.200 F 
ENDBRANCH  62  76
BRANCH  63  87
ATOM     87  C   UNL     1      11.769  -8.735  12.393  1.00  0.00     0.064 A 
ATOM     88  C   UNL     1      13.009  -9.329  12.687  1.00  0.00     0.173 A 
ATOM     89  C   UNL     1      11.326  -8.850  11.061  1.00  0.00     0.173 A 
ATOM     90  F   UNL     1      13.491  -9.300  13.938  1.00  0.00    -0.203 F 
ATOM     91  C   UNL     1      13.739 -10.030  11.719  1.00  0.00     0.198 A 
ATOM     92  C   UNL     1      12.058  -9.543  10.094  1.00  0.00     0.198 A 
ATOM     93  F   UNL     1      10.127  -8.378  10.692  1.00  0.00    -0.203 F 
ATOM     94  F   UNL     1      14.882 -10.643  12.057  1.00  0.00    -0.200 F 
ATOM     95  C   UNL     1      13.255 -10.148  10.427  1.00  0.00     0.200 A 
ATOM     96  F   UNL     1      11.562  -9.679   8.856  1.00  0.00    -0.200 F 
ATOM     97  F   UNL     1      13.918 -10.877   9.519  1.00  0.00    -0.200 F 
ENDBRANCH  63  87
BRANCH  75  98
ATOM     98  C   UNL     1      10.044  -6.913  18.168  1.00  0.00     0.064 A 
ATOM     99  C   UNL     1      10.142  -5.818  17.291  1.00  0.00     0.173 A 
ATOM    100  C   UNL     1      10.399  -6.693  19.506  1.00  0.00     0.173 A 
ATOM    101  F   UNL     1       9.720  -5.906  16.023  1.00  0.00    -0.203 F 
ATOM    102  C   UNL     1      10.623  -4.582  17.723  1.00  0.00     0.198 A 
ATOM    103  C   UNL     1      10.840  -5.447  19.944  1.00  0.00     0.198 A 
ATOM    104  F   UNL     1      10.273  -7.681  20.405  1.00  0.00    -0.203 F 
ATOM    105  F   UNL     1      10.723  -3.560  16.859  1.00  0.00    -0.200 F 
ATOM    106  C   UNL     1      10.966  -4.397  19.051  1.00  0.00     0.200 A 
ATOM    107  F   UNL     1      11.119  -5.260  21.241  1.00  0.00    -0.200 F 
ATOM    108  F   UNL     1      11.392  -3.199  19.476  1.00  0.00    -0.200 F 
ENDBRANCH  75  98
ENDBRANCH  49  50
ENDBRANCH  41  44
ENDBRANCH  39  40
ENDBRANCH  38  39
ENDBRANCH   1  38
TORSDOF 15
