REMARK SMILES C[C@]1(C(=O)NCCCNC(=O)c2ccc(-c3c4nc(c(-c5c(F)c(F)c(F)c(F)c5F)c5ccc([nH]5)c(-c5c(F)c(F)c(F)c(F)c5F)c5nc(c(-c6c(F)c(F)c(F)c(F)c6F)c6ccc3[nH]6)C=C5)C=C4)cc2)COC[C@@H]1NC(=O)[C@H]1C=C[C@@H]([NH3+])C1
REMARK SMILES IDX 6 1 5 2 3 3 4 4 2 6 1 7 75 8 78 9 76 10 77 11 79 12 80 13
REMARK SMILES IDX 81 15 82 16 83 17 87 18 84 19 85 20 86 21 7 25 8 26 9 27
REMARK SMILES IDX 10 28 11 30 12 31 13 32 74 33 14 34 73 35 15 36 16 37 17 38
REMARK SMILES IDX 67 39 18 40 72 41 66 42 68 43 19 44 71 45 65 46 64 47 20 49
REMARK SMILES IDX 52 50 32 51 51 52 33 53 36 54 50 55 69 56 34 57 35 58 49 60
REMARK SMILES IDX 70 61 37 62 21 63 22 64 30 65 23 66 24 67 28 68 31 69 25 70
REMARK SMILES IDX 26 71 29 72 27 73 53 74 54 75 62 76 55 77 56 78 60 79 63 80
REMARK SMILES IDX 57 81 58 82 61 83 59 84 38 85 39 86 47 87 40 88 41 89 45 90
REMARK SMILES IDX 48 91 42 92 43 93 46 94 44 95
REMARK H PARENT 5 5 79 14 86 22 86 23 86 24 9 29 68 48 36 59
REMARK Flexibility Score: inf
ROOT
ATOM      1  C   UNL     1       3.070   0.387  -1.932  1.00  0.00     0.117 C 
ENDROOT
BRANCH   1   2
ATOM      2  N   UNL     1       2.447  -0.241  -0.776  1.00  0.00    -0.355 N 
ATOM      3  C   UNL     1       1.312   0.046  -0.077  1.00  0.00     0.230 C 
ATOM      4  O   UNL     1       1.085  -0.682   0.892  1.00  0.00    -0.274 OA
ATOM      5  H   UNL     1       2.940  -1.022  -0.434  1.00  0.00     0.163 HD
BRANCH   3   6
ATOM      6  C   UNL     1       0.365   1.192  -0.493  1.00  0.00     0.092 C 
ATOM      7  C   UNL     1      -0.206   0.846  -1.881  1.00  0.00     0.026 C 
ATOM      8  C   UNL     1      -0.793   1.297   0.531  1.00  0.00     0.179 C 
ATOM      9  C   UNL     1       1.087   2.541  -0.315  1.00  0.00     0.125 C 
ATOM     10  O   UNL     1      -0.855   2.640   1.032  1.00  0.00    -0.378 OA
ATOM     11  C   UNL     1       0.418   3.240   0.853  1.00  0.00     0.186 C 
BRANCH   9  12
ATOM     12  N   UNL     1       1.394   3.330  -1.516  1.00  0.00    -0.349 N 
ATOM     13  C   UNL     1       0.778   4.146  -2.397  1.00  0.00     0.227 C 
ATOM     14  H   UNL     1       2.345   3.234  -1.752  1.00  0.00     0.163 HD
ATOM     15  O   UNL     1       1.466   4.431  -3.389  1.00  0.00    -0.274 OA
BRANCH  13  16
ATOM     16  C   UNL     1      -0.579   4.821  -2.232  1.00  0.00     0.107 C 
ATOM     17  C   UNL     1      -1.683   4.074  -1.576  1.00  0.00    -0.012 C 
ATOM     18  C   UNL     1      -0.452   6.101  -1.393  1.00  0.00     0.087 C 
ATOM     19  C   UNL     1      -2.301   4.813  -0.648  1.00  0.00     0.033 C 
ATOM     20  C   UNL     1      -1.730   6.185  -0.545  1.00  0.00     0.205 C 
BRANCH  20  21
ATOM     21  N   UNL     1      -1.459   6.585   0.823  1.00  0.00    -0.352 N 
ATOM     22  H   UNL     1      -0.809   5.924   1.248  1.00  0.00     0.345 HD
ATOM     23  H   UNL     1      -2.330   6.595   1.353  1.00  0.00     0.345 HD
ATOM     24  H   UNL     1      -1.048   7.519   0.829  1.00  0.00     0.345 HD
ENDBRANCH  20  21
ENDBRANCH  13  16
ENDBRANCH   9  12
ENDBRANCH   3   6
ENDBRANCH   1   2
BRANCH   1  25
ATOM     25  C   UNL     1       4.220   1.304  -1.530  1.00  0.00     0.042 C 
BRANCH  25  26
ATOM     26  C   UNL     1       5.448   0.537  -1.068  1.00  0.00     0.118 C 
BRANCH  26  27
ATOM     27  N   UNL     1       6.283   0.156  -2.194  1.00  0.00    -0.352 N 
ATOM     28  C   UNL     1       7.413   0.761  -2.690  1.00  0.00     0.251 C 
ATOM     29  H   UNL     1       5.998  -0.656  -2.672  1.00  0.00     0.163 HD
ATOM     30  O   UNL     1       7.806   0.475  -3.816  1.00  0.00    -0.269 OA
BRANCH  28  31
ATOM     31  C   UNL     1       8.161   1.754  -1.882  1.00  0.00     0.039 A 
ATOM     32  C   UNL     1       8.757   2.845  -2.523  1.00  0.00     0.014 A 
ATOM     33  C   UNL     1       8.348   1.575  -0.510  1.00  0.00     0.014 A 
ATOM     34  C   UNL     1       9.512   3.764  -1.785  1.00  0.00     0.010 A 
ATOM     35  C   UNL     1       9.011   2.541   0.239  1.00  0.00     0.010 A 
ATOM     36  C   UNL     1       9.634   3.627  -0.394  1.00  0.00    -0.014 A 
BRANCH  36  37
ATOM     37  C   UNL     1      10.478   4.540   0.420  1.00  0.00     0.031 A 
ATOM     38  C   UNL     1      11.652   3.976   1.181  1.00  0.00     0.074 A 
ATOM     39  C   UNL     1      10.156   5.842   0.545  1.00  0.00     0.049 A 
ATOM     40  N   UNL     1      12.414   4.546   2.080  1.00  0.00    -0.248 NA
ATOM     41  C   UNL     1      11.986   2.564   0.926  1.00  0.00     0.031 C 
ATOM     42  C   UNL     1       9.025   6.504  -0.107  1.00  0.00     0.029 A 
ATOM     43  N   UNL     1      10.744   6.840   1.283  1.00  0.00    -0.354 N 
ATOM     44  C   UNL     1      13.275   3.552   2.530  1.00  0.00     0.074 A 
ATOM     45  C   UNL     1      12.919   2.334   1.838  1.00  0.00     0.031 C 
ATOM     46  C   UNL     1       9.010   7.799   0.248  1.00  0.00     0.029 A 
ATOM     47  C   UNL     1      10.103   8.051   1.182  1.00  0.00     0.049 A 
ATOM     48  H   UNL     1      11.549   6.700   1.832  1.00  0.00     0.167 HD
ATOM     49  C   UNL     1      14.289   3.652   3.422  1.00  0.00     0.037 A 
ATOM     50  C   UNL     1      10.365   9.226   1.786  1.00  0.00     0.037 A 
ATOM     51  C   UNL     1      14.693   4.883   4.046  1.00  0.00     0.049 A 
ATOM     52  C   UNL     1      11.532   9.322   2.732  1.00  0.00     0.074 A 
ATOM     53  C   UNL     1      15.757   5.108   4.900  1.00  0.00     0.029 A 
ATOM     54  N   UNL     1      14.058   6.101   3.863  1.00  0.00    -0.354 N 
ATOM     55  N   UNL     1      12.368   8.387   3.113  1.00  0.00    -0.248 NA
ATOM     56  C   UNL     1      11.797  10.639   3.329  1.00  0.00     0.031 C 
ATOM     57  C   UNL     1      15.751   6.460   5.257  1.00  0.00     0.029 A 
ATOM     58  C   UNL     1      14.706   7.083   4.593  1.00  0.00     0.049 A 
ATOM     59  H   UNL     1      13.265   6.247   3.299  1.00  0.00     0.167 HD
ATOM     60  C   UNL     1      13.274   9.007   3.962  1.00  0.00     0.074 A 
ATOM     61  C   UNL     1      12.893  10.401   4.035  1.00  0.00     0.031 C 
ATOM     62  C   UNL     1      14.327   8.470   4.625  1.00  0.00     0.037 A 
BRANCH  49  63
ATOM     63  C   UNL     1      15.046   2.403   3.767  1.00  0.00     0.064 A 
ATOM     64  C   UNL     1      15.917   1.792   2.853  1.00  0.00     0.173 A 
ATOM     65  C   UNL     1      14.940   1.840   5.048  1.00  0.00     0.173 A 
ATOM     66  F   UNL     1      16.045   2.284   1.611  1.00  0.00    -0.203 F 
ATOM     67  C   UNL     1      16.634   0.650   3.199  1.00  0.00     0.198 A 
ATOM     68  C   UNL     1      15.681   0.715   5.401  1.00  0.00     0.198 A 
ATOM     69  F   UNL     1      14.126   2.388   5.963  1.00  0.00    -0.203 F 
ATOM     70  F   UNL     1      17.425   0.058   2.294  1.00  0.00    -0.200 F 
ATOM     71  C   UNL     1      16.522   0.118   4.475  1.00  0.00     0.200 A 
ATOM     72  F   UNL     1      15.581   0.209   6.638  1.00  0.00    -0.200 F 
ATOM     73  F   UNL     1      17.222  -0.975   4.810  1.00  0.00    -0.200 F 
ENDBRANCH  49  63
BRANCH  50  74
ATOM     74  C   UNL     1       9.523  10.417   1.500  1.00  0.00     0.064 A 
ATOM     75  C   UNL     1      10.036  11.502   0.774  1.00  0.00     0.173 A 
ATOM     76  C   UNL     1       8.201  10.508   1.960  1.00  0.00     0.173 A 
ATOM     77  F   UNL     1      11.302  11.470   0.332  1.00  0.00    -0.203 F 
ATOM     78  C   UNL     1       9.270  12.642   0.543  1.00  0.00     0.198 A 
ATOM     79  C   UNL     1       7.426  11.638   1.704  1.00  0.00     0.198 A 
ATOM     80  F   UNL     1       7.661   9.496   2.654  1.00  0.00    -0.203 F 
ATOM     81  F   UNL     1       9.804  13.684  -0.108  1.00  0.00    -0.200 F 
ATOM     82  C   UNL     1       7.964  12.708   1.004  1.00  0.00     0.200 A 
ATOM     83  F   UNL     1       6.161  11.693   2.141  1.00  0.00    -0.200 F 
ATOM     84  F   UNL     1       7.228  13.806   0.785  1.00  0.00    -0.200 F 
ENDBRANCH  50  74
BRANCH  62  85
ATOM     85  C   UNL     1      15.176   9.399   5.440  1.00  0.00     0.064 A 
ATOM     86  C   UNL     1      14.736   9.907   6.670  1.00  0.00     0.173 A 
ATOM     87  C   UNL     1      16.469   9.734   5.010  1.00  0.00     0.173 A 
ATOM     88  F   UNL     1      13.503   9.623   7.115  1.00  0.00    -0.203 F 
ATOM     89  C   UNL     1      15.555  10.733   7.433  1.00  0.00     0.198 A 
ATOM     90  C   UNL     1      17.294  10.539   5.788  1.00  0.00     0.198 A 
ATOM     91  F   UNL     1      16.936   9.265   3.843  1.00  0.00    -0.203 F 
ATOM     92  F   UNL     1      15.103  11.238   8.589  1.00  0.00    -0.200 F 
ATOM     93  C   UNL     1      16.835  11.042   6.996  1.00  0.00     0.200 A 
ATOM     94  F   UNL     1      18.535  10.826   5.370  1.00  0.00    -0.200 F 
ATOM     95  F   UNL     1      17.626  11.829   7.738  1.00  0.00    -0.200 F 
ENDBRANCH  62  85
ENDBRANCH  36  37
ENDBRANCH  28  31
ENDBRANCH  26  27
ENDBRANCH  25  26
ENDBRANCH   1  25
TORSDOF 13
