REMARK SMILES CCN(CC(C)(C)O)C(=O)Nc1ccc(C(=O)NCCCNC(=O)c2ccc(-c3c4nc(c(-c5c(F)c(F)c(F)c(F)c5F)c5ccc([nH]5)c(-c5c(F)c(F)c(F)c(F)c5F)c5nc(c(-c6c(F)c(F)c(F)c(F)c6F)c6ccc3[nH]6)C=C5)C=C4)cc2)c(O)c1
REMARK SMILES IDX 16 1 17 2 18 3 15 5 12 6 13 7 90 8 14 9 88 10 11 11 9 12
REMARK SMILES IDX 10 13 3 15 2 16 1 17 4 18 5 19 6 20 7 21 8 22 89 24 19 26
REMARK SMILES IDX 20 27 21 28 22 29 23 30 24 32 25 33 26 34 87 35 27 36 86 37
REMARK SMILES IDX 28 38 29 39 30 40 80 41 31 42 85 43 79 44 81 45 32 46 84 47
REMARK SMILES IDX 78 48 77 49 33 51 65 52 45 53 64 54 46 55 49 56 63 57 82 58
REMARK SMILES IDX 47 59 48 60 62 62 83 63 50 64 34 65 35 66 43 67 36 68 37 69
REMARK SMILES IDX 41 70 44 71 38 72 39 73 42 74 40 75 66 76 67 77 75 78 68 79
REMARK SMILES IDX 69 80 73 81 76 82 70 83 71 84 74 85 72 86 51 87 52 88 60 89
REMARK SMILES IDX 53 90 54 91 58 92 61 93 55 94 56 95 59 96 57 97
REMARK H PARENT 18 4 11 14 8 23 89 25 22 31 81 50 49 61
REMARK Flexibility Score: inf
ROOT
ATOM      1  C   UNL     1       0.434  -1.966   8.774  1.00  0.00     0.255 C 
ATOM      2  O   UNL     1      -0.038  -3.074   9.015  1.00  0.00    -0.269 OA
ATOM      3  N   UNL     1       0.138  -0.920   9.593  1.00  0.00    -0.352 N 
ATOM      4  H   UNL     1      -0.499  -1.120  10.317  1.00  0.00     0.163 HD
ENDROOT
BRANCH   1   5
ATOM      5  C   UNL     1       1.175  -1.735   7.528  1.00  0.00     0.081 A 
ATOM      6  C   UNL     1       2.143  -1.204   4.926  1.00  0.00     0.046 A 
ATOM      7  C   UNL     1       1.057  -1.998   5.177  1.00  0.00     0.027 A 
ATOM      8  C   UNL     1       2.831  -0.729   6.047  1.00  0.00     0.073 A 
ATOM      9  C   UNL     1       0.536  -2.253   6.426  1.00  0.00     0.020 A 
ATOM     10  C   UNL     1       2.372  -1.034   7.343  1.00  0.00     0.130 A 
BRANCH   6  11
ATOM     11  N   UNL     1       2.620  -0.953   3.634  1.00  0.00    -0.308 N 
ATOM     12  C   UNL     1       2.320  -1.161   2.333  1.00  0.00     0.321 C 
ATOM     13  O   UNL     1       3.275  -0.866   1.593  1.00  0.00    -0.248 OA
ATOM     14  H   UNL     1       3.466  -0.454   3.693  1.00  0.00     0.171 HD
BRANCH  12  15
ATOM     15  N   UNL     1       1.133  -1.572   1.775  1.00  0.00    -0.322 N 
BRANCH  15  16
ATOM     16  C   UNL     1       1.072  -1.464   0.305  1.00  0.00     0.118 C 
ATOM     17  C   UNL     1       1.040  -0.008  -0.165  1.00  0.00     0.027 C 
ENDBRANCH  15  16
BRANCH  15  18
ATOM     18  C   UNL     1      -0.152  -2.011   2.356  1.00  0.00     0.155 C 
BRANCH  18  19
ATOM     19  C   UNL     1      -0.341  -3.580   2.547  1.00  0.00     0.077 C 
ATOM     20  C   UNL     1       0.911  -4.402   2.938  1.00  0.00     0.043 C 
ATOM     21  C   UNL     1      -1.488  -3.842   3.552  1.00  0.00     0.043 C 
BRANCH  19  22
ATOM     22  O   UNL     1      -0.774  -4.125   1.287  1.00  0.00    -0.389 OA
ATOM     23  H   UNL     1      -0.084  -3.985   0.619  1.00  0.00     0.211 HD
ENDBRANCH  19  22
ENDBRANCH  18  19
ENDBRANCH  15  18
ENDBRANCH  12  15
ENDBRANCH   6  11
BRANCH  10  24
ATOM     24  O   UNL     1       3.160  -0.629   8.385  1.00  0.00    -0.507 OA
ATOM     25  H   UNL     1       2.899  -0.809   9.267  1.00  0.00     0.293 HD
ENDBRANCH  10  24
ENDBRANCH   1   5
BRANCH   3  26
ATOM     26  C   UNL     1       0.624   0.446   9.556  1.00  0.00     0.118 C 
BRANCH  26  27
ATOM     27  C   UNL     1      -0.435   1.482   9.872  1.00  0.00     0.042 C 
BRANCH  27  28
ATOM     28  C   UNL     1      -1.290   1.142  11.078  1.00  0.00     0.118 C 
BRANCH  28  29
ATOM     29  N   UNL     1      -0.501   0.842  12.271  1.00  0.00    -0.352 N 
ATOM     30  C   UNL     1      -0.058   1.654  13.283  1.00  0.00     0.251 C 
ATOM     31  H   UNL     1      -0.244  -0.104  12.363  1.00  0.00     0.163 HD
ATOM     32  O   UNL     1       0.797   1.245  14.070  1.00  0.00    -0.269 OA
BRANCH  30  33
ATOM     33  C   UNL     1      -0.574   3.028  13.404  1.00  0.00     0.039 A 
ATOM     34  C   UNL     1       0.291   4.070  13.744  1.00  0.00     0.014 A 
ATOM     35  C   UNL     1      -1.919   3.292  13.157  1.00  0.00     0.014 A 
ATOM     36  C   UNL     1      -0.182   5.384  13.741  1.00  0.00     0.010 A 
ATOM     37  C   UNL     1      -2.344   4.598  12.995  1.00  0.00     0.010 A 
ATOM     38  C   UNL     1      -1.490   5.662  13.311  1.00  0.00    -0.014 A 
BRANCH  38  39
ATOM     39  C   UNL     1      -2.016   7.047  13.219  1.00  0.00     0.031 A 
ATOM     40  C   UNL     1      -3.258   7.423  13.983  1.00  0.00     0.074 A 
ATOM     41  C   UNL     1      -1.439   7.929  12.381  1.00  0.00     0.049 A 
ATOM     42  N   UNL     1      -3.949   8.534  13.949  1.00  0.00    -0.248 NA
ATOM     43  C   UNL     1      -3.832   6.394  14.867  1.00  0.00     0.031 C 
ATOM     44  C   UNL     1      -0.275   7.660  11.533  1.00  0.00     0.029 A 
ATOM     45  N   UNL     1      -1.761   9.232  12.094  1.00  0.00    -0.354 N 
ATOM     46  C   UNL     1      -5.045   8.320  14.775  1.00  0.00     0.074 A 
ATOM     47  C   UNL     1      -4.975   6.952  15.232  1.00  0.00     0.031 C 
ATOM     48  C   UNL     1       0.042   8.773  10.853  1.00  0.00     0.029 A 
ATOM     49  C   UNL     1      -0.923   9.818  11.178  1.00  0.00     0.049 A 
ATOM     50  H   UNL     1      -2.522   9.702  12.507  1.00  0.00     0.167 HD
ATOM     51  C   UNL     1      -6.005   9.197  15.152  1.00  0.00     0.037 A 
ATOM     52  C   UNL     1      -0.937  11.059  10.656  1.00  0.00     0.037 A 
ATOM     53  C   UNL     1      -6.039  10.571  14.731  1.00  0.00     0.049 A 
ATOM     54  C   UNL     1      -2.002  12.024  11.104  1.00  0.00     0.074 A 
ATOM     55  C   UNL     1      -6.917  11.569  15.112  1.00  0.00     0.029 A 
ATOM     56  N   UNL     1      -5.148  11.140  13.832  1.00  0.00    -0.354 N 
ATOM     57  N   UNL     1      -2.988  11.835  11.948  1.00  0.00    -0.248 NA
ATOM     58  C   UNL     1      -1.952  13.376  10.533  1.00  0.00     0.031 C 
ATOM     59  C   UNL     1      -6.592  12.728  14.402  1.00  0.00     0.029 A 
ATOM     60  C   UNL     1      -5.472  12.471  13.627  1.00  0.00     0.049 A 
ATOM     61  H   UNL     1      -4.398  10.668  13.404  1.00  0.00     0.167 HD
ATOM     62  C   UNL     1      -3.655  13.050  12.034  1.00  0.00     0.074 A 
ATOM     63  C   UNL     1      -2.952  13.972  11.166  1.00  0.00     0.031 C 
ATOM     64  C   UNL     1      -4.750  13.373  12.765  1.00  0.00     0.037 A 
BRANCH  51  65
ATOM     65  C   UNL     1      -7.083   8.696  16.071  1.00  0.00     0.064 A 
ATOM     66  C   UNL     1      -6.811   8.314  17.395  1.00  0.00     0.173 A 
ATOM     67  C   UNL     1      -8.412   8.611  15.628  1.00  0.00     0.173 A 
ATOM     68  F   UNL     1      -5.555   8.361  17.867  1.00  0.00    -0.203 F 
ATOM     69  C   UNL     1      -7.817   7.827  18.224  1.00  0.00     0.198 A 
ATOM     70  C   UNL     1      -9.423   8.160  16.473  1.00  0.00     0.198 A 
ATOM     71  F   UNL     1      -8.732   8.966  14.375  1.00  0.00    -0.203 F 
ATOM     72  F   UNL     1      -7.518   7.405  19.461  1.00  0.00    -0.200 F 
ATOM     73  C   UNL     1      -9.123   7.758  17.766  1.00  0.00     0.200 A 
ATOM     74  F   UNL     1     -10.688   8.107  16.033  1.00  0.00    -0.200 F 
ATOM     75  F   UNL     1     -10.092   7.294  18.567  1.00  0.00    -0.200 F 
ENDBRANCH  51  65
BRANCH  52  76
ATOM     76  C   UNL     1       0.110  11.468   9.682  1.00  0.00     0.064 A 
ATOM     77  C   UNL     1       1.085  12.414  10.030  1.00  0.00     0.173 A 
ATOM     78  C   UNL     1       0.164  10.922   8.392  1.00  0.00     0.173 A 
ATOM     79  F   UNL     1       1.067  12.977  11.247  1.00  0.00    -0.203 F 
ATOM     80  C   UNL     1       2.060  12.814   9.118  1.00  0.00     0.198 A 
ATOM     81  C   UNL     1       1.158  11.300   7.490  1.00  0.00     0.198 A 
ATOM     82  F   UNL     1      -0.739  10.007   8.011  1.00  0.00    -0.203 F 
ATOM     83  F   UNL     1       2.951  13.753   9.463  1.00  0.00    -0.200 F 
ATOM     84  C   UNL     1       2.099  12.252   7.851  1.00  0.00     0.200 A 
ATOM     85  F   UNL     1       1.203  10.741   6.274  1.00  0.00    -0.200 F 
ATOM     86  F   UNL     1       3.040  12.632   6.976  1.00  0.00    -0.200 F 
ENDBRANCH  52  76
BRANCH  64  87
ATOM     87  C   UNL     1      -5.232  14.793  12.693  1.00  0.00     0.064 A 
ATOM     88  C   UNL     1      -5.846  15.308  11.543  1.00  0.00     0.173 A 
ATOM     89  C   UNL     1      -5.120  15.634  13.812  1.00  0.00     0.173 A 
ATOM     90  F   UNL     1      -5.965  14.548  10.443  1.00  0.00    -0.203 F 
ATOM     91  C   UNL     1      -6.308  16.621  11.506  1.00  0.00     0.198 A 
ATOM     92  C   UNL     1      -5.614  16.934  13.783  1.00  0.00     0.198 A 
ATOM     93  F   UNL     1      -4.549  15.187  14.940  1.00  0.00    -0.203 F 
ATOM     94  F   UNL     1      -6.847  17.107  10.380  1.00  0.00    -0.200 F 
ATOM     95  C   UNL     1      -6.200  17.429  12.628  1.00  0.00     0.200 A 
ATOM     96  F   UNL     1      -5.526  17.707  14.874  1.00  0.00    -0.200 F 
ATOM     97  F   UNL     1      -6.656  18.689  12.594  1.00  0.00    -0.200 F 
ENDBRANCH  64  87
ENDBRANCH  38  39
ENDBRANCH  30  33
ENDBRANCH  28  29
ENDBRANCH  27  28
ENDBRANCH  26  27
ENDBRANCH   3  26
TORSDOF 17
