REMARK SMILES Cn1ncc(C(=O)NCCCNC(=O)c2ccc(-c3c4nc(c(-c5c(F)c(F)c(F)c(F)c5F)c5ccc([nH]5)c(-c5c(F)c(F)c(F)c(F)c5F)c5nc(c(-c6c(F)c(F)c(F)c(F)c6F)c6ccc3[nH]6)C=C5)C=C4)cc2)c1C(=O)Nc1nccc(-c2ccc(OC(F)F)cc2)n1
REMARK SMILES IDX 6 1 7 2 8 3 5 5 1 6 2 7 3 8 78 9 4 10 79 11 80 12 81 13
REMARK SMILES IDX 82 15 83 16 97 17 84 18 86 19 85 20 87 21 88 22 96 23 89 24
REMARK SMILES IDX 95 25 90 26 91 27 92 28 93 29 94 30 9 31 10 32 11 33 12 34
REMARK SMILES IDX 13 35 14 37 15 38 16 39 77 40 17 41 76 42 18 43 19 44 20 45
REMARK SMILES IDX 70 46 21 47 75 48 69 49 71 50 22 51 74 52 68 53 67 54 23 56
REMARK SMILES IDX 55 57 35 58 54 59 36 60 39 61 53 62 72 63 37 64 38 65 52 67
REMARK SMILES IDX 73 68 40 69 24 70 25 71 33 72 26 73 27 74 31 75 34 76 28 77
REMARK SMILES IDX 29 78 32 79 30 80 56 81 57 82 65 83 58 84 59 85 63 86 66 87
REMARK SMILES IDX 60 88 61 89 64 90 62 91 41 92 42 93 50 94 43 95 44 96 48 97
REMARK SMILES IDX 51 98 45 99 46 100 49 101 47 102
REMARK H PARENT 8 4 81 14 12 36 71 55 39 66
REMARK Flexibility Score: inf
ROOT
ATOM      1  C   UNL     1       2.548  -1.506  -0.071  1.00  0.00     0.255 C 
ATOM      2  O   UNL     1       3.663  -0.993  -0.219  1.00  0.00    -0.269 OA
ATOM      3  N   UNL     1       2.570  -2.870  -0.068  1.00  0.00    -0.352 N 
ATOM      4  H   UNL     1       3.479  -3.244  -0.121  1.00  0.00     0.163 HD
ENDROOT
BRANCH   1   5
ATOM      5  C   UNL     1       1.374  -0.645   0.070  1.00  0.00     0.090 A 
ATOM      6  C   UNL     1      -1.588   0.977   1.314  1.00  0.00     0.174 C 
ATOM      7  N   UNL     1      -0.427   0.513   0.593  1.00  0.00    -0.262 N 
ATOM      8  N   UNL     1       0.411   1.448   0.127  1.00  0.00    -0.180 NA
ATOM      9  C   UNL     1       0.034  -0.780   0.468  1.00  0.00     0.139 A 
ATOM     10  C   UNL     1       1.509   0.757  -0.149  1.00  0.00     0.149 A 
BRANCH   9  11
ATOM     11  C   UNL     1      -0.707  -1.914   0.953  1.00  0.00     0.277 C 
ATOM     12  O   UNL     1      -0.361  -2.519   1.971  1.00  0.00    -0.267 OA
ATOM     13  N   UNL     1      -1.758  -2.452   0.239  1.00  0.00    -0.289 N 
ATOM     14  H   UNL     1      -1.695  -3.392  -0.049  1.00  0.00     0.173 HD
BRANCH  13  15
ATOM     15  C   UNL     1      -2.898  -1.738  -0.093  1.00  0.00     0.230 A 
ATOM     16  N   UNL     1      -3.965  -2.094   0.636  1.00  0.00    -0.221 NA
ATOM     17  N   UNL     1      -2.869  -0.714  -0.945  1.00  0.00    -0.213 NA
ATOM     18  C   UNL     1      -5.037  -1.288   0.575  1.00  0.00     0.117 A 
ATOM     19  C   UNL     1      -3.992   0.042  -1.031  1.00  0.00     0.076 A 
ATOM     20  C   UNL     1      -5.104  -0.191  -0.244  1.00  0.00     0.049 A 
BRANCH  19  21
ATOM     21  C   UNL     1      -3.872   1.230  -1.882  1.00  0.00     0.001 A 
ATOM     22  C   UNL     1      -3.624   1.124  -3.256  1.00  0.00     0.014 A 
ATOM     23  C   UNL     1      -3.897   2.513  -1.314  1.00  0.00     0.014 A 
ATOM     24  C   UNL     1      -3.363   2.265  -4.023  1.00  0.00     0.047 A 
ATOM     25  C   UNL     1      -3.604   3.649  -2.073  1.00  0.00     0.047 A 
ATOM     26  C   UNL     1      -3.326   3.532  -3.432  1.00  0.00     0.126 A 
BRANCH  26  27
ATOM     27  O   UNL     1      -2.998   4.553  -4.276  1.00  0.00    -0.435 OA
BRANCH  27  28
ATOM     28  C   UNL     1      -2.914   5.867  -3.737  1.00  0.00     0.542 C 
ATOM     29  F   UNL     1      -4.105   6.220  -3.194  1.00  0.00    -0.167 F 
ATOM     30  F   UNL     1      -1.973   5.917  -2.764  1.00  0.00    -0.167 F 
ENDBRANCH  27  28
ENDBRANCH  26  27
ENDBRANCH  19  21
ENDBRANCH  13  15
ENDBRANCH   9  11
ENDBRANCH   1   5
BRANCH   3  31
ATOM     31  C   UNL     1       1.548  -3.878  -0.003  1.00  0.00     0.118 C 
BRANCH  31  32
ATOM     32  C   UNL     1       1.477  -4.734  -1.249  1.00  0.00     0.042 C 
BRANCH  32  33
ATOM     33  C   UNL     1       2.592  -5.754  -1.337  1.00  0.00     0.118 C 
BRANCH  33  34
ATOM     34  N   UNL     1       2.527  -6.749  -0.269  1.00  0.00    -0.352 N 
ATOM     35  C   UNL     1       2.198  -8.082  -0.318  1.00  0.00     0.251 C 
ATOM     36  H   UNL     1       2.753  -6.411   0.627  1.00  0.00     0.163 HD
ATOM     37  O   UNL     1       1.992  -8.709   0.718  1.00  0.00    -0.269 OA
BRANCH  35  38
ATOM     38  C   UNL     1       2.068  -8.755  -1.624  1.00  0.00     0.039 A 
ATOM     39  C   UNL     1       1.011  -9.642  -1.842  1.00  0.00     0.014 A 
ATOM     40  C   UNL     1       2.980  -8.483  -2.644  1.00  0.00     0.014 A 
ATOM     41  C   UNL     1       0.818 -10.180  -3.116  1.00  0.00     0.010 A 
ATOM     42  C   UNL     1       2.714  -8.915  -3.933  1.00  0.00     0.010 A 
ATOM     43  C   UNL     1       1.637  -9.778  -4.182  1.00  0.00    -0.014 A 
BRANCH  43  44
ATOM     44  C   UNL     1       1.421 -10.252  -5.570  1.00  0.00     0.031 A 
ATOM     45  C   UNL     1       2.523 -10.996  -6.274  1.00  0.00     0.074 A 
ATOM     46  C   UNL     1       0.293  -9.921  -6.227  1.00  0.00     0.049 A 
ATOM     47  N   UNL     1       2.615 -11.352  -7.529  1.00  0.00    -0.248 NA
ATOM     48  C   UNL     1       3.703 -11.347  -5.464  1.00  0.00     0.031 C 
ATOM     49  C   UNL     1      -0.823  -9.159  -5.665  1.00  0.00     0.029 A 
ATOM     50  N   UNL     1      -0.091 -10.164  -7.521  1.00  0.00    -0.354 N 
ATOM     51  C   UNL     1       3.867 -11.937  -7.662  1.00  0.00     0.074 A 
ATOM     52  C   UNL     1       4.526 -11.832  -6.380  1.00  0.00     0.031 C 
ATOM     53  C   UNL     1      -1.775  -9.016  -6.601  1.00  0.00     0.029 A 
ATOM     54  C   UNL     1      -1.315  -9.629  -7.842  1.00  0.00     0.049 A 
ATOM     55  H   UNL     1       0.458 -10.674  -8.160  1.00  0.00     0.167 HD
ATOM     56  C   UNL     1       4.407 -12.533  -8.750  1.00  0.00     0.037 A 
ATOM     57  C   UNL     1      -1.981  -9.621  -9.013  1.00  0.00     0.037 A 
ATOM     58  C   UNL     1       3.727 -12.667 -10.009  1.00  0.00     0.049 A 
ATOM     59  C   UNL     1      -1.358 -10.290 -10.210  1.00  0.00     0.074 A 
ATOM     60  C   UNL     1       4.154 -13.313 -11.155  1.00  0.00     0.029 A 
ATOM     61  N   UNL     1       2.471 -12.144 -10.285  1.00  0.00    -0.354 N 
ATOM     62  N   UNL     1      -0.200 -10.898 -10.308  1.00  0.00    -0.248 NA
ATOM     63  C   UNL     1      -2.134 -10.273 -11.457  1.00  0.00     0.031 C 
ATOM     64  C   UNL     1       3.178 -13.137 -12.142  1.00  0.00     0.029 A 
ATOM     65  C   UNL     1       2.117 -12.434 -11.592  1.00  0.00     0.049 A 
ATOM     66  H   UNL     1       1.915 -11.642  -9.646  1.00  0.00     0.167 HD
ATOM     67  C   UNL     1      -0.124 -11.366 -11.613  1.00  0.00     0.074 A 
ATOM     68  C   UNL     1      -1.357 -10.978 -12.267  1.00  0.00     0.031 C 
ATOM     69  C   UNL     1       0.875 -12.055 -12.216  1.00  0.00     0.037 A 
BRANCH  56  70
ATOM     70  C   UNL     1       5.797 -13.089  -8.622  1.00  0.00     0.064 A 
ATOM     71  C   UNL     1       6.076 -14.199  -7.810  1.00  0.00     0.173 A 
ATOM     72  C   UNL     1       6.859 -12.521  -9.342  1.00  0.00     0.173 A 
ATOM     73  F   UNL     1       5.100 -14.772  -7.089  1.00  0.00    -0.203 F 
ATOM     74  C   UNL     1       7.371 -14.699  -7.697  1.00  0.00     0.198 A 
ATOM     75  C   UNL     1       8.146 -13.046  -9.254  1.00  0.00     0.198 A 
ATOM     76  F   UNL     1       6.648 -11.461 -10.136  1.00  0.00    -0.203 F 
ATOM     77  F   UNL     1       7.622 -15.723  -6.870  1.00  0.00    -0.200 F 
ATOM     78  C   UNL     1       8.403 -14.127  -8.425  1.00  0.00     0.200 A 
ATOM     79  F   UNL     1       9.139 -12.501  -9.970  1.00  0.00    -0.200 F 
ATOM     80  F   UNL     1       9.647 -14.614  -8.323  1.00  0.00    -0.200 F 
ENDBRANCH  56  70
BRANCH  57  81
ATOM     81  C   UNL     1      -3.318  -8.978  -9.106  1.00  0.00     0.064 A 
ATOM     82  C   UNL     1      -4.473  -9.749  -9.301  1.00  0.00     0.173 A 
ATOM     83  C   UNL     1      -3.473  -7.588  -9.005  1.00  0.00     0.173 A 
ATOM     84  F   UNL     1      -4.376 -11.081  -9.421  1.00  0.00    -0.203 F 
ATOM     85  C   UNL     1      -5.728  -9.153  -9.415  1.00  0.00     0.198 A 
ATOM     86  C   UNL     1      -4.732  -6.995  -9.089  1.00  0.00     0.198 A 
ATOM     87  F   UNL     1      -2.402  -6.805  -8.810  1.00  0.00    -0.203 F 
ATOM     88  F   UNL     1      -6.808  -9.910  -9.650  1.00  0.00    -0.200 F 
ATOM     89  C   UNL     1      -5.857  -7.777  -9.304  1.00  0.00     0.200 A 
ATOM     90  F   UNL     1      -4.854  -5.667  -8.963  1.00  0.00    -0.200 F 
ATOM     91  F   UNL     1      -7.063  -7.204  -9.409  1.00  0.00    -0.200 F 
ENDBRANCH  57  81
BRANCH  69  92
ATOM     92  C   UNL     1       0.661 -12.483 -13.638  1.00  0.00     0.064 A 
ATOM     93  C   UNL     1       0.689 -11.566 -14.698  1.00  0.00     0.173 A 
ATOM     94  C   UNL     1       0.492 -13.842 -13.947  1.00  0.00     0.173 A 
ATOM     95  F   UNL     1       0.833 -10.255 -14.453  1.00  0.00    -0.203 F 
ATOM     96  C   UNL     1       0.536 -11.991 -16.014  1.00  0.00     0.198 A 
ATOM     97  C   UNL     1       0.372 -14.267 -15.266  1.00  0.00     0.198 A 
ATOM     98  F   UNL     1       0.467 -14.760 -12.969  1.00  0.00    -0.203 F 
ATOM     99  F   UNL     1       0.523 -11.093 -17.009  1.00  0.00    -0.200 F 
ATOM    100  C   UNL     1       0.389 -13.341 -16.298  1.00  0.00     0.200 A 
ATOM    101  F   UNL     1       0.248 -15.573 -15.539  1.00  0.00    -0.200 F 
ATOM    102  F   UNL     1       0.258 -13.750 -17.568  1.00  0.00    -0.200 F 
ENDBRANCH  69  92
ENDBRANCH  43  44
ENDBRANCH  35  38
ENDBRANCH  33  34
ENDBRANCH  32  33
ENDBRANCH  31  32
ENDBRANCH   3  31
TORSDOF 15
