REMARK SMILES CC[C@H](C)[C@H](NS(=O)(=O)c1ccc(C)cc1)C(=O)NCCCNC(=O)c1ccc(-c2c3nc(c(-c4c(F)c(F)c(F)c(F)c4F)c4ccc([nH]4)c(-c4c(F)c(F)c(F)c(F)c4F)c4nc(c(-c5c(F)c(F)c(F)c(F)c5F)c5ccc2[nH]5)C=C4)C=C3)cc1
REMARK SMILES IDX 20 1 19 2 17 3 18 4 5 6 3 7 4 8 2 9 1 10 6 11 7 13 8 14 9 15
REMARK SMILES IDX 10 16 11 17 16 18 12 19 15 20 13 21 14 22 21 23 22 24 23 25
REMARK SMILES IDX 24 26 25 28 26 29 27 30 88 31 28 32 87 33 29 34 30 35 31 36
REMARK SMILES IDX 81 37 32 38 86 39 80 40 82 41 33 42 85 43 79 44 78 45 34 47
REMARK SMILES IDX 66 48 46 49 65 50 47 51 50 52 64 53 83 54 48 55 49 56 63 58
REMARK SMILES IDX 84 59 51 60 35 61 36 62 44 63 37 64 38 65 42 66 45 67 39 68
REMARK SMILES IDX 40 69 43 70 41 71 67 72 68 73 76 74 69 75 70 76 74 77 77 78
REMARK SMILES IDX 71 79 72 80 75 81 73 82 52 83 53 84 61 85 54 86 55 87 59 88
REMARK SMILES IDX 62 89 56 90 57 91 60 92 58 93
REMARK H PARENT 19 5 6 12 23 27 82 46 50 57
REMARK Flexibility Score: inf
ROOT
ATOM      1  C   UNL     1       3.145  -1.603  -5.101  1.00  0.00     0.117 C 
ENDROOT
BRANCH   1   2
ATOM      2  N   UNL     1       1.726  -1.791  -5.194  1.00  0.00    -0.355 N 
ATOM      3  C   UNL     1       0.708  -1.198  -4.537  1.00  0.00     0.238 C 
ATOM      4  O   UNL     1      -0.407  -1.694  -4.765  1.00  0.00    -0.273 OA
ATOM      5  H   UNL     1       1.447  -2.470  -5.850  1.00  0.00     0.163 HD
BRANCH   3   6
ATOM      6  C   UNL     1       0.821   0.057  -3.669  1.00  0.00     0.161 C 
BRANCH   6   7
ATOM      7  C   UNL     1       1.010   1.430  -4.395  1.00  0.00     0.013 C 
ATOM      8  C   UNL     1       2.434   1.944  -4.468  1.00  0.00     0.010 C 
BRANCH   7   9
ATOM      9  C   UNL     1       0.277   1.607  -5.746  1.00  0.00     0.002 C 
ATOM     10  C   UNL     1       1.137   1.495  -7.001  1.00  0.00     0.004 C 
ENDBRANCH   7   9
ENDBRANCH   6   7
BRANCH   6  11
ATOM     11  N   UNL     1       1.275   0.136  -2.255  1.00  0.00    -0.198 NA
ATOM     12  H   UNL     1       0.487  -0.254  -1.737  1.00  0.00     0.142 HD
BRANCH  11  13
ATOM     13  S   UNL     1       2.598  -0.459  -1.435  1.00  0.00     0.241 S 
ATOM     14  O   UNL     1       2.336  -0.154  -0.051  1.00  0.00    -0.207 OA
ATOM     15  O   UNL     1       2.793  -1.834  -1.844  1.00  0.00    -0.207 OA
BRANCH  13  16
ATOM     16  C   UNL     1       4.017   0.521  -1.892  1.00  0.00     0.082 A 
ATOM     17  C   UNL     1       5.030  -0.014  -2.679  1.00  0.00     0.022 A 
ATOM     18  C   UNL     1       4.125   1.850  -1.471  1.00  0.00     0.022 A 
ATOM     19  C   UNL     1       5.995   0.821  -3.248  1.00  0.00     0.005 A 
ATOM     20  C   UNL     1       5.118   2.680  -2.021  1.00  0.00     0.005 A 
ATOM     21  C   UNL     1       6.013   2.185  -2.976  1.00  0.00    -0.051 A 
ATOM     22  C   UNL     1       6.997   3.074  -3.681  1.00  0.00     0.044 C 
ENDBRANCH  13  16
ENDBRANCH  11  13
ENDBRANCH   6  11
ENDBRANCH   3   6
ENDBRANCH   1   2
BRANCH   1  23
ATOM     23  C   UNL     1       3.793  -2.840  -4.518  1.00  0.00     0.042 C 
BRANCH  23  24
ATOM     24  C   UNL     1       5.164  -3.158  -5.070  1.00  0.00     0.118 C 
BRANCH  24  25
ATOM     25  N   UNL     1       6.173  -2.096  -4.989  1.00  0.00    -0.352 N 
ATOM     26  C   UNL     1       7.560  -2.121  -4.845  1.00  0.00     0.251 C 
ATOM     27  H   UNL     1       5.797  -1.188  -5.046  1.00  0.00     0.163 HD
ATOM     28  O   UNL     1       8.200  -1.075  -4.907  1.00  0.00    -0.269 OA
BRANCH  26  29
ATOM     29  C   UNL     1       8.319  -3.399  -4.801  1.00  0.00     0.039 A 
ATOM     30  C   UNL     1       9.078  -3.592  -5.966  1.00  0.00     0.014 A 
ATOM     31  C   UNL     1       7.677  -4.465  -4.211  1.00  0.00     0.014 A 
ATOM     32  C   UNL     1       8.708  -4.612  -6.822  1.00  0.00     0.010 A 
ATOM     33  C   UNL     1       7.201  -5.393  -5.104  1.00  0.00     0.010 A 
ATOM     34  C   UNL     1       7.622  -5.373  -6.445  1.00  0.00    -0.014 A 
BRANCH  34  35
ATOM     35  C   UNL     1       6.838  -6.210  -7.328  1.00  0.00     0.031 A 
ATOM     36  C   UNL     1       6.928  -7.651  -7.049  1.00  0.00     0.074 A 
ATOM     37  C   UNL     1       5.920  -5.681  -8.174  1.00  0.00     0.049 A 
ATOM     38  N   UNL     1       6.411  -8.555  -7.787  1.00  0.00    -0.248 NA
ATOM     39  C   UNL     1       7.639  -8.198  -5.896  1.00  0.00     0.031 C 
ATOM     40  C   UNL     1       4.784  -6.360  -8.803  1.00  0.00     0.029 A 
ATOM     41  N   UNL     1       5.926  -4.415  -8.791  1.00  0.00    -0.354 N 
ATOM     42  C   UNL     1       6.464  -9.743  -7.099  1.00  0.00     0.074 A 
ATOM     43  C   UNL     1       7.271  -9.477  -5.942  1.00  0.00     0.031 C 
ATOM     44  C   UNL     1       4.410  -5.679  -9.899  1.00  0.00     0.029 A 
ATOM     45  C   UNL     1       5.389  -4.630 -10.089  1.00  0.00     0.049 A 
ATOM     46  H   UNL     1       6.235  -3.564  -8.405  1.00  0.00     0.167 HD
ATOM     47  C   UNL     1       5.707 -10.763  -7.582  1.00  0.00     0.037 A 
ATOM     48  C   UNL     1       6.166  -4.483 -11.202  1.00  0.00     0.037 A 
ATOM     49  C   UNL     1       5.162 -10.384  -8.888  1.00  0.00     0.049 A 
ATOM     50  C   UNL     1       6.333  -5.767 -11.989  1.00  0.00     0.074 A 
ATOM     51  C   UNL     1       3.941  -9.893  -9.317  1.00  0.00     0.029 A 
ATOM     52  N   UNL     1       6.065 -10.108  -9.907  1.00  0.00    -0.354 N 
ATOM     53  N   UNL     1       6.101  -6.962 -11.515  1.00  0.00    -0.248 NA
ATOM     54  C   UNL     1       6.768  -5.800 -13.376  1.00  0.00     0.031 C 
ATOM     55  C   UNL     1       4.120  -9.351 -10.623  1.00  0.00     0.029 A 
ATOM     56  C   UNL     1       5.442  -9.533 -10.993  1.00  0.00     0.049 A 
ATOM     57  H   UNL     1       7.030 -10.299  -9.860  1.00  0.00     0.167 HD
ATOM     58  C   UNL     1       6.350  -7.915 -12.480  1.00  0.00     0.074 A 
ATOM     59  C   UNL     1       6.754  -7.121 -13.627  1.00  0.00     0.031 C 
ATOM     60  C   UNL     1       6.209  -9.257 -12.208  1.00  0.00     0.037 A 
BRANCH  47  61
ATOM     61  C   UNL     1       5.306 -12.008  -6.830  1.00  0.00     0.064 A 
ATOM     62  C   UNL     1       4.205 -12.768  -7.282  1.00  0.00     0.173 A 
ATOM     63  C   UNL     1       5.901 -12.492  -5.648  1.00  0.00     0.173 A 
ATOM     64  F   UNL     1       3.560 -12.460  -8.415  1.00  0.00    -0.203 F 
ATOM     65  C   UNL     1       3.713 -13.873  -6.583  1.00  0.00     0.198 A 
ATOM     66  C   UNL     1       5.391 -13.579  -4.932  1.00  0.00     0.198 A 
ATOM     67  F   UNL     1       7.026 -11.977  -5.151  1.00  0.00    -0.203 F 
ATOM     68  F   UNL     1       2.660 -14.545  -7.066  1.00  0.00    -0.200 F 
ATOM     69  C   UNL     1       4.295 -14.268  -5.398  1.00  0.00     0.200 A 
ATOM     70  F   UNL     1       5.981 -13.952  -3.787  1.00  0.00    -0.200 F 
ATOM     71  F   UNL     1       3.816 -15.318  -4.719  1.00  0.00    -0.200 F 
ENDBRANCH  47  61
BRANCH  48  72
ATOM     72  C   UNL     1       7.183  -3.406 -11.016  1.00  0.00     0.064 A 
ATOM     73  C   UNL     1       6.691  -2.111 -10.742  1.00  0.00     0.173 A 
ATOM     74  C   UNL     1       8.476  -3.710 -10.578  1.00  0.00     0.173 A 
ATOM     75  F   UNL     1       5.468  -1.756 -11.171  1.00  0.00    -0.203 F 
ATOM     76  C   UNL     1       7.361  -1.254  -9.872  1.00  0.00     0.198 A 
ATOM     77  C   UNL     1       9.168  -2.823  -9.748  1.00  0.00     0.198 A 
ATOM     78  F   UNL     1       9.007  -4.918 -10.816  1.00  0.00    -0.203 F 
ATOM     79  F   UNL     1       6.772  -0.120  -9.466  1.00  0.00    -0.200 F 
ATOM     80  C   UNL     1       8.581  -1.632  -9.341  1.00  0.00     0.200 A 
ATOM     81  F   UNL     1      10.354  -3.180  -9.234  1.00  0.00    -0.200 F 
ATOM     82  F   UNL     1       9.166  -0.879  -8.399  1.00  0.00    -0.200 F 
ENDBRANCH  48  72
BRANCH  60  83
ATOM     83  C   UNL     1       6.728 -10.474 -12.998  1.00  0.00     0.064 A 
ATOM     84  C   UNL     1       7.373 -10.434 -14.243  1.00  0.00     0.173 A 
ATOM     85  C   UNL     1       6.649 -11.791 -12.448  1.00  0.00     0.173 A 
ATOM     86  F   UNL     1       7.538  -9.302 -14.924  1.00  0.00    -0.203 F 
ATOM     87  C   UNL     1       7.900 -11.578 -14.864  1.00  0.00     0.198 A 
ATOM     88  C   UNL     1       7.217 -12.918 -13.042  1.00  0.00     0.198 A 
ATOM     89  F   UNL     1       6.025 -12.062 -11.296  1.00  0.00    -0.203 F 
ATOM     90  F   UNL     1       8.485 -11.460 -16.065  1.00  0.00    -0.200 F 
ATOM     91  C   UNL     1       7.841 -12.814 -14.258  1.00  0.00     0.200 A 
ATOM     92  F   UNL     1       7.160 -14.100 -12.411  1.00  0.00    -0.200 F 
ATOM     93  F   UNL     1       8.379 -13.892 -14.840  1.00  0.00    -0.200 F 
ENDBRANCH  60  83
ENDBRANCH  34  35
ENDBRANCH  26  29
ENDBRANCH  24  25
ENDBRANCH  23  24
ENDBRANCH   1  23
TORSDOF 15
