REMARK SMILES COc1cc2c(cc1OC)[C@@H](CC(=O)NCCCNC(=O)c1ccc(-c3c4nc(c(-c5c(F)c(F)c(F)c(F)c5F)c5ccc([nH]5)c(-c5c(F)c(F)c(F)c(F)c5F)c5nc(c(-c6c(F)c(F)c(F)c(F)c6F)c6ccc3[nH]6)C=C5)C=C4)cc1)N(C(=O)Nc1ccc(Cl)cc1)CC2
REMARK SMILES IDX 16 1 15 2 13 3 14 4 12 6 11 7 3 8 4 9 8 10 5 11 7 12 6 13
REMARK SMILES IDX 97 14 96 15 85 16 2 17 1 18 9 19 10 20 86 21 87 22 88 23
REMARK SMILES IDX 89 25 90 26 95 27 91 28 94 29 92 30 93 31 17 32 18 33 19 34
REMARK SMILES IDX 20 35 21 37 22 38 23 39 84 40 24 41 83 42 25 43 26 44 27 45
REMARK SMILES IDX 77 46 28 47 82 48 76 49 78 50 29 51 81 52 75 53 74 54 30 56
REMARK SMILES IDX 62 57 42 58 61 59 43 60 46 61 60 62 79 63 44 64 45 65 59 67
REMARK SMILES IDX 80 68 47 69 31 70 32 71 40 72 33 73 34 74 38 75 41 76 35 77
REMARK SMILES IDX 36 78 39 79 37 80 63 81 64 82 72 83 65 84 66 85 70 86 73 87
REMARK SMILES IDX 67 88 68 89 71 90 69 91 48 92 49 93 57 94 50 95 51 96 55 97
REMARK SMILES IDX 58 98 52 99 53 100 56 101 54 102
REMARK H PARENT 15 5 88 24 19 36 78 55 46 66
REMARK Flexibility Score: inf
ROOT
ATOM      1  C   UNL     1       3.172   2.978   9.552  1.00  0.00     0.117 C 
ENDROOT
BRANCH   1   2
ATOM      2  N   UNL     1       3.553   1.647   9.086  1.00  0.00    -0.356 N 
ATOM      3  C   UNL     1       3.408   1.029   7.880  1.00  0.00     0.222 C 
ATOM      4  O   UNL     1       3.645  -0.181   7.823  1.00  0.00    -0.275 OA
ATOM      5  H   UNL     1       3.995   1.095   9.769  1.00  0.00     0.163 HD
BRANCH   3   6
ATOM      6  C   UNL     1       3.067   1.798   6.619  1.00  0.00     0.130 C 
BRANCH   6   7
ATOM      7  C   UNL     1       1.672   1.414   6.058  1.00  0.00     0.127 C 
ATOM      8  C   UNL     1       1.254   0.755   1.748  1.00  0.00     0.161 A 
ATOM      9  C   UNL     1       0.149   0.998   2.545  1.00  0.00     0.054 A 
ATOM     10  C   UNL     1       2.528   0.612   2.318  1.00  0.00     0.161 A 
ATOM     11  C   UNL     1       0.320   1.171   3.917  1.00  0.00    -0.037 A 
ATOM     12  C   UNL     1       2.681   0.731   3.717  1.00  0.00     0.056 A 
ATOM     13  C   UNL     1       1.593   1.076   4.539  1.00  0.00    -0.018 A 
ATOM     14  C   UNL     1      -0.827   1.710   4.720  1.00  0.00     0.057 C 
ATOM     15  C   UNL     1      -0.236   2.952   5.361  1.00  0.00     0.127 C 
ATOM     16  N   UNL     1       0.736   2.543   6.378  1.00  0.00    -0.317 N 
BRANCH   8  17
ATOM     17  O   UNL     1       1.038   0.843   0.396  1.00  0.00    -0.493 OA
ATOM     18  C   UNL     1       1.138  -0.425  -0.239  1.00  0.00     0.278 C 
ENDBRANCH   8  17
BRANCH  10  19
ATOM     19  O   UNL     1       3.548   0.409   1.426  1.00  0.00    -0.493 OA
ATOM     20  C   UNL     1       4.863   0.276   1.940  1.00  0.00     0.278 C 
ENDBRANCH  10  19
BRANCH  16  21
ATOM     21  C   UNL     1       0.309   2.786   7.673  1.00  0.00     0.322 C 
ATOM     22  O   UNL     1       0.076   1.901   8.490  1.00  0.00    -0.248 OA
ATOM     23  N   UNL     1       0.157   4.142   7.878  1.00  0.00    -0.308 N 
ATOM     24  H   UNL     1       0.959   4.704   7.772  1.00  0.00     0.171 HD
BRANCH  23  25
ATOM     25  C   UNL     1      -1.035   4.794   8.221  1.00  0.00     0.042 A 
ATOM     26  C   UNL     1      -1.042   6.190   8.134  1.00  0.00     0.028 A 
ATOM     27  C   UNL     1      -2.228   4.101   8.431  1.00  0.00     0.028 A 
ATOM     28  C   UNL     1      -2.249   6.888   8.173  1.00  0.00     0.022 A 
ATOM     29  C   UNL     1      -3.437   4.799   8.454  1.00  0.00     0.022 A 
ATOM     30  C   UNL     1      -3.444   6.185   8.306  1.00  0.00     0.041 A 
ATOM     31  Cl  UNL     1      -4.940   7.033   8.252  1.00  0.00    -0.084 Cl
ENDBRANCH  23  25
ENDBRANCH  16  21
ENDBRANCH   6   7
ENDBRANCH   3   6
ENDBRANCH   1   2
BRANCH   1  32
ATOM     32  C   UNL     1       2.012   2.889  10.556  1.00  0.00     0.042 C 
BRANCH  32  33
ATOM     33  C   UNL     1       2.325   3.468  11.930  1.00  0.00     0.118 C 
BRANCH  33  34
ATOM     34  N   UNL     1       2.170   4.914  11.965  1.00  0.00    -0.352 N 
ATOM     35  C   UNL     1       1.121   5.780  12.152  1.00  0.00     0.251 C 
ATOM     36  H   UNL     1       3.023   5.385  11.821  1.00  0.00     0.163 HD
ATOM     37  O   UNL     1       1.371   6.970  11.933  1.00  0.00    -0.269 OA
BRANCH  35  38
ATOM     38  C   UNL     1      -0.267   5.421  12.590  1.00  0.00     0.039 A 
ATOM     39  C   UNL     1      -1.248   6.426  12.474  1.00  0.00     0.014 A 
ATOM     40  C   UNL     1      -0.654   4.222  13.186  1.00  0.00     0.014 A 
ATOM     41  C   UNL     1      -2.558   6.241  12.947  1.00  0.00     0.010 A 
ATOM     42  C   UNL     1      -1.982   4.007  13.593  1.00  0.00     0.010 A 
ATOM     43  C   UNL     1      -2.947   5.019  13.505  1.00  0.00    -0.014 A 
BRANCH  43  44
ATOM     44  C   UNL     1      -4.329   4.786  14.023  1.00  0.00     0.031 A 
ATOM     45  C   UNL     1      -4.557   4.429  15.472  1.00  0.00     0.074 A 
ATOM     46  C   UNL     1      -5.387   4.830  13.190  1.00  0.00     0.049 A 
ATOM     47  N   UNL     1      -5.662   4.068  16.079  1.00  0.00    -0.248 NA
ATOM     48  C   UNL     1      -3.378   4.455  16.351  1.00  0.00     0.031 C 
ATOM     49  C   UNL     1      -5.322   5.134  11.763  1.00  0.00     0.029 A 
ATOM     50  N   UNL     1      -6.724   4.606  13.419  1.00  0.00    -0.354 N 
ATOM     51  C   UNL     1      -5.303   3.785  17.392  1.00  0.00     0.074 A 
ATOM     52  C   UNL     1      -3.872   3.981  17.485  1.00  0.00     0.031 C 
ATOM     53  C   UNL     1      -6.559   5.097  11.245  1.00  0.00     0.029 A 
ATOM     54  C   UNL     1      -7.504   4.726  12.294  1.00  0.00     0.049 A 
ATOM     55  H   UNL     1      -7.088   4.381  14.305  1.00  0.00     0.167 HD
ATOM     56  C   UNL     1      -6.093   3.414  18.430  1.00  0.00     0.037 A 
ATOM     57  C   UNL     1      -8.828   4.548  12.118  1.00  0.00     0.037 A 
ATOM     58  C   UNL     1      -7.524   3.274  18.358  1.00  0.00     0.049 A 
ATOM     59  C   UNL     1      -9.687   4.160  13.290  1.00  0.00     0.074 A 
ATOM     60  C   UNL     1      -8.415   2.973  19.376  1.00  0.00     0.029 A 
ATOM     61  N   UNL     1      -8.277   3.434  17.205  1.00  0.00    -0.354 N 
ATOM     62  N   UNL     1      -9.339   3.935  14.533  1.00  0.00    -0.248 NA
ATOM     63  C   UNL     1     -11.127   4.004  13.033  1.00  0.00     0.031 C 
ATOM     64  C   UNL     1      -9.703   2.918  18.831  1.00  0.00     0.029 A 
ATOM     65  C   UNL     1      -9.620   3.226  17.483  1.00  0.00     0.049 A 
ATOM     66  H   UNL     1      -7.913   3.662  16.320  1.00  0.00     0.167 HD
ATOM     67  C   UNL     1     -10.514   3.638  15.210  1.00  0.00     0.074 A 
ATOM     68  C   UNL     1     -11.588   3.723  14.244  1.00  0.00     0.031 C 
ATOM     69  C   UNL     1     -10.684   3.323  16.517  1.00  0.00     0.037 A 
BRANCH  56  70
ATOM     70  C   UNL     1      -5.424   3.134  19.747  1.00  0.00     0.064 A 
ATOM     71  C   UNL     1      -4.861   4.159  20.522  1.00  0.00     0.173 A 
ATOM     72  C   UNL     1      -5.376   1.827  20.257  1.00  0.00     0.173 A 
ATOM     73  F   UNL     1      -4.874   5.425  20.078  1.00  0.00    -0.203 F 
ATOM     74  C   UNL     1      -4.244   3.882  21.739  1.00  0.00     0.198 A 
ATOM     75  C   UNL     1      -4.786   1.558  21.489  1.00  0.00     0.198 A 
ATOM     76  F   UNL     1      -5.910   0.810  19.564  1.00  0.00    -0.203 F 
ATOM     77  F   UNL     1      -3.666   4.871  22.435  1.00  0.00    -0.200 F 
ATOM     78  C   UNL     1      -4.211   2.584  22.225  1.00  0.00     0.200 A 
ATOM     79  F   UNL     1      -4.769   0.305  21.964  1.00  0.00    -0.200 F 
ATOM     80  F   UNL     1      -3.620   2.320  23.398  1.00  0.00    -0.200 F 
ENDBRANCH  56  70
BRANCH  57  81
ATOM     81  C   UNL     1      -9.428   4.765  10.776  1.00  0.00     0.064 A 
ATOM     82  C   UNL     1     -10.244   5.878  10.529  1.00  0.00     0.173 A 
ATOM     83  C   UNL     1      -9.196   3.876   9.717  1.00  0.00     0.173 A 
ATOM     84  F   UNL     1     -10.515   6.742  11.518  1.00  0.00    -0.203 F 
ATOM     85  C   UNL     1     -10.817   6.086   9.276  1.00  0.00     0.198 A 
ATOM     86  C   UNL     1      -9.749   4.099   8.457  1.00  0.00     0.198 A 
ATOM     87  F   UNL     1      -8.421   2.798   9.902  1.00  0.00    -0.203 F 
ATOM     88  F   UNL     1     -11.627   7.135   9.078  1.00  0.00    -0.200 F 
ATOM     89  C   UNL     1     -10.563   5.200   8.240  1.00  0.00     0.200 A 
ATOM     90  F   UNL     1      -9.493   3.247   7.455  1.00  0.00    -0.200 F 
ATOM     91  F   UNL     1     -11.111   5.403   7.034  1.00  0.00    -0.200 F 
ENDBRANCH  57  81
BRANCH  69  92
ATOM     92  C   UNL     1     -12.087   3.082  16.992  1.00  0.00     0.064 A 
ATOM     93  C   UNL     1     -12.786   1.914  16.657  1.00  0.00     0.173 A 
ATOM     94  C   UNL     1     -12.724   4.015  17.825  1.00  0.00     0.173 A 
ATOM     95  F   UNL     1     -12.226   0.999  15.852  1.00  0.00    -0.203 F 
ATOM     96  C   UNL     1     -14.081   1.698  17.122  1.00  0.00     0.198 A 
ATOM     97  C   UNL     1     -14.009   3.784  18.308  1.00  0.00     0.198 A 
ATOM     98  F   UNL     1     -12.095   5.146  18.178  1.00  0.00    -0.203 F 
ATOM     99  F   UNL     1     -14.747   0.594  16.755  1.00  0.00    -0.200 F 
ATOM    100  C   UNL     1     -14.689   2.629  17.951  1.00  0.00     0.200 A 
ATOM    101  F   UNL     1     -14.590   4.679  19.119  1.00  0.00    -0.200 F 
ATOM    102  F   UNL     1     -15.933   2.417  18.402  1.00  0.00    -0.200 F 
ENDBRANCH  69  92
ENDBRANCH  43  44
ENDBRANCH  35  38
ENDBRANCH  33  34
ENDBRANCH  32  33
ENDBRANCH   1  32
TORSDOF 15
