REMARK SMILES CC[C@H](C)CN(CC)c1nc(C(=O)NCCCNC(=O)c2ccc(-c3c4nc(c(-c5c(F)c(F)c(F)c(F)c5F)c5ccc([nH]5)c(-c5c(F)c(F)c(F)c(F)c5F)c5nc(c(-c6c(F)c(F)c(F)c(F)c6F)c6ccc3[nH]6)C=C5)C=C4)cc2)cc2ccccc12
REMARK SMILES IDX 15 1 14 2 12 3 13 4 11 6 9 7 10 8 90 9 85 10 89 11 84 12
REMARK SMILES IDX 86 13 88 14 87 15 6 16 5 17 3 18 4 19 2 20 1 21 7 22 8 23
REMARK SMILES IDX 16 24 17 25 18 26 19 27 20 29 21 30 22 31 83 32 23 33 82 34
REMARK SMILES IDX 24 35 25 36 26 37 76 38 27 39 81 40 75 41 77 42 28 43 80 44
REMARK SMILES IDX 74 45 73 46 29 48 61 49 41 50 60 51 42 52 45 53 59 54 78 55
REMARK SMILES IDX 43 56 44 57 58 59 79 60 46 61 30 62 31 63 39 64 32 65 33 66
REMARK SMILES IDX 37 67 40 68 34 69 35 70 38 71 36 72 62 73 63 74 71 75 64 76
REMARK SMILES IDX 65 77 69 78 72 79 66 80 67 81 70 82 68 83 47 84 48 85 56 86
REMARK SMILES IDX 49 87 50 88 54 89 57 90 51 91 52 92 55 93 53 94
REMARK H PARENT 14 5 18 28 77 47 45 58
REMARK Flexibility Score: inf
ROOT
ATOM      1  C   UNL     1      -0.194   6.783  -3.470  1.00  0.00     0.118 C 
ENDROOT
BRANCH   1   2
ATOM      2  N   UNL     1      -0.335   7.343  -2.142  1.00  0.00    -0.351 N 
ATOM      3  C   UNL     1      -0.158   6.771  -0.906  1.00  0.00     0.269 C 
ATOM      4  O   UNL     1      -0.394   7.487   0.072  1.00  0.00    -0.268 OA
ATOM      5  H   UNL     1      -0.601   8.291  -2.122  1.00  0.00     0.163 HD
BRANCH   3   6
ATOM      6  C   UNL     1       0.313   5.361  -0.697  1.00  0.00     0.131 A 
ATOM      7  C   UNL     1       1.267   3.405  -1.518  1.00  0.00     0.137 A 
ATOM      8  N   UNL     1       0.767   4.639  -1.750  1.00  0.00    -0.225 NA
ATOM      9  C   UNL     1       1.438   2.909  -0.200  1.00  0.00     0.024 A 
ATOM     10  C   UNL     1       0.859   3.633   0.861  1.00  0.00    -0.012 A 
ATOM     11  C   UNL     1       2.137   1.724   0.122  1.00  0.00     0.012 A 
ATOM     12  C   UNL     1       0.289   4.875   0.601  1.00  0.00     0.043 A 
ATOM     13  C   UNL     1       0.857   3.102   2.161  1.00  0.00     0.009 A 
ATOM     14  C   UNL     1       2.149   1.211   1.420  1.00  0.00     0.001 A 
ATOM     15  C   UNL     1       1.480   1.886   2.433  1.00  0.00     0.001 A 
BRANCH   7  16
ATOM     16  N   UNL     1       1.487   2.568  -2.620  1.00  0.00    -0.356 N 
BRANCH  16  17
ATOM     17  C   UNL     1       0.342   1.723  -3.031  1.00  0.00     0.121 C 
BRANCH  17  18
ATOM     18  C   UNL     1       0.376   0.317  -2.386  1.00  0.00     0.005 C 
ATOM     19  C   UNL     1      -0.442   0.235  -1.086  1.00  0.00     0.009 C 
BRANCH  18  20
ATOM     20  C   UNL     1      -0.069  -0.804  -3.350  1.00  0.00     0.002 C 
ATOM     21  C   UNL     1      -1.463  -0.638  -3.942  1.00  0.00     0.004 C 
ENDBRANCH  18  20
ENDBRANCH  17  18
ENDBRANCH  16  17
BRANCH  16  22
ATOM     22  C   UNL     1       2.389   3.051  -3.669  1.00  0.00     0.114 C 
ATOM     23  C   UNL     1       1.762   4.054  -4.627  1.00  0.00     0.027 C 
ENDBRANCH  16  22
ENDBRANCH   7  16
ENDBRANCH   3   6
ENDBRANCH   1   2
BRANCH   1  24
ATOM     24  C   UNL     1      -1.366   7.121  -4.374  1.00  0.00     0.042 C 
BRANCH  24  25
ATOM     25  C   UNL     1      -1.542   8.604  -4.649  1.00  0.00     0.118 C 
BRANCH  25  26
ATOM     26  N   UNL     1      -0.482   9.166  -5.474  1.00  0.00    -0.352 N 
ATOM     27  C   UNL     1      -0.504   9.632  -6.769  1.00  0.00     0.251 C 
ATOM     28  H   UNL     1       0.396   9.223  -5.032  1.00  0.00     0.163 HD
ATOM     29  O   UNL     1       0.544   9.925  -7.329  1.00  0.00    -0.269 OA
BRANCH  27  30
ATOM     30  C   UNL     1      -1.785   9.745  -7.504  1.00  0.00     0.039 A 
ATOM     31  C   UNL     1      -1.827   9.368  -8.850  1.00  0.00     0.014 A 
ATOM     32  C   UNL     1      -2.939  10.222  -6.884  1.00  0.00     0.014 A 
ATOM     33  C   UNL     1      -3.042   9.384  -9.540  1.00  0.00     0.010 A 
ATOM     34  C   UNL     1      -4.165  10.129  -7.533  1.00  0.00     0.010 A 
ATOM     35  C   UNL     1      -4.231   9.717  -8.872  1.00  0.00    -0.014 A 
BRANCH  35  36
ATOM     36  C   UNL     1      -5.553   9.660  -9.549  1.00  0.00     0.031 A 
ATOM     37  C   UNL     1      -6.393  10.903  -9.665  1.00  0.00     0.074 A 
ATOM     38  C   UNL     1      -6.035   8.478  -9.983  1.00  0.00     0.049 A 
ATOM     39  N   UNL     1      -7.614  11.041 -10.116  1.00  0.00    -0.248 NA
ATOM     40  C   UNL     1      -5.793  12.153  -9.171  1.00  0.00     0.031 C 
ATOM     41  C   UNL     1      -5.345   7.191  -9.880  1.00  0.00     0.029 A 
ATOM     42  N   UNL     1      -7.227   8.166 -10.587  1.00  0.00    -0.354 N 
ATOM     43  C   UNL     1      -7.936  12.380  -9.930  1.00  0.00     0.074 A 
ATOM     44  C   UNL     1      -6.806  13.001  -9.275  1.00  0.00     0.031 C 
ATOM     45  C   UNL     1      -6.111   6.235 -10.430  1.00  0.00     0.029 A 
ATOM     46  C   UNL     1      -7.362   6.832 -10.885  1.00  0.00     0.049 A 
ATOM     47  H   UNL     1      -7.921   8.836 -10.788  1.00  0.00     0.167 HD
ATOM     48  C   UNL     1      -9.061  13.039 -10.296  1.00  0.00     0.037 A 
ATOM     49  C   UNL     1      -8.383   6.165 -11.456  1.00  0.00     0.037 A 
ATOM     50  C   UNL     1     -10.163  12.430 -10.991  1.00  0.00     0.049 A 
ATOM     51  C   UNL     1      -9.615   6.924 -11.870  1.00  0.00     0.074 A 
ATOM     52  C   UNL     1     -11.313  13.026 -11.477  1.00  0.00     0.029 A 
ATOM     53  N   UNL     1     -10.248  11.081 -11.303  1.00  0.00    -0.354 N 
ATOM     54  N   UNL     1      -9.879   8.202 -11.752  1.00  0.00    -0.248 NA
ATOM     55  C   UNL     1     -10.690   6.145 -12.501  1.00  0.00     0.031 C 
ATOM     56  C   UNL     1     -12.113  12.031 -12.049  1.00  0.00     0.029 A 
ATOM     57  C   UNL     1     -11.440  10.823 -11.960  1.00  0.00     0.049 A 
ATOM     58  H   UNL     1      -9.563  10.407 -11.090  1.00  0.00     0.167 HD
ATOM     59  C   UNL     1     -11.133   8.387 -12.318  1.00  0.00     0.074 A 
ATOM     60  C   UNL     1     -11.572   7.091 -12.791  1.00  0.00     0.031 C 
ATOM     61  C   UNL     1     -11.855   9.528 -12.435  1.00  0.00     0.037 A 
BRANCH  48  62
ATOM     62  C   UNL     1      -9.149  14.499  -9.959  1.00  0.00     0.064 A 
ATOM     63  C   UNL     1      -8.345  15.454 -10.600  1.00  0.00     0.173 A 
ATOM     64  C   UNL     1     -10.067  14.954  -9.000  1.00  0.00     0.173 A 
ATOM     65  F   UNL     1      -7.442  15.070 -11.515  1.00  0.00    -0.203 F 
ATOM     66  C   UNL     1      -8.431  16.803 -10.269  1.00  0.00     0.198 A 
ATOM     67  C   UNL     1     -10.174  16.308  -8.694  1.00  0.00     0.198 A 
ATOM     68  F   UNL     1     -10.865  14.085  -8.361  1.00  0.00    -0.203 F 
ATOM     69  F   UNL     1      -7.613  17.688 -10.855  1.00  0.00    -0.200 F 
ATOM     70  C   UNL     1      -9.349  17.230  -9.322  1.00  0.00     0.200 A 
ATOM     71  F   UNL     1     -11.070  16.721  -7.788  1.00  0.00    -0.200 F 
ATOM     72  F   UNL     1      -9.435  18.530  -9.008  1.00  0.00    -0.200 F 
ENDBRANCH  48  62
BRANCH  49  73
ATOM     73  C   UNL     1      -8.271   4.705 -11.705  1.00  0.00     0.064 A 
ATOM     74  C   UNL     1      -8.145   4.209 -13.011  1.00  0.00     0.173 A 
ATOM     75  C   UNL     1      -8.290   3.777 -10.654  1.00  0.00     0.173 A 
ATOM     76  F   UNL     1      -8.143   5.057 -14.050  1.00  0.00    -0.203 F 
ATOM     77  C   UNL     1      -8.063   2.841 -13.257  1.00  0.00     0.198 A 
ATOM     78  C   UNL     1      -8.181   2.409 -10.900  1.00  0.00     0.198 A 
ATOM     79  F   UNL     1      -8.404   4.199  -9.386  1.00  0.00    -0.203 F 
ATOM     80  F   UNL     1      -7.987   2.393 -14.518  1.00  0.00    -0.200 F 
ATOM     81  C   UNL     1      -8.075   1.942 -12.202  1.00  0.00     0.200 A 
ATOM     82  F   UNL     1      -8.179   1.544  -9.877  1.00  0.00    -0.200 F 
ATOM     83  F   UNL     1      -7.992   0.626 -12.439  1.00  0.00    -0.200 F 
ENDBRANCH  49  73
BRANCH  61  84
ATOM     84  C   UNL     1     -13.178   9.434 -13.136  1.00  0.00     0.064 A 
ATOM     85  C   UNL     1     -14.288   8.825 -12.533  1.00  0.00     0.173 A 
ATOM     86  C   UNL     1     -13.346   9.998 -14.410  1.00  0.00     0.173 A 
ATOM     87  F   UNL     1     -14.173   8.258 -11.323  1.00  0.00    -0.203 F 
ATOM     88  C   UNL     1     -15.514   8.764 -13.191  1.00  0.00     0.198 A 
ATOM     89  C   UNL     1     -14.580   9.960 -15.052  1.00  0.00     0.198 A 
ATOM     90  F   UNL     1     -12.316  10.597 -15.026  1.00  0.00    -0.203 F 
ATOM     91  F   UNL     1     -16.550   8.139 -12.616  1.00  0.00    -0.200 F 
ATOM     92  C   UNL     1     -15.661   9.338 -14.445  1.00  0.00     0.200 A 
ATOM     93  F   UNL     1     -14.724  10.526 -16.258  1.00  0.00    -0.200 F 
ATOM     94  F   UNL     1     -16.844   9.285 -15.073  1.00  0.00    -0.200 F 
ENDBRANCH  61  84
ENDBRANCH  35  36
ENDBRANCH  27  30
ENDBRANCH  25  26
ENDBRANCH  24  25
ENDBRANCH   1  24
TORSDOF 15
