REMARK SMILES O=C(NCCCNC(=O)c1ccc2nc(-n3cccc3)sc2c1)c1ccc(-c2c3nc(c(-c4c(F)c(F)c(F)c(F)c4F)c4ccc([nH]4)c(-c4c(F)c(F)c(F)c(F)c4F)c4nc(c(-c5c(F)c(F)c(F)c(F)c5F)c5ccc2[nH]5)C=C4)C=C3)cc1
REMARK SMILES IDX 4 1 3 2 1 3 2 4 24 6 25 7 86 8 26 9 85 10 27 11 28 12 29 13
REMARK SMILES IDX 79 14 30 15 84 16 78 17 80 18 31 19 83 20 77 21 76 22 32 24
REMARK SMILES IDX 64 25 44 26 63 27 45 28 48 29 62 30 81 31 46 32 47 33 61 35
REMARK SMILES IDX 82 36 49 37 33 38 34 39 42 40 35 41 36 42 40 43 43 44 37 45
REMARK SMILES IDX 38 46 41 47 39 48 65 49 66 50 74 51 67 52 68 53 72 54 75 55
REMARK SMILES IDX 69 56 70 57 73 58 71 59 50 60 51 61 59 62 52 63 53 64 57 65
REMARK SMILES IDX 60 66 54 67 55 68 58 69 56 70 5 71 6 72 7 73 8 74 9 76 10 77
REMARK SMILES IDX 11 78 23 79 12 80 22 81 13 82 21 83 14 84 15 85 16 86 17 87
REMARK SMILES IDX 20 88 18 89 19 90
REMARK H PARENT 3 5 80 23 48 34 7 75
REMARK Flexibility Score: inf
ROOT
ATOM      1  C   UNL     1       4.511   0.461   1.195  1.00  0.00     0.118 C 
ENDROOT
BRANCH   1   2
ATOM      2  N   UNL     1       3.117   0.100   0.991  1.00  0.00    -0.352 N 
ATOM      3  O   UNL     1       1.152  -0.330   0.021  1.00  0.00    -0.269 OA
ATOM      4  C   UNL     1       2.289   0.124  -0.101  1.00  0.00     0.251 C 
ATOM      5  H   UNL     1       2.677  -0.230   1.807  1.00  0.00     0.163 HD
BRANCH   4   6
ATOM      6  C   UNL     1       2.679   0.729  -1.397  1.00  0.00     0.039 A 
ATOM      7  C   UNL     1       3.978   0.686  -1.904  1.00  0.00     0.014 A 
ATOM      8  C   UNL     1       1.663   1.333  -2.159  1.00  0.00     0.014 A 
ATOM      9  C   UNL     1       4.282   1.309  -3.108  1.00  0.00     0.010 A 
ATOM     10  C   UNL     1       1.951   1.922  -3.391  1.00  0.00     0.010 A 
ATOM     11  C   UNL     1       3.266   1.904  -3.864  1.00  0.00    -0.014 A 
BRANCH  11  12
ATOM     12  C   UNL     1       3.608   2.267  -5.258  1.00  0.00     0.031 A 
ATOM     13  C   UNL     1       3.657   1.025  -6.168  1.00  0.00     0.074 A 
ATOM     14  C   UNL     1       3.917   3.574  -5.505  1.00  0.00     0.049 A 
ATOM     15  N   UNL     1       4.337   0.807  -7.254  1.00  0.00    -0.248 NA
ATOM     16  C   UNL     1       2.881  -0.184  -5.771  1.00  0.00     0.031 C 
ATOM     17  C   UNL     1       3.778   4.664  -4.521  1.00  0.00     0.029 A 
ATOM     18  N   UNL     1       4.420   4.253  -6.600  1.00  0.00    -0.354 N 
ATOM     19  C   UNL     1       3.932  -0.449  -7.760  1.00  0.00     0.074 A 
ATOM     20  C   UNL     1       3.126  -1.057  -6.749  1.00  0.00     0.031 C 
ATOM     21  C   UNL     1       4.249   5.826  -5.020  1.00  0.00     0.029 A 
ATOM     22  C   UNL     1       4.733   5.621  -6.372  1.00  0.00     0.049 A 
ATOM     23  H   UNL     1       4.551   3.820  -7.474  1.00  0.00     0.167 HD
ATOM     24  C   UNL     1       4.180  -0.861  -9.038  1.00  0.00     0.037 A 
ATOM     25  C   UNL     1       5.371   6.513  -7.196  1.00  0.00     0.037 A 
ATOM     26  C   UNL     1       4.972   0.100  -9.723  1.00  0.00     0.049 A 
ATOM     27  C   UNL     1       5.530   5.810  -8.476  1.00  0.00     0.074 A 
ATOM     28  C   UNL     1       6.301   0.418  -9.659  1.00  0.00     0.029 A 
ATOM     29  N   UNL     1       4.306   1.085 -10.405  1.00  0.00    -0.354 N 
ATOM     30  N   UNL     1       4.566   5.594  -9.319  1.00  0.00    -0.248 NA
ATOM     31  C   UNL     1       6.846   5.261  -8.829  1.00  0.00     0.031 C 
ATOM     32  C   UNL     1       6.335   1.797  -9.947  1.00  0.00     0.029 A 
ATOM     33  C   UNL     1       5.053   2.232 -10.303  1.00  0.00     0.049 A 
ATOM     34  H   UNL     1       3.450   0.989 -10.881  1.00  0.00     0.167 HD
ATOM     35  C   UNL     1       5.095   4.611 -10.121  1.00  0.00     0.074 A 
ATOM     36  C   UNL     1       6.531   4.700  -9.993  1.00  0.00     0.031 C 
ATOM     37  C   UNL     1       4.362   3.498 -10.372  1.00  0.00     0.037 A 
BRANCH  24  38
ATOM     38  C   UNL     1       3.607  -1.983  -9.859  1.00  0.00     0.064 A 
ATOM     39  C   UNL     1       4.319  -2.409 -11.009  1.00  0.00     0.173 A 
ATOM     40  C   UNL     1       2.272  -2.397  -9.773  1.00  0.00     0.173 A 
ATOM     41  F   UNL     1       5.617  -2.103 -11.167  1.00  0.00    -0.203 F 
ATOM     42  C   UNL     1       3.698  -3.085 -12.057  1.00  0.00     0.198 A 
ATOM     43  C   UNL     1       1.665  -3.119 -10.806  1.00  0.00     0.198 A 
ATOM     44  F   UNL     1       1.498  -2.029  -8.743  1.00  0.00    -0.203 F 
ATOM     45  F   UNL     1       4.380  -3.345 -13.182  1.00  0.00    -0.200 F 
ATOM     46  C   UNL     1       2.364  -3.425 -11.963  1.00  0.00     0.200 A 
ATOM     47  F   UNL     1       0.370  -3.452 -10.709  1.00  0.00    -0.200 F 
ATOM     48  F   UNL     1       1.744  -4.014 -12.994  1.00  0.00    -0.200 F 
ENDBRANCH  24  38
BRANCH  25  49
ATOM     49  C   UNL     1       5.962   7.911  -7.134  1.00  0.00     0.064 A 
ATOM     50  C   UNL     1       5.853   8.810  -6.067  1.00  0.00     0.173 A 
ATOM     51  C   UNL     1       6.776   8.391  -8.206  1.00  0.00     0.173 A 
ATOM     52  F   UNL     1       5.036   8.570  -5.038  1.00  0.00    -0.203 F 
ATOM     53  C   UNL     1       6.578  10.018  -6.024  1.00  0.00     0.198 A 
ATOM     54  C   UNL     1       7.530   9.563  -8.145  1.00  0.00     0.198 A 
ATOM     55  F   UNL     1       6.876   7.734  -9.368  1.00  0.00    -0.203 F 
ATOM     56  F   UNL     1       6.442  10.836  -4.971  1.00  0.00    -0.200 F 
ATOM     57  C   UNL     1       7.445  10.374  -7.043  1.00  0.00     0.200 A 
ATOM     58  F   UNL     1       8.349   9.879  -9.160  1.00  0.00    -0.200 F 
ATOM     59  F   UNL     1       8.180  11.491  -6.968  1.00  0.00    -0.200 F 
ENDBRANCH  25  49
BRANCH  37  60
ATOM     60  C   UNL     1       2.867   3.722 -10.235  1.00  0.00     0.064 A 
ATOM     61  C   UNL     1       2.211   4.617 -11.095  1.00  0.00     0.173 A 
ATOM     62  C   UNL     1       2.093   3.196  -9.188  1.00  0.00     0.173 A 
ATOM     63  F   UNL     1       2.874   5.158 -12.127  1.00  0.00    -0.203 F 
ATOM     64  C   UNL     1       0.873   4.974 -10.900  1.00  0.00     0.198 A 
ATOM     65  C   UNL     1       0.755   3.543  -8.995  1.00  0.00     0.198 A 
ATOM     66  F   UNL     1       2.620   2.332  -8.325  1.00  0.00    -0.203 F 
ATOM     67  F   UNL     1       0.286   5.840 -11.738  1.00  0.00    -0.200 F 
ATOM     68  C   UNL     1       0.147   4.440  -9.849  1.00  0.00     0.200 A 
ATOM     69  F   UNL     1       0.062   3.003  -7.980  1.00  0.00    -0.200 F 
ATOM     70  F   UNL     1      -1.138   4.778  -9.667  1.00  0.00    -0.200 F 
ENDBRANCH  37  60
ENDBRANCH  11  12
ENDBRANCH   4   6
ENDBRANCH   1   2
BRANCH   1  71
ATOM     71  C   UNL     1       4.833   1.949   1.054  1.00  0.00     0.042 C 
BRANCH  71  72
ATOM     72  C   UNL     1       4.234   2.818   2.157  1.00  0.00     0.118 C 
BRANCH  72  73
ATOM     73  N   UNL     1       4.797   2.497   3.458  1.00  0.00    -0.352 N 
ATOM     74  C   UNL     1       5.693   3.200   4.224  1.00  0.00     0.251 C 
ATOM     75  H   UNL     1       4.490   1.648   3.849  1.00  0.00     0.163 HD
ATOM     76  O   UNL     1       6.242   2.671   5.175  1.00  0.00    -0.269 OA
BRANCH  74  77
ATOM     77  C   UNL     1       5.994   4.609   3.898  1.00  0.00     0.041 A 
ATOM     78  C   UNL     1       4.967   5.553   3.839  1.00  0.00     0.016 A 
ATOM     79  C   UNL     1       7.334   4.976   3.726  1.00  0.00     0.035 A 
ATOM     80  C   UNL     1       5.263   6.897   3.594  1.00  0.00     0.031 A 
ATOM     81  C   UNL     1       7.609   6.323   3.442  1.00  0.00     0.057 A 
ATOM     82  C   UNL     1       6.603   7.295   3.405  1.00  0.00     0.084 A 
ATOM     83  S   UNL     1       9.118   7.070   3.069  1.00  0.00    -0.096 S 
ATOM     84  N   UNL     1       7.037   8.590   3.187  1.00  0.00    -0.219 NA
ATOM     85  C   UNL     1       8.330   8.573   2.958  1.00  0.00     0.194 A 
BRANCH  85  86
ATOM     86  N   UNL     1       9.063   9.729   2.657  1.00  0.00    -0.300 N 
ATOM     87  C   UNL     1      10.312   9.832   2.063  1.00  0.00     0.093 A 
ATOM     88  C   UNL     1       8.625  11.023   2.890  1.00  0.00     0.093 A 
ATOM     89  C   UNL     1      10.642  11.163   1.923  1.00  0.00     0.020 A 
ATOM     90  C   UNL     1       9.586  11.917   2.474  1.00  0.00     0.020 A 
ENDBRANCH  85  86
ENDBRANCH  74  77
ENDBRANCH  72  73
ENDBRANCH  71  72
ENDBRANCH   1  71
TORSDOF 11
