REMARK SMILES CC(C)Cc1cc2c(cc1Cl)C=C(C(=O)NCCCNC(=O)c1ccc(-c3c4nc(c(-c5c(F)c(F)c(F)c(F)c5F)c5ccc([nH]5)c(-c5c(F)c(F)c(F)c(F)c5F)c5nc(c(-c6c(F)c(F)c(F)c(F)c6F)c6ccc3[nH]6)C=C5)C=C4)cc1)[C@@H](C(F)(F)F)O2
REMARK SMILES IDX 18 1 17 2 16 3 14 4 15 5 13 7 5 8 6 9 10 10 7 11 9 12 11 13
REMARK SMILES IDX 8 14 91 15 12 16 86 17 4 18 2 19 1 20 3 21 87 22 88 23 89 24
REMARK SMILES IDX 90 25 19 26 20 27 21 28 22 30 23 31 24 32 85 33 25 34 84 35
REMARK SMILES IDX 26 36 27 37 28 38 78 39 29 40 83 41 77 42 79 43 30 44 82 45
REMARK SMILES IDX 76 46 75 47 31 49 63 50 43 51 62 52 44 53 47 54 61 55 80 56
REMARK SMILES IDX 45 57 46 58 60 60 81 61 48 62 32 63 33 64 41 65 34 66 35 67
REMARK SMILES IDX 39 68 42 69 36 70 37 71 40 72 38 73 64 74 65 75 73 76 66 77
REMARK SMILES IDX 67 78 71 79 74 80 68 81 69 82 72 83 70 84 49 85 50 86 58 87
REMARK SMILES IDX 51 88 52 89 56 90 59 91 53 92 54 93 57 94 55 95
REMARK H PARENT 16 6 20 29 79 48 47 59
REMARK Flexibility Score: inf
ROOT
ATOM      1  C   UNL     1      -4.524  -5.810  -6.988  1.00  0.00     0.042 C 
ENDROOT
BRANCH   1   2
ATOM      2  C   UNL     1      -3.240  -5.014  -7.168  1.00  0.00     0.118 C 
BRANCH   2   3
ATOM      3  N   UNL     1      -3.503  -3.591  -7.322  1.00  0.00    -0.352 N 
ATOM      4  C   UNL     1      -3.426  -2.477  -6.560  1.00  0.00     0.251 C 
ATOM      5  O   UNL     1      -3.801  -1.440  -7.117  1.00  0.00    -0.270 OA
ATOM      6  H   UNL     1      -3.825  -3.383  -8.229  1.00  0.00     0.163 HD
BRANCH   4   7
ATOM      7  C   UNL     1      -2.936  -2.425  -5.153  1.00  0.00     0.067 C 
ATOM      8  C   UNL     1      -1.528  -0.862  -0.561  1.00  0.00    -0.025 A 
ATOM      9  C   UNL     1      -1.700  -2.119  -1.166  1.00  0.00     0.052 A 
ATOM     10  C   UNL     1      -1.894   0.283  -1.289  1.00  0.00     0.045 A 
ATOM     11  C   UNL     1      -2.184  -2.221  -2.468  1.00  0.00     0.128 A 
ATOM     12  C   UNL     1      -2.391   0.173  -2.594  1.00  0.00     0.032 A 
ATOM     13  Cl  UNL     1      -1.749   1.876  -0.634  1.00  0.00    -0.084 Cl
ATOM     14  C   UNL     1      -2.527  -1.082  -3.191  1.00  0.00     0.019 A 
ATOM     15  O   UNL     1      -2.333  -3.481  -2.972  1.00  0.00    -0.475 OA
ATOM     16  C   UNL     1      -3.035  -1.226  -4.548  1.00  0.00     0.025 C 
ATOM     17  C   UNL     1      -2.321  -3.588  -4.424  1.00  0.00     0.314 C 
BRANCH   8  18
ATOM     18  C   UNL     1      -0.921  -0.815   0.824  1.00  0.00     0.040 C 
BRANCH  18  19
ATOM     19  C   UNL     1       0.608  -1.028   0.829  1.00  0.00    -0.013 C 
ATOM     20  C   UNL     1       1.360   0.103   0.123  1.00  0.00     0.008 C 
ATOM     21  C   UNL     1       1.109  -1.157   2.269  1.00  0.00     0.008 C 
ENDBRANCH  18  19
ENDBRANCH   8  18
BRANCH  17  22
ATOM     22  C   UNL     1      -0.886  -3.903  -4.891  1.00  0.00     0.429 C 
ATOM     23  F   UNL     1      -0.533  -5.155  -4.506  1.00  0.00    -0.167 F 
ATOM     24  F   UNL     1      -0.756  -3.867  -6.238  1.00  0.00    -0.167 F 
ATOM     25  F   UNL     1       0.029  -3.049  -4.385  1.00  0.00    -0.167 F 
ENDBRANCH  17  22
ENDBRANCH   4   7
ENDBRANCH   2   3
ENDBRANCH   1   2
BRANCH   1  26
ATOM     26  C   UNL     1      -5.284  -5.990  -8.296  1.00  0.00     0.118 C 
BRANCH  26  27
ATOM     27  N   UNL     1      -4.573  -6.856  -9.235  1.00  0.00    -0.352 N 
ATOM     28  C   UNL     1      -4.857  -8.130  -9.666  1.00  0.00     0.251 C 
ATOM     29  H   UNL     1      -3.758  -6.463  -9.620  1.00  0.00     0.163 HD
ATOM     30  O   UNL     1      -4.009  -8.770 -10.282  1.00  0.00    -0.269 OA
BRANCH  28  31
ATOM     31  C   UNL     1      -6.170  -8.739  -9.373  1.00  0.00     0.039 A 
ATOM     32  C   UNL     1      -7.336  -7.982  -9.473  1.00  0.00     0.014 A 
ATOM     33  C   UNL     1      -6.238 -10.083  -8.995  1.00  0.00     0.014 A 
ATOM     34  C   UNL     1      -8.533  -8.500  -9.002  1.00  0.00     0.010 A 
ATOM     35  C   UNL     1      -7.467 -10.638  -8.625  1.00  0.00     0.010 A 
ATOM     36  C   UNL     1      -8.615  -9.834  -8.571  1.00  0.00    -0.014 A 
BRANCH  36  37
ATOM     37  C   UNL     1      -9.913 -10.346  -8.059  1.00  0.00     0.031 A 
ATOM     38  C   UNL     1     -10.053 -10.787  -6.627  1.00  0.00     0.074 A 
ATOM     39  C   UNL     1     -10.989 -10.328  -8.870  1.00  0.00     0.049 A 
ATOM     40  N   UNL     1     -11.116 -11.230  -6.001  1.00  0.00    -0.248 NA
ATOM     41  C   UNL     1      -8.848 -10.729  -5.784  1.00  0.00     0.031 C 
ATOM     42  C   UNL     1     -10.977  -9.906 -10.272  1.00  0.00     0.029 A 
ATOM     43  N   UNL     1     -12.304 -10.630  -8.627  1.00  0.00    -0.354 N 
ATOM     44  C   UNL     1     -10.703 -11.524  -4.708  1.00  0.00     0.074 A 
ATOM     45  C   UNL     1      -9.288 -11.234  -4.639  1.00  0.00     0.031 C 
ATOM     46  C   UNL     1     -12.232  -9.905 -10.742  1.00  0.00     0.029 A 
ATOM     47  C   UNL     1     -13.128 -10.396  -9.701  1.00  0.00     0.049 A 
ATOM     48  H   UNL     1     -12.627 -10.982  -7.766  1.00  0.00     0.167 HD
ATOM     49  C   UNL     1     -11.442 -11.983  -3.671  1.00  0.00     0.037 A 
ATOM     50  C   UNL     1     -14.456 -10.567  -9.838  1.00  0.00     0.037 A 
ATOM     51  C   UNL     1     -12.858 -12.233  -3.733  1.00  0.00     0.049 A 
ATOM     52  C   UNL     1     -15.244 -11.105  -8.678  1.00  0.00     0.074 A 
ATOM     53  C   UNL     1     -13.699 -12.680  -2.728  1.00  0.00     0.029 A 
ATOM     54  N   UNL     1     -13.645 -12.046  -4.860  1.00  0.00    -0.354 N 
ATOM     55  N   UNL     1     -14.836 -11.391  -7.466  1.00  0.00    -0.248 NA
ATOM     56  C   UNL     1     -16.672 -11.361  -8.911  1.00  0.00     0.031 C 
ATOM     57  C   UNL     1     -14.988 -12.798  -3.257  1.00  0.00     0.029 A 
ATOM     58  C   UNL     1     -14.958 -12.387  -4.580  1.00  0.00     0.049 A 
ATOM     59  H   UNL     1     -13.318 -11.721  -5.730  1.00  0.00     0.167 HD
ATOM     60  C   UNL     1     -15.953 -11.860  -6.791  1.00  0.00     0.074 A 
ATOM     61  C   UNL     1     -17.063 -11.793  -7.719  1.00  0.00     0.031 C 
ATOM     62  C   UNL     1     -16.047 -12.316  -5.519  1.00  0.00     0.037 A 
BRANCH  49  63
ATOM     63  C   UNL     1     -10.743 -12.252  -2.372  1.00  0.00     0.064 A 
ATOM     64  C   UNL     1     -10.330 -11.209  -1.530  1.00  0.00     0.173 A 
ATOM     65  C   UNL     1     -10.555 -13.569  -1.927  1.00  0.00     0.173 A 
ATOM     66  F   UNL     1     -10.475  -9.932  -1.916  1.00  0.00    -0.203 F 
ATOM     67  C   UNL     1      -9.747 -11.475  -0.294  1.00  0.00     0.198 A 
ATOM     68  C   UNL     1      -9.993 -13.832  -0.680  1.00  0.00     0.198 A 
ATOM     69  F   UNL     1     -10.937 -14.602  -2.692  1.00  0.00    -0.203 F 
ATOM     70  F   UNL     1      -9.336 -10.464   0.484  1.00  0.00    -0.200 F 
ATOM     71  C   UNL     1      -9.588 -12.785   0.135  1.00  0.00     0.200 A 
ATOM     72  F   UNL     1      -9.851 -15.098  -0.263  1.00  0.00    -0.200 F 
ATOM     73  F   UNL     1      -9.043 -13.039   1.332  1.00  0.00    -0.200 F 
ENDBRANCH  49  63
BRANCH  50  74
ATOM     74  C   UNL     1     -15.112 -10.230 -11.127  1.00  0.00     0.064 A 
ATOM     75  C   UNL     1     -15.984  -9.139 -11.227  1.00  0.00     0.173 A 
ATOM     76  C   UNL     1     -14.859 -10.974 -12.289  1.00  0.00     0.173 A 
ATOM     77  F   UNL     1     -16.273  -8.410 -10.139  1.00  0.00    -0.203 F 
ATOM     78  C   UNL     1     -16.581  -8.806 -12.441  1.00  0.00     0.198 A 
ATOM     79  C   UNL     1     -15.434 -10.623 -13.508  1.00  0.00     0.198 A 
ATOM     80  F   UNL     1     -14.030 -12.027 -12.245  1.00  0.00    -0.203 F 
ATOM     81  F   UNL     1     -17.435  -7.775 -12.505  1.00  0.00    -0.200 F 
ATOM     82  C   UNL     1     -16.298  -9.542 -13.582  1.00  0.00     0.200 A 
ATOM     83  F   UNL     1     -15.144 -11.328 -14.610  1.00  0.00    -0.200 F 
ATOM     84  F   UNL     1     -16.861  -9.212 -14.752  1.00  0.00    -0.200 F 
ENDBRANCH  50  74
BRANCH  62  85
ATOM     85  C   UNL     1     -17.394 -12.779  -5.053  1.00  0.00     0.064 A 
ATOM     86  C   UNL     1     -17.924 -14.007  -5.473  1.00  0.00     0.173 A 
ATOM     87  C   UNL     1     -18.130 -12.021  -4.132  1.00  0.00     0.173 A 
ATOM     88  F   UNL     1     -17.261 -14.759  -6.364  1.00  0.00    -0.203 F 
ATOM     89  C   UNL     1     -19.151 -14.455  -4.994  1.00  0.00     0.198 A 
ATOM     90  C   UNL     1     -19.346 -12.483  -3.637  1.00  0.00     0.198 A 
ATOM     91  F   UNL     1     -17.660 -10.842  -3.697  1.00  0.00    -0.203 F 
ATOM     92  F   UNL     1     -19.655 -15.617  -5.431  1.00  0.00    -0.200 F 
ATOM     93  C   UNL     1     -19.857 -13.697  -4.071  1.00  0.00     0.200 A 
ATOM     94  F   UNL     1     -20.020 -11.755  -2.736  1.00  0.00    -0.200 F 
ATOM     95  F   UNL     1     -21.032 -14.136  -3.601  1.00  0.00    -0.200 F 
ENDBRANCH  62  85
ENDBRANCH  36  37
ENDBRANCH  28  31
ENDBRANCH  26  27
ENDBRANCH   1  26
TORSDOF 13
