REMARK SMILES Cn1cc(CNC(=O)Cn2ccc(C(=O)NCCCNC(=O)c3ccc(-c4c5nc(c(-c6c(F)c(F)c(F)c(F)c6F)c6ccc([nH]6)c(-c6c(F)c(F)c(F)c(F)c6F)c6nc(c(-c7c(F)c(F)c(F)c(F)c7F)c7ccc4[nH]7)C=C6)C=C5)cc3)n2)cn1
REMARK SMILES IDX 17 1 16 2 14 3 15 4 13 6 10 7 11 8 86 9 12 10 9 11 7 12 6 13
REMARK SMILES IDX 8 15 5 16 4 17 1 18 2 19 3 20 88 21 87 22 18 23 19 24 20 25
REMARK SMILES IDX 21 26 22 28 23 29 24 30 85 31 25 32 84 33 26 34 27 35 28 36
REMARK SMILES IDX 78 37 29 38 83 39 77 40 79 41 30 42 82 43 76 44 75 45 31 47
REMARK SMILES IDX 63 48 43 49 62 50 44 51 47 52 61 53 80 54 45 55 46 56 60 58
REMARK SMILES IDX 81 59 48 60 32 61 33 62 41 63 34 64 35 65 39 66 42 67 36 68
REMARK SMILES IDX 37 69 40 70 38 71 64 72 65 73 73 74 66 75 67 76 71 77 74 78
REMARK SMILES IDX 68 79 69 80 72 81 70 82 49 83 50 84 58 85 51 86 52 87 56 88
REMARK SMILES IDX 59 89 53 90 54 91 57 92 55 93
REMARK H PARENT 16 5 6 14 20 27 79 46 47 57
REMARK Flexibility Score: inf
ROOT
ATOM      1  C   UNL     1       6.637  -6.068   2.777  1.00  0.00     0.118 C 
ENDROOT
BRANCH   1   2
ATOM      2  N   UNL     1       7.113  -4.914   3.515  1.00  0.00    -0.351 N 
ATOM      3  C   UNL     1       7.051  -3.566   3.235  1.00  0.00     0.271 C 
ATOM      4  O   UNL     1       7.428  -2.812   4.136  1.00  0.00    -0.267 OA
ATOM      5  H   UNL     1       7.560  -5.132   4.365  1.00  0.00     0.163 HD
BRANCH   3   6
ATOM      6  C   UNL     1       6.560  -3.066   1.931  1.00  0.00     0.150 A 
ATOM      7  N   UNL     1       5.870  -1.629   0.495  1.00  0.00    -0.263 N 
ATOM      8  C   UNL     1       5.956  -2.792  -0.205  1.00  0.00     0.110 A 
ATOM      9  N   UNL     1       6.205  -1.771   1.790  1.00  0.00    -0.167 NA
ATOM     10  C   UNL     1       6.404  -3.732   0.685  1.00  0.00     0.056 A 
BRANCH   7  11
ATOM     11  C   UNL     1       5.451  -0.324   0.014  1.00  0.00     0.243 C 
BRANCH  11  12
ATOM     12  C   UNL     1       4.649  -0.409  -1.262  1.00  0.00     0.241 C 
ATOM     13  N   UNL     1       3.379  -0.909  -1.236  1.00  0.00    -0.350 N 
ATOM     14  H   UNL     1       2.919  -0.951  -2.105  1.00  0.00     0.163 HD
ATOM     15  O   UNL     1       5.118  -0.050  -2.344  1.00  0.00    -0.273 OA
BRANCH  13  16
ATOM     16  C   UNL     1       2.619  -1.385  -0.099  1.00  0.00     0.155 C 
BRANCH  16  17
ATOM     17  C   UNL     1       1.347  -0.631  -0.058  1.00  0.00     0.009 A 
ATOM     18  C   UNL     1      -2.208  -0.032  -0.043  1.00  0.00     0.173 C 
ATOM     19  N   UNL     1      -0.766  -0.034  -0.027  1.00  0.00    -0.275 N 
ATOM     20  C   UNL     1       0.057  -1.122  -0.061  1.00  0.00     0.113 A 
ATOM     21  N   UNL     1      -0.105   1.135   0.012  1.00  0.00    -0.181 NA
ATOM     22  C   UNL     1       1.178   0.772  -0.003  1.00  0.00     0.140 A 
ENDBRANCH  16  17
ENDBRANCH  13  16
ENDBRANCH  11  12
ENDBRANCH   7  11
ENDBRANCH   3   6
ENDBRANCH   1   2
BRANCH   1  23
ATOM     23  C   UNL     1       7.722  -6.684   1.886  1.00  0.00     0.042 C 
BRANCH  23  24
ATOM     24  C   UNL     1       8.650  -7.602   2.665  1.00  0.00     0.118 C 
BRANCH  24  25
ATOM     25  N   UNL     1       7.974  -8.822   3.110  1.00  0.00    -0.352 N 
ATOM     26  C   UNL     1       8.469  -9.865   3.868  1.00  0.00     0.251 C 
ATOM     27  H   UNL     1       7.035  -8.911   2.829  1.00  0.00     0.163 HD
ATOM     28  O   UNL     1       7.912 -10.949   3.871  1.00  0.00    -0.269 OA
BRANCH  26  29
ATOM     29  C   UNL     1       9.689  -9.652   4.669  1.00  0.00     0.039 A 
ATOM     30  C   UNL     1      10.648 -10.660   4.794  1.00  0.00     0.014 A 
ATOM     31  C   UNL     1       9.873  -8.417   5.285  1.00  0.00     0.014 A 
ATOM     32  C   UNL     1      11.830 -10.379   5.472  1.00  0.00     0.010 A 
ATOM     33  C   UNL     1      11.099  -8.087   5.803  1.00  0.00     0.010 A 
ATOM     34  C   UNL     1      12.061  -9.077   5.948  1.00  0.00    -0.014 A 
BRANCH  34  35
ATOM     35  C   UNL     1      13.377  -8.691   6.445  1.00  0.00     0.031 A 
ATOM     36  C   UNL     1      14.465  -8.979   5.474  1.00  0.00     0.074 A 
ATOM     37  C   UNL     1      13.565  -7.956   7.565  1.00  0.00     0.049 A 
ATOM     38  N   UNL     1      15.389  -9.874   5.585  1.00  0.00    -0.248 NA
ATOM     39  C   UNL     1      14.420  -8.339   4.148  1.00  0.00     0.031 C 
ATOM     40  C   UNL     1      12.537  -7.356   8.424  1.00  0.00     0.029 A 
ATOM     41  N   UNL     1      14.721  -7.496   8.126  1.00  0.00    -0.354 N 
ATOM     42  C   UNL     1      16.184  -9.742   4.449  1.00  0.00     0.074 A 
ATOM     43  C   UNL     1      15.425  -8.954   3.519  1.00  0.00     0.031 C 
ATOM     44  C   UNL     1      13.098  -6.431   9.233  1.00  0.00     0.029 A 
ATOM     45  C   UNL     1      14.539  -6.493   9.077  1.00  0.00     0.049 A 
ATOM     46  H   UNL     1      15.609  -7.843   7.880  1.00  0.00     0.167 HD
ATOM     47  C   UNL     1      17.515 -10.023   4.522  1.00  0.00     0.037 A 
ATOM     48  C   UNL     1      15.504  -5.757   9.683  1.00  0.00     0.037 A 
ATOM     49  C   UNL     1      17.795 -10.765   5.730  1.00  0.00     0.049 A 
ATOM     50  C   UNL     1      16.768  -6.513   9.550  1.00  0.00     0.074 A 
ATOM     51  C   UNL     1      17.492 -12.013   6.229  1.00  0.00     0.029 A 
ATOM     52  N   UNL     1      18.145  -9.980   6.795  1.00  0.00    -0.354 N 
ATOM     53  N   UNL     1      17.002  -7.641  10.159  1.00  0.00    -0.248 NA
ATOM     54  C   UNL     1      17.648  -6.213   8.430  1.00  0.00     0.031 C 
ATOM     55  C   UNL     1      17.405 -11.852   7.647  1.00  0.00     0.029 A 
ATOM     56  C   UNL     1      17.727 -10.534   7.971  1.00  0.00     0.049 A 
ATOM     57  H   UNL     1      18.634  -9.128   6.723  1.00  0.00     0.167 HD
ATOM     58  C   UNL     1      17.715  -8.384   9.236  1.00  0.00     0.074 A 
ATOM     59  C   UNL     1      18.234  -7.404   8.287  1.00  0.00     0.031 C 
ATOM     60  C   UNL     1      17.535  -9.736   9.163  1.00  0.00     0.037 A 
BRANCH  47  61
ATOM     61  C   UNL     1      18.608  -9.203   3.850  1.00  0.00     0.064 A 
ATOM     62  C   UNL     1      19.953  -9.589   4.048  1.00  0.00     0.173 A 
ATOM     63  C   UNL     1      18.432  -7.902   3.329  1.00  0.00     0.173 A 
ATOM     64  F   UNL     1      20.251 -10.797   4.549  1.00  0.00    -0.203 F 
ATOM     65  C   UNL     1      21.020  -8.709   3.836  1.00  0.00     0.198 A 
ATOM     66  C   UNL     1      19.503  -7.044   3.073  1.00  0.00     0.198 A 
ATOM     67  F   UNL     1      17.228  -7.354   3.146  1.00  0.00    -0.203 F 
ATOM     68  F   UNL     1      22.265  -9.079   4.168  1.00  0.00    -0.200 F 
ATOM     69  C   UNL     1      20.793  -7.433   3.358  1.00  0.00     0.200 A 
ATOM     70  F   UNL     1      19.258  -5.802   2.631  1.00  0.00    -0.200 F 
ATOM     71  F   UNL     1      21.803  -6.565   3.217  1.00  0.00    -0.200 F 
ENDBRANCH  47  61
BRANCH  48  72
ATOM     72  C   UNL     1      15.482  -4.351  10.157  1.00  0.00     0.064 A 
ATOM     73  C   UNL     1      16.492  -3.856  11.003  1.00  0.00     0.173 A 
ATOM     74  C   UNL     1      14.656  -3.390   9.546  1.00  0.00     0.173 A 
ATOM     75  F   UNL     1      17.348  -4.698  11.600  1.00  0.00    -0.203 F 
ATOM     76  C   UNL     1      16.694  -2.483  11.184  1.00  0.00     0.198 A 
ATOM     77  C   UNL     1      14.855  -2.020   9.731  1.00  0.00     0.198 A 
ATOM     78  F   UNL     1      13.705  -3.759   8.675  1.00  0.00    -0.203 F 
ATOM     79  F   UNL     1      17.716  -2.050  11.935  1.00  0.00    -0.200 F 
ATOM     80  C   UNL     1      15.885  -1.566  10.535  1.00  0.00     0.200 A 
ATOM     81  F   UNL     1      14.089  -1.142   9.068  1.00  0.00    -0.200 F 
ATOM     82  F   UNL     1      16.125  -0.252  10.645  1.00  0.00    -0.200 F 
ENDBRANCH  48  72
BRANCH  60  83
ATOM     83  C   UNL     1      16.953 -10.414  10.371  1.00  0.00     0.064 A 
ATOM     84  C   UNL     1      15.670 -10.174  10.893  1.00  0.00     0.173 A 
ATOM     85  C   UNL     1      17.727 -11.403  10.994  1.00  0.00     0.173 A 
ATOM     86  F   UNL     1      14.831  -9.314  10.303  1.00  0.00    -0.203 F 
ATOM     87  C   UNL     1      15.213 -10.853  12.023  1.00  0.00     0.198 A 
ATOM     88  C   UNL     1      17.251 -12.109  12.094  1.00  0.00     0.198 A 
ATOM     89  F   UNL     1      18.942 -11.707  10.513  1.00  0.00    -0.203 F 
ATOM     90  F   UNL     1      13.999 -10.582  12.524  1.00  0.00    -0.200 F 
ATOM     91  C   UNL     1      16.003 -11.822  12.618  1.00  0.00     0.200 A 
ATOM     92  F   UNL     1      18.001 -13.079  12.635  1.00  0.00    -0.200 F 
ATOM     93  F   UNL     1      15.553 -12.495  13.687  1.00  0.00    -0.200 F 
ENDBRANCH  60  83
ENDBRANCH  34  35
ENDBRANCH  26  29
ENDBRANCH  24  25
ENDBRANCH  23  24
ENDBRANCH   1  23
TORSDOF 14
