REMARK SMILES O=C(NCCCNC(=O)[C@@H]1CC2(CCN(C(=O)C3(c4ccccc4F)CC3)CC2)C[NH2+]1)c1ccc(-c2c3nc(c(-c4c(F)c(F)c(F)c(F)c4F)c4ccc([nH]4)c(-c4c(F)c(F)c(F)c(F)c4F)c4nc(c(-c5c(F)c(F)c(F)c(F)c5F)c5ccc2[nH]5)C=C4)C=C3)cc1
REMARK SMILES IDX 5 1 4 2 3 3 1 4 2 5 32 7 33 8 94 9 34 10 93 11 35 12 36 13
REMARK SMILES IDX 37 14 87 15 38 16 92 17 86 18 88 19 39 20 91 21 85 22 84 23
REMARK SMILES IDX 40 25 72 26 52 27 71 28 53 29 56 30 70 31 89 32 54 33 55 34
REMARK SMILES IDX 69 36 90 37 57 38 41 39 42 40 50 41 43 42 44 43 48 44 51 45
REMARK SMILES IDX 45 46 46 47 49 48 47 49 73 50 74 51 82 52 75 53 76 54 80 55
REMARK SMILES IDX 83 56 77 57 78 58 81 59 79 60 58 61 59 62 67 63 60 64 61 65
REMARK SMILES IDX 65 66 68 67 62 68 63 69 66 70 64 71 6 72 7 73 8 74 9 76
REMARK SMILES IDX 10 77 11 78 31 79 12 80 30 81 13 84 29 85 14 86 28 87 15 88
REMARK SMILES IDX 16 89 17 90 18 91 26 92 27 93 19 94 20 95 24 96 21 97 23 98
REMARK SMILES IDX 25 99 22 100
REMARK H PARENT 3 6 88 24 56 35 7 75 31 82 31 83
REMARK Flexibility Score: inf
ROOT
ATOM      1  C   UNL     1       4.648   1.523  -1.867  1.00  0.00     0.042 C 
ENDROOT
BRANCH   1   2
ATOM      2  C   UNL     1       4.083   2.031  -0.555  1.00  0.00     0.118 C 
BRANCH   2   3
ATOM      3  N   UNL     1       2.745   1.506  -0.288  1.00  0.00    -0.352 N 
ATOM      4  O   UNL     1       1.069   0.144   0.302  1.00  0.00    -0.269 OA
ATOM      5  C   UNL     1       2.277   0.396   0.380  1.00  0.00     0.251 C 
ATOM      6  H   UNL     1       2.027   2.063  -0.666  1.00  0.00     0.163 HD
BRANCH   5   7
ATOM      7  C   UNL     1       3.142  -0.502   1.191  1.00  0.00     0.039 A 
ATOM      8  C   UNL     1       4.286  -0.036   1.823  1.00  0.00     0.014 A 
ATOM      9  C   UNL     1       2.752  -1.832   1.428  1.00  0.00     0.014 A 
ATOM     10  C   UNL     1       5.125  -0.903   2.511  1.00  0.00     0.010 A 
ATOM     11  C   UNL     1       3.507  -2.664   2.276  1.00  0.00     0.010 A 
ATOM     12  C   UNL     1       4.714  -2.208   2.821  1.00  0.00    -0.014 A 
BRANCH  12  13
ATOM     13  C   UNL     1       5.526  -2.962   3.821  1.00  0.00     0.031 A 
ATOM     14  C   UNL     1       6.182  -4.273   3.495  1.00  0.00     0.074 A 
ATOM     15  C   UNL     1       5.755  -2.375   5.019  1.00  0.00     0.049 A 
ATOM     16  N   UNL     1       7.018  -4.971   4.225  1.00  0.00    -0.248 NA
ATOM     17  C   UNL     1       5.863  -4.890   2.200  1.00  0.00     0.031 C 
ATOM     18  C   UNL     1       5.151  -1.113   5.461  1.00  0.00     0.029 A 
ATOM     19  N   UNL     1       6.597  -2.706   6.051  1.00  0.00    -0.354 N 
ATOM     20  C   UNL     1       7.311  -6.111   3.488  1.00  0.00     0.074 A 
ATOM     21  C   UNL     1       6.547  -6.026   2.262  1.00  0.00     0.031 C 
ATOM     22  C   UNL     1       5.729  -0.716   6.600  1.00  0.00     0.029 A 
ATOM     23  C   UNL     1       6.663  -1.746   7.036  1.00  0.00     0.049 A 
ATOM     24  H   UNL     1       7.105  -3.549   6.085  1.00  0.00     0.167 HD
ATOM     25  C   UNL     1       8.150  -7.125   3.808  1.00  0.00     0.037 A 
ATOM     26  C   UNL     1       7.382  -1.696   8.173  1.00  0.00     0.037 A 
ATOM     27  C   UNL     1       8.925  -7.190   5.023  1.00  0.00     0.049 A 
ATOM     28  C   UNL     1       8.286  -2.847   8.502  1.00  0.00     0.074 A 
ATOM     29  C   UNL     1       9.816  -8.173   5.422  1.00  0.00     0.029 A 
ATOM     30  N   UNL     1       8.908  -6.236   6.030  1.00  0.00    -0.354 N 
ATOM     31  N   UNL     1       8.561  -3.909   7.786  1.00  0.00    -0.248 NA
ATOM     32  C   UNL     1       8.964  -2.805   9.804  1.00  0.00     0.031 C 
ATOM     33  C   UNL     1      10.296  -7.841   6.691  1.00  0.00     0.029 A 
ATOM     34  C   UNL     1       9.754  -6.621   7.059  1.00  0.00     0.049 A 
ATOM     35  H   UNL     1       8.374  -5.410   6.016  1.00  0.00     0.167 HD
ATOM     36  C   UNL     1       9.446  -4.659   8.544  1.00  0.00     0.074 A 
ATOM     37  C   UNL     1       9.692  -3.912   9.761  1.00  0.00     0.031 C 
ATOM     38  C   UNL     1       9.992  -5.866   8.263  1.00  0.00     0.037 A 
BRANCH  25  39
ATOM     39  C   UNL     1       8.291  -8.266   2.841  1.00  0.00     0.064 A 
ATOM     40  C   UNL     1       7.809  -9.542   3.175  1.00  0.00     0.173 A 
ATOM     41  C   UNL     1       9.012  -8.130   1.646  1.00  0.00     0.173 A 
ATOM     42  F   UNL     1       7.122  -9.729   4.312  1.00  0.00    -0.203 F 
ATOM     43  C   UNL     1       8.068 -10.643   2.362  1.00  0.00     0.198 A 
ATOM     44  C   UNL     1       9.247  -9.229   0.823  1.00  0.00     0.198 A 
ATOM     45  F   UNL     1       9.489  -6.932   1.278  1.00  0.00    -0.203 F 
ATOM     46  F   UNL     1       7.640 -11.860   2.728  1.00  0.00    -0.200 F 
ATOM     47  C   UNL     1       8.787 -10.486   1.188  1.00  0.00     0.200 A 
ATOM     48  F   UNL     1       9.929  -9.074  -0.321  1.00  0.00    -0.200 F 
ATOM     49  F   UNL     1       9.044 -11.547   0.411  1.00  0.00    -0.200 F 
ENDBRANCH  25  39
BRANCH  26  50
ATOM     50  C   UNL     1       7.257  -0.526   9.086  1.00  0.00     0.064 A 
ATOM     51  C   UNL     1       6.046  -0.229   9.731  1.00  0.00     0.173 A 
ATOM     52  C   UNL     1       8.344   0.327   9.327  1.00  0.00     0.173 A 
ATOM     53  F   UNL     1       4.973  -1.010   9.537  1.00  0.00    -0.203 F 
ATOM     54  C   UNL     1       5.919   0.886  10.555  1.00  0.00     0.198 A 
ATOM     55  C   UNL     1       8.227   1.420  10.184  1.00  0.00     0.198 A 
ATOM     56  F   UNL     1       9.531   0.078   8.755  1.00  0.00    -0.203 F 
ATOM     57  F   UNL     1       4.736   1.169  11.117  1.00  0.00    -0.200 F 
ATOM     58  C   UNL     1       7.011   1.705  10.788  1.00  0.00     0.200 A 
ATOM     59  F   UNL     1       9.294   2.192  10.432  1.00  0.00    -0.200 F 
ATOM     60  F   UNL     1       6.895   2.765  11.600  1.00  0.00    -0.200 F 
ENDBRANCH  26  50
BRANCH  38  61
ATOM     61  C   UNL     1      10.925  -6.450   9.283  1.00  0.00     0.064 A 
ATOM     62  C   UNL     1      12.296  -6.567   9.008  1.00  0.00     0.173 A 
ATOM     63  C   UNL     1      10.457  -6.935  10.513  1.00  0.00     0.173 A 
ATOM     64  F   UNL     1      12.794  -6.124   7.844  1.00  0.00    -0.203 F 
ATOM     65  C   UNL     1      13.162  -7.157   9.924  1.00  0.00     0.198 A 
ATOM     66  C   UNL     1      11.331  -7.493  11.441  1.00  0.00     0.198 A 
ATOM     67  F   UNL     1       9.157  -6.832  10.829  1.00  0.00    -0.203 F 
ATOM     68  F   UNL     1      14.463  -7.286   9.628  1.00  0.00    -0.200 F 
ATOM     69  C   UNL     1      12.681  -7.612  11.142  1.00  0.00     0.200 A 
ATOM     70  F   UNL     1      10.870  -7.905  12.630  1.00  0.00    -0.200 F 
ATOM     71  F   UNL     1      13.519  -8.161  12.032  1.00  0.00    -0.200 F 
ENDBRANCH  38  61
ENDBRANCH  12  13
ENDBRANCH   5   7
ENDBRANCH   2   3
ENDBRANCH   1   2
BRANCH   1  72
ATOM     72  C   UNL     1       4.250   2.353  -3.095  1.00  0.00     0.118 C 
BRANCH  72  73
ATOM     73  N   UNL     1       5.384   3.115  -3.589  1.00  0.00    -0.351 N 
ATOM     74  C   UNL     1       6.297   2.987  -4.576  1.00  0.00     0.278 C 
ATOM     75  H   UNL     1       5.523   3.939  -3.068  1.00  0.00     0.163 HD
ATOM     76  O   UNL     1       7.231   3.804  -4.481  1.00  0.00    -0.268 OA
BRANCH  74  77
ATOM     77  C   UNL     1       6.331   1.997  -5.783  1.00  0.00     0.273 C 
ATOM     78  C   UNL     1       5.308   0.943  -6.158  1.00  0.00     0.088 C 
ATOM     79  N   UNL     1       7.605   1.246  -5.787  1.00  0.00    -0.336 N 
ATOM     80  C   UNL     1       5.834  -0.396  -5.597  1.00  0.00     0.029 C 
ATOM     81  C   UNL     1       7.353  -0.160  -5.487  1.00  0.00     0.268 C 
ATOM     82  H   UNL     1       8.229   1.635  -5.081  1.00  0.00     0.346 HD
ATOM     83  H   UNL     1       8.036   1.321  -6.708  1.00  0.00     0.346 HD
ATOM     84  C   UNL     1       5.474  -1.637  -6.448  1.00  0.00     0.034 C 
ATOM     85  C   UNL     1       5.289  -0.688  -4.208  1.00  0.00     0.034 C 
ATOM     86  C   UNL     1       3.997  -2.099  -6.357  1.00  0.00     0.120 C 
ATOM     87  C   UNL     1       3.785  -0.871  -4.251  1.00  0.00     0.120 C 
ATOM     88  N   UNL     1       3.441  -2.061  -5.000  1.00  0.00    -0.342 N 
ATOM     89  C   UNL     1       2.481  -2.862  -4.367  1.00  0.00     0.233 C 
ATOM     90  O   UNL     1       2.100  -2.534  -3.237  1.00  0.00    -0.274 OA
BRANCH  89  91
ATOM     91  C   UNL     1       1.861  -4.136  -4.916  1.00  0.00     0.077 C 
ATOM     92  C   UNL     1       1.966  -4.706  -6.319  1.00  0.00     0.023 C 
ATOM     93  C   UNL     1       2.855  -5.248  -5.245  1.00  0.00     0.023 C 
BRANCH  91  94
ATOM     94  C   UNL     1       0.547  -4.495  -4.178  1.00  0.00     0.003 A 
ATOM     95  C   UNL     1      -0.708  -4.175  -4.729  1.00  0.00     0.008 A 
ATOM     96  C   UNL     1       0.555  -4.986  -2.859  1.00  0.00     0.127 A 
ATOM     97  C   UNL     1      -1.886  -4.311  -3.987  1.00  0.00     0.001 A 
ATOM     98  C   UNL     1      -0.611  -5.103  -2.104  1.00  0.00     0.039 A 
ATOM     99  F   UNL     1       1.724  -5.299  -2.275  1.00  0.00    -0.207 F 
ATOM    100  C   UNL     1      -1.835  -4.759  -2.668  1.00  0.00     0.003 A 
ENDBRANCH  91  94
ENDBRANCH  89  91
ENDBRANCH  74  77
ENDBRANCH  72  73
ENDBRANCH   1  72
TORSDOF 12
