REMARK SMILES O=C(NCCCNC(=O)c1sccc1Oc1ccc(NS(=O)(=O)Cc2ccccc2)cc1)c1ccc(-c2c3nc(c(-c4c(F)c(F)c(F)c(F)c4F)c4ccc([nH]4)c(-c4c(F)c(F)c(F)c(F)c4F)c4nc(c(-c5c(F)c(F)c(F)c(F)c5F)c5ccc2[nH]5)C=C4)C=C3)cc1
REMARK SMILES IDX 7 1 8 2 9 3 6 5 5 6 4 7 3 8 1 9 2 10 33 12 34 13 95 14 35 15
REMARK SMILES IDX 94 16 36 17 37 18 38 19 88 20 39 21 93 22 87 23 89 24 40 25
REMARK SMILES IDX 92 26 86 27 85 28 41 30 73 31 53 32 72 33 54 34 57 35 71 36
REMARK SMILES IDX 90 37 55 38 56 39 70 41 91 42 58 43 42 44 43 45 51 46 44 47
REMARK SMILES IDX 45 48 49 49 52 50 46 51 47 52 50 53 48 54 74 55 75 56 83 57
REMARK SMILES IDX 76 58 77 59 81 60 84 61 78 62 79 63 82 64 80 65 59 66 60 67
REMARK SMILES IDX 68 68 61 69 62 70 66 71 69 72 63 73 64 74 67 75 65 76 10 77
REMARK SMILES IDX 11 78 14 79 12 80 13 81 15 82 16 83 17 84 32 85 18 86 31 87
REMARK SMILES IDX 19 88 20 89 21 91 22 92 23 93 24 94 25 95 26 96 30 97 27 98
REMARK SMILES IDX 29 99 28 100
REMARK H PARENT 7 4 3 11 89 29 57 40 20 90
REMARK Flexibility Score: inf
ROOT
ATOM      1  N   UNL     1       5.851  -2.980  -2.791  1.00  0.00    -0.351 N 
ATOM      2  C   UNL     1       6.110  -4.016  -3.656  1.00  0.00     0.265 C 
ATOM      3  O   UNL     1       6.270  -3.743  -4.846  1.00  0.00    -0.268 OA
ATOM      4  H   UNL     1       5.944  -2.074  -3.167  1.00  0.00     0.163 HD
ENDROOT
BRANCH   1   5
ATOM      5  C   UNL     1       5.457  -3.046  -1.396  1.00  0.00     0.118 C 
BRANCH   5   6
ATOM      6  C   UNL     1       5.882  -1.842  -0.575  1.00  0.00     0.042 C 
BRANCH   6   7
ATOM      7  C   UNL     1       5.546  -0.495  -1.201  1.00  0.00     0.118 C 
BRANCH   7   8
ATOM      8  N   UNL     1       4.122  -0.201  -1.313  1.00  0.00    -0.352 N 
ATOM      9  O   UNL     1       2.148   0.828  -0.908  1.00  0.00    -0.269 OA
ATOM     10  C   UNL     1       3.326   0.668  -0.605  1.00  0.00     0.251 C 
ATOM     11  H   UNL     1       3.652  -0.709  -2.014  1.00  0.00     0.163 HD
BRANCH  10  12
ATOM     12  C   UNL     1       3.846   1.382   0.569  1.00  0.00     0.039 A 
ATOM     13  C   UNL     1       5.052   2.069   0.498  1.00  0.00     0.014 A 
ATOM     14  C   UNL     1       3.090   1.396   1.749  1.00  0.00     0.014 A 
ATOM     15  C   UNL     1       5.598   2.601   1.650  1.00  0.00     0.010 A 
ATOM     16  C   UNL     1       3.583   2.046   2.881  1.00  0.00     0.010 A 
ATOM     17  C   UNL     1       4.857   2.621   2.845  1.00  0.00    -0.014 A 
BRANCH  17  18
ATOM     18  C   UNL     1       5.444   3.361   3.983  1.00  0.00     0.031 A 
ATOM     19  C   UNL     1       5.944   2.646   5.196  1.00  0.00     0.074 A 
ATOM     20  C   UNL     1       5.648   4.681   3.805  1.00  0.00     0.049 A 
ATOM     21  N   UNL     1       6.736   3.088   6.138  1.00  0.00    -0.248 NA
ATOM     22  C   UNL     1       5.499   1.258   5.386  1.00  0.00     0.031 C 
ATOM     23  C   UNL     1       5.155   5.451   2.658  1.00  0.00     0.029 A 
ATOM     24  N   UNL     1       6.388   5.583   4.519  1.00  0.00    -0.354 N 
ATOM     25  C   UNL     1       6.878   2.040   7.036  1.00  0.00     0.074 A 
ATOM     26  C   UNL     1       6.070   0.946   6.542  1.00  0.00     0.031 C 
ATOM     27  C   UNL     1       5.701   6.673   2.683  1.00  0.00     0.029 A 
ATOM     28  C   UNL     1       6.536   6.787   3.871  1.00  0.00     0.049 A 
ATOM     29  H   UNL     1       6.773   5.391   5.404  1.00  0.00     0.167 HD
ATOM     30  C   UNL     1       7.623   2.007   8.167  1.00  0.00     0.037 A 
ATOM     31  C   UNL     1       7.294   7.852   4.188  1.00  0.00     0.037 A 
ATOM     32  C   UNL     1       8.415   3.117   8.631  1.00  0.00     0.049 A 
ATOM     33  C   UNL     1       8.146   7.768   5.421  1.00  0.00     0.074 A 
ATOM     34  C   UNL     1       9.208   3.206   9.761  1.00  0.00     0.029 A 
ATOM     35  N   UNL     1       8.508   4.341   7.979  1.00  0.00    -0.354 N 
ATOM     36  N   UNL     1       8.313   6.758   6.240  1.00  0.00    -0.248 NA
ATOM     37  C   UNL     1       8.912   8.968   5.774  1.00  0.00     0.031 C 
ATOM     38  C   UNL     1       9.749   4.496   9.812  1.00  0.00     0.029 A 
ATOM     39  C   UNL     1       9.332   5.197   8.691  1.00  0.00     0.049 A 
ATOM     40  H   UNL     1       8.055   4.566   7.135  1.00  0.00     0.167 HD
ATOM     41  C   UNL     1       9.205   7.194   7.206  1.00  0.00     0.074 A 
ATOM     42  C   UNL     1       9.572   8.551   6.846  1.00  0.00     0.031 C 
ATOM     43  C   UNL     1       9.671   6.542   8.299  1.00  0.00     0.037 A 
BRANCH  30  44
ATOM     44  C   UNL     1       7.583   0.750   8.986  1.00  0.00     0.064 A 
ATOM     45  C   UNL     1       8.197  -0.436   8.554  1.00  0.00     0.173 A 
ATOM     46  C   UNL     1       6.926   0.730  10.227  1.00  0.00     0.173 A 
ATOM     47  F   UNL     1       8.824  -0.477   7.368  1.00  0.00    -0.203 F 
ATOM     48  C   UNL     1       8.132  -1.599   9.319  1.00  0.00     0.198 A 
ATOM     49  C   UNL     1       6.884  -0.428  11.000  1.00  0.00     0.198 A 
ATOM     50  F   UNL     1       6.322   1.835  10.689  1.00  0.00    -0.203 F 
ATOM     51  F   UNL     1       8.683  -2.732   8.861  1.00  0.00    -0.200 F 
ATOM     52  C   UNL     1       7.479  -1.593  10.542  1.00  0.00     0.200 A 
ATOM     53  F   UNL     1       6.258  -0.418  12.185  1.00  0.00    -0.200 F 
ATOM     54  F   UNL     1       7.414  -2.714  11.274  1.00  0.00    -0.200 F 
ENDBRANCH  30  44
BRANCH  31  55
ATOM     55  C   UNL     1       7.304   9.045   3.302  1.00  0.00     0.064 A 
ATOM     56  C   UNL     1       8.451   9.404   2.580  1.00  0.00     0.173 A 
ATOM     57  C   UNL     1       6.156   9.833   3.129  1.00  0.00     0.173 A 
ATOM     58  F   UNL     1       9.579   8.690   2.715  1.00  0.00    -0.203 F 
ATOM     59  C   UNL     1       8.452  10.510   1.731  1.00  0.00     0.198 A 
ATOM     60  C   UNL     1       6.148  10.918   2.257  1.00  0.00     0.198 A 
ATOM     61  F   UNL     1       5.028   9.527   3.788  1.00  0.00    -0.203 F 
ATOM     62  F   UNL     1       9.572  10.851   1.080  1.00  0.00    -0.200 F 
ATOM     63  C   UNL     1       7.298  11.261   1.564  1.00  0.00     0.200 A 
ATOM     64  F   UNL     1       5.024  11.626   2.083  1.00  0.00    -0.200 F 
ATOM     65  F   UNL     1       7.296  12.316   0.738  1.00  0.00    -0.200 F 
ENDBRANCH  31  55
BRANCH  43  66
ATOM     66  C   UNL     1      10.632   7.296   9.167  1.00  0.00     0.064 A 
ATOM     67  C   UNL     1      10.201   8.347   9.990  1.00  0.00     0.173 A 
ATOM     68  C   UNL     1      11.990   6.952   9.188  1.00  0.00     0.173 A 
ATOM     69  F   UNL     1       8.913   8.722   9.989  1.00  0.00    -0.203 F 
ATOM     70  C   UNL     1      11.105   9.048  10.782  1.00  0.00     0.198 A 
ATOM     71  C   UNL     1      12.886   7.636  10.003  1.00  0.00     0.198 A 
ATOM     72  F   UNL     1      12.446   5.950   8.421  1.00  0.00    -0.203 F 
ATOM     73  F   UNL     1      10.683  10.082  11.522  1.00  0.00    -0.200 F 
ATOM     74  C   UNL     1      12.445   8.688  10.792  1.00  0.00     0.200 A 
ATOM     75  F   UNL     1      14.179   7.283  10.019  1.00  0.00    -0.200 F 
ATOM     76  F   UNL     1      13.315   9.364  11.556  1.00  0.00    -0.200 F 
ENDBRANCH  43  66
ENDBRANCH  17  18
ENDBRANCH  10  12
ENDBRANCH   7   8
ENDBRANCH   6   7
ENDBRANCH   5   6
ENDBRANCH   1   5
BRANCH   2  77
ATOM     77  C   UNL     1       6.181  -5.352  -3.127  1.00  0.00     0.135 A 
ATOM     78  S   UNL     1       7.702  -5.862  -2.511  1.00  0.00    -0.135 S 
ATOM     79  C   UNL     1       5.243  -6.371  -3.100  1.00  0.00     0.151 A 
ATOM     80  C   UNL     1       7.112  -7.429  -2.183  1.00  0.00     0.069 A 
ATOM     81  C   UNL     1       5.790  -7.567  -2.544  1.00  0.00     0.059 A 
BRANCH  79  82
ATOM     82  O   UNL     1       3.966  -6.334  -3.582  1.00  0.00    -0.456 OA
BRANCH  82  83
ATOM     83  C   UNL     1       3.230  -5.179  -3.524  1.00  0.00     0.127 A 
ATOM     84  C   UNL     1       2.647  -4.798  -2.324  1.00  0.00     0.049 A 
ATOM     85  C   UNL     1       3.090  -4.382  -4.660  1.00  0.00     0.049 A 
ATOM     86  C   UNL     1       2.046  -3.542  -2.233  1.00  0.00     0.030 A 
ATOM     87  C   UNL     1       2.479  -3.125  -4.560  1.00  0.00     0.030 A 
ATOM     88  C   UNL     1       1.984  -2.688  -3.332  1.00  0.00     0.049 A 
BRANCH  88  89
ATOM     89  N   UNL     1       1.564  -1.332  -3.162  1.00  0.00    -0.283 N 
ATOM     90  H   UNL     1       2.199  -0.592  -3.293  1.00  0.00     0.180 HD
BRANCH  89  91
ATOM     91  S   UNL     1      -0.050  -1.020  -2.730  1.00  0.00     0.236 S 
ATOM     92  O   UNL     1      -0.254   0.362  -3.124  1.00  0.00    -0.206 OA
ATOM     93  O   UNL     1      -0.867  -2.048  -3.341  1.00  0.00    -0.206 OA
BRANCH  91  94
ATOM     94  C   UNL     1      -0.081  -1.088  -0.900  1.00  0.00     0.195 C 
BRANCH  94  95
ATOM     95  C   UNL     1      -0.828  -2.301  -0.401  1.00  0.00    -0.031 A 
ATOM     96  C   UNL     1      -2.173  -2.505  -0.727  1.00  0.00     0.005 A 
ATOM     97  C   UNL     1      -0.177  -3.263   0.390  1.00  0.00     0.005 A 
ATOM     98  C   UNL     1      -2.803  -3.707  -0.404  1.00  0.00     0.000 A 
ATOM     99  C   UNL     1      -0.799  -4.472   0.695  1.00  0.00     0.000 A 
ATOM    100  C   UNL     1      -2.106  -4.702   0.277  1.00  0.00     0.000 A 
ENDBRANCH  94  95
ENDBRANCH  91  94
ENDBRANCH  89  91
ENDBRANCH  88  89
ENDBRANCH  82  83
ENDBRANCH  79  82
ENDBRANCH   2  77
TORSDOF 16
