REMARK SMILES O=C(NCCCNC(=O)c1ccc(C2SCCCS2)cc1)c1ccc(-c2c3nc(c(-c4c(F)c(F)c(F)c(F)c4F)c4ccc([nH]4)c(-c4c(F)c(F)c(F)c(F)c4F)c4nc(c(-c5c(F)c(F)c(F)c(F)c5F)c5ccc2[nH]5)C=C4)C=C3)cc1
REMARK SMILES IDX 4 1 3 2 1 3 2 4 22 6 23 7 84 8 24 9 83 10 25 11 26 12 27 13
REMARK SMILES IDX 77 14 28 15 82 16 76 17 78 18 29 19 81 20 75 21 74 22 30 24
REMARK SMILES IDX 62 25 42 26 61 27 43 28 46 29 60 30 79 31 44 32 45 33 59 35
REMARK SMILES IDX 80 36 47 37 31 38 32 39 40 40 33 41 34 42 38 43 41 44 35 45
REMARK SMILES IDX 36 46 39 47 37 48 63 49 64 50 72 51 65 52 66 53 70 54 73 55
REMARK SMILES IDX 67 56 68 57 71 58 69 59 48 60 49 61 57 62 50 63 51 64 55 65
REMARK SMILES IDX 58 66 52 67 53 68 56 69 54 70 5 71 6 72 7 73 8 74 9 76 10 77
REMARK SMILES IDX 11 78 21 79 12 80 20 81 13 82 14 83 15 84 19 85 16 86 18 87
REMARK SMILES IDX 17 88
REMARK H PARENT 3 5 78 23 46 34 7 75
REMARK Flexibility Score: inf
ROOT
ATOM      1  C   UNL     1       4.646  -0.928   0.842  1.00  0.00     0.118 C 
ENDROOT
BRANCH   1   2
ATOM      2  N   UNL     1       3.199  -0.920   0.676  1.00  0.00    -0.352 N 
ATOM      3  O   UNL     1       1.178  -0.112   0.103  1.00  0.00    -0.269 OA
ATOM      4  C   UNL     1       2.397  -0.058  -0.029  1.00  0.00     0.251 C 
ATOM      5  H   UNL     1       2.723  -1.646   1.141  1.00  0.00     0.163 HD
BRANCH   4   6
ATOM      6  C   UNL     1       2.997   0.952  -0.925  1.00  0.00     0.039 A 
ATOM      7  C   UNL     1       4.065   0.629  -1.766  1.00  0.00     0.014 A 
ATOM      8  C   UNL     1       2.463   2.243  -0.937  1.00  0.00     0.014 A 
ATOM      9  C   UNL     1       4.696   1.625  -2.503  1.00  0.00     0.010 A 
ATOM     10  C   UNL     1       3.037   3.222  -1.750  1.00  0.00     0.010 A 
ATOM     11  C   UNL     1       4.178   2.927  -2.515  1.00  0.00    -0.014 A 
BRANCH  11  12
ATOM     12  C   UNL     1       4.795   3.968  -3.370  1.00  0.00     0.031 A 
ATOM     13  C   UNL     1       5.413   5.192  -2.761  1.00  0.00     0.074 A 
ATOM     14  C   UNL     1       4.759   3.820  -4.707  1.00  0.00     0.049 A 
ATOM     15  N   UNL     1       5.896   6.256  -3.351  1.00  0.00    -0.248 NA
ATOM     16  C   UNL     1       5.488   5.231  -1.294  1.00  0.00     0.031 C 
ATOM     17  C   UNL     1       4.187   2.670  -5.410  1.00  0.00     0.029 A 
ATOM     18  N   UNL     1       5.194   4.644  -5.713  1.00  0.00    -0.354 N 
ATOM     19  C   UNL     1       6.305   7.103  -2.330  1.00  0.00     0.074 A 
ATOM     20  C   UNL     1       5.992   6.439  -1.082  1.00  0.00     0.031 C 
ATOM     21  C   UNL     1       4.308   2.859  -6.731  1.00  0.00     0.029 A 
ATOM     22  C   UNL     1       4.903   4.170  -6.968  1.00  0.00     0.049 A 
ATOM     23  H   UNL     1       5.668   5.491  -5.551  1.00  0.00     0.167 HD
ATOM     24  C   UNL     1       6.889   8.322  -2.430  1.00  0.00     0.037 A 
ATOM     25  C   UNL     1       5.056   4.743  -8.175  1.00  0.00     0.037 A 
ATOM     26  C   UNL     1       7.200   8.966  -3.681  1.00  0.00     0.049 A 
ATOM     27  C   UNL     1       5.664   6.112  -8.263  1.00  0.00     0.074 A 
ATOM     28  C   UNL     1       7.829  10.180  -3.893  1.00  0.00     0.029 A 
ATOM     29  N   UNL     1       6.890   8.453  -4.933  1.00  0.00    -0.354 N 
ATOM     30  N   UNL     1       6.078   6.893  -7.295  1.00  0.00    -0.248 NA
ATOM     31  C   UNL     1       5.828   6.681  -9.606  1.00  0.00     0.031 C 
ATOM     32  C   UNL     1       7.845  10.430  -5.269  1.00  0.00     0.029 A 
ATOM     33  C   UNL     1       7.287   9.341  -5.921  1.00  0.00     0.049 A 
ATOM     34  H   UNL     1       6.452   7.586  -5.096  1.00  0.00     0.167 HD
ATOM     35  C   UNL     1       6.578   8.031  -7.909  1.00  0.00     0.074 A 
ATOM     36  C   UNL     1       6.415   7.839  -9.336  1.00  0.00     0.031 C 
ATOM     37  C   UNL     1       7.129   9.131  -7.339  1.00  0.00     0.037 A 
BRANCH  24  38
ATOM     38  C   UNL     1       7.191   9.053  -1.152  1.00  0.00     0.064 A 
ATOM     39  C   UNL     1       8.176   8.611  -0.256  1.00  0.00     0.173 A 
ATOM     40  C   UNL     1       6.489  10.224  -0.825  1.00  0.00     0.173 A 
ATOM     41  F   UNL     1       8.872   7.494  -0.514  1.00  0.00    -0.203 F 
ATOM     42  C   UNL     1       8.415   9.287   0.939  1.00  0.00     0.198 A 
ATOM     43  C   UNL     1       6.754  10.917   0.354  1.00  0.00     0.198 A 
ATOM     44  F   UNL     1       5.543  10.699  -1.649  1.00  0.00    -0.203 F 
ATOM     45  F   UNL     1       9.315   8.809   1.809  1.00  0.00    -0.200 F 
ATOM     46  C   UNL     1       7.707  10.441   1.241  1.00  0.00     0.200 A 
ATOM     47  F   UNL     1       6.079  12.040   0.636  1.00  0.00    -0.200 F 
ATOM     48  F   UNL     1       7.936  11.088   2.392  1.00  0.00    -0.200 F 
ENDBRANCH  24  38
BRANCH  25  49
ATOM     49  C   UNL     1       4.604   4.009  -9.384  1.00  0.00     0.064 A 
ATOM     50  C   UNL     1       5.528   3.465 -10.284  1.00  0.00     0.173 A 
ATOM     51  C   UNL     1       3.240   3.782  -9.626  1.00  0.00     0.173 A 
ATOM     52  F   UNL     1       6.840   3.667 -10.101  1.00  0.00    -0.203 F 
ATOM     53  C   UNL     1       5.104   2.721 -11.384  1.00  0.00     0.198 A 
ATOM     54  C   UNL     1       2.820   3.015 -10.709  1.00  0.00     0.198 A 
ATOM     55  F   UNL     1       2.318   4.273  -8.785  1.00  0.00    -0.203 F 
ATOM     56  F   UNL     1       6.006   2.230 -12.245  1.00  0.00    -0.200 F 
ATOM     57  C   UNL     1       3.752   2.488 -11.590  1.00  0.00     0.200 A 
ATOM     58  F   UNL     1       1.514   2.774 -10.891  1.00  0.00    -0.200 F 
ATOM     59  F   UNL     1       3.348   1.755 -12.636  1.00  0.00    -0.200 F 
ENDBRANCH  25  49
BRANCH  37  60
ATOM     60  C   UNL     1       7.649  10.200  -8.255  1.00  0.00     0.064 A 
ATOM     61  C   UNL     1       6.789  11.057  -8.956  1.00  0.00     0.173 A 
ATOM     62  C   UNL     1       9.031  10.414  -8.370  1.00  0.00     0.173 A 
ATOM     63  F   UNL     1       5.461  10.882  -8.892  1.00  0.00    -0.203 F 
ATOM     64  C   UNL     1       7.296  12.087  -9.745  1.00  0.00     0.198 A 
ATOM     65  C   UNL     1       9.533  11.462  -9.136  1.00  0.00     0.198 A 
ATOM     66  F   UNL     1       9.895   9.623  -7.717  1.00  0.00    -0.203 F 
ATOM     67  F   UNL     1       6.458  12.877 -10.431  1.00  0.00    -0.200 F 
ATOM     68  C   UNL     1       8.665  12.296  -9.825  1.00  0.00     0.200 A 
ATOM     69  F   UNL     1      10.855  11.671  -9.200  1.00  0.00    -0.200 F 
ATOM     70  F   UNL     1       9.149  13.301 -10.568  1.00  0.00    -0.200 F 
ENDBRANCH  37  60
ENDBRANCH  11  12
ENDBRANCH   4   6
ENDBRANCH   1   2
BRANCH   1  71
ATOM     71  C   UNL     1       5.074  -0.671   2.276  1.00  0.00     0.042 C 
BRANCH  71  72
ATOM     72  C   UNL     1       4.646  -1.756   3.251  1.00  0.00     0.118 C 
BRANCH  72  73
ATOM     73  N   UNL     1       5.227  -3.055   2.928  1.00  0.00    -0.352 N 
ATOM     74  C   UNL     1       6.035  -3.860   3.693  1.00  0.00     0.251 C 
ATOM     75  H   UNL     1       5.008  -3.404   2.034  1.00  0.00     0.163 HD
ATOM     76  O   UNL     1       6.599  -4.829   3.189  1.00  0.00    -0.269 OA
BRANCH  74  77
ATOM     77  C   UNL     1       6.219  -3.554   5.123  1.00  0.00     0.039 A 
ATOM     78  C   UNL     1       7.494  -3.561   5.686  1.00  0.00     0.014 A 
ATOM     79  C   UNL     1       5.113  -3.244   5.909  1.00  0.00     0.014 A 
ATOM     80  C   UNL     1       7.663  -3.163   7.018  1.00  0.00     0.006 A 
ATOM     81  C   UNL     1       5.294  -2.813   7.217  1.00  0.00     0.006 A 
ATOM     82  C   UNL     1       6.565  -2.754   7.804  1.00  0.00    -0.025 A 
BRANCH  82  83
ATOM     83  C   UNL     1       6.801  -2.233   9.214  1.00  0.00     0.133 C 
ATOM     84  S   UNL     1       6.797  -0.425   9.347  1.00  0.00    -0.143 SA
ATOM     85  S   UNL     1       5.860  -3.035  10.540  1.00  0.00    -0.143 SA
ATOM     86  C   UNL     1       5.027  -0.080   9.225  1.00  0.00     0.072 C 
ATOM     87  C   UNL     1       4.223  -2.272  10.383  1.00  0.00     0.072 C 
ATOM     88  C   UNL     1       4.178  -0.752  10.294  1.00  0.00     0.022 C 
ENDBRANCH  82  83
ENDBRANCH  74  77
ENDBRANCH  72  73
ENDBRANCH  71  72
ENDBRANCH   1  71
TORSDOF 11
