REMARK SMILES CCc1ccc(S(=O)(=O)c2nnn(-c3ccc(C(=O)NCCCNC(=O)c4ccc(-c5c6nc(c(-c7c(F)c(F)c(F)c(F)c7F)c7ccc([nH]7)c(-c7c(F)c(F)c(F)c(F)c7F)c7nc(c(-c8c(F)c(F)c(F)c(F)c8F)c8ccc5[nH]8)C=C7)C=C6)cc4)cc3)c2C)cc1
REMARK SMILES IDX 21 1 20 2 18 3 19 4 17 6 14 7 15 8 91 9 16 10 90 11 13 12
REMARK SMILES IDX 10 13 11 14 92 15 12 16 93 17 7 18 8 19 9 20 6 21 3 22 4 23
REMARK SMILES IDX 95 24 5 25 94 26 2 27 1 28 22 29 23 30 24 31 25 32 26 34
REMARK SMILES IDX 27 35 28 36 89 37 29 38 88 39 30 40 31 41 32 42 82 43 33 44
REMARK SMILES IDX 87 45 81 46 83 47 34 48 86 49 80 50 79 51 35 53 67 54 47 55
REMARK SMILES IDX 66 56 48 57 51 58 65 59 84 60 49 61 50 62 64 64 85 65 52 66
REMARK SMILES IDX 36 67 37 68 45 69 38 70 39 71 43 72 46 73 40 74 41 75 44 76
REMARK SMILES IDX 42 77 68 78 69 79 77 80 70 81 71 82 75 83 78 84 72 85 73 86
REMARK SMILES IDX 76 87 74 88 53 89 54 90 62 91 55 92 56 93 60 94 63 95 57 96
REMARK SMILES IDX 58 97 61 98 59 99
REMARK H PARENT 20 5 24 33 83 52 51 63
REMARK Flexibility Score: inf
ROOT
ATOM      1  C   UNL     1      -5.204   8.612   5.339  1.00  0.00     0.118 C 
ENDROOT
BRANCH   1   2
ATOM      2  N   UNL     1      -4.595   9.586   4.439  1.00  0.00    -0.352 N 
ATOM      3  C   UNL     1      -3.304   9.757   3.993  1.00  0.00     0.251 C 
ATOM      4  O   UNL     1      -3.100  10.618   3.138  1.00  0.00    -0.269 OA
ATOM      5  H   UNL     1      -5.230  10.249   4.082  1.00  0.00     0.163 HD
BRANCH   3   6
ATOM      6  C   UNL     1      -2.168   8.907   4.452  1.00  0.00     0.039 A 
ATOM      7  C   UNL     1      -0.139   7.099   5.088  1.00  0.00     0.067 A 
ATOM      8  C   UNL     1      -0.018   7.872   3.933  1.00  0.00     0.029 A 
ATOM      9  C   UNL     1      -1.180   7.316   5.985  1.00  0.00     0.029 A 
ATOM     10  C   UNL     1      -1.056   8.755   3.604  1.00  0.00     0.016 A 
ATOM     11  C   UNL     1      -2.159   8.250   5.682  1.00  0.00     0.016 A 
BRANCH   7  12
ATOM     12  N   UNL     1       0.736   6.031   5.338  1.00  0.00    -0.216 N 
ATOM     13  C   UNL     1       1.603   4.127   5.909  1.00  0.00     0.205 A 
ATOM     14  N   UNL     1       2.616   5.007   5.635  1.00  0.00    -0.117 NA
ATOM     15  C   UNL     1       0.383   4.731   5.649  1.00  0.00     0.081 A 
ATOM     16  N   UNL     1       2.072   6.138   5.201  1.00  0.00    -0.061 NA
ATOM     17  C   UNL     1      -0.989   4.179   5.496  1.00  0.00     0.070 C 
BRANCH  13  18
ATOM     18  S   UNL     1       1.886   2.457   6.250  1.00  0.00     0.227 S 
ATOM     19  O   UNL     1       0.868   2.111   7.211  1.00  0.00    -0.217 OA
ATOM     20  O   UNL     1       3.308   2.342   6.537  1.00  0.00    -0.217 OA
BRANCH  18  21
ATOM     21  C   UNL     1       1.552   1.569   4.752  1.00  0.00     0.073 A 
ATOM     22  C   UNL     1       0.864   0.108   2.457  1.00  0.00    -0.048 A 
ATOM     23  C   UNL     1       1.128  -0.546   3.672  1.00  0.00     0.005 A 
ATOM     24  C   UNL     1       0.939   1.505   2.416  1.00  0.00     0.005 A 
ATOM     25  C   UNL     1       1.465   0.178   4.818  1.00  0.00     0.021 A 
ATOM     26  C   UNL     1       1.306   2.233   3.547  1.00  0.00     0.021 A 
BRANCH  22  27
ATOM     27  C   UNL     1       0.448  -0.700   1.249  1.00  0.00     0.032 C 
ATOM     28  C   UNL     1       0.936  -0.155  -0.089  1.00  0.00     0.009 C 
ENDBRANCH  22  27
ENDBRANCH  18  21
ENDBRANCH  13  18
ENDBRANCH   7  12
ENDBRANCH   3   6
ENDBRANCH   1   2
BRANCH   1  29
ATOM     29  C   UNL     1      -5.278   9.122   6.787  1.00  0.00     0.042 C 
BRANCH  29  30
ATOM     30  C   UNL     1      -6.474  10.019   7.030  1.00  0.00     0.118 C 
BRANCH  30  31
ATOM     31  N   UNL     1      -7.742   9.284   7.036  1.00  0.00    -0.352 N 
ATOM     32  C   UNL     1      -9.024   9.791   7.148  1.00  0.00     0.251 C 
ATOM     33  H   UNL     1      -7.673   8.306   6.950  1.00  0.00     0.163 HD
ATOM     34  O   UNL     1      -9.955   9.082   7.509  1.00  0.00    -0.269 OA
BRANCH  32  35
ATOM     35  C   UNL     1      -9.246  11.209   6.822  1.00  0.00     0.039 A 
ATOM     36  C   UNL     1     -10.117  12.019   7.555  1.00  0.00     0.014 A 
ATOM     37  C   UNL     1      -8.498  11.735   5.776  1.00  0.00     0.014 A 
ATOM     38  C   UNL     1     -10.158  13.380   7.265  1.00  0.00     0.010 A 
ATOM     39  C   UNL     1      -8.354  13.087   5.670  1.00  0.00     0.010 A 
ATOM     40  C   UNL     1      -9.250  13.908   6.331  1.00  0.00    -0.014 A 
BRANCH  40  41
ATOM     41  C   UNL     1      -9.136  15.339   6.085  1.00  0.00     0.031 A 
ATOM     42  C   UNL     1      -8.912  16.140   7.314  1.00  0.00     0.074 A 
ATOM     43  C   UNL     1      -9.018  15.857   4.841  1.00  0.00     0.049 A 
ATOM     44  N   UNL     1      -9.730  16.975   7.861  1.00  0.00    -0.248 NA
ATOM     45  C   UNL     1      -7.712  15.865   8.122  1.00  0.00     0.031 C 
ATOM     46  C   UNL     1      -8.906  15.149   3.558  1.00  0.00     0.029 A 
ATOM     47  N   UNL     1      -8.871  17.155   4.465  1.00  0.00    -0.354 N 
ATOM     48  C   UNL     1      -9.062  17.495   8.964  1.00  0.00     0.074 A 
ATOM     49  C   UNL     1      -7.928  16.638   9.189  1.00  0.00     0.031 C 
ATOM     50  C   UNL     1      -8.477  15.998   2.599  1.00  0.00     0.029 A 
ATOM     51  C   UNL     1      -8.460  17.339   3.148  1.00  0.00     0.049 A 
ATOM     52  H   UNL     1      -9.043  17.907   5.077  1.00  0.00     0.167 HD
ATOM     53  C   UNL     1      -9.357  18.745   9.419  1.00  0.00     0.037 A 
ATOM     54  C   UNL     1      -8.116  18.514   2.563  1.00  0.00     0.037 A 
ATOM     55  C   UNL     1     -10.626  19.191   8.892  1.00  0.00     0.049 A 
ATOM     56  C   UNL     1      -8.697  19.597   3.395  1.00  0.00     0.074 A 
ATOM     57  C   UNL     1     -11.925  18.726   8.965  1.00  0.00     0.029 A 
ATOM     58  N   UNL     1     -10.601  20.054   7.823  1.00  0.00    -0.354 N 
ATOM     59  N   UNL     1      -9.979  19.808   3.510  1.00  0.00    -0.248 NA
ATOM     60  C   UNL     1      -7.875  20.125   4.472  1.00  0.00     0.031 C 
ATOM     61  C   UNL     1     -12.470  18.945   7.664  1.00  0.00     0.029 A 
ATOM     62  C   UNL     1     -11.509  19.606   6.898  1.00  0.00     0.049 A 
ATOM     63  H   UNL     1     -10.033  20.853   7.737  1.00  0.00     0.167 HD
ATOM     64  C   UNL     1     -10.167  20.084   4.856  1.00  0.00     0.074 A 
ATOM     65  C   UNL     1      -8.828  20.345   5.382  1.00  0.00     0.031 C 
ATOM     66  C   UNL     1     -11.347  19.781   5.474  1.00  0.00     0.037 A 
BRANCH  53  67
ATOM     67  C   UNL     1      -8.340  19.715   9.977  1.00  0.00     0.064 A 
ATOM     68  C   UNL     1      -8.791  20.958  10.467  1.00  0.00     0.173 A 
ATOM     69  C   UNL     1      -6.947  19.619   9.766  1.00  0.00     0.173 A 
ATOM     70  F   UNL     1     -10.096  21.168  10.701  1.00  0.00    -0.203 F 
ATOM     71  C   UNL     1      -7.931  22.047  10.628  1.00  0.00     0.198 A 
ATOM     72  C   UNL     1      -6.084  20.693   9.979  1.00  0.00     0.198 A 
ATOM     73  F   UNL     1      -6.371  18.534   9.239  1.00  0.00    -0.203 F 
ATOM     74  F   UNL     1      -8.431  23.245  10.959  1.00  0.00    -0.200 F 
ATOM     75  C   UNL     1      -6.579  21.916  10.373  1.00  0.00     0.200 A 
ATOM     76  F   UNL     1      -4.778  20.549   9.710  1.00  0.00    -0.200 F 
ATOM     77  F   UNL     1      -5.763  22.974  10.458  1.00  0.00    -0.200 F 
ENDBRANCH  53  67
BRANCH  54  78
ATOM     78  C   UNL     1      -7.075  18.777   1.539  1.00  0.00     0.064 A 
ATOM     79  C   UNL     1      -7.039  19.995   0.838  1.00  0.00     0.173 A 
ATOM     80  C   UNL     1      -5.926  17.968   1.443  1.00  0.00     0.173 A 
ATOM     81  F   UNL     1      -8.074  20.845   0.911  1.00  0.00    -0.203 F 
ATOM     82  C   UNL     1      -5.910  20.394   0.114  1.00  0.00     0.198 A 
ATOM     83  C   UNL     1      -4.801  18.366   0.717  1.00  0.00     0.198 A 
ATOM     84  F   UNL     1      -5.834  16.823   2.134  1.00  0.00    -0.203 F 
ATOM     85  F   UNL     1      -5.888  21.593  -0.485  1.00  0.00    -0.200 F 
ATOM     86  C   UNL     1      -4.787  19.585   0.065  1.00  0.00     0.200 A 
ATOM     87  F   UNL     1      -3.706  17.592   0.710  1.00  0.00    -0.200 F 
ATOM     88  F   UNL     1      -3.681  19.997  -0.570  1.00  0.00    -0.200 F 
ENDBRANCH  54  78
BRANCH  66  89
ATOM     89  C   UNL     1     -12.514  19.396   4.605  1.00  0.00     0.064 A 
ATOM     90  C   UNL     1     -12.552  18.257   3.780  1.00  0.00     0.173 A 
ATOM     91  C   UNL     1     -13.694  20.141   4.721  1.00  0.00     0.173 A 
ATOM     92  F   UNL     1     -11.501  17.435   3.687  1.00  0.00    -0.203 F 
ATOM     93  C   UNL     1     -13.705  17.909   3.076  1.00  0.00     0.198 A 
ATOM     94  C   UNL     1     -14.855  19.772   4.047  1.00  0.00     0.198 A 
ATOM     95  F   UNL     1     -13.736  21.209   5.534  1.00  0.00    -0.203 F 
ATOM     96  F   UNL     1     -13.711  16.824   2.287  1.00  0.00    -0.200 F 
ATOM     97  C   UNL     1     -14.857  18.663   3.216  1.00  0.00     0.200 A 
ATOM     98  F   UNL     1     -15.980  20.477   4.226  1.00  0.00    -0.200 F 
ATOM     99  F   UNL     1     -15.978  18.308   2.572  1.00  0.00    -0.200 F 
ENDBRANCH  66  89
ENDBRANCH  40  41
ENDBRANCH  32  35
ENDBRANCH  30  31
ENDBRANCH  29  30
ENDBRANCH   1  29
TORSDOF 14
