REMARK SMILES CCOc1cc(C(=O)NCCCNC(=O)c2ccc(-c3c4nc(c(-c5c(F)c(F)c(F)c(F)c5F)c5ccc([nH]5)c(-c5c(F)c(F)c(F)c(F)c5F)c5nc(c(-c6c(F)c(F)c(F)c(F)c6F)c6ccc3[nH]6)C=C5)C=C4)cc2)cc(I)c1OCC
REMARK SMILES IDX 11 1 10 2 9 3 7 4 8 5 6 7 4 8 5 9 82 10 80 11 79 12 81 13
REMARK SMILES IDX 3 14 2 15 1 16 83 17 84 18 85 19 12 20 13 21 14 22 15 24
REMARK SMILES IDX 16 25 17 26 78 27 18 28 77 29 19 30 20 31 21 32 71 33 22 34
REMARK SMILES IDX 76 35 70 36 72 37 23 38 75 39 69 40 68 41 24 43 56 44 36 45
REMARK SMILES IDX 55 46 37 47 40 48 54 49 73 50 38 51 39 52 53 54 74 55 41 56
REMARK SMILES IDX 25 57 26 58 34 59 27 60 28 61 32 62 35 63 29 64 30 65 33 66
REMARK SMILES IDX 31 67 57 68 58 69 66 70 59 71 60 72 64 73 67 74 61 75 62 76
REMARK SMILES IDX 65 77 63 78 42 79 43 80 51 81 44 82 45 83 49 84 52 85 46 86
REMARK SMILES IDX 47 87 50 88 48 89
REMARK H PARENT 9 6 13 23 72 42 40 53
REMARK Flexibility Score: inf
ROOT
ATOM      1  C   UNL     1       8.659  -1.032   1.960  1.00  0.00     0.042 C 
ENDROOT
BRANCH   1   2
ATOM      2  C   UNL     1       7.774   0.122   2.436  1.00  0.00     0.118 C 
BRANCH   2   3
ATOM      3  N   UNL     1       6.883   0.552   1.377  1.00  0.00    -0.352 N 
ATOM      4  C   UNL     1       5.596   0.221   1.051  1.00  0.00     0.251 C 
ATOM      5  O   UNL     1       5.114   0.765   0.057  1.00  0.00    -0.269 OA
ATOM      6  H   UNL     1       7.284   1.215   0.770  1.00  0.00     0.163 HD
BRANCH   4   7
ATOM      7  C   UNL     1       4.748  -0.716   1.840  1.00  0.00     0.044 A 
ATOM      8  C   UNL     1       2.489  -1.445   2.348  1.00  0.00     0.163 A 
ATOM      9  C   UNL     1       3.370  -0.581   1.692  1.00  0.00     0.064 A 
ATOM     10  C   UNL     1       2.947  -2.405   3.280  1.00  0.00     0.174 A 
ATOM     11  C   UNL     1       4.330  -2.459   3.506  1.00  0.00     0.060 A 
ATOM     12  C   UNL     1       5.210  -1.693   2.714  1.00  0.00     0.032 A 
ATOM     13  I   UNL     1       5.353  -3.412   5.106  1.00  0.00    -0.040 I 
BRANCH   8  14
ATOM     14  O   UNL     1       1.136  -1.253   2.170  1.00  0.00    -0.490 OA
BRANCH  14  15
ATOM     15  C   UNL     1       0.682  -1.555   0.842  1.00  0.00     0.226 C 
ATOM     16  C   UNL     1       0.616  -0.318  -0.044  1.00  0.00     0.049 C 
ENDBRANCH  14  15
ENDBRANCH   8  14
BRANCH  10  17
ATOM     17  O   UNL     1       1.938  -3.144   3.827  1.00  0.00    -0.489 OA
BRANCH  17  18
ATOM     18  C   UNL     1       2.143  -4.377   4.505  1.00  0.00     0.226 C 
ATOM     19  C   UNL     1       2.762  -5.477   3.653  1.00  0.00     0.049 C 
ENDBRANCH  17  18
ENDBRANCH  10  17
ENDBRANCH   4   7
ENDBRANCH   2   3
ENDBRANCH   1   2
BRANCH   1  20
ATOM     20  C   UNL     1       9.795  -0.564   1.053  1.00  0.00     0.118 C 
BRANCH  20  21
ATOM     21  N   UNL     1      10.769   0.232   1.788  1.00  0.00    -0.352 N 
ATOM     22  C   UNL     1      12.090  -0.015   2.057  1.00  0.00     0.251 C 
ATOM     23  H   UNL     1      10.424   1.081   2.148  1.00  0.00     0.163 HD
ATOM     24  O   UNL     1      12.665   0.630   2.926  1.00  0.00    -0.269 OA
BRANCH  22  25
ATOM     25  C   UNL     1      12.823  -1.056   1.309  1.00  0.00     0.039 A 
ATOM     26  C   UNL     1      13.713  -1.883   2.001  1.00  0.00     0.014 A 
ATOM     27  C   UNL     1      12.671  -1.190  -0.074  1.00  0.00     0.014 A 
ATOM     28  C   UNL     1      14.399  -2.888   1.318  1.00  0.00     0.010 A 
ATOM     29  C   UNL     1      13.308  -2.231  -0.744  1.00  0.00     0.010 A 
ATOM     30  C   UNL     1      14.170  -3.095  -0.052  1.00  0.00    -0.014 A 
BRANCH  30  31
ATOM     31  C   UNL     1      14.781  -4.242  -0.768  1.00  0.00     0.031 A 
ATOM     32  C   UNL     1      15.766  -4.012  -1.878  1.00  0.00     0.074 A 
ATOM     33  C   UNL     1      14.365  -5.489  -0.473  1.00  0.00     0.049 A 
ATOM     34  N   UNL     1      16.319  -4.883  -2.684  1.00  0.00    -0.248 NA
ATOM     35  C   UNL     1      16.166  -2.619  -2.133  1.00  0.00     0.031 C 
ATOM     36  C   UNL     1      13.372  -5.827   0.548  1.00  0.00     0.029 A 
ATOM     37  N   UNL     1      14.704  -6.702  -1.020  1.00  0.00    -0.354 N 
ATOM     38  C   UNL     1      17.114  -4.145  -3.550  1.00  0.00     0.074 A 
ATOM     39  C   UNL     1      16.948  -2.752  -3.196  1.00  0.00     0.031 C 
ATOM     40  C   UNL     1      13.183  -7.156   0.556  1.00  0.00     0.029 A 
ATOM     41  C   UNL     1      14.006  -7.758  -0.487  1.00  0.00     0.049 A 
ATOM     42  H   UNL     1      15.382  -6.804  -1.726  1.00  0.00     0.167 HD
ATOM     43  C   UNL     1      17.919  -4.596  -4.541  1.00  0.00     0.037 A 
ATOM     44  C   UNL     1      14.009  -9.063  -0.820  1.00  0.00     0.037 A 
ATOM     45  C   UNL     1      18.103  -5.987  -4.864  1.00  0.00     0.049 A 
ATOM     46  C   UNL     1      14.909  -9.532  -1.930  1.00  0.00     0.074 A 
ATOM     47  C   UNL     1      18.977  -6.552  -5.776  1.00  0.00     0.029 A 
ATOM     48  N   UNL     1      17.393  -7.032  -4.291  1.00  0.00    -0.354 N 
ATOM     49  N   UNL     1      15.731  -8.836  -2.677  1.00  0.00    -0.248 NA
ATOM     50  C   UNL     1      14.881 -10.967  -2.245  1.00  0.00     0.031 C 
ATOM     51  C   UNL     1      18.756  -7.932  -5.798  1.00  0.00     0.029 A 
ATOM     52  C   UNL     1      17.778  -8.234  -4.864  1.00  0.00     0.049 A 
ATOM     53  H   UNL     1      16.715  -6.934  -3.584  1.00  0.00     0.167 HD
ATOM     54  C   UNL     1      16.325  -9.745  -3.540  1.00  0.00     0.074 A 
ATOM     55  C   UNL     1      15.790 -11.049  -3.207  1.00  0.00     0.031 C 
ATOM     56  C   UNL     1      17.227  -9.521  -4.526  1.00  0.00     0.037 A 
BRANCH  43  57
ATOM     57  C   UNL     1      18.670  -3.586  -5.357  1.00  0.00     0.064 A 
ATOM     58  C   UNL     1      19.758  -2.875  -4.830  1.00  0.00     0.173 A 
ATOM     59  C   UNL     1      18.347  -3.386  -6.708  1.00  0.00     0.173 A 
ATOM     60  F   UNL     1      20.103  -3.025  -3.543  1.00  0.00    -0.203 F 
ATOM     61  C   UNL     1      20.486  -1.990  -5.622  1.00  0.00     0.198 A 
ATOM     62  C   UNL     1      19.093  -2.520  -7.503  1.00  0.00     0.198 A 
ATOM     63  F   UNL     1      17.319  -4.046  -7.263  1.00  0.00    -0.203 F 
ATOM     64  F   UNL     1      21.504  -1.299  -5.090  1.00  0.00    -0.200 F 
ATOM     65  C   UNL     1      20.159  -1.821  -6.960  1.00  0.00     0.200 A 
ATOM     66  F   UNL     1      18.784  -2.368  -8.799  1.00  0.00    -0.200 F 
ATOM     67  F   UNL     1      20.872  -0.982  -7.724  1.00  0.00    -0.200 F 
ENDBRANCH  43  57
BRANCH  44  68
ATOM     68  C   UNL     1      13.119 -10.015  -0.105  1.00  0.00     0.064 A 
ATOM     69  C   UNL     1      13.645 -11.005   0.735  1.00  0.00     0.173 A 
ATOM     70  C   UNL     1      11.725  -9.962  -0.259  1.00  0.00     0.173 A 
ATOM     71  F   UNL     1      14.972 -11.109   0.897  1.00  0.00    -0.203 F 
ATOM     72  C   UNL     1      12.813 -11.922   1.375  1.00  0.00     0.198 A 
ATOM     73  C   UNL     1      10.893 -10.859   0.406  1.00  0.00     0.198 A 
ATOM     74  F   UNL     1      11.170  -9.029  -1.047  1.00  0.00    -0.203 F 
ATOM     75  F   UNL     1      13.346 -12.891   2.132  1.00  0.00    -0.200 F 
ATOM     76  C   UNL     1      11.438 -11.845   1.215  1.00  0.00     0.200 A 
ATOM     77  F   UNL     1       9.564 -10.771   0.262  1.00  0.00    -0.200 F 
ATOM     78  F   UNL     1      10.639 -12.726   1.832  1.00  0.00    -0.200 F 
ENDBRANCH  44  68
BRANCH  56  79
ATOM     79  C   UNL     1      17.691 -10.709  -5.315  1.00  0.00     0.064 A 
ATOM     80  C   UNL     1      16.852 -11.337  -6.247  1.00  0.00     0.173 A 
ATOM     81  C   UNL     1      18.999 -11.196  -5.173  1.00  0.00     0.173 A 
ATOM     82  F   UNL     1      15.587 -10.919  -6.406  1.00  0.00    -0.203 F 
ATOM     83  C   UNL     1      17.301 -12.421  -6.996  1.00  0.00     0.198 A 
ATOM     84  C   UNL     1      19.453 -12.261  -5.944  1.00  0.00     0.198 A 
ATOM     85  F   UNL     1      19.841 -10.627  -4.297  1.00  0.00    -0.203 F 
ATOM     86  F   UNL     1      16.469 -13.032  -7.851  1.00  0.00    -0.200 F 
ATOM     87  C   UNL     1      18.603 -12.876  -6.851  1.00  0.00     0.200 A 
ATOM     88  F   UNL     1      20.715 -12.691  -5.812  1.00  0.00    -0.200 F 
ATOM     89  F   UNL     1      19.036 -13.913  -7.580  1.00  0.00    -0.200 F 
ENDBRANCH  56  79
ENDBRANCH  30  31
ENDBRANCH  22  25
ENDBRANCH  20  21
ENDBRANCH   1  20
TORSDOF 14
