REMARK SMILES O=C(NCCCNC(=O)c1ccc(-c2c3nc(c(-c4c(F)c(F)c(F)c(F)c4F)c4ccc([nH]4)c(-c4c(F)c(F)c(F)c(F)c4F)c4nc(c(-c5c(F)c(F)c(F)c(F)c5F)c5ccc2[nH]5)C=C4)C=C3)cc1)C1=Cc2cc(S(F)(F)(F)(F)F)cc(Br)c2O[C@@H]1C(F)(F)F
REMARK SMILES IDX 5 1 4 2 3 3 1 4 2 5 73 7 74 8 89 9 75 10 88 11 76 12 87 13
REMARK SMILES IDX 77 14 85 15 84 16 86 17 90 18 91 19 92 20 93 21 78 22 79 23
REMARK SMILES IDX 80 24 81 25 82 26 83 27 6 28 7 29 8 30 9 32 10 33 11 34
REMARK SMILES IDX 72 35 12 36 71 37 13 38 14 39 15 40 65 41 16 42 70 43 64 44
REMARK SMILES IDX 66 45 17 46 69 47 63 48 62 49 18 51 50 52 30 53 49 54 31 55
REMARK SMILES IDX 34 56 48 57 67 58 32 59 33 60 47 62 68 63 35 64 19 65 20 66
REMARK SMILES IDX 28 67 21 68 22 69 26 70 29 71 23 72 24 73 27 74 25 75 51 76
REMARK SMILES IDX 52 77 60 78 53 79 54 80 58 81 61 82 55 83 56 84 59 85 57 86
REMARK SMILES IDX 36 87 37 88 45 89 38 90 39 91 43 92 46 93 40 94 41 95 44 96
REMARK SMILES IDX 42 97
REMARK H PARENT 3 6 7 31 66 50 34 61
REMARK Flexibility Score: inf
ROOT
ATOM      1  C   UNL     1       5.008  -0.454  -2.397  1.00  0.00     0.042 C 
ENDROOT
BRANCH   1   2
ATOM      2  C   UNL     1       4.502   0.433  -1.272  1.00  0.00     0.118 C 
BRANCH   2   3
ATOM      3  N   UNL     1       3.032   0.433  -1.272  1.00  0.00    -0.352 N 
ATOM      4  O   UNL     1       1.026  -0.038  -0.089  1.00  0.00    -0.270 OA
ATOM      5  C   UNL     1       2.297  -0.038  -0.089  1.00  0.00     0.251 C 
ATOM      6  H   UNL     1       2.539   0.749  -2.063  1.00  0.00     0.163 HD
BRANCH   5   7
ATOM      7  C   UNL     1       3.057  -0.525   1.134  1.00  0.00     0.067 C 
ATOM      8  C   UNL     1       4.417  -0.525   1.134  1.00  0.00     0.025 C 
ATOM      9  C   UNL     1       2.297  -1.012   2.357  1.00  0.00     0.314 C 
ATOM     10  C   UNL     1       5.177  -0.038  -0.089  1.00  0.00     0.020 A 
ATOM     11  O   UNL     1       3.610   1.746  -0.190  1.00  0.00    -0.474 OA
ATOM     12  C   UNL     1       6.211  -0.790  -0.622  1.00  0.00     0.036 A 
ATOM     13  C   UNL     1       4.772   1.085  -0.669  1.00  0.00     0.142 A 
ATOM     14  C   UNL     1       6.952  -0.117  -1.622  1.00  0.00     0.109 A 
ATOM     15  C   UNL     1       5.467   1.615  -1.730  1.00  0.00     0.062 A 
ATOM     16  C   UNL     1       6.535   0.954  -2.271  1.00  0.00     0.044 A 
ATOM     17  Br  UNL     1       4.919   3.342  -2.478  1.00  0.00    -0.047 Br
BRANCH   9  18
ATOM     18  C   UNL     1       2.664  -0.154   3.557  1.00  0.00     0.429 C 
ATOM     19  F   UNL     1       2.343   1.113   3.311  1.00  0.00    -0.167 F 
ATOM     20  F   UNL     1       1.999  -0.581   4.627  1.00  0.00    -0.167 F 
ATOM     21  F   UNL     1       3.972  -0.244   3.783  1.00  0.00    -0.167 F 
ENDBRANCH   9  18
BRANCH  14  22
ATOM     22  S   UNL     1       8.587  -0.772  -2.041  1.00  0.00     0.310 S 
ATOM     23  F   UNL     1       9.043  -0.799  -0.522  1.00  0.00    -0.094 F 
ATOM     24  F   UNL     1       9.141   0.702  -2.110  1.00  0.00    -0.094 F 
ATOM     25  F   UNL     1       9.986  -1.344  -2.407  1.00  0.00    -0.094 F 
ATOM     26  F   UNL     1       8.050  -2.242  -1.830  1.00  0.00    -0.094 F 
ATOM     27  F   UNL     1       7.192  -0.208  -1.558  1.00  0.00    -0.094 F 
ENDBRANCH  14  22
ENDBRANCH   5   7
ENDBRANCH   2   3
ENDBRANCH   1   2
BRANCH   1  28
ATOM     28  C   UNL     1       4.502   0.076  -3.728  1.00  0.00     0.118 C 
BRANCH  28  29
ATOM     29  N   UNL     1       4.992   1.448  -3.927  1.00  0.00    -0.352 N 
ATOM     30  C   UNL     1       5.837   1.765  -5.088  1.00  0.00     0.251 C 
ATOM     31  H   UNL     1       4.754   2.154  -3.284  1.00  0.00     0.163 HD
ATOM     32  O   UNL     1       6.261   2.950  -5.260  1.00  0.00    -0.269 OA
BRANCH  30  33
ATOM     33  C   UNL     1       6.204   0.674  -6.081  1.00  0.00     0.039 A 
ATOM     34  C   UNL     1       7.559   0.570  -6.350  1.00  0.00     0.014 A 
ATOM     35  C   UNL     1       5.336  -0.206  -6.565  1.00  0.00     0.014 A 
ATOM     36  C   UNL     1       7.869  -0.343  -7.386  1.00  0.00     0.010 A 
ATOM     37  C   UNL     1       5.736  -1.157  -7.472  1.00  0.00     0.010 A 
ATOM     38  C   UNL     1       7.050  -1.279  -7.829  1.00  0.00    -0.014 A 
BRANCH  38  39
ATOM     39  C   UNL     1       7.542  -2.432  -8.689  1.00  0.00     0.031 A 
ATOM     40  C   UNL     1       7.043  -2.641  -9.976  1.00  0.00     0.074 A 
ATOM     41  C   UNL     1       8.383  -3.315  -8.031  1.00  0.00     0.049 A 
ATOM     42  N   UNL     1       7.298  -3.666 -10.790  1.00  0.00    -0.248 NA
ATOM     43  C   UNL     1       6.124  -1.722 -10.662  1.00  0.00     0.031 C 
ATOM     44  C   UNL     1       8.897  -3.107  -6.737  1.00  0.00     0.029 A 
ATOM     45  N   UNL     1       8.865  -4.521  -8.488  1.00  0.00    -0.354 N 
ATOM     46  C   UNL     1       6.653  -3.506 -11.948  1.00  0.00     0.074 A 
ATOM     47  C   UNL     1       5.884  -2.256 -11.880  1.00  0.00     0.031 C 
ATOM     48  C   UNL     1       9.668  -4.178  -6.413  1.00  0.00     0.029 A 
ATOM     49  C   UNL     1       9.650  -5.073  -7.500  1.00  0.00     0.049 A 
ATOM     50  H   UNL     1       8.680  -4.921  -9.368  1.00  0.00     0.167 HD
ATOM     51  C   UNL     1       6.678  -4.352 -13.058  1.00  0.00     0.037 A 
ATOM     52  C   UNL     1      10.318  -6.286  -7.525  1.00  0.00     0.037 A 
ATOM     53  C   UNL     1       7.382  -5.545 -13.099  1.00  0.00     0.049 A 
ATOM     54  C   UNL     1      10.296  -7.161  -8.614  1.00  0.00     0.074 A 
ATOM     55  C   UNL     1       7.423  -6.406 -14.213  1.00  0.00     0.029 A 
ATOM     56  N   UNL     1       8.147  -6.108 -12.101  1.00  0.00    -0.354 N 
ATOM     57  N   UNL     1       9.683  -6.982  -9.785  1.00  0.00    -0.248 NA
ATOM     58  C   UNL     1      10.974  -8.464  -8.639  1.00  0.00     0.031 C 
ATOM     59  C   UNL     1       8.195  -7.478 -13.888  1.00  0.00     0.029 A 
ATOM     60  C   UNL     1       8.647  -7.304 -12.566  1.00  0.00     0.049 A 
ATOM     61  H   UNL     1       8.308  -5.722 -11.210  1.00  0.00     0.167 HD
ATOM     62  C   UNL     1       9.905  -8.028 -10.584  1.00  0.00     0.074 A 
ATOM     63  C   UNL     1      10.732  -8.999  -9.856  1.00  0.00     0.031 C 
ATOM     64  C   UNL     1       9.453  -8.209 -11.893  1.00  0.00     0.037 A 
BRANCH  51  65
ATOM     65  C   UNL     1       5.889  -3.942 -14.290  1.00  0.00     0.064 A 
ATOM     66  C   UNL     1       6.248  -2.775 -14.944  1.00  0.00     0.173 A 
ATOM     67  C   UNL     1       4.917  -4.719 -14.753  1.00  0.00     0.173 A 
ATOM     68  F   UNL     1       7.364  -2.105 -14.671  1.00  0.00    -0.203 F 
ATOM     69  C   UNL     1       5.321  -2.361 -15.930  1.00  0.00     0.198 A 
ATOM     70  C   UNL     1       4.136  -4.310 -15.807  1.00  0.00     0.198 A 
ATOM     71  F   UNL     1       4.696  -5.904 -14.190  1.00  0.00    -0.203 F 
ATOM     72  F   UNL     1       5.385  -1.100 -16.348  1.00  0.00    -0.200 F 
ATOM     73  C   UNL     1       4.398  -3.140 -16.463  1.00  0.00     0.200 A 
ATOM     74  F   UNL     1       3.112  -5.064 -16.195  1.00  0.00    -0.200 F 
ATOM     75  F   UNL     1       3.757  -2.803 -17.579  1.00  0.00    -0.200 F 
ENDBRANCH  51  65
BRANCH  52  76
ATOM     76  C   UNL     1      11.121  -6.689  -6.298  1.00  0.00     0.064 A 
ATOM     77  C   UNL     1      12.471  -6.963  -6.444  1.00  0.00     0.173 A 
ATOM     78  C   UNL     1      10.513  -6.824  -5.126  1.00  0.00     0.173 A 
ATOM     79  F   UNL     1      13.172  -6.606  -7.516  1.00  0.00    -0.203 F 
ATOM     80  C   UNL     1      13.035  -7.658  -5.348  1.00  0.00     0.198 A 
ATOM     81  C   UNL     1      11.169  -7.388  -4.058  1.00  0.00     0.198 A 
ATOM     82  F   UNL     1       9.257  -6.410  -4.983  1.00  0.00    -0.203 F 
ATOM     83  F   UNL     1      14.199  -8.273  -5.539  1.00  0.00    -0.200 F 
ATOM     84  C   UNL     1      12.488  -7.738  -4.149  1.00  0.00     0.200 A 
ATOM     85  F   UNL     1      10.512  -7.596  -2.920  1.00  0.00    -0.200 F 
ATOM     86  F   UNL     1      13.181  -8.138  -3.087  1.00  0.00    -0.200 F 
ENDBRANCH  52  76
BRANCH  64  87
ATOM     87  C   UNL     1       9.870  -9.475 -12.623  1.00  0.00     0.064 A 
ATOM     88  C   UNL     1       9.372 -10.644 -12.073  1.00  0.00     0.173 A 
ATOM     89  C   UNL     1      10.568  -9.488 -13.753  1.00  0.00     0.173 A 
ATOM     90  F   UNL     1       8.467 -10.659 -11.098  1.00  0.00    -0.203 F 
ATOM     91  C   UNL     1       9.913 -11.821 -12.642  1.00  0.00     0.198 A 
ATOM     92  C   UNL     1      10.947 -10.677 -14.327  1.00  0.00     0.198 A 
ATOM     93  F   UNL     1      10.903  -8.339 -14.333  1.00  0.00    -0.203 F 
ATOM     94  F   UNL     1       9.780 -12.956 -11.960  1.00  0.00    -0.200 F 
ATOM     95  C   UNL     1      10.540 -11.872 -13.803  1.00  0.00     0.200 A 
ATOM     96  F   UNL     1      11.721 -10.665 -15.409  1.00  0.00    -0.200 F 
ATOM     97  F   UNL     1      10.763 -13.024 -14.429  1.00  0.00    -0.200 F 
ENDBRANCH  64  87
ENDBRANCH  38  39
ENDBRANCH  30  33
ENDBRANCH  28  29
ENDBRANCH   1  28
TORSDOF 12
