REMARK SMILES CC(C)[NH2+]CC[C@H](c1ccccc1)c1cc(C(=O)NCCCNC(=O)c2ccc(-c3c4nc(c(-c5c(F)c(F)c(F)c(F)c5F)c5ccc([nH]5)c(-c5c(F)c(F)c(F)c(F)c5F)c5nc(c(-c6c(F)c(F)c(F)c(F)c6F)c6ccc3[nH]6)C=C5)C=C4)cc2)ccc1O
REMARK SMILES IDX 17 1 18 2 19 3 16 5 14 6 15 7 91 8 90 9 89 10 7 11 6 12 5 13
REMARK SMILES IDX 4 14 2 17 1 18 3 19 8 20 9 21 13 22 10 23 12 24 11 25 92 26
REMARK SMILES IDX 20 28 21 29 22 30 23 31 24 32 25 34 26 35 27 36 88 37 28 38
REMARK SMILES IDX 87 39 29 40 30 41 31 42 81 43 32 44 86 45 80 46 82 47 33 48
REMARK SMILES IDX 85 49 79 50 78 51 34 53 66 54 46 55 65 56 47 57 50 58 64 59
REMARK SMILES IDX 83 60 48 61 49 62 63 64 84 65 51 66 35 67 36 68 44 69 37 70
REMARK SMILES IDX 38 71 42 72 45 73 39 74 40 75 43 76 41 77 67 78 68 79 76 80
REMARK SMILES IDX 69 81 70 82 74 83 77 84 71 85 72 86 75 87 73 88 52 89 53 90
REMARK SMILES IDX 61 91 54 92 55 93 59 94 62 95 56 96 57 97 60 98 58 99
REMARK H PARENT 19 4 4 15 4 16 92 27 23 33 82 52 50 63
REMARK Flexibility Score: inf
ROOT
ATOM      1  C   UNL     1       1.397   6.786   4.206  1.00  0.00     0.251 C 
ATOM      2  O   UNL     1       2.038   5.925   4.807  1.00  0.00    -0.269 OA
ATOM      3  N   UNL     1       1.408   8.073   4.672  1.00  0.00    -0.352 N 
ATOM      4  H   UNL     1       2.028   8.239   5.419  1.00  0.00     0.163 HD
ENDROOT
BRANCH   1   5
ATOM      5  C   UNL     1       0.600   6.426   3.014  1.00  0.00     0.040 A 
ATOM      6  C   UNL     1      -0.873   4.780   1.927  1.00  0.00     0.002 A 
ATOM      7  C   UNL     1      -0.096   5.207   3.023  1.00  0.00     0.022 A 
ATOM      8  C   UNL     1      -0.909   5.662   0.835  1.00  0.00     0.119 A 
ATOM      9  C   UNL     1      -0.221   6.877   0.809  1.00  0.00     0.047 A 
ATOM     10  C   UNL     1       0.574   7.236   1.882  1.00  0.00     0.017 A 
BRANCH   6  11
ATOM     11  C   UNL     1      -1.531   3.384   1.885  1.00  0.00     0.059 C 
BRANCH  11  12
ATOM     12  C   UNL     1      -3.085   3.298   1.983  1.00  0.00     0.074 C 
BRANCH  12  13
ATOM     13  C   UNL     1      -3.982   3.913   0.896  1.00  0.00     0.261 C 
BRANCH  13  14
ATOM     14  N   UNL     1      -3.570   3.822  -0.492  1.00  0.00    -0.344 N 
ATOM     15  H   UNL     1      -3.983   4.621  -0.974  1.00  0.00     0.346 HD
ATOM     16  H   UNL     1      -2.553   3.782  -0.430  1.00  0.00     0.346 HD
BRANCH  14  17
ATOM     17  C   UNL     1      -3.900   2.644  -1.279  1.00  0.00     0.176 C 
ATOM     18  C   UNL     1      -3.381   2.935  -2.696  1.00  0.00     0.075 C 
ATOM     19  C   UNL     1      -3.270   1.352  -0.770  1.00  0.00     0.075 C 
ENDBRANCH  14  17
ENDBRANCH  13  14
ENDBRANCH  12  13
ENDBRANCH  11  12
BRANCH  11  20
ATOM     20  C   UNL     1      -0.945   2.411   2.938  1.00  0.00    -0.040 A 
ATOM     21  C   UNL     1      -1.310   2.486   4.299  1.00  0.00     0.004 A 
ATOM     22  C   UNL     1       0.026   1.469   2.565  1.00  0.00     0.004 A 
ATOM     23  C   UNL     1      -0.684   1.689   5.258  1.00  0.00     0.000 A 
ATOM     24  C   UNL     1       0.634   0.655   3.525  1.00  0.00     0.000 A 
ATOM     25  C   UNL     1       0.291   0.776   4.871  1.00  0.00     0.000 A 
ENDBRANCH  11  20
ENDBRANCH   6  11
BRANCH   8  26
ATOM     26  O   UNL     1      -1.542   5.330  -0.319  1.00  0.00    -0.508 OA
ATOM     27  H   UNL     1      -2.023   4.528  -0.375  1.00  0.00     0.293 HD
ENDBRANCH   8  26
ENDBRANCH   1   5
BRANCH   3  28
ATOM     28  C   UNL     1       0.649   9.231   4.235  1.00  0.00     0.118 C 
BRANCH  28  29
ATOM     29  C   UNL     1      -0.153   9.868   5.353  1.00  0.00     0.042 C 
BRANCH  29  30
ATOM     30  C   UNL     1       0.686  10.324   6.532  1.00  0.00     0.118 C 
BRANCH  30  31
ATOM     31  N   UNL     1       1.703  11.301   6.161  1.00  0.00    -0.352 N 
ATOM     32  C   UNL     1       1.780  12.649   6.398  1.00  0.00     0.251 C 
ATOM     33  H   UNL     1       2.462  10.930   5.655  1.00  0.00     0.163 HD
ATOM     34  O   UNL     1       2.629  13.322   5.811  1.00  0.00    -0.269 OA
BRANCH  32  35
ATOM     35  C   UNL     1       0.837  13.308   7.325  1.00  0.00     0.039 A 
ATOM     36  C   UNL     1       0.361  14.586   7.018  1.00  0.00     0.014 A 
ATOM     37  C   UNL     1       0.424  12.680   8.500  1.00  0.00     0.014 A 
ATOM     38  C   UNL     1      -0.583  15.191   7.849  1.00  0.00     0.010 A 
ATOM     39  C   UNL     1      -0.608  13.223   9.253  1.00  0.00     0.010 A 
ATOM     40  C   UNL     1      -1.111  14.494   8.949  1.00  0.00    -0.014 A 
BRANCH  40  41
ATOM     41  C   UNL     1      -2.174  15.084   9.801  1.00  0.00     0.031 A 
ATOM     42  C   UNL     1      -1.931  15.299  11.271  1.00  0.00     0.074 A 
ATOM     43  C   UNL     1      -3.377  15.365   9.264  1.00  0.00     0.049 A 
ATOM     44  N   UNL     1      -2.749  15.753  12.188  1.00  0.00    -0.248 NA
ATOM     45  C   UNL     1      -0.607  14.920  11.790  1.00  0.00     0.031 C 
ATOM     46  C   UNL     1      -3.756  15.135   7.869  1.00  0.00     0.029 A 
ATOM     47  N   UNL     1      -4.506  15.902   9.829  1.00  0.00    -0.354 N 
ATOM     48  C   UNL     1      -2.044  15.697  13.384  1.00  0.00     0.074 A 
ATOM     49  C   UNL     1      -0.761  15.099  13.092  1.00  0.00     0.031 C 
ATOM     50  C   UNL     1      -5.013  15.565   7.677  1.00  0.00     0.029 A 
ATOM     51  C   UNL     1      -5.543  16.061   8.943  1.00  0.00     0.049 A 
ATOM     52  H   UNL     1      -4.567  16.150  10.780  1.00  0.00     0.167 HD
ATOM     53  C   UNL     1      -2.419  16.135  14.609  1.00  0.00     0.037 A 
ATOM     54  C   UNL     1      -6.782  16.552   9.132  1.00  0.00     0.037 A 
ATOM     55  C   UNL     1      -3.686  16.759  14.886  1.00  0.00     0.049 A 
ATOM     56  C   UNL     1      -7.171  17.042  10.500  1.00  0.00     0.074 A 
ATOM     57  C   UNL     1      -4.140  17.299  16.076  1.00  0.00     0.029 A 
ATOM     58  N   UNL     1      -4.704  16.922  13.958  1.00  0.00    -0.354 N 
ATOM     59  N   UNL     1      -6.466  17.058  11.606  1.00  0.00    -0.248 NA
ATOM     60  C   UNL     1      -8.526  17.591  10.644  1.00  0.00     0.031 C 
ATOM     61  C   UNL     1      -5.452  17.742  15.881  1.00  0.00     0.029 A 
ATOM     62  C   UNL     1      -5.795  17.533  14.555  1.00  0.00     0.049 A 
ATOM     63  H   UNL     1      -4.658  16.645  13.014  1.00  0.00     0.167 HD
ATOM     64  C   UNL     1      -7.279  17.641  12.568  1.00  0.00     0.074 A 
ATOM     65  C   UNL     1      -8.522  17.986  11.909  1.00  0.00     0.031 C 
ATOM     66  C   UNL     1      -7.024  17.868  13.881  1.00  0.00     0.037 A 
BRANCH  53  67
ATOM     67  C   UNL     1      -1.442  15.964  15.738  1.00  0.00     0.064 A 
ATOM     68  C   UNL     1      -0.238  16.685  15.789  1.00  0.00     0.173 A 
ATOM     69  C   UNL     1      -1.724  15.089  16.798  1.00  0.00     0.173 A 
ATOM     70  F   UNL     1       0.088  17.525  14.795  1.00  0.00    -0.203 F 
ATOM     71  C   UNL     1       0.660  16.511  16.838  1.00  0.00     0.198 A 
ATOM     72  C   UNL     1      -0.840  14.944  17.864  1.00  0.00     0.198 A 
ATOM     73  F   UNL     1      -2.861  14.377  16.804  1.00  0.00    -0.203 F 
ATOM     74  F   UNL     1       1.828  17.168  16.834  1.00  0.00    -0.200 F 
ATOM     75  C   UNL     1       0.355  15.647  17.879  1.00  0.00     0.200 A 
ATOM     76  F   UNL     1      -1.142  14.118  18.876  1.00  0.00    -0.200 F 
ATOM     77  F   UNL     1       1.217  15.487  18.893  1.00  0.00    -0.200 F 
ENDBRANCH  53  67
BRANCH  54  78
ATOM     78  C   UNL     1      -7.732  16.636   7.991  1.00  0.00     0.064 A 
ATOM     79  C   UNL     1      -8.122  17.878   7.468  1.00  0.00     0.173 A 
ATOM     80  C   UNL     1      -8.273  15.483   7.402  1.00  0.00     0.173 A 
ATOM     81  F   UNL     1      -7.647  19.010   8.008  1.00  0.00    -0.203 F 
ATOM     82  C   UNL     1      -9.035  17.964   6.419  1.00  0.00     0.198 A 
ATOM     83  C   UNL     1      -9.161  15.570   6.332  1.00  0.00     0.198 A 
ATOM     84  F   UNL     1      -7.926  14.271   7.858  1.00  0.00    -0.203 F 
ATOM     85  F   UNL     1      -9.428  19.165   5.974  1.00  0.00    -0.200 F 
ATOM     86  C   UNL     1      -9.549  16.810   5.848  1.00  0.00     0.200 A 
ATOM     87  F   UNL     1      -9.641  14.452   5.771  1.00  0.00    -0.200 F 
ATOM     88  F   UNL     1     -10.423  16.893   4.836  1.00  0.00    -0.200 F 
ENDBRANCH  54  78
BRANCH  66  89
ATOM     89  C   UNL     1      -8.100  18.547  14.679  1.00  0.00     0.064 A 
ATOM     90  C   UNL     1      -9.303  17.898  14.997  1.00  0.00     0.173 A 
ATOM     91  C   UNL     1      -7.915  19.856  15.150  1.00  0.00     0.173 A 
ATOM     92  F   UNL     1      -9.534  16.651  14.559  1.00  0.00    -0.203 F 
ATOM     93  C   UNL     1     -10.296  18.549  15.723  1.00  0.00     0.198 A 
ATOM     94  C   UNL     1      -8.896  20.490  15.907  1.00  0.00     0.198 A 
ATOM     95  F   UNL     1      -6.779  20.518  14.882  1.00  0.00    -0.203 F 
ATOM     96  F   UNL     1     -11.462  17.932  15.961  1.00  0.00    -0.200 F 
ATOM     97  C   UNL     1     -10.089  19.841  16.183  1.00  0.00     0.200 A 
ATOM     98  F   UNL     1      -8.687  21.732  16.364  1.00  0.00    -0.200 F 
ATOM     99  F   UNL     1     -11.046  20.465  16.884  1.00  0.00    -0.200 F 
ENDBRANCH  66  89
ENDBRANCH  40  41
ENDBRANCH  32  35
ENDBRANCH  30  31
ENDBRANCH  29  30
ENDBRANCH  28  29
ENDBRANCH   3  28
TORSDOF 17
