REMARK SMILES O=C(NCCCNC(=O)[C@H]1CCCN(c2cc(-c3ccccn3)nc(-c3ccccc3F)n2)C1)c1ccc(-c2c3nc(c(-c4c(F)c(F)c(F)c(F)c4F)c4ccc([nH]4)c(-c4c(F)c(F)c(F)c(F)c4F)c4nc(c(-c5c(F)c(F)c(F)c(F)c5F)c5ccc2[nH]5)C=C4)C=C3)cc1
REMARK SMILES IDX 5 1 4 2 3 3 1 4 2 5 35 7 36 8 97 9 37 10 96 11 38 12 39 13
REMARK SMILES IDX 40 14 90 15 41 16 95 17 89 18 91 19 42 20 94 21 88 22 87 23
REMARK SMILES IDX 43 25 75 26 55 27 74 28 56 29 59 30 73 31 92 32 57 33 58 34
REMARK SMILES IDX 72 36 93 37 60 38 44 39 45 40 53 41 46 42 47 43 51 44 54 45
REMARK SMILES IDX 48 46 49 47 52 48 50 49 76 50 77 51 85 52 78 53 79 54 83 55
REMARK SMILES IDX 86 56 80 57 81 58 84 59 82 60 61 61 62 62 70 63 63 64 64 65
REMARK SMILES IDX 68 66 71 67 65 68 66 69 69 70 67 71 6 72 7 73 8 74 9 76
REMARK SMILES IDX 10 77 11 78 34 79 12 80 14 81 13 82 15 83 16 84 33 85 17 86
REMARK SMILES IDX 25 87 24 88 18 89 19 90 23 91 20 92 22 93 21 94 26 95 27 96
REMARK SMILES IDX 31 97 28 98 30 99 32 100 29 101
REMARK H PARENT 3 6 91 24 59 35 7 75
REMARK Flexibility Score: inf
ROOT
ATOM      1  C   UNL     1       4.435  -2.009  -1.605  1.00  0.00     0.042 C 
ENDROOT
BRANCH   1   2
ATOM      2  C   UNL     1       4.276  -0.563  -1.163  1.00  0.00     0.118 C 
BRANCH   2   3
ATOM      3  N   UNL     1       2.876  -0.181  -1.027  1.00  0.00    -0.352 N 
ATOM      4  O   UNL     1       0.969   0.326   0.064  1.00  0.00    -0.269 OA
ATOM      5  C   UNL     1       2.195   0.254   0.081  1.00  0.00     0.251 C 
ATOM      6  H   UNL     1       2.341  -0.246  -1.851  1.00  0.00     0.163 HD
BRANCH   5   7
ATOM      7  C   UNL     1       2.939   0.626   1.300  1.00  0.00     0.039 A 
ATOM      8  C   UNL     1       4.120   1.366   1.209  1.00  0.00     0.014 A 
ATOM      9  C   UNL     1       2.444   0.243   2.549  1.00  0.00     0.014 A 
ATOM     10  C   UNL     1       4.882   1.588   2.346  1.00  0.00     0.010 A 
ATOM     11  C   UNL     1       3.161   0.559   3.705  1.00  0.00     0.010 A 
ATOM     12  C   UNL     1       4.401   1.208   3.610  1.00  0.00    -0.014 A 
BRANCH  12  13
ATOM     13  C   UNL     1       5.189   1.567   4.814  1.00  0.00     0.031 A 
ATOM     14  C   UNL     1       5.786   0.511   5.698  1.00  0.00     0.074 A 
ATOM     15  C   UNL     1       5.402   2.871   5.073  1.00  0.00     0.049 A 
ATOM     16  N   UNL     1       6.532   0.657   6.765  1.00  0.00    -0.248 NA
ATOM     17  C   UNL     1       5.508  -0.890   5.349  1.00  0.00     0.031 C 
ATOM     18  C   UNL     1       4.867   3.980   4.281  1.00  0.00     0.029 A 
ATOM     19  N   UNL     1       6.146   3.487   6.045  1.00  0.00    -0.354 N 
ATOM     20  C   UNL     1       6.803  -0.626   7.219  1.00  0.00     0.074 A 
ATOM     21  C   UNL     1       6.113  -1.540   6.334  1.00  0.00     0.031 C 
ATOM     22  C   UNL     1       5.354   5.135   4.754  1.00  0.00     0.029 A 
ATOM     23  C   UNL     1       6.176   4.854   5.925  1.00  0.00     0.049 A 
ATOM     24  H   UNL     1       6.614   2.997   6.760  1.00  0.00     0.167 HD
ATOM     25  C   UNL     1       7.569  -1.001   8.271  1.00  0.00     0.037 A 
ATOM     26  C   UNL     1       6.790   5.785   6.679  1.00  0.00     0.037 A 
ATOM     27  C   UNL     1       8.257  -0.081   9.141  1.00  0.00     0.049 A 
ATOM     28  C   UNL     1       7.602   5.343   7.860  1.00  0.00     0.074 A 
ATOM     29  C   UNL     1       9.065  -0.363  10.228  1.00  0.00     0.029 A 
ATOM     30  N   UNL     1       8.218   1.302   9.021  1.00  0.00    -0.354 N 
ATOM     31  N   UNL     1       7.854   4.127   8.277  1.00  0.00    -0.248 NA
ATOM     32  C   UNL     1       8.206   6.400   8.680  1.00  0.00     0.031 C 
ATOM     33  C   UNL     1       9.476   0.848  10.795  1.00  0.00     0.029 A 
ATOM     34  C   UNL     1       8.972   1.886  10.028  1.00  0.00     0.049 A 
ATOM     35  H   UNL     1       7.727   1.795   8.325  1.00  0.00     0.167 HD
ATOM     36  C   UNL     1       8.654   4.268   9.400  1.00  0.00     0.074 A 
ATOM     37  C   UNL     1       8.862   5.690   9.588  1.00  0.00     0.031 C 
ATOM     38  C   UNL     1       9.166   3.304  10.204  1.00  0.00     0.037 A 
BRANCH  25  39
ATOM     39  C   UNL     1       7.699  -2.471   8.552  1.00  0.00     0.064 A 
ATOM     40  C   UNL     1       7.127  -3.030   9.705  1.00  0.00     0.173 A 
ATOM     41  C   UNL     1       8.442  -3.317   7.715  1.00  0.00     0.173 A 
ATOM     42  F   UNL     1       6.413  -2.265  10.545  1.00  0.00    -0.203 F 
ATOM     43  C   UNL     1       7.301  -4.377  10.013  1.00  0.00     0.198 A 
ATOM     44  C   UNL     1       8.591  -4.670   8.011  1.00  0.00     0.198 A 
ATOM     45  F   UNL     1       9.003  -2.836   6.595  1.00  0.00    -0.203 F 
ATOM     46  F   UNL     1       6.771  -4.881  11.136  1.00  0.00    -0.200 F 
ATOM     47  C   UNL     1       8.028  -5.197   9.164  1.00  0.00     0.200 A 
ATOM     48  F   UNL     1       9.274  -5.466   7.176  1.00  0.00    -0.200 F 
ATOM     49  F   UNL     1       8.185  -6.496   9.455  1.00  0.00    -0.200 F 
ENDBRANCH  25  39
BRANCH  26  50
ATOM     50  C   UNL     1       6.662   7.216   6.307  1.00  0.00     0.064 A 
ATOM     51  C   UNL     1       5.434   7.888   6.407  1.00  0.00     0.173 A 
ATOM     52  C   UNL     1       7.751   7.919   5.775  1.00  0.00     0.173 A 
ATOM     53  F   UNL     1       4.361   7.254   6.901  1.00  0.00    -0.203 F 
ATOM     54  C   UNL     1       5.292   9.198   5.956  1.00  0.00     0.198 A 
ATOM     55  C   UNL     1       7.614   9.239   5.351  1.00  0.00     0.198 A 
ATOM     56  F   UNL     1       8.948   7.324   5.675  1.00  0.00    -0.203 F 
ATOM     57  F   UNL     1       4.096   9.798   6.014  1.00  0.00    -0.200 F 
ATOM     58  C   UNL     1       6.383   9.873   5.430  1.00  0.00     0.200 A 
ATOM     59  F   UNL     1       8.675   9.896   4.861  1.00  0.00    -0.200 F 
ATOM     60  F   UNL     1       6.247  11.134   4.997  1.00  0.00    -0.200 F 
ENDBRANCH  26  50
BRANCH  38  61
ATOM     61  C   UNL     1      10.017   3.749  11.356  1.00  0.00     0.064 A 
ATOM     62  C   UNL     1      11.399   3.504  11.355  1.00  0.00     0.173 A 
ATOM     63  C   UNL     1       9.458   4.360  12.488  1.00  0.00     0.173 A 
ATOM     64  F   UNL     1      11.981   2.917  10.298  1.00  0.00    -0.203 F 
ATOM     65  C   UNL     1      12.187   3.843  12.451  1.00  0.00     0.198 A 
ATOM     66  C   UNL     1      10.254   4.724  13.570  1.00  0.00     0.198 A 
ATOM     67  F   UNL     1       8.144   4.629  12.530  1.00  0.00    -0.203 F 
ATOM     68  F   UNL     1      13.499   3.571  12.440  1.00  0.00    -0.200 F 
ATOM     69  C   UNL     1      11.615   4.457  13.555  1.00  0.00     0.200 A 
ATOM     70  F   UNL     1       9.705   5.340  14.626  1.00  0.00    -0.200 F 
ATOM     71  F   UNL     1      12.377   4.794  14.604  1.00  0.00    -0.200 F 
ENDBRANCH  38  61
ENDBRANCH  12  13
ENDBRANCH   5   7
ENDBRANCH   2   3
ENDBRANCH   1   2
BRANCH   1  72
ATOM     72  C   UNL     1       3.982  -2.231  -3.041  1.00  0.00     0.117 C 
BRANCH  72  73
ATOM     73  N   UNL     1       4.933  -1.659  -3.983  1.00  0.00    -0.356 N 
ATOM     74  C   UNL     1       5.763  -2.303  -4.855  1.00  0.00     0.224 C 
ATOM     75  H   UNL     1       4.984  -0.676  -3.992  1.00  0.00     0.163 HD
ATOM     76  O   UNL     1       6.552  -1.633  -5.520  1.00  0.00    -0.275 OA
BRANCH  74  77
ATOM     77  C   UNL     1       5.667  -3.810  -4.967  1.00  0.00     0.098 C 
ATOM     78  C   UNL     1       6.295  -4.345  -6.260  1.00  0.00     0.017 C 
ATOM     79  C   UNL     1       6.365  -4.474  -3.784  1.00  0.00     0.131 C 
ATOM     80  C   UNL     1       6.107  -5.864  -6.328  1.00  0.00     0.022 C 
ATOM     81  N   UNL     1       6.192  -5.921  -3.865  1.00  0.00    -0.356 N 
ATOM     82  C   UNL     1       6.656  -6.578  -5.085  1.00  0.00     0.118 C 
BRANCH  81  83
ATOM     83  C   UNL     1       5.273  -6.531  -3.028  1.00  0.00     0.133 A 
ATOM     84  C   UNL     1       5.550  -7.785  -2.522  1.00  0.00     0.077 A 
ATOM     85  N   UNL     1       4.166  -5.862  -2.653  1.00  0.00    -0.211 NA
ATOM     86  C   UNL     1       4.675  -8.314  -1.592  1.00  0.00     0.095 A 
ATOM     87  C   UNL     1       3.346  -6.467  -1.769  1.00  0.00     0.165 A 
ATOM     88  N   UNL     1       3.559  -7.666  -1.213  1.00  0.00    -0.226 NA
BRANCH  86  89
ATOM     89  C   UNL     1       4.960  -9.584  -0.912  1.00  0.00     0.089 A 
ATOM     90  C   UNL     1       6.121  -9.755  -0.154  1.00  0.00     0.030 A 
ATOM     91  N   UNL     1       4.048 -10.578  -1.068  1.00  0.00    -0.255 NA
ATOM     92  C   UNL     1       6.352 -10.979   0.467  1.00  0.00     0.004 A 
ATOM     93  C   UNL     1       4.293 -11.751  -0.445  1.00  0.00     0.112 A 
ATOM     94  C   UNL     1       5.420 -11.998   0.322  1.00  0.00     0.020 A 
ENDBRANCH  86  89
BRANCH  87  95
ATOM     95  C   UNL     1       2.095  -5.802  -1.417  1.00  0.00     0.055 A 
ATOM     96  C   UNL     1       1.101  -5.558  -2.382  1.00  0.00     0.015 A 
ATOM     97  C   UNL     1       1.816  -5.445  -0.092  1.00  0.00     0.134 A 
ATOM     98  C   UNL     1      -0.132  -5.002  -2.022  1.00  0.00     0.001 A 
ATOM     99  C   UNL     1       0.592  -4.884   0.273  1.00  0.00     0.040 A 
ATOM    100  F   UNL     1       2.737  -5.625   0.868  1.00  0.00    -0.206 F 
ATOM    101  C   UNL     1      -0.388  -4.669  -0.693  1.00  0.00     0.003 A 
ENDBRANCH  87  95
ENDBRANCH  81  83
ENDBRANCH  74  77
ENDBRANCH  72  73
ENDBRANCH   1  72
TORSDOF 13
