REMARK SMILES CC(C)=C1[C@H]2CC[C@@H]1[C@H](C(=O)NNC(=O)c1ccoc1C)[C@H]2C(=O)NCCCNC(=O)c1ccc(-c2c3nc(c(-c4c(F)c(F)c(F)c(F)c4F)c4ccc([nH]4)c(-c4c(F)c(F)c(F)c(F)c4F)c4nc(c(-c5c(F)c(F)c(F)c(F)c5F)c5ccc2[nH]5)C=C4)C=C3)cc1
REMARK SMILES IDX 26 1 25 2 23 3 24 4 22 6 1 7 2 8 3 9 4 10 5 11 8 12 6 13
REMARK SMILES IDX 7 14 9 15 10 16 11 17 12 18 13 20 14 21 15 23 16 24 17 25
REMARK SMILES IDX 20 26 18 27 19 28 21 29 27 30 28 31 29 32 30 33 31 35 32 36
REMARK SMILES IDX 33 37 94 38 34 39 93 40 35 41 36 42 37 43 87 44 38 45 92 46
REMARK SMILES IDX 86 47 88 48 39 49 91 50 85 51 84 52 40 54 72 55 52 56 71 57
REMARK SMILES IDX 53 58 56 59 70 60 89 61 54 62 55 63 69 65 90 66 57 67 41 68
REMARK SMILES IDX 42 69 50 70 43 71 44 72 48 73 51 74 45 75 46 76 49 77 47 78
REMARK SMILES IDX 73 79 74 80 82 81 75 82 76 83 80 84 83 85 77 86 78 87 81 88
REMARK SMILES IDX 79 89 58 90 59 91 67 92 60 93 61 94 65 95 68 96 62 97 63 98
REMARK SMILES IDX 66 99 64 100
REMARK H PARENT 25 5 12 19 13 22 29 34 88 53 56 64
REMARK Flexibility Score: inf
ROOT
ATOM      1  C   UNL     1       3.109   2.548   1.082  1.00  0.00     0.117 C 
ENDROOT
BRANCH   1   2
ATOM      2  N   UNL     1       3.044   3.485   2.192  1.00  0.00    -0.356 N 
ATOM      3  C   UNL     1       2.449   3.465   3.405  1.00  0.00     0.224 C 
ATOM      4  O   UNL     1       2.553   4.508   4.061  1.00  0.00    -0.275 OA
ATOM      5  H   UNL     1       3.544   4.316   2.023  1.00  0.00     0.163 HD
BRANCH   3   6
ATOM      6  C   UNL     1       1.747   2.278   4.048  1.00  0.00     0.098 C 
ATOM      7  C   UNL     1       0.494  -0.733   0.593  1.00  0.00     0.039 C 
ATOM      8  C   UNL     1       0.141   0.528   1.333  1.00  0.00    -0.077 C 
ATOM      9  C   UNL     1      -0.863   1.395   0.616  1.00  0.00     0.039 C 
ATOM     10  C   UNL     1       0.616   0.813   2.558  1.00  0.00    -0.064 C 
ATOM     11  C   UNL     1       0.348   1.977   3.471  1.00  0.00     0.028 C 
ATOM     12  C   UNL     1       1.377  -0.042   3.546  1.00  0.00     0.028 C 
ATOM     13  C   UNL     1      -0.459   1.219   4.537  1.00  0.00     0.009 C 
ATOM     14  C   UNL     1       0.216  -0.168   4.564  1.00  0.00     0.009 C 
ATOM     15  C   UNL     1       2.493   0.928   4.027  1.00  0.00     0.100 C 
BRANCH  15  16
ATOM     16  C   UNL     1       3.066   0.501   5.379  1.00  0.00     0.242 C 
ATOM     17  O   UNL     1       2.843  -0.609   5.865  1.00  0.00    -0.273 OA
ATOM     18  N   UNL     1       3.904   1.331   6.074  1.00  0.00    -0.267 N 
ATOM     19  H   UNL     1       3.987   1.175   7.042  1.00  0.00     0.191 HD
BRANCH  18  20
ATOM     20  N   UNL     1       4.649   2.375   5.533  1.00  0.00    -0.263 N 
ATOM     21  C   UNL     1       5.681   3.025   6.188  1.00  0.00     0.273 C 
ATOM     22  H   UNL     1       4.426   2.673   4.621  1.00  0.00     0.191 HD
ATOM     23  O   UNL     1       6.175   4.033   5.684  1.00  0.00    -0.267 OA
BRANCH  21  24
ATOM     24  C   UNL     1       6.122   2.534   7.482  1.00  0.00     0.082 A 
ATOM     25  C   UNL     1       6.305   3.315   8.663  1.00  0.00     0.056 A 
ATOM     26  C   UNL     1       6.527   1.253   7.823  1.00  0.00     0.113 A 
ATOM     27  C   UNL     1       6.736   2.455   9.642  1.00  0.00     0.196 A 
ATOM     28  O   UNL     1       6.868   1.202   9.143  1.00  0.00    -0.469 OA
ATOM     29  C   UNL     1       6.681  -0.020   7.085  1.00  0.00     0.088 C 
ENDBRANCH  21  24
ENDBRANCH  18  20
ENDBRANCH  15  16
ENDBRANCH   3   6
ENDBRANCH   1   2
BRANCH   1  30
ATOM     30  C   UNL     1       2.146   2.937  -0.034  1.00  0.00     0.042 C 
BRANCH  30  31
ATOM     31  C   UNL     1       2.613   4.116  -0.879  1.00  0.00     0.118 C 
BRANCH  31  32
ATOM     32  N   UNL     1       3.614   3.729  -1.862  1.00  0.00    -0.352 N 
ATOM     33  C   UNL     1       3.518   3.510  -3.214  1.00  0.00     0.251 C 
ATOM     34  H   UNL     1       4.518   3.602  -1.492  1.00  0.00     0.163 HD
ATOM     35  O   UNL     1       4.460   2.973  -3.794  1.00  0.00    -0.269 OA
BRANCH  33  36
ATOM     36  C   UNL     1       2.315   3.892  -3.996  1.00  0.00     0.039 A 
ATOM     37  C   UNL     1       1.924   3.070  -5.061  1.00  0.00     0.014 A 
ATOM     38  C   UNL     1       1.626   5.085  -3.769  1.00  0.00     0.014 A 
ATOM     39  C   UNL     1       0.826   3.415  -5.858  1.00  0.00     0.010 A 
ATOM     40  C   UNL     1       0.488   5.396  -4.518  1.00  0.00     0.010 A 
ATOM     41  C   UNL     1       0.083   4.571  -5.579  1.00  0.00    -0.014 A 
BRANCH  41  42
ATOM     42  C   UNL     1      -1.095   4.958  -6.400  1.00  0.00     0.031 A 
ATOM     43  C   UNL     1      -1.069   6.228  -7.209  1.00  0.00     0.074 A 
ATOM     44  C   UNL     1      -2.218   4.216  -6.367  1.00  0.00     0.049 A 
ATOM     45  N   UNL     1      -2.038   6.813  -7.867  1.00  0.00    -0.248 NA
ATOM     46  C   UNL     1       0.212   6.950  -7.261  1.00  0.00     0.031 C 
ATOM     47  C   UNL     1      -2.396   2.982  -5.601  1.00  0.00     0.029 A 
ATOM     48  N   UNL     1      -3.432   4.405  -6.981  1.00  0.00    -0.354 N 
ATOM     49  C   UNL     1      -1.500   7.991  -8.367  1.00  0.00     0.074 A 
ATOM     50  C   UNL     1      -0.121   8.045  -7.930  1.00  0.00     0.031 C 
ATOM     51  C   UNL     1      -3.642   2.521  -5.795  1.00  0.00     0.029 A 
ATOM     52  C   UNL     1      -4.361   3.442  -6.671  1.00  0.00     0.049 A 
ATOM     53  H   UNL     1      -3.619   5.159  -7.585  1.00  0.00     0.167 HD
ATOM     54  C   UNL     1      -2.098   8.940  -9.126  1.00  0.00     0.037 A 
ATOM     55  C   UNL     1      -5.651   3.322  -7.039  1.00  0.00     0.037 A 
ATOM     56  C   UNL     1      -3.444   8.860  -9.626  1.00  0.00     0.049 A 
ATOM     57  C   UNL     1      -6.272   4.356  -7.935  1.00  0.00     0.074 A 
ATOM     58  C   UNL     1      -4.102   9.731 -10.477  1.00  0.00     0.029 A 
ATOM     59  N   UNL     1      -4.334   7.840  -9.331  1.00  0.00    -0.354 N 
ATOM     60  N   UNL     1      -5.742   5.448  -8.425  1.00  0.00    -0.248 NA
ATOM     61  C   UNL     1      -7.673   4.139  -8.327  1.00  0.00     0.031 C 
ATOM     62  C   UNL     1      -5.399   9.247 -10.683  1.00  0.00     0.029 A 
ATOM     63  C   UNL     1      -5.539   8.065  -9.977  1.00  0.00     0.049 A 
ATOM     64  H   UNL     1      -4.140   7.070  -8.749  1.00  0.00     0.167 HD
ATOM     65  C   UNL     1      -6.735   6.043  -9.189  1.00  0.00     0.074 A 
ATOM     66  C   UNL     1      -7.899   5.186  -9.110  1.00  0.00     0.031 C 
ATOM     67  C   UNL     1      -6.686   7.200  -9.891  1.00  0.00     0.037 A 
BRANCH  54  68
ATOM     68  C   UNL     1      -1.297  10.158  -9.466  1.00  0.00     0.064 A 
ATOM     69  C   UNL     1      -0.303  10.132 -10.453  1.00  0.00     0.173 A 
ATOM     70  C   UNL     1      -1.560  11.377  -8.824  1.00  0.00     0.173 A 
ATOM     71  F   UNL     1      -0.010   8.986 -11.085  1.00  0.00    -0.203 F 
ATOM     72  C   UNL     1       0.414  11.282 -10.774  1.00  0.00     0.198 A 
ATOM     73  C   UNL     1      -0.854  12.529  -9.160  1.00  0.00     0.198 A 
ATOM     74  F   UNL     1      -2.505  11.452  -7.875  1.00  0.00    -0.203 F 
ATOM     75  F   UNL     1       1.383  11.229 -11.698  1.00  0.00    -0.200 F 
ATOM     76  C   UNL     1       0.135  12.479 -10.132  1.00  0.00     0.200 A 
ATOM     77  F   UNL     1      -1.129  13.687  -8.543  1.00  0.00    -0.200 F 
ATOM     78  F   UNL     1       0.824  13.585 -10.445  1.00  0.00    -0.200 F 
ENDBRANCH  54  68
BRANCH  55  79
ATOM     79  C   UNL     1      -6.444   2.164  -6.561  1.00  0.00     0.064 A 
ATOM     80  C   UNL     1      -6.737   1.095  -7.418  1.00  0.00     0.173 A 
ATOM     81  C   UNL     1      -6.916   2.100  -5.244  1.00  0.00     0.173 A 
ATOM     82  F   UNL     1      -6.322   1.128  -8.694  1.00  0.00    -0.203 F 
ATOM     83  C   UNL     1      -7.482   0.005  -6.976  1.00  0.00     0.198 A 
ATOM     84  C   UNL     1      -7.647   1.001  -4.798  1.00  0.00     0.198 A 
ATOM     85  F   UNL     1      -6.658   3.100  -4.389  1.00  0.00    -0.203 F 
ATOM     86  F   UNL     1      -7.774  -0.992  -7.822  1.00  0.00    -0.200 F 
ATOM     87  C   UNL     1      -7.933  -0.043  -5.665  1.00  0.00     0.200 A 
ATOM     88  F   UNL     1      -8.075   0.954  -3.529  1.00  0.00    -0.200 F 
ATOM     89  F   UNL     1      -8.647  -1.093  -5.239  1.00  0.00    -0.200 F 
ENDBRANCH  55  79
BRANCH  67  90
ATOM     90  C   UNL     1      -7.918   7.598 -10.642  1.00  0.00     0.064 A 
ATOM     91  C   UNL     1      -9.006   8.192  -9.988  1.00  0.00     0.173 A 
ATOM     92  C   UNL     1      -7.994   7.423 -12.031  1.00  0.00     0.173 A 
ATOM     93  F   UNL     1      -8.982   8.364  -8.658  1.00  0.00    -0.203 F 
ATOM     94  C   UNL     1     -10.136   8.587 -10.700  1.00  0.00     0.198 A 
ATOM     95  C   UNL     1      -9.118   7.833 -12.741  1.00  0.00     0.198 A 
ATOM     96  F   UNL     1      -6.975   6.860 -12.697  1.00  0.00    -0.203 F 
ATOM     97  F   UNL     1     -11.177   9.128 -10.054  1.00  0.00    -0.200 F 
ATOM     98  C   UNL     1     -10.188   8.412 -12.075  1.00  0.00     0.200 A 
ATOM     99  F   UNL     1      -9.167   7.667 -14.070  1.00  0.00    -0.200 F 
ATOM    100  F   UNL     1     -11.276   8.795 -12.759  1.00  0.00    -0.200 F 
ENDBRANCH  67  90
ENDBRANCH  41  42
ENDBRANCH  33  36
ENDBRANCH  31  32
ENDBRANCH  30  31
ENDBRANCH   1  30
TORSDOF 13
