REMARK SMILES CS(=O)(=O)c1ccc(-c2cc(Cl)cc3c2O[C@H](C(F)(F)F)C(C(=O)NCCCNC(=O)c2ccc(-c4c5nc(c(-c6c(F)c(F)c(F)c(F)c6F)c6ccc([nH]6)c(-c6c(F)c(F)c(F)c(F)c6F)c6nc(c(-c7c(F)c(F)c(F)c(F)c7F)c7ccc4[nH]7)C=C6)C=C5)cc2)=C3)cc1
REMARK SMILES IDX 27 1 26 2 25 3 23 4 24 5 22 7 9 8 10 9 15 10 11 11 14 12
REMARK SMILES IDX 16 13 12 14 13 15 95 16 17 17 8 18 5 19 6 20 97 21 7 22
REMARK SMILES IDX 96 23 2 24 1 25 3 26 4 27 18 28 19 29 20 30 21 31 28 32
REMARK SMILES IDX 29 33 30 34 31 36 32 37 33 38 94 39 34 40 93 41 35 42 36 43
REMARK SMILES IDX 37 44 87 45 38 46 92 47 86 48 88 49 39 50 91 51 85 52 84 53
REMARK SMILES IDX 40 55 72 56 52 57 71 58 53 59 56 60 70 61 89 62 54 63 55 64
REMARK SMILES IDX 69 66 90 67 57 68 41 69 42 70 50 71 43 72 44 73 48 74 51 75
REMARK SMILES IDX 45 76 46 77 49 78 47 79 73 80 74 81 82 82 75 83 76 84 80 85
REMARK SMILES IDX 83 86 77 87 78 88 81 89 79 90 58 91 59 92 67 93 60 94 61 95
REMARK SMILES IDX 65 96 68 97 62 98 63 99 66 100 64 101
REMARK H PARENT 25 6 29 35 88 54 56 65
REMARK Flexibility Score: inf
ROOT
ATOM      1  C   UNL     1      -0.241  12.436   8.082  1.00  0.00     0.042 C 
ENDROOT
BRANCH   1   2
ATOM      2  C   UNL     1       0.238  12.430   6.628  1.00  0.00     0.118 C 
BRANCH   2   3
ATOM      3  N   UNL     1       1.271  11.430   6.449  1.00  0.00    -0.352 N 
ATOM      4  C   UNL     1       1.202  10.318   5.675  1.00  0.00     0.251 C 
ATOM      5  O   UNL     1       1.678   9.265   6.082  1.00  0.00    -0.270 OA
ATOM      6  H   UNL     1       2.112  11.573   6.940  1.00  0.00     0.163 HD
BRANCH   4   7
ATOM      7  C   UNL     1       0.674  10.490   4.291  1.00  0.00     0.067 C 
ATOM      8  C   UNL     1       1.446   6.769   2.828  1.00  0.00     0.026 A 
ATOM      9  C   UNL     1       2.784   6.451   3.186  1.00  0.00     0.033 A 
ATOM     10  C   UNL     1       1.068   8.118   2.977  1.00  0.00     0.135 A 
ATOM     11  C   UNL     1       3.726   7.419   3.528  1.00  0.00     0.042 A 
ATOM     12  C   UNL     1       2.072   9.096   3.208  1.00  0.00     0.019 A 
ATOM     13  O   UNL     1      -0.253   8.549   2.964  1.00  0.00    -0.475 OA
ATOM     14  Cl  UNL     1       5.309   6.942   3.998  1.00  0.00    -0.084 Cl
ATOM     15  C   UNL     1       3.394   8.756   3.473  1.00  0.00     0.032 A 
ATOM     16  C   UNL     1       1.650  10.505   3.364  1.00  0.00     0.025 C 
ATOM     17  C   UNL     1      -0.541   9.644   3.942  1.00  0.00     0.314 C 
BRANCH   8  18
ATOM     18  C   UNL     1       0.702   5.657   2.169  1.00  0.00    -0.015 A 
ATOM     19  C   UNL     1       0.293   3.355   0.553  1.00  0.00     0.067 A 
ATOM     20  C   UNL     1       0.563   3.204   1.909  1.00  0.00     0.021 A 
ATOM     21  C   UNL     1       0.128   4.639   0.019  1.00  0.00     0.021 A 
ATOM     22  C   UNL     1       0.740   4.348   2.709  1.00  0.00     0.010 A 
ATOM     23  C   UNL     1       0.318   5.777   0.823  1.00  0.00     0.010 A 
BRANCH  19  24
ATOM     24  S   UNL     1       0.231   1.973  -0.575  1.00  0.00     0.175 S 
ATOM     25  C   UNL     1       0.966   0.566   0.211  1.00  0.00     0.163 C 
ATOM     26  O   UNL     1       1.090   2.316  -1.693  1.00  0.00    -0.224 OA
ATOM     27  O   UNL     1      -1.176   1.677  -0.776  1.00  0.00    -0.224 OA
ENDBRANCH  19  24
ENDBRANCH   8  18
BRANCH  17  28
ATOM     28  C   UNL     1      -1.652  10.601   3.448  1.00  0.00     0.429 C 
ATOM     29  F   UNL     1      -1.949  10.433   2.141  1.00  0.00    -0.167 F 
ATOM     30  F   UNL     1      -2.794  10.433   4.157  1.00  0.00    -0.167 F 
ATOM     31  F   UNL     1      -1.312  11.911   3.597  1.00  0.00    -0.167 F 
ENDBRANCH  17  28
ENDBRANCH   4   7
ENDBRANCH   2   3
ENDBRANCH   1   2
BRANCH   1  32
ATOM     32  C   UNL     1       0.845  12.746   9.111  1.00  0.00     0.118 C 
BRANCH  32  33
ATOM     33  N   UNL     1       1.444  14.059   8.935  1.00  0.00    -0.352 N 
ATOM     34  C   UNL     1       1.643  15.056   9.858  1.00  0.00     0.251 C 
ATOM     35  H   UNL     1       1.752  14.262   8.022  1.00  0.00     0.163 HD
ATOM     36  O   UNL     1       2.030  16.162   9.495  1.00  0.00    -0.269 OA
BRANCH  34  37
ATOM     37  C   UNL     1       1.361  14.806  11.288  1.00  0.00     0.039 A 
ATOM     38  C   UNL     1       0.671  15.777  12.017  1.00  0.00     0.014 A 
ATOM     39  C   UNL     1       1.772  13.623  11.908  1.00  0.00     0.014 A 
ATOM     40  C   UNL     1       0.342  15.534  13.352  1.00  0.00     0.010 A 
ATOM     41  C   UNL     1       1.362  13.345  13.209  1.00  0.00     0.010 A 
ATOM     42  C   UNL     1       0.653  14.302  13.950  1.00  0.00    -0.014 A 
BRANCH  42  43
ATOM     43  C   UNL     1       0.258  14.009  15.353  1.00  0.00     0.031 A 
ATOM     44  C   UNL     1       1.310  13.741  16.395  1.00  0.00     0.074 A 
ATOM     45  C   UNL     1      -1.048  13.939  15.679  1.00  0.00     0.049 A 
ATOM     46  N   UNL     1       1.164  13.436  17.661  1.00  0.00    -0.248 NA
ATOM     47  C   UNL     1       2.712  13.792  15.951  1.00  0.00     0.031 C 
ATOM     48  C   UNL     1      -2.163  14.122  14.748  1.00  0.00     0.029 A 
ATOM     49  N   UNL     1      -1.659  13.691  16.883  1.00  0.00    -0.354 N 
ATOM     50  C   UNL     1       2.449  13.247  18.154  1.00  0.00     0.074 A 
ATOM     51  C   UNL     1       3.357  13.404  17.040  1.00  0.00     0.031 C 
ATOM     52  C   UNL     1      -3.320  14.015  15.421  1.00  0.00     0.029 A 
ATOM     53  C   UNL     1      -3.031  13.717  16.820  1.00  0.00     0.049 A 
ATOM     54  H   UNL     1      -1.161  13.511  17.713  1.00  0.00     0.167 HD
ATOM     55  C   UNL     1       2.839  12.997  19.427  1.00  0.00     0.037 A 
ATOM     56  C   UNL     1      -3.953  13.522  17.783  1.00  0.00     0.037 A 
ATOM     57  C   UNL     1       1.933  12.866  20.538  1.00  0.00     0.049 A 
ATOM     58  C   UNL     1      -3.493  13.243  19.189  1.00  0.00     0.074 A 
ATOM     59  C   UNL     1       2.229  12.671  21.875  1.00  0.00     0.029 A 
ATOM     60  N   UNL     1       0.550  12.914  20.437  1.00  0.00    -0.354 N 
ATOM     61  N   UNL     1      -2.272  13.144  19.658  1.00  0.00    -0.248 NA
ATOM     62  C   UNL     1      -4.540  13.059  20.203  1.00  0.00     0.031 C 
ATOM     63  C   UNL     1       1.025  12.545  22.576  1.00  0.00     0.029 A 
ATOM     64  C   UNL     1      -0.022  12.728  21.686  1.00  0.00     0.049 A 
ATOM     65  H   UNL     1       0.049  13.060  19.603  1.00  0.00     0.167 HD
ATOM     66  C   UNL     1      -2.404  12.920  21.023  1.00  0.00     0.074 A 
ATOM     67  C   UNL     1      -3.824  12.916  21.308  1.00  0.00     0.031 C 
ATOM     68  C   UNL     1      -1.438  12.734  21.955  1.00  0.00     0.037 A 
BRANCH  55  69
ATOM     69  C   UNL     1       4.313  12.853  19.687  1.00  0.00     0.064 A 
ATOM     70  C   UNL     1       5.193  13.941  19.572  1.00  0.00     0.173 A 
ATOM     71  C   UNL     1       4.849  11.619  20.086  1.00  0.00     0.173 A 
ATOM     72  F   UNL     1       4.736  15.141  19.183  1.00  0.00    -0.203 F 
ATOM     73  C   UNL     1       6.556  13.790  19.811  1.00  0.00     0.198 A 
ATOM     74  C   UNL     1       6.208  11.481  20.359  1.00  0.00     0.198 A 
ATOM     75  F   UNL     1       4.054  10.546  20.218  1.00  0.00    -0.203 F 
ATOM     76  F   UNL     1       7.384  14.830  19.637  1.00  0.00    -0.200 F 
ATOM     77  C   UNL     1       7.061  12.563  20.211  1.00  0.00     0.200 A 
ATOM     78  F   UNL     1       6.692  10.297  20.761  1.00  0.00    -0.200 F 
ATOM     79  F   UNL     1       8.373  12.421  20.448  1.00  0.00    -0.200 F 
ENDBRANCH  55  69
BRANCH  56  80
ATOM     80  C   UNL     1      -5.402  13.612  17.459  1.00  0.00     0.064 A 
ATOM     81  C   UNL     1      -6.190  14.655  17.966  1.00  0.00     0.173 A 
ATOM     82  C   UNL     1      -6.031  12.656  16.648  1.00  0.00     0.173 A 
ATOM     83  F   UNL     1      -5.640  15.585  18.761  1.00  0.00    -0.203 F 
ATOM     84  C   UNL     1      -7.556  14.723  17.698  1.00  0.00     0.198 A 
ATOM     85  C   UNL     1      -7.390  12.743  16.354  1.00  0.00     0.198 A 
ATOM     86  F   UNL     1      -5.322  11.642  16.132  1.00  0.00    -0.203 F 
ATOM     87  F   UNL     1      -8.295  15.700  18.240  1.00  0.00    -0.200 F 
ATOM     88  C   UNL     1      -8.154  13.770  16.887  1.00  0.00     0.200 A 
ATOM     89  F   UNL     1      -7.960  11.830  15.556  1.00  0.00    -0.200 F 
ATOM     90  F   UNL     1      -9.466  13.837  16.627  1.00  0.00    -0.200 F 
ENDBRANCH  56  80
BRANCH  68  91
ATOM     91  C   UNL     1      -1.881  12.555  23.380  1.00  0.00     0.064 A 
ATOM     92  C   UNL     1      -2.548  11.397  23.808  1.00  0.00     0.173 A 
ATOM     93  C   UNL     1      -1.605  13.544  24.337  1.00  0.00     0.173 A 
ATOM     94  F   UNL     1      -2.848  10.427  22.931  1.00  0.00    -0.203 F 
ATOM     95  C   UNL     1      -2.954  11.253  25.132  1.00  0.00     0.198 A 
ATOM     96  C   UNL     1      -1.980  13.380  25.667  1.00  0.00     0.198 A 
ATOM     97  F   UNL     1      -0.961  14.667  23.983  1.00  0.00    -0.203 F 
ATOM     98  F   UNL     1      -3.643  10.166  25.505  1.00  0.00    -0.200 F 
ATOM     99  C   UNL     1      -2.663  12.241  26.061  1.00  0.00     0.200 A 
ATOM    100  F   UNL     1      -1.682  14.328  26.567  1.00  0.00    -0.200 F 
ATOM    101  F   UNL     1      -3.049  12.097  27.337  1.00  0.00    -0.200 F 
ENDBRANCH  68  91
ENDBRANCH  42  43
ENDBRANCH  34  37
ENDBRANCH  32  33
ENDBRANCH   1  32
TORSDOF 13
