REMARK SMILES C[C@H]1[C@@H](C(=O)NCCCNC(=O)c2ccc(-c3c4nc(c(-c5c(F)c(F)c(F)c(F)c5F)c5ccc([nH]5)c(-c5c(F)c(F)c(F)c(F)c5F)c5nc(c(-c6c(F)c(F)c(F)c(F)c6F)c6ccc3[nH]6)C=C5)C=C4)cc2)CCN1C(=O)N[C@@H]1CC[N@H+]2CCCC[C@H]12
REMARK SMILES IDX 8 1 7 2 6 3 4 4 5 5 3 7 1 8 2 9 78 10 76 11 77 12 79 13
REMARK SMILES IDX 80 14 81 15 82 17 83 18 90 19 84 20 85 21 89 22 86 23 88 25
REMARK SMILES IDX 87 26 9 27 10 28 11 29 12 31 13 32 14 33 75 34 15 35 74 36
REMARK SMILES IDX 16 37 17 38 18 39 68 40 19 41 73 42 67 43 69 44 20 45 72 46
REMARK SMILES IDX 66 47 65 48 21 50 53 51 33 52 52 53 34 54 37 55 51 56 70 57
REMARK SMILES IDX 35 58 36 59 50 61 71 62 38 63 22 64 23 65 31 66 24 67 25 68
REMARK SMILES IDX 29 69 32 70 26 71 27 72 30 73 28 74 54 75 55 76 63 77 56 78
REMARK SMILES IDX 57 79 61 80 64 81 58 82 59 83 62 84 60 85 39 86 40 87 48 88
REMARK SMILES IDX 41 89 42 90 46 91 49 92 43 93 44 94 47 95 45 96
REMARK H PARENT 6 6 81 16 85 24 10 30 69 49 37 60
REMARK Flexibility Score: inf
ROOT
ATOM      1  C   UNL     1      -3.696  -5.472  -0.701  1.00  0.00     0.042 C 
ENDROOT
BRANCH   1   2
ATOM      2  C   UNL     1      -2.437  -6.269  -1.021  1.00  0.00     0.117 C 
BRANCH   2   3
ATOM      3  N   UNL     1      -1.599  -5.609  -2.004  1.00  0.00    -0.356 N 
ATOM      4  C   UNL     1      -0.372  -5.033  -1.873  1.00  0.00     0.225 C 
ATOM      5  O   UNL     1       0.187  -4.688  -2.910  1.00  0.00    -0.275 OA
ATOM      6  H   UNL     1      -1.979  -5.572  -2.912  1.00  0.00     0.163 HD
BRANCH   4   7
ATOM      7  C   UNL     1       0.253  -4.932  -0.489  1.00  0.00     0.102 C 
ATOM      8  C   UNL     1       1.253  -2.648  -1.248  1.00  0.00     0.032 C 
ATOM      9  C   UNL     1       1.169  -3.723  -0.173  1.00  0.00     0.096 C 
ATOM     10  N   UNL     1       2.483  -4.282   0.140  1.00  0.00    -0.321 N 
ATOM     11  C   UNL     1       1.129  -6.164  -0.238  1.00  0.00     0.037 C 
ATOM     12  C   UNL     1       2.550  -5.644  -0.362  1.00  0.00     0.122 C 
BRANCH  10  13
ATOM     13  C   UNL     1       3.597  -3.727   0.692  1.00  0.00     0.318 C 
ATOM     14  O   UNL     1       4.672  -4.335   0.701  1.00  0.00    -0.249 OA
ATOM     15  N   UNL     1       3.618  -2.509   1.267  1.00  0.00    -0.329 N 
ATOM     16  H   UNL     1       4.535  -2.239   1.502  1.00  0.00     0.165 HD
BRANCH  15  17
ATOM     17  C   UNL     1       2.649  -1.480   1.636  1.00  0.00     0.147 C 
ATOM     18  C   UNL     1       2.733  -0.255   0.703  1.00  0.00     0.092 C 
ATOM     19  C   UNL     1       2.857  -0.863   3.038  1.00  0.00     0.207 C 
ATOM     20  C   UNL     1       2.838   0.962   1.609  1.00  0.00     0.264 C 
ATOM     21  N   UNL     1       3.525   0.421   2.771  1.00  0.00    -0.331 N 
ATOM     22  C   UNL     1       3.652  -1.637   4.082  1.00  0.00     0.067 C 
ATOM     23  C   UNL     1       3.483   1.291   3.942  1.00  0.00     0.262 C 
ATOM     24  H   UNL     1       4.521   0.320   2.579  1.00  0.00     0.348 HD
ATOM     25  C   UNL     1       3.713  -0.811   5.373  1.00  0.00     0.012 C 
ATOM     26  C   UNL     1       4.212   0.616   5.109  1.00  0.00     0.062 C 
ENDBRANCH  15  17
ENDBRANCH  10  13
ENDBRANCH   4   7
ENDBRANCH   2   3
ENDBRANCH   1   2
BRANCH   1  27
ATOM     27  C   UNL     1      -4.536  -5.100  -1.921  1.00  0.00     0.118 C 
BRANCH  27  28
ATOM     28  N   UNL     1      -4.875  -6.247  -2.752  1.00  0.00    -0.352 N 
ATOM     29  C   UNL     1      -6.091  -6.743  -3.139  1.00  0.00     0.251 C 
ATOM     30  H   UNL     1      -4.100  -6.751  -3.092  1.00  0.00     0.163 HD
ATOM     31  O   UNL     1      -6.148  -7.834  -3.706  1.00  0.00    -0.269 OA
BRANCH  29  32
ATOM     32  C   UNL     1      -7.335  -5.997  -2.865  1.00  0.00     0.039 A 
ATOM     33  C   UNL     1      -8.461  -6.708  -2.442  1.00  0.00     0.014 A 
ATOM     34  C   UNL     1      -7.408  -4.614  -3.044  1.00  0.00     0.014 A 
ATOM     35  C   UNL     1      -9.639  -6.024  -2.138  1.00  0.00     0.010 A 
ATOM     36  C   UNL     1      -8.555  -3.924  -2.660  1.00  0.00     0.010 A 
ATOM     37  C   UNL     1      -9.683  -4.622  -2.205  1.00  0.00    -0.014 A 
BRANCH  37  38
ATOM     38  C   UNL     1     -10.900  -3.880  -1.788  1.00  0.00     0.031 A 
ATOM     39  C   UNL     1     -11.665  -3.048  -2.779  1.00  0.00     0.074 A 
ATOM     40  C   UNL     1     -11.287  -3.919  -0.498  1.00  0.00     0.049 A 
ATOM     41  N   UNL     1     -12.732  -2.311  -2.591  1.00  0.00    -0.248 NA
ATOM     42  C   UNL     1     -11.152  -3.019  -4.157  1.00  0.00     0.031 C 
ATOM     43  C   UNL     1     -10.594  -4.643   0.569  1.00  0.00     0.029 A 
ATOM     44  N   UNL     1     -12.354  -3.334   0.137  1.00  0.00    -0.354 N 
ATOM     45  C   UNL     1     -13.012  -1.731  -3.822  1.00  0.00     0.074 A 
ATOM     46  C   UNL     1     -11.967  -2.148  -4.732  1.00  0.00     0.031 C 
ATOM     47  C   UNL     1     -11.267  -4.483   1.718  1.00  0.00     0.029 A 
ATOM     48  C   UNL     1     -12.415  -3.613   1.480  1.00  0.00     0.049 A 
ATOM     49  H   UNL     1     -13.012  -2.768  -0.327  1.00  0.00     0.167 HD
ATOM     50  C   UNL     1     -14.060  -0.946  -4.168  1.00  0.00     0.037 A 
ATOM     51  C   UNL     1     -13.293  -3.207   2.417  1.00  0.00     0.037 A 
ATOM     52  C   UNL     1     -15.102  -0.540  -3.260  1.00  0.00     0.049 A 
ATOM     53  C   UNL     1     -14.442  -2.326   2.009  1.00  0.00     0.074 A 
ATOM     54  C   UNL     1     -16.231   0.215  -3.523  1.00  0.00     0.029 A 
ATOM     55  N   UNL     1     -15.137  -0.852  -1.908  1.00  0.00    -0.354 N 
ATOM     56  N   UNL     1     -14.737  -1.844   0.826  1.00  0.00    -0.248 NA
ATOM     57  C   UNL     1     -15.387  -1.943   3.066  1.00  0.00     0.031 C 
ATOM     58  C   UNL     1     -16.920   0.408  -2.320  1.00  0.00     0.029 A 
ATOM     59  C   UNL     1     -16.255  -0.281  -1.319  1.00  0.00     0.049 A 
ATOM     60  H   UNL     1     -14.467  -1.397  -1.436  1.00  0.00     0.167 HD
ATOM     61  C   UNL     1     -15.911  -1.122   0.990  1.00  0.00     0.074 A 
ATOM     62  C   UNL     1     -16.287  -1.251   2.383  1.00  0.00     0.031 C 
ATOM     63  C   UNL     1     -16.614  -0.414   0.071  1.00  0.00     0.037 A 
BRANCH  50  64
ATOM     64  C   UNL     1     -14.133  -0.476  -5.594  1.00  0.00     0.064 A 
ATOM     65  C   UNL     1     -14.377  -1.367  -6.652  1.00  0.00     0.173 A 
ATOM     66  C   UNL     1     -13.987   0.884  -5.907  1.00  0.00     0.173 A 
ATOM     67  F   UNL     1     -14.514  -2.680  -6.411  1.00  0.00    -0.203 F 
ATOM     68  C   UNL     1     -14.437  -0.919  -7.969  1.00  0.00     0.198 A 
ATOM     69  C   UNL     1     -14.083   1.333  -7.222  1.00  0.00     0.198 A 
ATOM     70  F   UNL     1     -13.758   1.781  -4.936  1.00  0.00    -0.203 F 
ATOM     71  F   UNL     1     -14.614  -1.798  -8.966  1.00  0.00    -0.200 F 
ATOM     72  C   UNL     1     -14.298   0.430  -8.253  1.00  0.00     0.200 A 
ATOM     73  F   UNL     1     -13.963   2.640  -7.492  1.00  0.00    -0.200 F 
ATOM     74  F   UNL     1     -14.363   0.861  -9.520  1.00  0.00    -0.200 F 
ENDBRANCH  50  64
BRANCH  51  75
ATOM     75  C   UNL     1     -13.127  -3.647   3.827  1.00  0.00     0.064 A 
ATOM     76  C   UNL     1     -14.041  -4.528   4.422  1.00  0.00     0.173 A 
ATOM     77  C   UNL     1     -12.053  -3.196   4.609  1.00  0.00     0.173 A 
ATOM     78  F   UNL     1     -15.094  -4.974   3.722  1.00  0.00    -0.203 F 
ATOM     79  C   UNL     1     -13.900  -4.922   5.752  1.00  0.00     0.198 A 
ATOM     80  C   UNL     1     -11.895  -3.616   5.927  1.00  0.00     0.198 A 
ATOM     81  F   UNL     1     -11.146  -2.358   4.085  1.00  0.00    -0.203 F 
ATOM     82  F   UNL     1     -14.815  -5.726   6.310  1.00  0.00    -0.200 F 
ATOM     83  C   UNL     1     -12.824  -4.471   6.501  1.00  0.00     0.200 A 
ATOM     84  F   UNL     1     -10.843  -3.193   6.641  1.00  0.00    -0.200 F 
ATOM     85  F   UNL     1     -12.685  -4.856   7.777  1.00  0.00    -0.200 F 
ENDBRANCH  51  75
BRANCH  63  86
ATOM     86  C   UNL     1     -17.877   0.253   0.540  1.00  0.00     0.064 A 
ATOM     87  C   UNL     1     -17.853   1.347   1.418  1.00  0.00     0.173 A 
ATOM     88  C   UNL     1     -19.128  -0.199   0.091  1.00  0.00     0.173 A 
ATOM     89  F   UNL     1     -16.685   1.810   1.889  1.00  0.00    -0.203 F 
ATOM     90  C   UNL     1     -19.035   1.939   1.858  1.00  0.00     0.198 A 
ATOM     91  C   UNL     1     -20.305   0.419   0.504  1.00  0.00     0.198 A 
ATOM     92  F   UNL     1     -19.209  -1.236  -0.756  1.00  0.00    -0.203 F 
ATOM     93  F   UNL     1     -18.989   2.942   2.746  1.00  0.00    -0.200 F 
ATOM     94  C   UNL     1     -20.258   1.479   1.395  1.00  0.00     0.200 A 
ATOM     95  F   UNL     1     -21.486  -0.017   0.043  1.00  0.00    -0.200 F 
ATOM     96  F   UNL     1     -21.394   2.052   1.818  1.00  0.00    -0.200 F 
ENDBRANCH  63  86
ENDBRANCH  37  38
ENDBRANCH  29  32
ENDBRANCH  27  28
ENDBRANCH   1  27
TORSDOF 12
