REMARK SMILES COCC[C@H](NC(=O)c1ccc(Br)nc1)C(=O)NCCCNC(=O)c1ccc(-c2c3nc(c(-c4c(F)c(F)c(F)c(F)c4F)c4ccc([nH]4)c(-c4c(F)c(F)c(F)c(F)c4F)c4nc(c(-c5c(F)c(F)c(F)c(F)c5F)c5ccc2[nH]5)C=C4)C=C3)cc1
REMARK SMILES IDX 19 1 18 2 16 3 17 4 5 6 4 7 3 8 2 9 1 10 6 11 7 12 8 14 9 15
REMARK SMILES IDX 10 16 15 17 11 18 14 19 12 20 13 21 20 22 21 23 22 24 23 25
REMARK SMILES IDX 24 27 25 28 26 29 87 30 27 31 86 32 28 33 29 34 30 35 80 36
REMARK SMILES IDX 31 37 85 38 79 39 81 40 32 41 84 42 78 43 77 44 33 46 65 47
REMARK SMILES IDX 45 48 64 49 46 50 49 51 63 52 82 53 47 54 48 55 62 57 83 58
REMARK SMILES IDX 50 59 34 60 35 61 43 62 36 63 37 64 41 65 44 66 38 67 39 68
REMARK SMILES IDX 42 69 40 70 66 71 67 72 75 73 68 74 69 75 73 76 76 77 70 78
REMARK SMILES IDX 71 79 74 80 72 81 51 82 52 83 60 84 53 85 54 86 58 87 61 88
REMARK SMILES IDX 55 89 56 90 59 91 57 92
REMARK H PARENT 18 5 6 13 22 26 81 45 49 56
REMARK Flexibility Score: inf
ROOT
ATOM      1  C   UNL     1       0.983   5.108  -0.939  1.00  0.00     0.117 C 
ENDROOT
BRANCH   1   2
ATOM      2  N   UNL     1       0.178   4.603   0.161  1.00  0.00    -0.354 N 
ATOM      3  C   UNL     1       0.206   3.407   0.808  1.00  0.00     0.242 C 
ATOM      4  O   UNL     1      -0.325   3.369   1.924  1.00  0.00    -0.273 OA
ATOM      5  H   UNL     1      -0.501   5.233   0.494  1.00  0.00     0.163 HD
BRANCH   3   6
ATOM      6  C   UNL     1       0.907   2.156   0.252  1.00  0.00     0.173 C 
BRANCH   6   7
ATOM      7  C   UNL     1       2.401   2.010   0.561  1.00  0.00     0.063 C 
BRANCH   7   8
ATOM      8  C   UNL     1       3.385   3.061   0.061  1.00  0.00     0.162 C 
BRANCH   8   9
ATOM      9  O   UNL     1       3.432   4.327   0.707  1.00  0.00    -0.385 OA
ATOM     10  C   UNL     1       3.168   4.397   2.096  1.00  0.00     0.194 C 
ENDBRANCH   8   9
ENDBRANCH   7   8
ENDBRANCH   6   7
BRANCH   6  11
ATOM     11  N   UNL     1       0.544   1.904  -1.141  1.00  0.00    -0.340 N 
ATOM     12  C   UNL     1      -0.461   1.123  -1.659  1.00  0.00     0.253 C 
ATOM     13  H   UNL     1       1.104   2.362  -1.809  1.00  0.00     0.164 HD
ATOM     14  O   UNL     1      -0.660   1.138  -2.871  1.00  0.00    -0.269 OA
BRANCH  12  15
ATOM     15  C   UNL     1      -1.234   0.187  -0.819  1.00  0.00     0.058 A 
ATOM     16  C   UNL     1      -1.875   0.521   0.372  1.00  0.00     0.018 A 
ATOM     17  C   UNL     1      -1.330  -1.127  -1.260  1.00  0.00     0.126 A 
ATOM     18  C   UNL     1      -2.502  -0.483   1.115  1.00  0.00     0.037 A 
ATOM     19  N   UNL     1      -1.938  -2.119  -0.564  1.00  0.00    -0.249 NA
ATOM     20  C   UNL     1      -2.499  -1.779   0.616  1.00  0.00     0.106 A 
ATOM     21  Br  UNL     1      -3.306  -3.158   1.636  1.00  0.00    -0.029 Br
ENDBRANCH  12  15
ENDBRANCH   6  11
ENDBRANCH   3   6
ENDBRANCH   1   2
BRANCH   1  22
ATOM     22  C   UNL     1       0.319   6.238  -1.702  1.00  0.00     0.042 C 
BRANCH  22  23
ATOM     23  C   UNL     1       0.080   7.481  -0.855  1.00  0.00     0.118 C 
BRANCH  23  24
ATOM     24  N   UNL     1       1.302   8.181  -0.472  1.00  0.00    -0.352 N 
ATOM     25  C   UNL     1       1.799   9.403  -0.876  1.00  0.00     0.251 C 
ATOM     26  H   UNL     1       1.862   7.704   0.181  1.00  0.00     0.163 HD
ATOM     27  O   UNL     1       2.902   9.776  -0.512  1.00  0.00    -0.269 OA
BRANCH  25  28
ATOM     28  C   UNL     1       1.008  10.239  -1.806  1.00  0.00     0.039 A 
ATOM     29  C   UNL     1       1.635  10.778  -2.932  1.00  0.00     0.014 A 
ATOM     30  C   UNL     1      -0.357  10.431  -1.604  1.00  0.00     0.014 A 
ATOM     31  C   UNL     1       0.863  11.396  -3.919  1.00  0.00     0.010 A 
ATOM     32  C   UNL     1      -1.136  10.932  -2.638  1.00  0.00     0.010 A 
ATOM     33  C   UNL     1      -0.537  11.409  -3.814  1.00  0.00    -0.014 A 
BRANCH  33  34
ATOM     34  C   UNL     1      -1.405  11.888  -4.921  1.00  0.00     0.031 A 
ATOM     35  C   UNL     1      -2.379  13.008  -4.682  1.00  0.00     0.074 A 
ATOM     36  C   UNL     1      -1.398  11.244  -6.105  1.00  0.00     0.049 A 
ATOM     37  N   UNL     1      -3.320  13.472  -5.465  1.00  0.00    -0.248 NA
ATOM     38  C   UNL     1      -2.316  13.664  -3.367  1.00  0.00     0.031 C 
ATOM     39  C   UNL     1      -0.544  10.105  -6.448  1.00  0.00     0.029 A 
ATOM     40  N   UNL     1      -2.143  11.450  -7.239  1.00  0.00    -0.354 N 
ATOM     41  C   UNL     1      -3.980  14.442  -4.724  1.00  0.00     0.074 A 
ATOM     42  C   UNL     1      -3.373  14.460  -3.412  1.00  0.00     0.031 C 
ATOM     43  C   UNL     1      -0.781   9.743  -7.718  1.00  0.00     0.029 A 
ATOM     44  C   UNL     1      -1.837  10.589  -8.264  1.00  0.00     0.049 A 
ATOM     45  H   UNL     1      -2.832  12.150  -7.311  1.00  0.00     0.167 HD
ATOM     46  C   UNL     1      -4.984  15.265  -5.111  1.00  0.00     0.037 A 
ATOM     47  C   UNL     1      -2.353  10.490  -9.504  1.00  0.00     0.037 A 
ATOM     48  C   UNL     1      -5.551  15.281  -6.432  1.00  0.00     0.049 A 
ATOM     49  C   UNL     1      -3.461  11.418  -9.914  1.00  0.00     0.074 A 
ATOM     50  C   UNL     1      -6.509  16.133  -6.952  1.00  0.00     0.029 A 
ATOM     51  N   UNL     1      -5.204  14.400  -7.447  1.00  0.00    -0.354 N 
ATOM     52  N   UNL     1      -4.036  12.374  -9.226  1.00  0.00    -0.248 NA
ATOM     53  C   UNL     1      -3.996  11.248 -11.272  1.00  0.00     0.031 C 
ATOM     54  C   UNL     1      -6.768  15.745  -8.272  1.00  0.00     0.029 A 
ATOM     55  C   UNL     1      -5.944  14.676  -8.586  1.00  0.00     0.049 A 
ATOM     56  H   UNL     1      -4.532  13.685  -7.370  1.00  0.00     0.167 HD
ATOM     57  C   UNL     1      -4.982  12.936 -10.072  1.00  0.00     0.074 A 
ATOM     58  C   UNL     1      -4.897  12.219 -11.328  1.00  0.00     0.031 C 
ATOM     59  C   UNL     1      -5.843  13.954  -9.829  1.00  0.00     0.037 A 
BRANCH  46  60
ATOM     60  C   UNL     1      -5.522  16.218  -4.083  1.00  0.00     0.064 A 
ATOM     61  C   UNL     1      -4.756  17.293  -3.603  1.00  0.00     0.173 A 
ATOM     62  C   UNL     1      -6.813  16.050  -3.562  1.00  0.00     0.173 A 
ATOM     63  F   UNL     1      -3.509  17.489  -4.059  1.00  0.00    -0.203 F 
ATOM     64  C   UNL     1      -5.245  18.133  -2.607  1.00  0.00     0.198 A 
ATOM     65  C   UNL     1      -7.311  16.913  -2.589  1.00  0.00     0.198 A 
ATOM     66  F   UNL     1      -7.590  15.044  -3.989  1.00  0.00    -0.203 F 
ATOM     67  F   UNL     1      -4.467  19.108  -2.115  1.00  0.00    -0.200 F 
ATOM     68  C   UNL     1      -6.522  17.945  -2.103  1.00  0.00     0.200 A 
ATOM     69  F   UNL     1      -8.551  16.738  -2.110  1.00  0.00    -0.200 F 
ATOM     70  F   UNL     1      -6.989  18.751  -1.139  1.00  0.00    -0.200 F 
ENDBRANCH  46  60
BRANCH  47  71
ATOM     71  C   UNL     1      -1.789   9.505 -10.461  1.00  0.00     0.064 A 
ATOM     72  C   UNL     1      -0.998   9.936 -11.536  1.00  0.00     0.173 A 
ATOM     73  C   UNL     1      -2.005   8.127 -10.319  1.00  0.00     0.173 A 
ATOM     74  F   UNL     1      -0.782  11.246 -11.723  1.00  0.00    -0.203 F 
ATOM     75  C   UNL     1      -0.450   9.026 -12.437  1.00  0.00     0.198 A 
ATOM     76  C   UNL     1      -1.438   7.216 -11.208  1.00  0.00     0.198 A 
ATOM     77  F   UNL     1      -2.751   7.666  -9.305  1.00  0.00    -0.203 F 
ATOM     78  F   UNL     1       0.278   9.467 -13.471  1.00  0.00    -0.200 F 
ATOM     79  C   UNL     1      -0.664   7.666 -12.268  1.00  0.00     0.200 A 
ATOM     80  F   UNL     1      -1.637   5.902 -11.036  1.00  0.00    -0.200 F 
ATOM     81  F   UNL     1      -0.129   6.790 -13.130  1.00  0.00    -0.200 F 
ENDBRANCH  47  71
BRANCH  59  82
ATOM     82  C   UNL     1      -6.742  14.373 -10.952  1.00  0.00     0.064 A 
ATOM     83  C   UNL     1      -7.847  13.599 -11.334  1.00  0.00     0.173 A 
ATOM     84  C   UNL     1      -6.522  15.586 -11.623  1.00  0.00     0.173 A 
ATOM     85  F   UNL     1      -8.087  12.424 -10.734  1.00  0.00    -0.203 F 
ATOM     86  C   UNL     1      -8.691  14.017 -12.360  1.00  0.00     0.198 A 
ATOM     87  C   UNL     1      -7.383  16.012 -12.630  1.00  0.00     0.198 A 
ATOM     88  F   UNL     1      -5.481  16.363 -11.290  1.00  0.00    -0.203 F 
ATOM     89  F   UNL     1      -9.719  13.244 -12.735  1.00  0.00    -0.200 F 
ATOM     90  C   UNL     1      -8.463  15.226 -13.001  1.00  0.00     0.200 A 
ATOM     91  F   UNL     1      -7.167  17.185 -13.242  1.00  0.00    -0.200 F 
ATOM     92  F   UNL     1      -9.281  15.630 -13.982  1.00  0.00    -0.200 F 
ENDBRANCH  59  82
ENDBRANCH  33  34
ENDBRANCH  25  28
ENDBRANCH  23  24
ENDBRANCH  22  23
ENDBRANCH   1  22
TORSDOF 15
