REMARK SMILES COc1ccc(NC(=O)C[C@@H](C[NH+]2CCOCC2)C(=O)NCCCNC(=O)c2ccc(-c3c4nc(c(-c5c(F)c(F)c(F)c(F)c5F)c5ccc([nH]5)c(-c5c(F)c(F)c(F)c(F)c5F)c5nc(c(-c6c(F)c(F)c(F)c(F)c6F)c6ccc3[nH]6)C=C5)C=C4)cc2)cc1
REMARK SMILES IDX 22 1 21 2 19 3 20 4 11 6 10 7 8 8 7 9 9 11 6 12 3 13 4 14
REMARK SMILES IDX 92 15 5 16 91 17 2 18 1 19 12 20 13 21 14 22 18 23 15 25
REMARK SMILES IDX 17 26 16 27 23 28 24 29 25 30 26 31 27 33 28 34 29 35 90 36
REMARK SMILES IDX 30 37 89 38 31 39 32 40 33 41 83 42 34 43 88 44 82 45 84 46
REMARK SMILES IDX 35 47 87 48 81 49 80 50 36 52 68 53 48 54 67 55 49 56 52 57
REMARK SMILES IDX 66 58 85 59 50 60 51 61 65 63 86 64 53 65 37 66 38 67 46 68
REMARK SMILES IDX 39 69 40 70 44 71 47 72 41 73 42 74 45 75 43 76 69 77 70 78
REMARK SMILES IDX 78 79 71 80 72 81 76 82 79 83 73 84 74 85 77 86 75 87 54 88
REMARK SMILES IDX 55 89 63 90 56 91 57 92 61 93 64 94 58 95 59 96 62 97 60 98
REMARK H PARENT 21 5 7 10 13 24 25 32 84 51 52 62
REMARK Flexibility Score: inf
ROOT
ATOM      1  C   UNL     1      -4.018  -0.351  -5.319  1.00  0.00     0.117 C 
ENDROOT
BRANCH   1   2
ATOM      2  N   UNL     1      -3.138  -0.321  -6.586  1.00  0.00    -0.356 N 
ATOM      3  C   UNL     1      -1.867  -0.256  -7.129  1.00  0.00     0.229 C 
ATOM      4  O   UNL     1      -1.895  -0.328  -8.372  1.00  0.00    -0.275 OA
ATOM      5  H   UNL     1      -3.758  -0.371  -7.349  1.00  0.00     0.163 HD
BRANCH   3   6
ATOM      6  C   UNL     1      -0.409  -0.186  -6.452  1.00  0.00     0.142 C 
BRANCH   6   7
ATOM      7  C   UNL     1       0.700   0.713  -7.147  1.00  0.00     0.119 C 
BRANCH   7   8
ATOM      8  C   UNL     1       2.296   0.971  -7.015  1.00  0.00     0.225 C 
ATOM      9  N   UNL     1       3.285   0.878  -6.063  1.00  0.00    -0.326 N 
ATOM     10  H   UNL     1       4.152   1.132  -6.455  1.00  0.00     0.169 HD
ATOM     11  O   UNL     1       2.779   1.492  -8.052  1.00  0.00    -0.275 OA
BRANCH   9  12
ATOM     12  C   UNL     1       3.453   0.534  -4.699  1.00  0.00     0.041 A 
ATOM     13  C   UNL     1       3.438   0.047  -1.871  1.00  0.00     0.119 A 
ATOM     14  C   UNL     1       2.289  -0.058  -2.610  1.00  0.00     0.048 A 
ATOM     15  C   UNL     1       4.627   0.327  -2.562  1.00  0.00     0.048 A 
ATOM     16  C   UNL     1       2.363   0.203  -3.969  1.00  0.00     0.030 A 
ATOM     17  C   UNL     1       4.637   0.582  -3.970  1.00  0.00     0.030 A 
BRANCH  13  18
ATOM     18  O   UNL     1       3.471  -0.069  -0.509  1.00  0.00    -0.497 OA
ATOM     19  C   UNL     1       2.218   0.142   0.162  1.00  0.00     0.278 C 
ENDBRANCH  13  18
ENDBRANCH   9  12
ENDBRANCH   7   8
ENDBRANCH   6   7
BRANCH   6  20
ATOM     20  C   UNL     1      -0.522  -0.010  -4.967  1.00  0.00     0.276 C 
BRANCH  20  21
ATOM     21  N   UNL     1      -0.570   1.336  -4.344  1.00  0.00    -0.330 N 
ATOM     22  C   UNL     1      -1.904   1.870  -4.447  1.00  0.00     0.291 C 
ATOM     23  C   UNL     1       0.319   2.513  -4.472  1.00  0.00     0.291 C 
ATOM     24  H   UNL     1      -0.141   0.957  -3.500  1.00  0.00     0.348 HD
ATOM     25  C   UNL     1      -2.106   2.669  -5.748  1.00  0.00     0.221 C 
ATOM     26  C   UNL     1      -0.076   3.724  -5.379  1.00  0.00     0.221 C 
ATOM     27  O   UNL     1      -1.477   3.926  -5.551  1.00  0.00    -0.370 OA
ENDBRANCH  20  21
ENDBRANCH   6  20
ENDBRANCH   3   6
ENDBRANCH   1   2
BRANCH   1  28
ATOM     28  C   UNL     1      -4.768   0.993  -5.034  1.00  0.00     0.042 C 
BRANCH  28  29
ATOM     29  C   UNL     1      -5.847   1.170  -3.962  1.00  0.00     0.118 C 
BRANCH  29  30
ATOM     30  N   UNL     1      -5.449   1.056  -2.556  1.00  0.00    -0.352 N 
ATOM     31  C   UNL     1      -5.675   1.876  -1.447  1.00  0.00     0.251 C 
ATOM     32  H   UNL     1      -4.922   0.249  -2.355  1.00  0.00     0.163 HD
ATOM     33  O   UNL     1      -5.259   1.513  -0.357  1.00  0.00    -0.269 OA
BRANCH  31  34
ATOM     34  C   UNL     1      -6.364   3.201  -1.547  1.00  0.00     0.039 A 
ATOM     35  C   UNL     1      -6.053   4.230  -0.641  1.00  0.00     0.014 A 
ATOM     36  C   UNL     1      -7.319   3.455  -2.521  1.00  0.00     0.014 A 
ATOM     37  C   UNL     1      -6.624   5.508  -0.787  1.00  0.00     0.010 A 
ATOM     38  C   UNL     1      -7.738   4.755  -2.777  1.00  0.00     0.010 A 
ATOM     39  C   UNL     1      -7.436   5.797  -1.893  1.00  0.00    -0.014 A 
BRANCH  39  40
ATOM     40  C   UNL     1      -8.053   7.134  -2.136  1.00  0.00     0.031 A 
ATOM     41  C   UNL     1      -9.550   7.235  -2.332  1.00  0.00     0.074 A 
ATOM     42  C   UNL     1      -7.280   8.228  -2.289  1.00  0.00     0.049 A 
ATOM     43  N   UNL     1     -10.277   8.255  -2.716  1.00  0.00    -0.248 NA
ATOM     44  C   UNL     1     -10.330   6.000  -2.134  1.00  0.00     0.031 C 
ATOM     45  C   UNL     1      -5.818   8.253  -2.207  1.00  0.00     0.029 A 
ATOM     46  N   UNL     1      -7.615   9.532  -2.560  1.00  0.00    -0.354 N 
ATOM     47  C   UNL     1     -11.572   7.766  -2.850  1.00  0.00     0.074 A 
ATOM     48  C   UNL     1     -11.518   6.346  -2.603  1.00  0.00     0.031 C 
ATOM     49  C   UNL     1      -5.387   9.514  -2.376  1.00  0.00     0.029 A 
ATOM     50  C   UNL     1      -6.534  10.380  -2.625  1.00  0.00     0.049 A 
ATOM     51  H   UNL     1      -8.543   9.833  -2.694  1.00  0.00     0.167 HD
ATOM     52  C   UNL     1     -12.716   8.445  -3.105  1.00  0.00     0.037 A 
ATOM     53  C   UNL     1      -6.479  11.705  -2.860  1.00  0.00     0.037 A 
ATOM     54  C   UNL     1     -12.770   9.871  -3.273  1.00  0.00     0.049 A 
ATOM     55  C   UNL     1      -7.768  12.450  -3.096  1.00  0.00     0.074 A 
ATOM     56  C   UNL     1     -13.876  10.681  -3.445  1.00  0.00     0.029 A 
ATOM     57  N   UNL     1     -11.657  10.701  -3.273  1.00  0.00    -0.354 N 
ATOM     58  N   UNL     1      -8.995  11.989  -3.142  1.00  0.00    -0.248 NA
ATOM     59  C   UNL     1      -7.665  13.901  -3.305  1.00  0.00     0.031 C 
ATOM     60  C   UNL     1     -13.430  11.998  -3.598  1.00  0.00     0.029 A 
ATOM     61  C   UNL     1     -12.050  12.014  -3.462  1.00  0.00     0.049 A 
ATOM     62  H   UNL     1     -10.727  10.400  -3.157  1.00  0.00     0.167 HD
ATOM     63  C   UNL     1      -9.811  13.091  -3.356  1.00  0.00     0.074 A 
ATOM     64  C   UNL     1      -8.940  14.248  -3.409  1.00  0.00     0.031 C 
ATOM     65  C   UNL     1     -11.158  13.146  -3.500  1.00  0.00     0.037 A 
BRANCH  52  66
ATOM     66  C   UNL     1     -13.996   7.657  -3.188  1.00  0.00     0.064 A 
ATOM     67  C   UNL     1     -14.535   6.998  -2.071  1.00  0.00     0.173 A 
ATOM     68  C   UNL     1     -14.703   7.568  -4.397  1.00  0.00     0.173 A 
ATOM     69  F   UNL     1     -13.897   7.038  -0.891  1.00  0.00    -0.203 F 
ATOM     70  C   UNL     1     -15.702   6.245  -2.171  1.00  0.00     0.198 A 
ATOM     71  C   UNL     1     -15.892   6.847  -4.484  1.00  0.00     0.198 A 
ATOM     72  F   UNL     1     -14.242   8.180  -5.498  1.00  0.00    -0.203 F 
ATOM     73  F   UNL     1     -16.154   5.568  -1.106  1.00  0.00    -0.200 F 
ATOM     74  C   UNL     1     -16.384   6.176  -3.375  1.00  0.00     0.200 A 
ATOM     75  F   UNL     1     -16.558   6.793  -5.646  1.00  0.00    -0.200 F 
ATOM     76  F   UNL     1     -17.510   5.455  -3.469  1.00  0.00    -0.200 F 
ENDBRANCH  52  66
BRANCH  53  77
ATOM     77  C   UNL     1      -5.173  12.419  -2.834  1.00  0.00     0.064 A 
ATOM     78  C   UNL     1      -4.872  13.332  -1.812  1.00  0.00     0.173 A 
ATOM     79  C   UNL     1      -4.196  12.204  -3.818  1.00  0.00     0.173 A 
ATOM     80  F   UNL     1      -5.778  13.588  -0.856  1.00  0.00    -0.203 F 
ATOM     81  C   UNL     1      -3.659  14.019  -1.788  1.00  0.00     0.198 A 
ATOM     82  C   UNL     1      -2.970  12.867  -3.776  1.00  0.00     0.198 A 
ATOM     83  F   UNL     1      -4.426  11.337  -4.814  1.00  0.00    -0.203 F 
ATOM     84  F   UNL     1      -3.421  14.921  -0.827  1.00  0.00    -0.200 F 
ATOM     85  C   UNL     1      -2.706  13.781  -2.766  1.00  0.00     0.200 A 
ATOM     86  F   UNL     1      -2.045  12.622  -4.713  1.00  0.00    -0.200 F 
ATOM     87  F   UNL     1      -1.537  14.435  -2.740  1.00  0.00    -0.200 F 
ENDBRANCH  53  77
BRANCH  65  88
ATOM     88  C   UNL     1     -11.773  14.501  -3.691  1.00  0.00     0.064 A 
ATOM     89  C   UNL     1     -11.614  15.220  -4.884  1.00  0.00     0.173 A 
ATOM     90  C   UNL     1     -12.574  15.062  -2.685  1.00  0.00     0.173 A 
ATOM     91  F   UNL     1     -10.848  14.729  -5.871  1.00  0.00    -0.203 F 
ATOM     92  C   UNL     1     -12.209  16.466  -5.051  1.00  0.00     0.198 A 
ATOM     93  C   UNL     1     -13.197  16.292  -2.870  1.00  0.00     0.198 A 
ATOM     94  F   UNL     1     -12.767  14.409  -1.529  1.00  0.00    -0.203 F 
ATOM     95  F   UNL     1     -12.001  17.159  -6.179  1.00  0.00    -0.200 F 
ATOM     96  C   UNL     1     -13.007  16.997  -4.048  1.00  0.00     0.200 A 
ATOM     97  F   UNL     1     -13.983  16.794  -1.907  1.00  0.00    -0.200 F 
ATOM     98  F   UNL     1     -13.588  18.192  -4.216  1.00  0.00    -0.200 F 
ENDBRANCH  65  88
ENDBRANCH  39  40
ENDBRANCH  31  34
ENDBRANCH  29  30
ENDBRANCH  28  29
ENDBRANCH   1  28
TORSDOF 16
