REMARK SMILES C[C@H](CC(=O)NCCCNC(=O)c1ccc(-c2c3nc(c(-c4c(F)c(F)c(F)c(F)c4F)c4ccc([nH]4)c(-c4c(F)c(F)c(F)c(F)c4F)c4nc(c(-c5c(F)c(F)c(F)c(F)c5F)c5ccc2[nH]5)C=C4)C=C3)cc1)c1ccc(O)cc1
REMARK SMILES IDX 7 1 6 2 4 3 5 4 3 6 2 7 1 8 76 9 77 10 82 11 78 12 81 13
REMARK SMILES IDX 79 14 80 15 8 17 9 18 10 19 11 20 12 22 13 23 14 24 75 25
REMARK SMILES IDX 15 26 74 27 16 28 17 29 18 30 68 31 19 32 73 33 67 34 69 35
REMARK SMILES IDX 20 36 72 37 66 38 65 39 21 41 53 42 33 43 52 44 34 45 37 46
REMARK SMILES IDX 51 47 70 48 35 49 36 50 50 52 71 53 38 54 22 55 23 56 31 57
REMARK SMILES IDX 24 58 25 59 29 60 32 61 26 62 27 63 30 64 28 65 54 66 55 67
REMARK SMILES IDX 63 68 56 69 57 70 61 71 64 72 58 73 59 74 62 75 60 76 39 77
REMARK SMILES IDX 40 78 48 79 41 80 42 81 46 82 49 83 43 84 44 85 47 86 45 87
REMARK H PARENT 6 5 80 16 10 21 69 40 37 51
REMARK Flexibility Score: inf
ROOT
ATOM      1  C   UNL     1       3.224  -1.476   1.994  1.00  0.00     0.117 C 
ENDROOT
BRANCH   1   2
ATOM      2  N   UNL     1       3.179  -1.333   0.551  1.00  0.00    -0.356 N 
ATOM      3  C   UNL     1       2.239  -0.783  -0.267  1.00  0.00     0.220 C 
ATOM      4  O   UNL     1       2.485  -0.774  -1.476  1.00  0.00    -0.275 OA
ATOM      5  H   UNL     1       3.965  -1.697   0.082  1.00  0.00     0.163 HD
BRANCH   3   6
ATOM      6  C   UNL     1       0.950  -0.166   0.269  1.00  0.00     0.108 C 
BRANCH   6   7
ATOM      7  C   UNL     1      -0.019  -1.195   0.880  1.00  0.00     0.025 C 
ATOM      8  C   UNL     1      -0.133  -1.052   2.413  1.00  0.00     0.013 C 
BRANCH   7   9
ATOM      9  C   UNL     1      -1.456  -1.174   0.373  1.00  0.00    -0.044 A 
ATOM     10  C   UNL     1      -2.175   0.025   0.246  1.00  0.00     0.008 A 
ATOM     11  C   UNL     1      -2.147  -2.394   0.256  1.00  0.00     0.008 A 
ATOM     12  C   UNL     1      -3.561   0.000   0.087  1.00  0.00     0.046 A 
ATOM     13  C   UNL     1      -3.533  -2.417   0.101  1.00  0.00     0.046 A 
ATOM     14  C   UNL     1      -4.231  -1.216   0.051  1.00  0.00     0.115 A 
BRANCH  14  15
ATOM     15  O   UNL     1      -5.593  -1.193   0.005  1.00  0.00    -0.508 OA
ATOM     16  H   UNL     1      -6.047  -0.374  -0.029  1.00  0.00     0.293 HD
ENDBRANCH  14  15
ENDBRANCH   7   9
ENDBRANCH   6   7
ENDBRANCH   3   6
ENDBRANCH   1   2
BRANCH   1  17
ATOM     17  C   UNL     1       2.685  -2.830   2.458  1.00  0.00     0.042 C 
BRANCH  17  18
ATOM     18  C   UNL     1       3.677  -3.975   2.287  1.00  0.00     0.118 C 
BRANCH  18  19
ATOM     19  N   UNL     1       4.660  -4.003   3.360  1.00  0.00    -0.352 N 
ATOM     20  C   UNL     1       4.840  -4.907   4.379  1.00  0.00     0.251 C 
ATOM     21  H   UNL     1       5.299  -3.254   3.354  1.00  0.00     0.163 HD
ATOM     22  O   UNL     1       5.574  -4.612   5.317  1.00  0.00    -0.269 OA
BRANCH  20  23
ATOM     23  C   UNL     1       4.160  -6.225   4.374  1.00  0.00     0.039 A 
ATOM     24  C   UNL     1       3.705  -6.750   5.589  1.00  0.00     0.014 A 
ATOM     25  C   UNL     1       4.030  -6.981   3.206  1.00  0.00     0.014 A 
ATOM     26  C   UNL     1       3.075  -7.998   5.624  1.00  0.00     0.010 A 
ATOM     27  C   UNL     1       3.338  -8.191   3.228  1.00  0.00     0.010 A 
ATOM     28  C   UNL     1       2.859  -8.717   4.438  1.00  0.00    -0.014 A 
BRANCH  28  29
ATOM     29  C   UNL     1       2.147 -10.021   4.439  1.00  0.00     0.031 A 
ATOM     30  C   UNL     1       2.866 -11.278   4.038  1.00  0.00     0.074 A 
ATOM     31  C   UNL     1       0.833 -10.065   4.732  1.00  0.00     0.049 A 
ATOM     32  N   UNL     1       2.395 -12.490   3.880  1.00  0.00    -0.248 NA
ATOM     33  C   UNL     1       4.303 -11.151   3.753  1.00  0.00     0.031 C 
ATOM     34  C   UNL     1       0.013  -8.914   5.110  1.00  0.00     0.029 A 
ATOM     35  N   UNL     1      -0.046 -11.119   4.746  1.00  0.00    -0.354 N 
ATOM     36  C   UNL     1       3.469 -13.261   3.455  1.00  0.00     0.074 A 
ATOM     37  C   UNL     1       4.606 -12.373   3.340  1.00  0.00     0.031 C 
ATOM     38  C   UNL     1      -1.242  -9.327   5.344  1.00  0.00     0.029 A 
ATOM     39  C   UNL     1      -1.326 -10.763   5.091  1.00  0.00     0.049 A 
ATOM     40  H   UNL     1       0.217 -12.043   4.530  1.00  0.00     0.167 HD
ATOM     41  C   UNL     1       3.509 -14.592   3.203  1.00  0.00     0.037 A 
ATOM     42  C   UNL     1      -2.444 -11.508   5.184  1.00  0.00     0.037 A 
ATOM     43  C   UNL     1       2.386 -15.481   3.349  1.00  0.00     0.049 A 
ATOM     44  C   UNL     1      -2.382 -12.976   4.873  1.00  0.00     0.074 A 
ATOM     45  C   UNL     1       2.345 -16.855   3.192  1.00  0.00     0.029 A 
ATOM     46  N   UNL     1       1.101 -15.078   3.683  1.00  0.00    -0.354 N 
ATOM     47  N   UNL     1      -1.350 -13.704   4.523  1.00  0.00    -0.248 NA
ATOM     48  C   UNL     1      -3.643 -13.725   4.963  1.00  0.00     0.031 C 
ATOM     49  C   UNL     1       1.026 -17.279   3.392  1.00  0.00     0.029 A 
ATOM     50  C   UNL     1       0.253 -16.174   3.710  1.00  0.00     0.049 A 
ATOM     51  H   UNL     1       0.832 -14.151   3.874  1.00  0.00     0.167 HD
ATOM     52  C   UNL     1      -1.829 -14.997   4.370  1.00  0.00     0.074 A 
ATOM     53  C   UNL     1      -3.245 -14.957   4.675  1.00  0.00     0.031 C 
ATOM     54  C   UNL     1      -1.155 -16.117   4.009  1.00  0.00     0.037 A 
BRANCH  41  55
ATOM     55  C   UNL     1       4.816 -15.164   2.736  1.00  0.00     0.064 A 
ATOM     56  C   UNL     1       5.920 -15.276   3.595  1.00  0.00     0.173 A 
ATOM     57  C   UNL     1       4.965 -15.613   1.415  1.00  0.00     0.173 A 
ATOM     58  F   UNL     1       5.833 -14.852   4.864  1.00  0.00    -0.203 F 
ATOM     59  C   UNL     1       7.136 -15.779   3.138  1.00  0.00     0.198 A 
ATOM     60  C   UNL     1       6.174 -16.142   0.969  1.00  0.00     0.198 A 
ATOM     61  F   UNL     1       3.939 -15.535   0.554  1.00  0.00    -0.203 F 
ATOM     62  F   UNL     1       8.193 -15.822   3.961  1.00  0.00    -0.200 F 
ATOM     63  C   UNL     1       7.261 -16.214   1.827  1.00  0.00     0.200 A 
ATOM     64  F   UNL     1       6.290 -16.572  -0.295  1.00  0.00    -0.200 F 
ATOM     65  F   UNL     1       8.432 -16.694   1.388  1.00  0.00    -0.200 F 
ENDBRANCH  41  55
BRANCH  42  66
ATOM     66  C   UNL     1      -3.712 -10.873   5.623  1.00  0.00     0.064 A 
ATOM     67  C   UNL     1      -4.226 -11.121   6.903  1.00  0.00     0.173 A 
ATOM     68  C   UNL     1      -4.417  -9.990   4.793  1.00  0.00     0.173 A 
ATOM     69  F   UNL     1      -3.596 -11.975   7.722  1.00  0.00    -0.203 F 
ATOM     70  C   UNL     1      -5.400 -10.510   7.337  1.00  0.00     0.198 A 
ATOM     71  C   UNL     1      -5.579  -9.362   5.236  1.00  0.00     0.198 A 
ATOM     72  F   UNL     1      -3.963  -9.719   3.560  1.00  0.00    -0.203 F 
ATOM     73  F   UNL     1      -5.883 -10.781   8.556  1.00  0.00    -0.200 F 
ATOM     74  C   UNL     1      -6.071  -9.625   6.506  1.00  0.00     0.200 A 
ATOM     75  F   UNL     1      -6.219  -8.499   4.435  1.00  0.00    -0.200 F 
ATOM     76  F   UNL     1      -7.194  -9.027   6.928  1.00  0.00    -0.200 F 
ENDBRANCH  42  66
BRANCH  54  77
ATOM     77  C   UNL     1      -1.938 -17.394   3.939  1.00  0.00     0.064 A 
ATOM     78  C   UNL     1      -2.822 -17.652   2.882  1.00  0.00     0.173 A 
ATOM     79  C   UNL     1      -1.772 -18.386   4.918  1.00  0.00     0.173 A 
ATOM     80  F   UNL     1      -3.027 -16.727   1.933  1.00  0.00    -0.203 F 
ATOM     81  C   UNL     1      -3.525 -18.852   2.815  1.00  0.00     0.198 A 
ATOM     82  C   UNL     1      -2.458 -19.594   4.835  1.00  0.00     0.198 A 
ATOM     83  F   UNL     1      -0.936 -18.186   5.947  1.00  0.00    -0.203 F 
ATOM     84  F   UNL     1      -4.393 -19.064   1.816  1.00  0.00    -0.200 F 
ATOM     85  C   UNL     1      -3.337 -19.824   3.787  1.00  0.00     0.200 A 
ATOM     86  F   UNL     1      -2.270 -20.535   5.770  1.00  0.00    -0.200 F 
ATOM     87  F   UNL     1      -4.010 -20.981   3.718  1.00  0.00    -0.200 F 
ENDBRANCH  54  77
ENDBRANCH  28  29
ENDBRANCH  20  23
ENDBRANCH  18  19
ENDBRANCH  17  18
ENDBRANCH   1  17
TORSDOF 13
