REMARK SMILES O=C(NCCCNC(=O)[C@H]1[C@@H](C(=O)Nc2ccccc2-c2ccccc2)[C@@H]2C=C[C@H]1O2)c1ccc(-c2c3nc(c(-c4c(F)c(F)c(F)c(F)c4F)c4ccc([nH]4)c(-c4c(F)c(F)c(F)c(F)c4F)c4nc(c(-c5c(F)c(F)c(F)c(F)c5F)c5ccc2[nH]5)C=C4)C=C3)cc1
REMARK SMILES IDX 5 1 4 2 3 3 1 4 2 5 32 7 33 8 94 9 34 10 93 11 35 12 36 13
REMARK SMILES IDX 37 14 87 15 38 16 92 17 86 18 88 19 39 20 91 21 85 22 84 23
REMARK SMILES IDX 40 25 72 26 52 27 71 28 53 29 56 30 70 31 89 32 54 33 55 34
REMARK SMILES IDX 69 36 90 37 57 38 41 39 42 40 50 41 43 42 44 43 48 44 51 45
REMARK SMILES IDX 45 46 46 47 49 48 47 49 73 50 74 51 82 52 75 53 76 54 80 55
REMARK SMILES IDX 83 56 77 57 78 58 81 59 79 60 58 61 59 62 67 63 60 64 61 65
REMARK SMILES IDX 65 66 68 67 62 68 63 69 66 70 64 71 6 72 7 73 8 74 9 76
REMARK SMILES IDX 10 77 11 78 30 79 27 80 29 81 31 82 28 83 12 84 13 85 14 86
REMARK SMILES IDX 15 88 16 89 20 90 17 91 19 92 18 93 21 94 22 95 26 96 23 97
REMARK SMILES IDX 25 98 24 99
REMARK H PARENT 3 6 88 24 56 35 7 75 14 87
REMARK Flexibility Score: inf
ROOT
ATOM      1  C   UNL     1       4.597  -1.671   2.945  1.00  0.00     0.042 C 
ENDROOT
BRANCH   1   2
ATOM      2  C   UNL     1       5.285  -0.462   3.571  1.00  0.00     0.118 C 
BRANCH   2   3
ATOM      3  N   UNL     1       5.666   0.541   2.588  1.00  0.00    -0.352 N 
ATOM      4  O   UNL     1       5.691   2.567   1.599  1.00  0.00    -0.269 OA
ATOM      5  C   UNL     1       5.428   1.891   2.593  1.00  0.00     0.251 C 
ATOM      6  H   UNL     1       6.167   0.203   1.811  1.00  0.00     0.163 HD
BRANCH   5   7
ATOM      7  C   UNL     1       4.827   2.531   3.781  1.00  0.00     0.039 A 
ATOM      8  C   UNL     1       5.282   2.223   5.066  1.00  0.00     0.014 A 
ATOM      9  C   UNL     1       3.799   3.460   3.603  1.00  0.00     0.014 A 
ATOM     10  C   UNL     1       4.624   2.743   6.175  1.00  0.00     0.010 A 
ATOM     11  C   UNL     1       3.191   4.043   4.717  1.00  0.00     0.010 A 
ATOM     12  C   UNL     1       3.579   3.668   6.013  1.00  0.00    -0.014 A 
BRANCH  12  13
ATOM     13  C   UNL     1       2.946   4.271   7.211  1.00  0.00     0.031 A 
ATOM     14  C   UNL     1       1.506   4.006   7.545  1.00  0.00     0.074 A 
ATOM     15  C   UNL     1       3.693   5.056   8.011  1.00  0.00     0.049 A 
ATOM     16  N   UNL     1       0.797   4.450   8.554  1.00  0.00    -0.248 NA
ATOM     17  C   UNL     1       0.757   3.137   6.625  1.00  0.00     0.031 C 
ATOM     18  C   UNL     1       5.099   5.394   7.780  1.00  0.00     0.029 A 
ATOM     19  N   UNL     1       3.383   5.701   9.180  1.00  0.00    -0.354 N 
ATOM     20  C   UNL     1      -0.478   3.928   8.384  1.00  0.00     0.074 A 
ATOM     21  C   UNL     1      -0.457   3.157   7.158  1.00  0.00     0.031 C 
ATOM     22  C   UNL     1       5.540   6.153   8.793  1.00  0.00     0.029 A 
ATOM     23  C   UNL     1       4.436   6.402   9.713  1.00  0.00     0.049 A 
ATOM     24  H   UNL     1       2.492   5.665   9.597  1.00  0.00     0.167 HD
ATOM     25  C   UNL     1      -1.562   4.072   9.185  1.00  0.00     0.037 A 
ATOM     26  C   UNL     1       4.503   7.176  10.812  1.00  0.00     0.037 A 
ATOM     27  C   UNL     1      -1.571   4.830  10.411  1.00  0.00     0.049 A 
ATOM     28  C   UNL     1       3.277   7.341  11.664  1.00  0.00     0.074 A 
ATOM     29  C   UNL     1      -2.608   5.002  11.312  1.00  0.00     0.029 A 
ATOM     30  N   UNL     1      -0.492   5.548  10.905  1.00  0.00    -0.354 N 
ATOM     31  N   UNL     1       2.089   6.809  11.514  1.00  0.00    -0.248 NA
ATOM     32  C   UNL     1       3.402   8.215  12.837  1.00  0.00     0.031 C 
ATOM     33  C   UNL     1      -2.173   5.864  12.324  1.00  0.00     0.029 A 
ATOM     34  C   UNL     1      -0.847   6.187  12.084  1.00  0.00     0.049 A 
ATOM     35  H   UNL     1       0.396   5.598  10.482  1.00  0.00     0.167 HD
ATOM     36  C   UNL     1       1.330   7.266  12.582  1.00  0.00     0.074 A 
ATOM     37  C   UNL     1       2.200   8.104  13.383  1.00  0.00     0.031 C 
ATOM     38  C   UNL     1       0.029   7.017  12.870  1.00  0.00     0.037 A 
BRANCH  25  39
ATOM     39  C   UNL     1      -2.840   3.409   8.758  1.00  0.00     0.064 A 
ATOM     40  C   UNL     1      -3.001   2.016   8.806  1.00  0.00     0.173 A 
ATOM     41  C   UNL     1      -3.937   4.181   8.345  1.00  0.00     0.173 A 
ATOM     42  F   UNL     1      -1.981   1.231   9.184  1.00  0.00    -0.203 F 
ATOM     43  C   UNL     1      -4.204   1.420   8.436  1.00  0.00     0.198 A 
ATOM     44  C   UNL     1      -5.147   3.583   8.002  1.00  0.00     0.198 A 
ATOM     45  F   UNL     1      -3.840   5.517   8.287  1.00  0.00    -0.203 F 
ATOM     46  F   UNL     1      -4.322   0.085   8.451  1.00  0.00    -0.200 F 
ATOM     47  C   UNL     1      -5.278   2.204   8.042  1.00  0.00     0.200 A 
ATOM     48  F   UNL     1      -6.188   4.344   7.634  1.00  0.00    -0.200 F 
ATOM     49  F   UNL     1      -6.438   1.629   7.695  1.00  0.00    -0.200 F 
ENDBRANCH  25  39
BRANCH  26  50
ATOM     50  C   UNL     1       5.778   7.852  11.159  1.00  0.00     0.064 A 
ATOM     51  C   UNL     1       6.514   7.469  12.288  1.00  0.00     0.173 A 
ATOM     52  C   UNL     1       6.293   8.886  10.363  1.00  0.00     0.173 A 
ATOM     53  F   UNL     1       6.053   6.499  13.091  1.00  0.00    -0.203 F 
ATOM     54  C   UNL     1       7.709   8.105  12.616  1.00  0.00     0.198 A 
ATOM     55  C   UNL     1       7.503   9.500  10.675  1.00  0.00     0.198 A 
ATOM     56  F   UNL     1       5.628   9.286   9.269  1.00  0.00    -0.203 F 
ATOM     57  F   UNL     1       8.373   7.749  13.725  1.00  0.00    -0.200 F 
ATOM     58  C   UNL     1       8.207   9.115  11.805  1.00  0.00     0.200 A 
ATOM     59  F   UNL     1       7.988  10.464   9.879  1.00  0.00    -0.200 F 
ATOM     60  F   UNL     1       9.360   9.721  12.118  1.00  0.00    -0.200 F 
ENDBRANCH  26  50
BRANCH  38  61
ATOM     61  C   UNL     1      -0.523   7.638  14.120  1.00  0.00     0.064 A 
ATOM     62  C   UNL     1      -0.773   9.016  14.208  1.00  0.00     0.173 A 
ATOM     63  C   UNL     1      -0.831   6.841  15.233  1.00  0.00     0.173 A 
ATOM     64  F   UNL     1      -0.479   9.822  13.177  1.00  0.00    -0.203 F 
ATOM     65  C   UNL     1      -1.284   9.576  15.375  1.00  0.00     0.198 A 
ATOM     66  C   UNL     1      -1.370   7.401  16.387  1.00  0.00     0.198 A 
ATOM     67  F   UNL     1      -0.616   5.518  15.197  1.00  0.00    -0.203 F 
ATOM     68  F   UNL     1      -1.466  10.902  15.456  1.00  0.00    -0.200 F 
ATOM     69  C   UNL     1      -1.589   8.768  16.461  1.00  0.00     0.200 A 
ATOM     70  F   UNL     1      -1.675   6.617  17.431  1.00  0.00    -0.200 F 
ATOM     71  F   UNL     1      -2.085   9.309  17.582  1.00  0.00    -0.200 F 
ENDBRANCH  38  61
ENDBRANCH  12  13
ENDBRANCH   5   7
ENDBRANCH   2   3
ENDBRANCH   1   2
BRANCH   1  72
ATOM     72  C   UNL     1       5.490  -2.462   1.990  1.00  0.00     0.117 C 
BRANCH  72  73
ATOM     73  N   UNL     1       6.673  -2.941   2.682  1.00  0.00    -0.356 N 
ATOM     74  C   UNL     1       6.748  -4.108   3.397  1.00  0.00     0.227 C 
ATOM     75  H   UNL     1       7.483  -2.384   2.634  1.00  0.00     0.163 HD
ATOM     76  O   UNL     1       7.238  -4.071   4.521  1.00  0.00    -0.275 OA
BRANCH  74  77
ATOM     77  C   UNL     1       6.161  -5.339   2.747  1.00  0.00     0.127 C 
ATOM     78  C   UNL     1       7.013  -6.635   2.763  1.00  0.00     0.127 C 
ATOM     79  C   UNL     1       4.919  -5.781   3.527  1.00  0.00     0.155 C 
ATOM     80  C   UNL     1       6.161  -7.559   3.649  1.00  0.00     0.155 C 
ATOM     81  C   UNL     1       4.186  -6.852   2.763  1.00  0.00     0.004 C 
ATOM     82  O   UNL     1       5.530  -6.612   4.546  1.00  0.00    -0.365 OA
ATOM     83  C   UNL     1       4.942  -7.957   2.858  1.00  0.00     0.004 C 
BRANCH  78  84
ATOM     84  C   UNL     1       8.485  -6.601   3.135  1.00  0.00     0.231 C 
ATOM     85  O   UNL     1       9.116  -5.562   3.331  1.00  0.00    -0.274 OA
ATOM     86  N   UNL     1       9.190  -7.772   3.229  1.00  0.00    -0.325 N 
ATOM     87  H   UNL     1       9.970  -7.721   3.826  1.00  0.00     0.169 HD
BRANCH  86  88
ATOM     88  C   UNL     1       9.011  -9.039   2.632  1.00  0.00     0.049 A 
ATOM     89  C   UNL     1       9.395 -10.119   3.446  1.00  0.00     0.027 A 
ATOM     90  C   UNL     1       8.569  -9.283   1.304  1.00  0.00     0.005 A 
ATOM     91  C   UNL     1       9.256 -11.436   3.013  1.00  0.00     0.002 A 
ATOM     92  C   UNL     1       8.436 -10.630   0.898  1.00  0.00     0.011 A 
ATOM     93  C   UNL     1       8.761 -11.692   1.743  1.00  0.00     0.001 A 
BRANCH  90  94
ATOM     94  C   UNL     1       8.335  -8.232   0.286  1.00  0.00    -0.016 A 
ATOM     95  C   UNL     1       7.125  -8.188  -0.438  1.00  0.00     0.009 A 
ATOM     96  C   UNL     1       9.264  -7.200   0.067  1.00  0.00     0.009 A 
ATOM     97  C   UNL     1       6.821  -7.107  -1.271  1.00  0.00     0.001 A 
ATOM     98  C   UNL     1       8.960  -6.120  -0.766  1.00  0.00     0.001 A 
ATOM     99  C   UNL     1       7.732  -6.066  -1.421  1.00  0.00     0.000 A 
ENDBRANCH  90  94
ENDBRANCH  86  88
ENDBRANCH  78  84
ENDBRANCH  74  77
ENDBRANCH  72  73
ENDBRANCH   1  72
TORSDOF 13
