REMARK SMILES COc1cc(C(=O)NC2(C(=O)NCCCNC(=O)c3ccc(-c4c5nc(c(-c6c(F)c(F)c(F)c(F)c6F)c6ccc([nH]6)c(-c6c(F)c(F)c(F)c(F)c6F)c6nc(c(-c7c(F)c(F)c(F)c(F)c7F)c7ccc4[nH]7)C=C6)C=C5)cc3)CCCCC2)cc2c1OCCO2
REMARK SMILES IDX 13 1 12 2 10 3 11 4 9 6 82 7 86 8 83 9 85 10 84 11 8 12 6 13
REMARK SMILES IDX 7 14 5 16 3 17 4 18 89 19 88 20 90 21 87 22 93 23 91 24
REMARK SMILES IDX 92 25 2 26 1 27 14 28 15 29 16 30 17 31 18 33 19 34 20 35
REMARK SMILES IDX 81 36 21 37 80 38 22 39 23 40 24 41 74 42 25 43 79 44 73 45
REMARK SMILES IDX 75 46 26 47 78 48 72 49 71 50 27 52 59 53 39 54 58 55 40 56
REMARK SMILES IDX 43 57 57 58 76 59 41 60 42 61 56 63 77 64 44 65 28 66 29 67
REMARK SMILES IDX 37 68 30 69 31 70 35 71 38 72 32 73 33 74 36 75 34 76 60 77
REMARK SMILES IDX 61 78 69 79 62 80 63 81 67 82 70 83 64 84 65 85 68 86 66 87
REMARK SMILES IDX 45 88 46 89 54 90 47 91 48 92 52 93 55 94 49 95 50 96 53 97
REMARK SMILES IDX 51 98
REMARK H PARENT 12 5 8 15 16 32 75 51 43 62
REMARK Flexibility Score: inf
ROOT
ATOM      1  C   UNL     1      -3.495   1.870  -2.503  1.00  0.00     0.117 C 
ENDROOT
BRANCH   1   2
ATOM      2  N   UNL     1      -3.341   3.292  -2.649  1.00  0.00    -0.354 N 
ATOM      3  C   UNL     1      -2.887   4.243  -1.800  1.00  0.00     0.245 C 
ATOM      4  O   UNL     1      -2.931   5.390  -2.274  1.00  0.00    -0.272 OA
ATOM      5  H   UNL     1      -3.616   3.637  -3.529  1.00  0.00     0.163 HD
BRANCH   3   6
ATOM      6  C   UNL     1      -2.474   4.017  -0.288  1.00  0.00     0.119 C 
ATOM      7  C   UNL     1      -1.737   2.729   0.132  1.00  0.00     0.038 C 
ATOM      8  C   UNL     1      -3.737   4.214   0.583  1.00  0.00     0.038 C 
ATOM      9  C   UNL     1      -2.459   1.552   0.798  1.00  0.00     0.003 C 
ATOM     10  C   UNL     1      -4.580   2.960   0.764  1.00  0.00     0.003 C 
ATOM     11  C   UNL     1      -3.807   1.835   1.424  1.00  0.00     0.000 C 
BRANCH   6  12
ATOM     12  N   UNL     1      -1.619   5.257  -0.069  1.00  0.00    -0.338 N 
ATOM     13  C   UNL     1      -0.305   5.643  -0.185  1.00  0.00     0.252 C 
ATOM     14  O   UNL     1      -0.043   6.843  -0.099  1.00  0.00    -0.269 OA
ATOM     15  H   UNL     1      -2.172   6.006   0.252  1.00  0.00     0.164 HD
BRANCH  13  16
ATOM     16  C   UNL     1       0.826   4.696  -0.283  1.00  0.00     0.047 A 
ATOM     17  C   UNL     1       1.686   2.526  -0.853  1.00  0.00     0.165 A 
ATOM     18  C   UNL     1       0.794   3.572  -1.098  1.00  0.00     0.064 A 
ATOM     19  C   UNL     1       2.797   2.729  -0.033  1.00  0.00     0.203 A 
ATOM     20  C   UNL     1       2.967   3.976   0.579  1.00  0.00     0.166 A 
ATOM     21  O   UNL     1       3.696   1.701   0.114  1.00  0.00    -0.483 OA
ATOM     22  C   UNL     1       1.953   4.931   0.516  1.00  0.00     0.064 A 
ATOM     23  O   UNL     1       4.101   4.311   1.276  1.00  0.00    -0.486 OA
ATOM     24  C   UNL     1       4.738   2.005   1.048  1.00  0.00     0.271 C 
ATOM     25  C   UNL     1       5.180   3.448   0.892  1.00  0.00     0.271 C 
BRANCH  17  26
ATOM     26  O   UNL     1       1.368   1.316  -1.418  1.00  0.00    -0.493 OA
ATOM     27  C   UNL     1       1.193   0.303  -0.417  1.00  0.00     0.278 C 
ENDBRANCH  17  26
ENDBRANCH  13  16
ENDBRANCH   6  12
ENDBRANCH   3   6
ENDBRANCH   1   2
BRANCH   1  28
ATOM     28  C   UNL     1      -4.941   1.426  -2.626  1.00  0.00     0.042 C 
BRANCH  28  29
ATOM     29  C   UNL     1      -5.308   1.040  -4.045  1.00  0.00     0.118 C 
BRANCH  29  30
ATOM     30  N   UNL     1      -4.606  -0.161  -4.489  1.00  0.00    -0.352 N 
ATOM     31  C   UNL     1      -5.064  -1.433  -4.724  1.00  0.00     0.251 C 
ATOM     32  H   UNL     1      -3.642  -0.038  -4.646  1.00  0.00     0.163 HD
ATOM     33  O   UNL     1      -4.260  -2.350  -4.881  1.00  0.00    -0.269 OA
BRANCH  31  34
ATOM     34  C   UNL     1      -6.514  -1.711  -4.764  1.00  0.00     0.039 A 
ATOM     35  C   UNL     1      -6.998  -2.913  -4.243  1.00  0.00     0.014 A 
ATOM     36  C   UNL     1      -7.401  -0.786  -5.314  1.00  0.00     0.014 A 
ATOM     37  C   UNL     1      -8.375  -3.144  -4.202  1.00  0.00     0.010 A 
ATOM     38  C   UNL     1      -8.766  -0.951  -5.142  1.00  0.00     0.010 A 
ATOM     39  C   UNL     1      -9.272  -2.143  -4.607  1.00  0.00    -0.014 A 
BRANCH  39  40
ATOM     40  C   UNL     1     -10.743  -2.325  -4.524  1.00  0.00     0.031 A 
ATOM     41  C   UNL     1     -11.579  -2.214  -5.772  1.00  0.00     0.074 A 
ATOM     42  C   UNL     1     -11.330  -2.510  -3.325  1.00  0.00     0.049 A 
ATOM     43  N   UNL     1     -12.881  -2.233  -5.903  1.00  0.00    -0.248 NA
ATOM     44  C   UNL     1     -10.857  -2.010  -7.040  1.00  0.00     0.031 C 
ATOM     45  C   UNL     1     -10.632  -2.571  -2.039  1.00  0.00     0.029 A 
ATOM     46  N   UNL     1     -12.651  -2.670  -2.992  1.00  0.00    -0.354 N 
ATOM     47  C   UNL     1     -13.127  -2.020  -7.253  1.00  0.00     0.074 A 
ATOM     48  C   UNL     1     -11.849  -1.797  -7.889  1.00  0.00     0.031 C 
ATOM     49  C   UNL     1     -11.527  -2.789  -1.062  1.00  0.00     0.029 A 
ATOM     50  C   UNL     1     -12.864  -2.836  -1.645  1.00  0.00     0.049 A 
ATOM     51  H   UNL     1     -13.378  -2.666  -3.655  1.00  0.00     0.167 HD
ATOM     52  C   UNL     1     -14.309  -2.046  -7.912  1.00  0.00     0.037 A 
ATOM     53  C   UNL     1     -14.011  -3.001  -0.959  1.00  0.00     0.037 A 
ATOM     54  C   UNL     1     -15.572  -2.311  -7.279  1.00  0.00     0.049 A 
ATOM     55  C   UNL     1     -15.312  -3.033  -1.717  1.00  0.00     0.074 A 
ATOM     56  C   UNL     1     -16.822  -2.424  -7.861  1.00  0.00     0.029 A 
ATOM     57  N   UNL     1     -15.743  -2.509  -5.917  1.00  0.00    -0.354 N 
ATOM     58  N   UNL     1     -15.524  -2.903  -3.004  1.00  0.00    -0.248 NA
ATOM     59  C   UNL     1     -16.532  -3.243  -0.926  1.00  0.00     0.031 C 
ATOM     60  C   UNL     1     -17.756  -2.641  -6.844  1.00  0.00     0.029 A 
ATOM     61  C   UNL     1     -17.082  -2.724  -5.636  1.00  0.00     0.049 A 
ATOM     62  H   UNL     1     -15.020  -2.498  -5.249  1.00  0.00     0.167 HD
ATOM     63  C   UNL     1     -16.894  -3.047  -3.182  1.00  0.00     0.074 A 
ATOM     64  C   UNL     1     -17.459  -3.292  -1.871  1.00  0.00     0.031 C 
ATOM     65  C   UNL     1     -17.620  -2.980  -4.325  1.00  0.00     0.037 A 
BRANCH  52  66
ATOM     66  C   UNL     1     -14.287  -1.798  -9.394  1.00  0.00     0.064 A 
ATOM     67  C   UNL     1     -13.707  -2.714 -10.286  1.00  0.00     0.173 A 
ATOM     68  C   UNL     1     -14.882  -0.647  -9.933  1.00  0.00     0.173 A 
ATOM     69  F   UNL     1     -13.112  -3.823  -9.823  1.00  0.00    -0.203 F 
ATOM     70  C   UNL     1     -13.695  -2.472 -11.657  1.00  0.00     0.198 A 
ATOM     71  C   UNL     1     -14.900  -0.426 -11.308  1.00  0.00     0.198 A 
ATOM     72  F   UNL     1     -15.453   0.261  -9.128  1.00  0.00    -0.203 F 
ATOM     73  F   UNL     1     -13.086  -3.334 -12.482  1.00  0.00    -0.200 F 
ATOM     74  C   UNL     1     -14.300  -1.334 -12.168  1.00  0.00     0.200 A 
ATOM     75  F   UNL     1     -15.496   0.668 -11.801  1.00  0.00    -0.200 F 
ATOM     76  F   UNL     1     -14.297  -1.107 -13.489  1.00  0.00    -0.200 F 
ENDBRANCH  52  66
BRANCH  53  77
ATOM     77  C   UNL     1     -13.982  -3.171   0.519  1.00  0.00     0.064 A 
ATOM     78  C   UNL     1     -14.342  -4.390   1.111  1.00  0.00     0.173 A 
ATOM     79  C   UNL     1     -13.612  -2.120   1.370  1.00  0.00     0.173 A 
ATOM     80  F   UNL     1     -14.721  -5.422   0.341  1.00  0.00    -0.203 F 
ATOM     81  C   UNL     1     -14.362  -4.542   2.496  1.00  0.00     0.198 A 
ATOM     82  C   UNL     1     -13.600  -2.283   2.754  1.00  0.00     0.198 A 
ATOM     83  F   UNL     1     -13.249  -0.935   0.857  1.00  0.00    -0.203 F 
ATOM     84  F   UNL     1     -14.765  -5.701   3.035  1.00  0.00    -0.200 F 
ATOM     85  C   UNL     1     -13.986  -3.490   3.316  1.00  0.00     0.200 A 
ATOM     86  F   UNL     1     -13.218  -1.269   3.542  1.00  0.00    -0.200 F 
ATOM     87  F   UNL     1     -14.004  -3.636   4.648  1.00  0.00    -0.200 F 
ENDBRANCH  53  77
BRANCH  65  88
ATOM     88  C   UNL     1     -19.098  -3.217  -4.216  1.00  0.00     0.064 A 
ATOM     89  C   UNL     1     -19.953  -2.285  -3.612  1.00  0.00     0.173 A 
ATOM     90  C   UNL     1     -19.670  -4.375  -4.766  1.00  0.00     0.173 A 
ATOM     91  F   UNL     1     -19.454  -1.169  -3.060  1.00  0.00    -0.203 F 
ATOM     92  C   UNL     1     -21.324  -2.517  -3.537  1.00  0.00     0.198 A 
ATOM     93  C   UNL     1     -21.044  -4.587  -4.720  1.00  0.00     0.198 A 
ATOM     94  F   UNL     1     -18.896  -5.294  -5.363  1.00  0.00    -0.203 F 
ATOM     95  F   UNL     1     -22.116  -1.637  -2.909  1.00  0.00    -0.200 F 
ATOM     96  C   UNL     1     -21.869  -3.662  -4.098  1.00  0.00     0.200 A 
ATOM     97  F   UNL     1     -21.570  -5.686  -5.278  1.00  0.00    -0.200 F 
ATOM     98  F   UNL     1     -23.190  -3.878  -4.033  1.00  0.00    -0.200 F 
ENDBRANCH  65  88
ENDBRANCH  39  40
ENDBRANCH  31  34
ENDBRANCH  29  30
ENDBRANCH  28  29
ENDBRANCH   1  28
TORSDOF 13
