REMARK SMILES CC[C@@H](C)c1nc2cc(C(=O)NCCCNC(=O)c3ccc(-c4c5nc(c(-c6c(F)c(F)c(F)c(F)c6F)c6ccc([nH]6)c(-c6c(F)c(F)c(F)c(F)c6F)c6nc(c(-c7c(F)c(F)c(F)c(F)c7F)c7ccc4[nH]7)C=C6)C=C5)cc3)ccc2n1[C@@H](C)CC
REMARK SMILES IDX 14 1 13 2 12 3 10 4 11 5 9 7 5 8 6 9 85 10 7 11 84 12 8 13
REMARK SMILES IDX 83 14 82 15 3 16 4 17 2 18 1 19 86 20 87 21 88 22 89 23
REMARK SMILES IDX 15 24 16 25 17 26 18 28 19 29 20 30 81 31 21 32 80 33 22 34
REMARK SMILES IDX 23 35 24 36 74 37 25 38 79 39 73 40 75 41 26 42 78 43 72 44
REMARK SMILES IDX 71 45 27 47 59 48 39 49 58 50 40 51 43 52 57 53 76 54 41 55
REMARK SMILES IDX 42 56 56 58 77 59 44 60 28 61 29 62 37 63 30 64 31 65 35 66
REMARK SMILES IDX 38 67 32 68 33 69 36 70 34 71 60 72 61 73 69 74 62 75 63 76
REMARK SMILES IDX 67 77 70 78 64 79 65 80 68 81 66 82 45 83 46 84 54 85 47 86
REMARK SMILES IDX 48 87 52 88 55 89 49 90 50 91 53 92 51 93
REMARK H PARENT 12 6 16 27 75 46 43 57
REMARK Flexibility Score: inf
ROOT
ATOM      1  C   UNL     1      -2.528  -1.545  11.180  1.00  0.00     0.042 C 
ENDROOT
BRANCH   1   2
ATOM      2  C   UNL     1      -1.059  -1.762  10.811  1.00  0.00     0.118 C 
BRANCH   2   3
ATOM      3  N   UNL     1      -0.902  -2.887   9.905  1.00  0.00    -0.352 N 
ATOM      4  C   UNL     1      -0.726  -3.007   8.551  1.00  0.00     0.251 C 
ATOM      5  O   UNL     1      -0.605  -4.152   8.112  1.00  0.00    -0.269 OA
ATOM      6  H   UNL     1      -0.928  -3.756  10.366  1.00  0.00     0.163 HD
BRANCH   4   7
ATOM      7  C   UNL     1      -0.639  -1.859   7.607  1.00  0.00     0.042 A 
ATOM      8  C   UNL     1       0.587   0.163   3.703  1.00  0.00     0.112 A 
ATOM      9  N   UNL     1       0.748  -1.047   4.229  1.00  0.00    -0.233 NA
ATOM     10  N   UNL     1       0.005   0.995   4.657  1.00  0.00    -0.325 N 
ATOM     11  C   UNL     1       0.166  -1.049   5.460  1.00  0.00     0.090 A 
ATOM     12  C   UNL     1      -0.363   0.196   5.741  1.00  0.00     0.068 A 
ATOM     13  C   UNL     1       0.046  -2.086   6.397  1.00  0.00     0.044 A 
ATOM     14  C   UNL     1      -1.083   0.443   6.919  1.00  0.00     0.029 A 
ATOM     15  C   UNL     1      -1.233  -0.615   7.826  1.00  0.00     0.016 A 
BRANCH   8  16
ATOM     16  C   UNL     1       1.085   0.424   2.277  1.00  0.00     0.052 C 
ATOM     17  C   UNL     1       0.663   1.704   1.573  1.00  0.00     0.016 C 
BRANCH  16  18
ATOM     18  C   UNL     1       0.679  -0.792   1.385  1.00  0.00     0.008 C 
ATOM     19  C   UNL     1       1.113  -0.701  -0.074  1.00  0.00     0.004 C 
ENDBRANCH  16  18
ENDBRANCH   8  16
BRANCH  10  20
ATOM     20  C   UNL     1      -0.176   2.443   4.707  1.00  0.00     0.085 C 
ATOM     21  C   UNL     1       1.144   3.220   4.624  1.00  0.00     0.031 C 
BRANCH  20  22
ATOM     22  C   UNL     1      -1.335   2.999   3.857  1.00  0.00     0.022 C 
ATOM     23  C   UNL     1      -2.650   2.251   4.060  1.00  0.00     0.006 C 
ENDBRANCH  20  22
ENDBRANCH  10  20
ENDBRANCH   4   7
ENDBRANCH   2   3
ENDBRANCH   1   2
BRANCH   1  24
ATOM     24  C   UNL     1      -3.127  -2.710  11.973  1.00  0.00     0.118 C 
BRANCH  24  25
ATOM     25  N   UNL     1      -2.562  -2.883  13.298  1.00  0.00    -0.352 N 
ATOM     26  C   UNL     1      -2.688  -2.228  14.496  1.00  0.00     0.251 C 
ATOM     27  H   UNL     1      -1.944  -3.648  13.348  1.00  0.00     0.163 HD
ATOM     28  O   UNL     1      -2.065  -2.694  15.445  1.00  0.00    -0.269 OA
BRANCH  26  29
ATOM     29  C   UNL     1      -3.469  -0.974  14.699  1.00  0.00     0.039 A 
ATOM     30  C   UNL     1      -4.420  -0.460  13.819  1.00  0.00     0.014 A 
ATOM     31  C   UNL     1      -3.199  -0.259  15.881  1.00  0.00     0.014 A 
ATOM     32  C   UNL     1      -4.999   0.785  14.048  1.00  0.00     0.010 A 
ATOM     33  C   UNL     1      -3.807   0.970  16.136  1.00  0.00     0.010 A 
ATOM     34  C   UNL     1      -4.669   1.519  15.189  1.00  0.00    -0.014 A 
BRANCH  34  35
ATOM     35  C   UNL     1      -5.271   2.846  15.339  1.00  0.00     0.031 A 
ATOM     36  C   UNL     1      -6.759   2.916  15.451  1.00  0.00     0.074 A 
ATOM     37  C   UNL     1      -4.541   3.971  15.465  1.00  0.00     0.049 A 
ATOM     38  N   UNL     1      -7.596   3.625  14.757  1.00  0.00    -0.248 NA
ATOM     39  C   UNL     1      -7.396   2.068  16.471  1.00  0.00     0.031 C 
ATOM     40  C   UNL     1      -3.095   4.083  15.676  1.00  0.00     0.029 A 
ATOM     41  N   UNL     1      -4.970   5.269  15.522  1.00  0.00    -0.354 N 
ATOM     42  C   UNL     1      -8.850   3.412  15.328  1.00  0.00     0.074 A 
ATOM     43  C   UNL     1      -8.680   2.400  16.339  1.00  0.00     0.031 C 
ATOM     44  C   UNL     1      -2.797   5.348  16.040  1.00  0.00     0.029 A 
ATOM     45  C   UNL     1      -4.000   6.158  15.948  1.00  0.00     0.049 A 
ATOM     46  H   UNL     1      -5.884   5.544  15.281  1.00  0.00     0.167 HD
ATOM     47  C   UNL     1      -9.939   4.177  15.042  1.00  0.00     0.037 A 
ATOM     48  C   UNL     1      -4.176   7.461  16.261  1.00  0.00     0.037 A 
ATOM     49  C   UNL     1      -9.784   4.944  13.842  1.00  0.00     0.049 A 
ATOM     50  C   UNL     1      -5.411   7.948  15.608  1.00  0.00     0.074 A 
ATOM     51  C   UNL     1      -9.818   4.682  12.490  1.00  0.00     0.029 A 
ATOM     52  N   UNL     1      -9.292   6.211  13.990  1.00  0.00    -0.354 N 
ATOM     53  N   UNL     1      -5.557   8.090  14.320  1.00  0.00    -0.248 NA
ATOM     54  C   UNL     1      -6.634   8.078  16.391  1.00  0.00     0.031 C 
ATOM     55  C   UNL     1      -9.043   5.707  11.872  1.00  0.00     0.029 A 
ATOM     56  C   UNL     1      -8.553   6.535  12.880  1.00  0.00     0.049 A 
ATOM     57  H   UNL     1      -9.444   6.796  14.767  1.00  0.00     0.167 HD
ATOM     58  C   UNL     1      -6.912   7.933  14.106  1.00  0.00     0.074 A 
ATOM     59  C   UNL     1      -7.533   8.117  15.406  1.00  0.00     0.031 C 
ATOM     60  C   UNL     1      -7.373   7.365  12.957  1.00  0.00     0.037 A 
BRANCH  47  61
ATOM     61  C   UNL     1     -11.062   4.447  16.008  1.00  0.00     0.064 A 
ATOM     62  C   UNL     1     -12.303   4.929  15.550  1.00  0.00     0.173 A 
ATOM     63  C   UNL     1     -10.860   4.498  17.403  1.00  0.00     0.173 A 
ATOM     64  F   UNL     1     -12.575   4.978  14.237  1.00  0.00    -0.203 F 
ATOM     65  C   UNL     1     -13.269   5.431  16.429  1.00  0.00     0.198 A 
ATOM     66  C   UNL     1     -11.843   4.954  18.281  1.00  0.00     0.198 A 
ATOM     67  F   UNL     1      -9.671   4.200  17.946  1.00  0.00    -0.203 F 
ATOM     68  F   UNL     1     -14.404   5.955  15.945  1.00  0.00    -0.200 F 
ATOM     69  C   UNL     1     -13.041   5.436  17.794  1.00  0.00     0.200 A 
ATOM     70  F   UNL     1     -11.593   4.980  19.598  1.00  0.00    -0.200 F 
ATOM     71  F   UNL     1     -13.951   5.946  18.634  1.00  0.00    -0.200 F 
ENDBRANCH  47  61
BRANCH  48  72
ATOM     72  C   UNL     1      -3.454   8.261  17.273  1.00  0.00     0.064 A 
ATOM     73  C   UNL     1      -3.462   9.663  17.227  1.00  0.00     0.173 A 
ATOM     74  C   UNL     1      -2.973   7.670  18.457  1.00  0.00     0.173 A 
ATOM     75  F   UNL     1      -3.939  10.301  16.148  1.00  0.00    -0.203 F 
ATOM     76  C   UNL     1      -3.047  10.431  18.319  1.00  0.00     0.198 A 
ATOM     77  C   UNL     1      -2.548   8.437  19.541  1.00  0.00     0.198 A 
ATOM     78  F   UNL     1      -2.998   6.339  18.622  1.00  0.00    -0.203 F 
ATOM     79  F   UNL     1      -3.136  11.767  18.267  1.00  0.00    -0.200 F 
ATOM     80  C   UNL     1      -2.602   9.816  19.478  1.00  0.00     0.200 A 
ATOM     81  F   UNL     1      -2.148   7.830  20.667  1.00  0.00    -0.200 F 
ATOM     82  F   UNL     1      -2.265  10.551  20.547  1.00  0.00    -0.200 F 
ENDBRANCH  48  72
BRANCH  60  83
ATOM     83  C   UNL     1      -6.445   7.376  11.783  1.00  0.00     0.064 A 
ATOM     84  C   UNL     1      -5.265   6.618  11.722  1.00  0.00     0.173 A 
ATOM     85  C   UNL     1      -6.801   8.121  10.652  1.00  0.00     0.173 A 
ATOM     86  F   UNL     1      -4.915   5.810  12.731  1.00  0.00    -0.203 F 
ATOM     87  C   UNL     1      -4.447   6.653  10.595  1.00  0.00     0.198 A 
ATOM     88  C   UNL     1      -6.000   8.126   9.513  1.00  0.00     0.198 A 
ATOM     89  F   UNL     1      -7.949   8.817  10.637  1.00  0.00    -0.203 F 
ATOM     90  F   UNL     1      -3.313   5.937  10.564  1.00  0.00    -0.200 F 
ATOM     91  C   UNL     1      -4.817   7.404   9.491  1.00  0.00     0.200 A 
ATOM     92  F   UNL     1      -6.384   8.814   8.429  1.00  0.00    -0.200 F 
ATOM     93  F   UNL     1      -4.046   7.410   8.393  1.00  0.00    -0.200 F 
ENDBRANCH  60  83
ENDBRANCH  34  35
ENDBRANCH  26  29
ENDBRANCH  24  25
ENDBRANCH   1  24
TORSDOF 14
