REMARK SMILES Cc1ccc(S(=O)(=O)n2cc(C(=O)C(=O)N[C@@H](Cc3c[nH]c4ccccc34)C(=O)NCC(=O)NCCCNC(=O)c3ccc(-c4c5nc(c(-c6c(F)c(F)c(F)c(F)c6F)c6ccc([nH]6)c(-c6c(F)c(F)c(F)c(F)c6F)c6nc(c(-c7c(F)c(F)c(F)c(F)c7F)c7ccc4[nH]7)C=C6)C=C5)cc3)c3ccccc32)cc1
REMARK SMILES IDX 32 1 33 2 34 3 31 5 30 6 28 7 29 8 17 10 16 11 14 12 15 13
REMARK SMILES IDX 12 15 13 16 11 17 9 18 10 19 109 20 104 21 108 22 105 23
REMARK SMILES IDX 107 24 106 25 6 26 7 27 8 28 5 29 1 30 2 31 3 32 111 33 4 34
REMARK SMILES IDX 110 35 18 36 19 37 20 38 27 39 21 40 22 41 26 42 23 44 25 45
REMARK SMILES IDX 24 46 35 47 36 48 37 49 38 50 39 51 40 53 41 54 42 55 103 56
REMARK SMILES IDX 43 57 102 58 44 59 45 60 46 61 96 62 47 63 101 64 95 65
REMARK SMILES IDX 97 66 48 67 100 68 94 69 93 70 49 72 81 73 61 74 80 75 62 76
REMARK SMILES IDX 65 77 79 78 98 79 63 80 64 81 78 83 99 84 66 85 50 86 51 87
REMARK SMILES IDX 59 88 52 89 53 90 57 91 60 92 54 93 55 94 58 95 56 96 82 97
REMARK SMILES IDX 83 98 91 99 84 100 85 101 89 102 92 103 86 104 87 105 90 106
REMARK SMILES IDX 88 107 67 108 68 109 76 110 69 111 70 112 74 113 77 114
REMARK SMILES IDX 71 115 72 116 75 117 73 118
REMARK H PARENT 34 4 30 9 16 14 21 43 38 52 97 71 65 82
REMARK Flexibility Score: inf
ROOT
ATOM      1  C   UNL     1     -12.239   5.231  -2.401  1.00  0.00     0.239 C 
ATOM      2  O   UNL     1     -13.182   5.841  -2.904  1.00  0.00    -0.273 OA
ATOM      3  N   UNL     1     -10.959   5.563  -2.760  1.00  0.00    -0.355 N 
ATOM      4  H   UNL     1     -10.849   6.333  -3.364  1.00  0.00     0.163 HD
ENDROOT
BRANCH   1   5
ATOM      5  C   UNL     1     -12.443   4.129  -1.355  1.00  0.00     0.216 C 
BRANCH   5   6
ATOM      6  N   UNL     1     -12.239   2.756  -1.780  1.00  0.00    -0.345 N 
ATOM      7  C   UNL     1     -11.710   1.679  -1.133  1.00  0.00     0.243 C 
ATOM      8  O   UNL     1     -12.003   0.577  -1.617  1.00  0.00    -0.273 OA
ATOM      9  H   UNL     1     -12.536   2.569  -2.700  1.00  0.00     0.164 HD
BRANCH   7  10
ATOM     10  C   UNL     1     -10.881   1.731   0.192  1.00  0.00     0.176 C 
BRANCH  10  11
ATOM     11  N   UNL     1      -9.708   2.631   0.233  1.00  0.00    -0.337 N 
ATOM     12  C   UNL     1      -8.356   2.415  -0.029  1.00  0.00     0.293 C 
ATOM     13  O   UNL     1      -7.547   3.310   0.194  1.00  0.00    -0.265 OA
ATOM     14  H   UNL     1      -9.922   3.555   0.495  1.00  0.00     0.164 HD
BRANCH  12  15
ATOM     15  C   UNL     1      -7.866   1.123  -0.695  1.00  0.00     0.252 C 
ATOM     16  O   UNL     1      -8.572   0.699  -1.611  1.00  0.00    -0.283 OA
BRANCH  15  17
ATOM     17  C   UNL     1      -6.684   0.369  -0.238  1.00  0.00     0.054 A 
ATOM     18  N   UNL     1      -4.682  -0.375   0.526  1.00  0.00    -0.240 N 
ATOM     19  C   UNL     1      -5.364   0.750   0.054  1.00  0.00     0.117 A 
ATOM     20  C   UNL     1      -5.620  -1.413   0.656  1.00  0.00     0.065 A 
ATOM     21  C   UNL     1      -6.702  -1.055  -0.139  1.00  0.00     0.012 A 
ATOM     22  C   UNL     1      -5.495  -2.719   1.171  1.00  0.00     0.028 A 
ATOM     23  C   UNL     1      -7.564  -2.070  -0.606  1.00  0.00     0.011 A 
ATOM     24  C   UNL     1      -6.326  -3.712   0.657  1.00  0.00     0.002 A 
ATOM     25  C   UNL     1      -7.318  -3.401  -0.260  1.00  0.00     0.001 A 
BRANCH  18  26
ATOM     26  S   UNL     1      -3.124  -0.984   0.026  1.00  0.00     0.268 S 
ATOM     27  O   UNL     1      -3.379  -1.450  -1.327  1.00  0.00    -0.201 OA
ATOM     28  O   UNL     1      -2.819  -1.927   1.096  1.00  0.00    -0.201 OA
BRANCH  26  29
ATOM     29  C   UNL     1      -1.601  -0.114  -0.073  1.00  0.00     0.088 A 
ATOM     30  C   UNL     1       2.573   1.024  -0.046  1.00  0.00     0.044 C 
ATOM     31  C   UNL     1       1.112   0.675  -0.104  1.00  0.00    -0.051 A 
ATOM     32  C   UNL     1       0.784  -0.647  -0.366  1.00  0.00     0.005 A 
ATOM     33  C   UNL     1       0.072   1.599   0.148  1.00  0.00     0.005 A 
ATOM     34  C   UNL     1      -0.548  -1.022  -0.362  1.00  0.00     0.022 A 
ATOM     35  C   UNL     1      -1.296   1.212   0.171  1.00  0.00     0.022 A 
ENDBRANCH  26  29
ENDBRANCH  18  26
ENDBRANCH  15  17
ENDBRANCH  12  15
ENDBRANCH  10  11
BRANCH  10  36
ATOM     36  C   UNL     1     -11.782   1.850   1.465  1.00  0.00     0.072 C 
BRANCH  36  37
ATOM     37  C   UNL     1     -12.551   3.135   1.678  1.00  0.00    -0.020 A 
ATOM     38  C   UNL     1     -13.928   3.267   1.585  1.00  0.00     0.087 A 
ATOM     39  C   UNL     1     -12.044   4.454   1.958  1.00  0.00     0.003 A 
ATOM     40  N   UNL     1     -14.248   4.598   1.660  1.00  0.00    -0.361 N 
ATOM     41  C   UNL     1     -13.100   5.348   1.760  1.00  0.00     0.046 A 
ATOM     42  C   UNL     1     -10.767   4.992   2.219  1.00  0.00     0.010 A 
ATOM     43  H   UNL     1     -15.162   4.962   1.645  1.00  0.00     0.166 HD
ATOM     44  C   UNL     1     -12.917   6.734   1.661  1.00  0.00     0.026 A 
ATOM     45  C   UNL     1     -10.558   6.371   2.093  1.00  0.00     0.001 A 
ATOM     46  C   UNL     1     -11.615   7.224   1.788  1.00  0.00     0.002 A 
ENDBRANCH  36  37
ENDBRANCH  10  36
ENDBRANCH   7  10
ENDBRANCH   5   6
ENDBRANCH   1   5
BRANCH   3  47
ATOM     47  C   UNL     1      -9.752   4.885  -2.332  1.00  0.00     0.117 C 
BRANCH  47  48
ATOM     48  C   UNL     1      -9.552   3.591  -3.116  1.00  0.00     0.042 C 
BRANCH  48  49
ATOM     49  C   UNL     1      -8.595   3.762  -4.269  1.00  0.00     0.118 C 
BRANCH  49  50
ATOM     50  N   UNL     1      -7.242   3.274  -4.030  1.00  0.00    -0.352 N 
ATOM     51  C   UNL     1      -6.093   3.562  -4.760  1.00  0.00     0.251 C 
ATOM     52  H   UNL     1      -7.128   2.671  -3.261  1.00  0.00     0.163 HD
ATOM     53  O   UNL     1      -5.024   3.066  -4.486  1.00  0.00    -0.269 OA
BRANCH  51  54
ATOM     54  C   UNL     1      -6.203   4.612  -5.806  1.00  0.00     0.039 A 
ATOM     55  C   UNL     1      -5.421   5.756  -5.638  1.00  0.00     0.014 A 
ATOM     56  C   UNL     1      -7.301   4.612  -6.662  1.00  0.00     0.014 A 
ATOM     57  C   UNL     1      -5.911   6.973  -6.098  1.00  0.00     0.010 A 
ATOM     58  C   UNL     1      -7.853   5.833  -6.998  1.00  0.00     0.010 A 
ATOM     59  C   UNL     1      -7.191   7.016  -6.651  1.00  0.00    -0.014 A 
BRANCH  59  60
ATOM     60  C   UNL     1      -7.940   8.259  -6.803  1.00  0.00     0.031 A 
ATOM     61  C   UNL     1      -8.167   8.811  -8.154  1.00  0.00     0.074 A 
ATOM     62  C   UNL     1      -8.455   8.887  -5.721  1.00  0.00     0.049 A 
ATOM     63  N   UNL     1      -8.345  10.063  -8.409  1.00  0.00    -0.248 NA
ATOM     64  C   UNL     1      -8.166   7.977  -9.348  1.00  0.00     0.031 C 
ATOM     65  C   UNL     1      -9.378  10.021  -5.712  1.00  0.00     0.029 A 
ATOM     66  N   UNL     1      -8.063   8.751  -4.377  1.00  0.00    -0.354 N 
ATOM     67  C   UNL     1      -8.745  10.171  -9.722  1.00  0.00     0.074 A 
ATOM     68  C   UNL     1      -8.562   8.850 -10.276  1.00  0.00     0.031 C 
ATOM     69  C   UNL     1      -9.246  10.676  -4.548  1.00  0.00     0.029 A 
ATOM     70  C   UNL     1      -8.155  10.050  -3.823  1.00  0.00     0.049 A 
ATOM     71  H   UNL     1      -7.783   7.925  -3.918  1.00  0.00     0.167 HD
ATOM     72  C   UNL     1      -9.312  11.335 -10.153  1.00  0.00     0.037 A 
ATOM     73  C   UNL     1      -7.058  10.697  -3.338  1.00  0.00     0.037 A 
ATOM     74  C   UNL     1      -9.289  12.352  -9.103  1.00  0.00     0.049 A 
ATOM     75  C   UNL     1      -6.767  12.004  -4.037  1.00  0.00     0.074 A 
ATOM     76  C   UNL     1     -10.242  12.777  -8.192  1.00  0.00     0.029 A 
ATOM     77  N   UNL     1      -8.069  12.853  -8.658  1.00  0.00    -0.354 N 
ATOM     78  N   UNL     1      -7.249  12.325  -5.206  1.00  0.00    -0.248 NA
ATOM     79  C   UNL     1      -5.891  13.037  -3.492  1.00  0.00     0.031 C 
ATOM     80  C   UNL     1      -9.581  13.490  -7.163  1.00  0.00     0.029 A 
ATOM     81  C   UNL     1      -8.229  13.518  -7.457  1.00  0.00     0.049 A 
ATOM     82  H   UNL     1      -7.212  12.749  -9.131  1.00  0.00     0.167 HD
ATOM     83  C   UNL     1      -6.769  13.554  -5.578  1.00  0.00     0.074 A 
ATOM     84  C   UNL     1      -5.934  13.965  -4.464  1.00  0.00     0.031 C 
ATOM     85  C   UNL     1      -7.099  14.127  -6.773  1.00  0.00     0.037 A 
BRANCH  72  86
ATOM     86  C   UNL     1     -10.167  11.425 -11.402  1.00  0.00     0.064 A 
ATOM     87  C   UNL     1     -11.269  12.305 -11.466  1.00  0.00     0.173 A 
ATOM     88  C   UNL     1     -10.002  10.613 -12.539  1.00  0.00     0.173 A 
ATOM     89  F   UNL     1     -11.481  13.233 -10.525  1.00  0.00    -0.203 F 
ATOM     90  C   UNL     1     -12.205  12.264 -12.504  1.00  0.00     0.198 A 
ATOM     91  C   UNL     1     -10.969  10.526 -13.547  1.00  0.00     0.198 A 
ATOM     92  F   UNL     1      -8.873   9.922 -12.740  1.00  0.00    -0.203 F 
ATOM     93  F   UNL     1     -13.239  13.117 -12.500  1.00  0.00    -0.200 F 
ATOM     94  C   UNL     1     -12.081  11.341 -13.521  1.00  0.00     0.200 A 
ATOM     95  F   UNL     1     -10.812   9.643 -14.544  1.00  0.00    -0.200 F 
ATOM     96  F   UNL     1     -13.007  11.262 -14.485  1.00  0.00    -0.200 F 
ENDBRANCH  72  86
BRANCH  73  97
ATOM     97  C   UNL     1      -6.047   9.777  -2.756  1.00  0.00     0.064 A 
ATOM     98  C   UNL     1      -6.428   8.993  -1.648  1.00  0.00     0.173 A 
ATOM     99  C   UNL     1      -4.907   9.383  -3.462  1.00  0.00     0.173 A 
ATOM    100  F   UNL     1      -7.514   9.329  -0.932  1.00  0.00    -0.203 F 
ATOM    101  C   UNL     1      -5.778   7.800  -1.343  1.00  0.00     0.198 A 
ATOM    102  C   UNL     1      -4.245   8.195  -3.142  1.00  0.00     0.198 A 
ATOM    103  F   UNL     1      -4.502  10.076  -4.536  1.00  0.00    -0.203 F 
ATOM    104  F   UNL     1      -6.244   7.019  -0.358  1.00  0.00    -0.200 F 
ATOM    105  C   UNL     1      -4.703   7.387  -2.110  1.00  0.00     0.200 A 
ATOM    106  F   UNL     1      -3.216   7.782  -3.896  1.00  0.00    -0.200 F 
ATOM    107  F   UNL     1      -4.133   6.196  -1.879  1.00  0.00    -0.200 F 
ENDBRANCH  73  97
BRANCH  85 108
ATOM    108  C   UNL     1      -6.481  15.373  -7.362  1.00  0.00     0.064 A 
ATOM    109  C   UNL     1      -5.160  15.783  -7.121  1.00  0.00     0.173 A 
ATOM    110  C   UNL     1      -7.188  16.135  -8.325  1.00  0.00     0.173 A 
ATOM    111  F   UNL     1      -4.345  15.075  -6.327  1.00  0.00    -0.203 F 
ATOM    112  C   UNL     1      -4.611  16.910  -7.739  1.00  0.00     0.198 A 
ATOM    113  C   UNL     1      -6.618  17.224  -8.982  1.00  0.00     0.198 A 
ATOM    114  F   UNL     1      -8.447  15.832  -8.673  1.00  0.00    -0.203 F 
ATOM    115  F   UNL     1      -3.360  17.287  -7.439  1.00  0.00    -0.200 F 
ATOM    116  C   UNL     1      -5.335  17.624  -8.676  1.00  0.00     0.200 A 
ATOM    117  F   UNL     1      -7.316  17.871  -9.927  1.00  0.00    -0.200 F 
ATOM    118  F   UNL     1      -4.790  18.678  -9.297  1.00  0.00    -0.200 F 
ENDBRANCH  85 108
ENDBRANCH  59  60
ENDBRANCH  51  54
ENDBRANCH  49  50
ENDBRANCH  48  49
ENDBRANCH  47  48
ENDBRANCH   3  47
TORSDOF 19
