REMARK SMILES CC(C)(C)OC(=O)N1CCC[C@@]1(Cc1ccc(C(C)(C)C)cc1)C(=O)NCCCNC(=O)c1ccc(-c2c3nc(c(-c4c(F)c(F)c(F)c(F)c4F)c4ccc([nH]4)c(-c4c(F)c(F)c(F)c(F)c4F)c4nc(c(-c5c(F)c(F)c(F)c(F)c5F)c5ccc2[nH]5)C=C4)C=C3)cc1
REMARK SMILES IDX 27 1 26 2 24 3 25 4 12 6 8 7 9 8 10 9 11 10 6 11 7 12 5 13
REMARK SMILES IDX 2 14 1 15 3 16 4 17 13 18 14 19 15 20 23 21 16 22 22 23
REMARK SMILES IDX 17 24 18 25 19 26 20 27 21 28 28 29 29 30 30 31 31 32 32 34
REMARK SMILES IDX 33 35 34 36 95 37 35 38 94 39 36 40 37 41 38 42 88 43 39 44
REMARK SMILES IDX 93 45 87 46 89 47 40 48 92 49 86 50 85 51 41 53 73 54 53 55
REMARK SMILES IDX 72 56 54 57 57 58 71 59 90 60 55 61 56 62 70 64 91 65 58 66
REMARK SMILES IDX 42 67 43 68 51 69 44 70 45 71 49 72 52 73 46 74 47 75 50 76
REMARK SMILES IDX 48 77 74 78 75 79 83 80 76 81 77 82 81 83 84 84 78 85 79 86
REMARK SMILES IDX 82 87 80 88 59 89 60 90 68 91 61 92 62 93 66 94 69 95 63 96
REMARK SMILES IDX 64 97 67 98 65 99
REMARK H PARENT 26 5 30 33 89 52 57 63
REMARK Flexibility Score: inf
ROOT
ATOM      1  C   UNL     1      -0.748   2.209   8.825  1.00  0.00     0.117 C 
ENDROOT
BRANCH   1   2
ATOM      2  N   UNL     1      -0.148   3.017   7.784  1.00  0.00    -0.354 N 
ATOM      3  C   UNL     1       0.199   2.718   6.498  1.00  0.00     0.246 C 
ATOM      4  O   UNL     1       0.601   3.685   5.840  1.00  0.00    -0.272 OA
ATOM      5  H   UNL     1       0.042   3.946   8.050  1.00  0.00     0.163 HD
BRANCH   3   6
ATOM      6  C   UNL     1       0.180   1.256   5.927  1.00  0.00     0.129 C 
ATOM      7  N   UNL     1       0.981   1.253   4.659  1.00  0.00    -0.293 N 
ATOM      8  C   UNL     1       2.287   0.656   4.829  1.00  0.00     0.124 C 
ATOM      9  C   UNL     1       2.078  -0.334   5.947  1.00  0.00     0.025 C 
ATOM     10  C   UNL     1       1.059   0.356   6.850  1.00  0.00     0.041 C 
BRANCH   7  11
ATOM     11  C   UNL     1       0.503   1.745   3.467  1.00  0.00     0.411 C 
ATOM     12  O   UNL     1      -0.461   2.492   3.367  1.00  0.00    -0.224 OA
BRANCH  11  13
ATOM     13  O   UNL     1       1.133   1.170   2.411  1.00  0.00    -0.444 OA
BRANCH  13  14
ATOM     14  C   UNL     1       0.611   1.317   1.065  1.00  0.00     0.106 C 
ATOM     15  C   UNL     1       1.300   0.204   0.261  1.00  0.00     0.056 C 
ATOM     16  C   UNL     1       1.020   2.681   0.512  1.00  0.00     0.056 C 
ATOM     17  C   UNL     1      -0.907   1.090   0.963  1.00  0.00     0.056 C 
ENDBRANCH  13  14
ENDBRANCH  11  13
ENDBRANCH   7  11
BRANCH   6  18
ATOM     18  C   UNL     1      -1.234   0.660   5.597  1.00  0.00     0.074 C 
BRANCH  18  19
ATOM     19  C   UNL     1      -2.253   0.436   6.684  1.00  0.00    -0.045 A 
ATOM     20  C   UNL     1      -2.251  -0.728   7.454  1.00  0.00     0.004 A 
ATOM     21  C   UNL     1      -3.223   1.408   6.954  1.00  0.00     0.004 A 
ATOM     22  C   UNL     1      -3.073  -0.834   8.580  1.00  0.00     0.004 A 
ATOM     23  C   UNL     1      -4.049   1.296   8.079  1.00  0.00     0.004 A 
ATOM     24  C   UNL     1      -3.924   0.215   8.968  1.00  0.00    -0.043 A 
BRANCH  24  25
ATOM     25  C   UNL     1      -4.657   0.197  10.321  1.00  0.00    -0.013 C 
ATOM     26  C   UNL     1      -6.058  -0.403  10.138  1.00  0.00     0.016 C 
ATOM     27  C   UNL     1      -3.888  -0.622  11.387  1.00  0.00     0.016 C 
ATOM     28  C   UNL     1      -4.796   1.615  10.915  1.00  0.00     0.016 C 
ENDBRANCH  24  25
ENDBRANCH  18  19
ENDBRANCH   6  18
ENDBRANCH   3   6
ENDBRANCH   1   2
BRANCH   1  29
ATOM     29  C   UNL     1      -0.194   2.451  10.216  1.00  0.00     0.042 C 
BRANCH  29  30
ATOM     30  C   UNL     1      -0.418   3.869  10.718  1.00  0.00     0.118 C 
BRANCH  30  31
ATOM     31  N   UNL     1      -1.826   4.248  10.810  1.00  0.00    -0.352 N 
ATOM     32  C   UNL     1      -2.656   4.372  11.898  1.00  0.00     0.251 C 
ATOM     33  H   UNL     1      -2.253   4.449   9.945  1.00  0.00     0.163 HD
ATOM     34  O   UNL     1      -3.848   4.622  11.752  1.00  0.00    -0.269 OA
BRANCH  32  35
ATOM     35  C   UNL     1      -2.118   4.172  13.254  1.00  0.00     0.039 A 
ATOM     36  C   UNL     1      -2.794   3.345  14.159  1.00  0.00     0.014 A 
ATOM     37  C   UNL     1      -0.942   4.816  13.630  1.00  0.00     0.014 A 
ATOM     38  C   UNL     1      -2.248   3.115  15.424  1.00  0.00     0.010 A 
ATOM     39  C   UNL     1      -0.348   4.504  14.841  1.00  0.00     0.010 A 
ATOM     40  C   UNL     1      -1.007   3.673  15.761  1.00  0.00    -0.014 A 
BRANCH  40  41
ATOM     41  C   UNL     1      -0.384   3.510  17.096  1.00  0.00     0.031 A 
ATOM     42  C   UNL     1      -0.135   4.745  17.919  1.00  0.00     0.074 A 
ATOM     43  C   UNL     1       0.073   2.312  17.500  1.00  0.00     0.049 A 
ATOM     44  N   UNL     1       0.631   4.909  18.965  1.00  0.00    -0.248 NA
ATOM     45  C   UNL     1      -0.794   5.978  17.455  1.00  0.00     0.031 C 
ATOM     46  C   UNL     1      -0.085   1.051  16.776  1.00  0.00     0.029 A 
ATOM     47  N   UNL     1       0.801   1.970  18.612  1.00  0.00    -0.354 N 
ATOM     48  C   UNL     1       0.588   6.269  19.246  1.00  0.00     0.074 A 
ATOM     49  C   UNL     1      -0.237   6.890  18.235  1.00  0.00     0.031 C 
ATOM     50  C   UNL     1       0.525   0.071  17.463  1.00  0.00     0.029 A 
ATOM     51  C   UNL     1       1.158   0.644  18.648  1.00  0.00     0.049 A 
ATOM     52  H   UNL     1       1.044   2.613  19.317  1.00  0.00     0.167 HD
ATOM     53  C   UNL     1       1.171   6.935  20.270  1.00  0.00     0.037 A 
ATOM     54  C   UNL     1       1.930  -0.021  19.528  1.00  0.00     0.037 A 
ATOM     55  C   UNL     1       1.936   6.293  21.305  1.00  0.00     0.049 A 
ATOM     56  C   UNL     1       2.538   0.735  20.681  1.00  0.00     0.074 A 
ATOM     57  C   UNL     1       2.510   6.855  22.430  1.00  0.00     0.029 A 
ATOM     58  N   UNL     1       2.217   4.935  21.344  1.00  0.00    -0.354 N 
ATOM     59  N   UNL     1       2.469   2.014  20.962  1.00  0.00    -0.248 NA
ATOM     60  C   UNL     1       3.330  -0.047  21.640  1.00  0.00     0.031 C 
ATOM     61  C   UNL     1       3.166   5.840  23.135  1.00  0.00     0.029 A 
ATOM     62  C   UNL     1       2.963   4.640  22.472  1.00  0.00     0.049 A 
ATOM     63  H   UNL     1       1.929   4.278  20.669  1.00  0.00     0.167 HD
ATOM     64  C   UNL     1       3.180   2.186  22.142  1.00  0.00     0.074 A 
ATOM     65  C   UNL     1       3.663   0.877  22.531  1.00  0.00     0.031 C 
ATOM     66  C   UNL     1       3.414   3.323  22.842  1.00  0.00     0.037 A 
BRANCH  53  67
ATOM     67  C   UNL     1       0.997   8.425  20.319  1.00  0.00     0.064 A 
ATOM     68  C   UNL     1      -0.250   9.015  20.580  1.00  0.00     0.173 A 
ATOM     69  C   UNL     1       2.093   9.277  20.112  1.00  0.00     0.173 A 
ATOM     70  F   UNL     1      -1.334   8.247  20.769  1.00  0.00    -0.203 F 
ATOM     71  C   UNL     1      -0.400  10.399  20.595  1.00  0.00     0.198 A 
ATOM     72  C   UNL     1       1.946  10.661  20.162  1.00  0.00     0.198 A 
ATOM     73  F   UNL     1       3.308   8.767  19.861  1.00  0.00    -0.203 F 
ATOM     74  F   UNL     1      -1.613  10.937  20.785  1.00  0.00    -0.200 F 
ATOM     75  C   UNL     1       0.699  11.221  20.393  1.00  0.00     0.200 A 
ATOM     76  F   UNL     1       3.011  11.453  19.979  1.00  0.00    -0.200 F 
ATOM     77  F   UNL     1       0.553  12.553  20.412  1.00  0.00    -0.200 F 
ENDBRANCH  53  67
BRANCH  54  78
ATOM     78  C   UNL     1       2.154  -1.481  19.368  1.00  0.00     0.064 A 
ATOM     79  C   UNL     1       1.576  -2.393  20.262  1.00  0.00     0.173 A 
ATOM     80  C   UNL     1       2.941  -1.996  18.329  1.00  0.00     0.173 A 
ATOM     81  F   UNL     1       0.831  -1.947  21.284  1.00  0.00    -0.203 F 
ATOM     82  C   UNL     1       1.793  -3.764  20.135  1.00  0.00     0.198 A 
ATOM     83  C   UNL     1       3.136  -3.369  18.187  1.00  0.00     0.198 A 
ATOM     84  F   UNL     1       3.512  -1.167  17.443  1.00  0.00    -0.203 F 
ATOM     85  F   UNL     1       1.263  -4.609  21.030  1.00  0.00    -0.200 F 
ATOM     86  C   UNL     1       2.568  -4.251  19.094  1.00  0.00     0.200 A 
ATOM     87  F   UNL     1       3.873  -3.838  17.171  1.00  0.00    -0.200 F 
ATOM     88  F   UNL     1       2.772  -5.570  18.969  1.00  0.00    -0.200 F 
ENDBRANCH  54  78
BRANCH  66  89
ATOM     89  C   UNL     1       4.187   3.194  24.121  1.00  0.00     0.064 A 
ATOM     90  C   UNL     1       5.567   2.950  24.126  1.00  0.00     0.173 A 
ATOM     91  C   UNL     1       3.543   3.369  25.356  1.00  0.00     0.173 A 
ATOM     92  F   UNL     1       6.223   2.762  22.971  1.00  0.00    -0.203 F 
ATOM     93  C   UNL     1       6.272   2.863  25.323  1.00  0.00     0.198 A 
ATOM     94  C   UNL     1       4.256   3.310  26.549  1.00  0.00     0.198 A 
ATOM     95  F   UNL     1       2.225   3.613  25.402  1.00  0.00    -0.203 F 
ATOM     96  F   UNL     1       7.583   2.586  25.307  1.00  0.00    -0.200 F 
ATOM     97  C   UNL     1       5.618   3.051  26.532  1.00  0.00     0.200 A 
ATOM     98  F   UNL     1       3.626   3.506  27.715  1.00  0.00    -0.200 F 
ATOM     99  F   UNL     1       6.301   2.976  27.683  1.00  0.00    -0.200 F 
ENDBRANCH  66  89
ENDBRANCH  40  41
ENDBRANCH  32  35
ENDBRANCH  30  31
ENDBRANCH  29  30
ENDBRANCH   1  29
TORSDOF 16
