REMARK SMILES CCc1ncc(S(=O)(=O)NCc2ccc(C(=O)NCCCNC(=O)c3ccc(-c4c5nc(c(-c6c(F)c(F)c(F)c(F)c6F)c6ccc([nH]6)c(-c6c(F)c(F)c(F)c(F)c6F)c6nc(c(-c7c(F)c(F)c(F)c(F)c7F)c7ccc4[nH]7)C=C6)C=C5)cc3)o2)[nH]1
REMARK SMILES IDX 16 1 17 2 18 3 15 5 12 6 13 7 88 8 14 9 11 10 10 11 7 13
REMARK SMILES IDX 8 14 9 15 6 16 3 17 4 18 89 19 5 20 2 22 1 23 19 24 20 25
REMARK SMILES IDX 21 26 22 27 23 28 24 30 25 31 26 32 87 33 27 34 86 35 28 36
REMARK SMILES IDX 29 37 30 38 80 39 31 40 85 41 79 42 81 43 32 44 84 45 78 46
REMARK SMILES IDX 77 47 33 49 65 50 45 51 64 52 46 53 49 54 63 55 82 56 47 57
REMARK SMILES IDX 48 58 62 60 83 61 50 62 34 63 35 64 43 65 36 66 37 67 41 68
REMARK SMILES IDX 44 69 38 70 39 71 42 72 40 73 66 74 67 75 75 76 68 77 69 78
REMARK SMILES IDX 73 79 76 80 70 81 71 82 74 83 72 84 51 85 52 86 60 87 53 88
REMARK SMILES IDX 54 89 58 90 61 91 55 92 56 93 59 94 57 95
REMARK H PARENT 18 4 10 12 89 21 22 29 81 48 49 59
REMARK Flexibility Score: inf
ROOT
ATOM      1  C   UNL     1      -0.160  -1.523  -8.857  1.00  0.00     0.286 C 
ATOM      2  O   UNL     1      -0.005  -0.519  -8.158  1.00  0.00    -0.266 OA
ATOM      3  N   UNL     1      -0.316  -1.289 -10.202  1.00  0.00    -0.349 N 
ATOM      4  H   UNL     1      -0.267  -0.339 -10.457  1.00  0.00     0.163 HD
ENDROOT
BRANCH   1   5
ATOM      5  C   UNL     1      -0.155  -2.871  -8.323  1.00  0.00     0.191 A 
ATOM      6  C   UNL     1       0.460  -4.353  -6.798  1.00  0.00     0.119 A 
ATOM      7  C   UNL     1      -0.242  -5.055  -7.751  1.00  0.00     0.048 A 
ATOM      8  O   UNL     1       0.483  -3.038  -7.124  1.00  0.00    -0.455 OA
ATOM      9  C   UNL     1      -0.663  -4.100  -8.713  1.00  0.00     0.056 A 
BRANCH   6  10
ATOM     10  C   UNL     1       1.093  -4.727  -5.514  1.00  0.00     0.174 C 
BRANCH  10  11
ATOM     11  N   UNL     1       2.513  -4.365  -5.455  1.00  0.00    -0.202 NA
ATOM     12  H   UNL     1       2.965  -5.048  -4.846  1.00  0.00     0.141 HD
BRANCH  11  13
ATOM     13  S   UNL     1       2.971  -2.848  -4.906  1.00  0.00     0.258 S 
ATOM     14  O   UNL     1       2.658  -1.855  -5.897  1.00  0.00    -0.205 OA
ATOM     15  O   UNL     1       4.325  -2.980  -4.404  1.00  0.00    -0.205 OA
BRANCH  13  16
ATOM     16  C   UNL     1       2.030  -2.397  -3.507  1.00  0.00     0.167 A 
ATOM     17  C   UNL     1       0.991  -1.040  -2.081  1.00  0.00     0.106 A 
ATOM     18  N   UNL     1       0.815  -2.252  -1.597  1.00  0.00    -0.240 NA
ATOM     19  N   UNL     1       1.688  -1.088  -3.262  1.00  0.00    -0.332 N 
ATOM     20  C   UNL     1       1.481  -3.089  -2.451  1.00  0.00     0.153 A 
ATOM     21  H   UNL     1       1.905  -0.317  -3.835  1.00  0.00     0.169 HD
BRANCH  17  22
ATOM     22  C   UNL     1       0.536   0.237  -1.460  1.00  0.00     0.072 C 
ATOM     23  C   UNL     1       0.968   0.320  -0.003  1.00  0.00     0.012 C 
ENDBRANCH  17  22
ENDBRANCH  13  16
ENDBRANCH  11  13
ENDBRANCH  10  11
ENDBRANCH   6  10
ENDBRANCH   1   5
BRANCH   3  24
ATOM     24  C   UNL     1      -0.541  -2.195 -11.307  1.00  0.00     0.118 C 
BRANCH  24  25
ATOM     25  C   UNL     1      -2.025  -2.268 -11.654  1.00  0.00     0.042 C 
BRANCH  25  26
ATOM     26  C   UNL     1      -2.532  -1.003 -12.346  1.00  0.00     0.118 C 
BRANCH  26  27
ATOM     27  N   UNL     1      -1.976  -0.861 -13.685  1.00  0.00    -0.352 N 
ATOM     28  C   UNL     1      -2.606  -0.814 -14.902  1.00  0.00     0.251 C 
ATOM     29  H   UNL     1      -0.995  -0.787 -13.722  1.00  0.00     0.163 HD
ATOM     30  O   UNL     1      -1.948  -0.944 -15.930  1.00  0.00    -0.269 OA
BRANCH  28  31
ATOM     31  C   UNL     1      -4.068  -0.612 -14.987  1.00  0.00     0.039 A 
ATOM     32  C   UNL     1      -4.791  -1.329 -15.945  1.00  0.00     0.014 A 
ATOM     33  C   UNL     1      -4.717   0.319 -14.172  1.00  0.00     0.014 A 
ATOM     34  C   UNL     1      -6.172  -1.147 -16.053  1.00  0.00     0.010 A 
ATOM     35  C   UNL     1      -6.102   0.450 -14.234  1.00  0.00     0.010 A 
ATOM     36  C   UNL     1      -6.842  -0.275 -15.180  1.00  0.00    -0.014 A 
BRANCH  36  37
ATOM     37  C   UNL     1      -8.315  -0.103 -15.246  1.00  0.00     0.031 A 
ATOM     38  C   UNL     1      -8.903   1.226 -15.630  1.00  0.00     0.074 A 
ATOM     39  C   UNL     1      -9.118  -1.123 -14.889  1.00  0.00     0.049 A 
ATOM     40  N   UNL     1     -10.159   1.598 -15.661  1.00  0.00    -0.248 NA
ATOM     41  C   UNL     1      -7.955   2.287 -16.003  1.00  0.00     0.031 C 
ATOM     42  C   UNL     1      -8.664  -2.445 -14.454  1.00  0.00     0.029 A 
ATOM     43  N   UNL     1     -10.487  -1.204 -14.820  1.00  0.00    -0.354 N 
ATOM     44  C   UNL     1     -10.147   2.937 -16.028  1.00  0.00     0.074 A 
ATOM     45  C   UNL     1      -8.761   3.325 -16.174  1.00  0.00     0.031 C 
ATOM     46  C   UNL     1      -9.733  -3.209 -14.179  1.00  0.00     0.029 A 
ATOM     47  C   UNL     1     -10.945  -2.422 -14.382  1.00  0.00     0.049 A 
ATOM     48  H   UNL     1     -11.083  -0.459 -15.061  1.00  0.00     0.167 HD
ATOM     49  C   UNL     1     -11.200   3.762 -16.241  1.00  0.00     0.037 A 
ATOM     50  C   UNL     1     -12.202  -2.851 -14.160  1.00  0.00     0.037 A 
ATOM     51  C   UNL     1     -12.578   3.358 -16.140  1.00  0.00     0.049 A 
ATOM     52  C   UNL     1     -13.352  -1.915 -14.418  1.00  0.00     0.074 A 
ATOM     53  C   UNL     1     -13.716   4.093 -16.422  1.00  0.00     0.029 A 
ATOM     54  N   UNL     1     -13.004   2.106 -15.721  1.00  0.00    -0.354 N 
ATOM     55  N   UNL     1     -13.331  -0.676 -14.844  1.00  0.00    -0.248 NA
ATOM     56  C   UNL     1     -14.702  -2.442 -14.171  1.00  0.00     0.031 C 
ATOM     57  C   UNL     1     -14.831   3.301 -16.132  1.00  0.00     0.029 A 
ATOM     58  C   UNL     1     -14.389   2.057 -15.714  1.00  0.00     0.049 A 
ATOM     59  H   UNL     1     -12.411   1.363 -15.467  1.00  0.00     0.167 HD
ATOM     60  C   UNL     1     -14.659  -0.285 -14.945  1.00  0.00     0.074 A 
ATOM     61  C   UNL     1     -15.461  -1.424 -14.549  1.00  0.00     0.031 C 
ATOM     62  C   UNL     1     -15.170   0.909 -15.331  1.00  0.00     0.037 A 
BRANCH  49  63
ATOM     63  C   UNL     1     -10.910   5.188 -16.609  1.00  0.00     0.064 A 
ATOM     64  C   UNL     1     -10.392   5.535 -17.865  1.00  0.00     0.173 A 
ATOM     65  C   UNL     1     -11.206   6.225 -15.712  1.00  0.00     0.173 A 
ATOM     66  F   UNL     1     -10.083   4.581 -18.756  1.00  0.00    -0.203 F 
ATOM     67  C   UNL     1     -10.160   6.867 -18.201  1.00  0.00     0.198 A 
ATOM     68  C   UNL     1     -10.999   7.557 -16.061  1.00  0.00     0.198 A 
ATOM     69  F   UNL     1     -11.709   5.948 -14.499  1.00  0.00    -0.203 F 
ATOM     70  F   UNL     1      -9.627   7.172 -19.392  1.00  0.00    -0.200 F 
ATOM     71  C   UNL     1     -10.471   7.876 -17.303  1.00  0.00     0.200 A 
ATOM     72  F   UNL     1     -11.312   8.532 -15.197  1.00  0.00    -0.200 F 
ATOM     73  F   UNL     1     -10.258   9.158 -17.633  1.00  0.00    -0.200 F 
ENDBRANCH  49  63
BRANCH  50  74
ATOM     74  C   UNL     1     -12.445  -4.238 -13.686  1.00  0.00     0.064 A 
ATOM     75  C   UNL     1     -13.051  -5.186 -14.523  1.00  0.00     0.173 A 
ATOM     76  C   UNL     1     -12.095  -4.641 -12.389  1.00  0.00     0.173 A 
ATOM     77  F   UNL     1     -13.421  -4.842 -15.765  1.00  0.00    -0.203 F 
ATOM     78  C   UNL     1     -13.321  -6.476 -14.072  1.00  0.00     0.198 A 
ATOM     79  C   UNL     1     -12.339  -5.940 -11.949  1.00  0.00     0.198 A 
ATOM     80  F   UNL     1     -11.507  -3.774 -11.552  1.00  0.00    -0.203 F 
ATOM     81  F   UNL     1     -13.947  -7.347 -14.876  1.00  0.00    -0.200 F 
ATOM     82  C   UNL     1     -12.961  -6.854 -12.787  1.00  0.00     0.200 A 
ATOM     83  F   UNL     1     -11.977  -6.305 -10.712  1.00  0.00    -0.200 F 
ATOM     84  F   UNL     1     -13.221  -8.094 -12.354  1.00  0.00    -0.200 F 
ENDBRANCH  50  74
BRANCH  62  85
ATOM     85  C   UNL     1     -16.664   1.033 -15.385  1.00  0.00     0.064 A 
ATOM     86  C   UNL     1     -17.438   1.105 -14.218  1.00  0.00     0.173 A 
ATOM     87  C   UNL     1     -17.324   1.118 -16.620  1.00  0.00     0.173 A 
ATOM     88  F   UNL     1     -16.855   1.012 -13.014  1.00  0.00    -0.203 F 
ATOM     89  C   UNL     1     -18.823   1.234 -14.287  1.00  0.00     0.198 A 
ATOM     90  C   UNL     1     -18.705   1.277 -16.684  1.00  0.00     0.198 A 
ATOM     91  F   UNL     1     -16.627   1.060 -17.765  1.00  0.00    -0.203 F 
ATOM     92  F   UNL     1     -19.548   1.255 -13.160  1.00  0.00    -0.200 F 
ATOM     93  C   UNL     1     -19.454   1.328 -15.518  1.00  0.00     0.200 A 
ATOM     94  F   UNL     1     -19.311   1.380 -17.875  1.00  0.00    -0.200 F 
ATOM     95  F   UNL     1     -20.786   1.459 -15.582  1.00  0.00    -0.200 F 
ENDBRANCH  62  85
ENDBRANCH  36  37
ENDBRANCH  28  31
ENDBRANCH  26  27
ENDBRANCH  25  26
ENDBRANCH  24  25
ENDBRANCH   3  24
TORSDOF 15
