REMARK SMILES CCOc1cccc(-c2ccc([C@@H](C)C(=O)NCCCNC(=O)c3ccc(-c4c5nc(c(-c6c(F)c(F)c(F)c(F)c6F)c6ccc([nH]6)c(-c6c(F)c(F)c(F)c(F)c6F)c6nc(c(-c7c(F)c(F)c(F)c(F)c7F)c7ccc4[nH]7)C=C6)C=C5)cc3)cc2F)c1
REMARK SMILES IDX 18 1 17 2 15 3 16 4 13 6 14 7 12 8 9 9 10 10 88 11 11 12
REMARK SMILES IDX 87 13 89 14 8 15 4 16 5 17 90 18 6 19 7 20 3 21 2 22 1 23
REMARK SMILES IDX 19 24 20 25 21 26 22 27 23 29 24 30 25 31 86 32 26 33 85 34
REMARK SMILES IDX 27 35 28 36 29 37 79 38 30 39 84 40 78 41 80 42 31 43 83 44
REMARK SMILES IDX 77 45 76 46 32 48 64 49 44 50 63 51 45 52 48 53 62 54 81 55
REMARK SMILES IDX 46 56 47 57 61 59 82 60 49 61 33 62 34 63 42 64 35 65 36 66
REMARK SMILES IDX 40 67 43 68 37 69 38 70 41 71 39 72 65 73 66 74 74 75 67 76
REMARK SMILES IDX 68 77 72 78 75 79 69 80 70 81 73 82 71 83 50 84 51 85 59 86
REMARK SMILES IDX 52 87 53 88 57 89 60 90 54 91 55 92 58 93 56 94
REMARK H PARENT 17 5 21 28 80 47 48 58
REMARK Flexibility Score: inf
ROOT
ATOM      1  C   UNL     1       9.454  -1.217  -2.072  1.00  0.00     0.117 C 
ENDROOT
BRANCH   1   2
ATOM      2  N   UNL     1       8.612  -1.262  -3.250  1.00  0.00    -0.356 N 
ATOM      3  C   UNL     1       7.917  -0.295  -3.908  1.00  0.00     0.227 C 
ATOM      4  O   UNL     1       7.205  -0.680  -4.844  1.00  0.00    -0.274 OA
ATOM      5  H   UNL     1       8.526  -2.158  -3.647  1.00  0.00     0.163 HD
BRANCH   3   6
ATOM      6  C   UNL     1       7.969   1.199  -3.550  1.00  0.00     0.105 C 
ATOM      7  C   UNL     1       9.364   1.819  -3.579  1.00  0.00     0.023 C 
BRANCH   6   8
ATOM      8  C   UNL     1       7.109   1.559  -2.349  1.00  0.00    -0.033 A 
ATOM      9  C   UNL     1       5.338   2.029  -0.141  1.00  0.00     0.018 A 
ATOM     10  C   UNL     1       6.694   1.713   0.050  1.00  0.00     0.012 A 
ATOM     11  C   UNL     1       4.922   2.171  -1.476  1.00  0.00     0.131 A 
ATOM     12  C   UNL     1       7.568   1.514  -1.031  1.00  0.00     0.005 A 
ATOM     13  C   UNL     1       5.772   1.918  -2.554  1.00  0.00     0.044 A 
ATOM     14  F   UNL     1       3.668   2.549  -1.770  1.00  0.00    -0.206 F 
BRANCH   9  15
ATOM     15  C   UNL     1       4.402   2.143   1.007  1.00  0.00    -0.012 A 
ATOM     16  C   UNL     1       2.161   1.839   1.952  1.00  0.00     0.119 A 
ATOM     17  C   UNL     1       2.596   2.277   3.194  1.00  0.00     0.046 A 
ATOM     18  C   UNL     1       3.047   1.789   0.874  1.00  0.00     0.055 A 
ATOM     19  C   UNL     1       3.930   2.639   3.362  1.00  0.00     0.004 A 
ATOM     20  C   UNL     1       4.820   2.574   2.281  1.00  0.00     0.009 A 
BRANCH  16  21
ATOM     21  O   UNL     1       0.830   1.579   1.778  1.00  0.00    -0.494 OA
BRANCH  21  22
ATOM     22  C   UNL     1       0.545   0.188   1.579  1.00  0.00     0.226 C 
ATOM     23  C   UNL     1       0.506  -0.181   0.104  1.00  0.00     0.049 C 
ENDBRANCH  21  22
ENDBRANCH  16  21
ENDBRANCH   9  15
ENDBRANCH   6   8
ENDBRANCH   3   6
ENDBRANCH   1   2
BRANCH   1  24
ATOM     24  C   UNL     1       8.708  -1.650  -0.812  1.00  0.00     0.042 C 
BRANCH  24  25
ATOM     25  C   UNL     1       8.603  -3.160  -0.644  1.00  0.00     0.118 C 
BRANCH  25  26
ATOM     26  N   UNL     1       9.886  -3.768  -0.325  1.00  0.00    -0.352 N 
ATOM     27  C   UNL     1      10.301  -4.465   0.782  1.00  0.00     0.251 C 
ATOM     28  H   UNL     1      10.573  -3.662  -1.022  1.00  0.00     0.163 HD
ATOM     29  O   UNL     1      11.499  -4.698   0.922  1.00  0.00    -0.269 OA
BRANCH  27  30
ATOM     30  C   UNL     1       9.344  -4.936   1.811  1.00  0.00     0.039 A 
ATOM     31  C   UNL     1       9.765  -4.973   3.146  1.00  0.00     0.014 A 
ATOM     32  C   UNL     1       8.075  -5.417   1.478  1.00  0.00     0.014 A 
ATOM     33  C   UNL     1       8.908  -5.454   4.141  1.00  0.00     0.010 A 
ATOM     34  C   UNL     1       7.191  -5.818   2.478  1.00  0.00     0.010 A 
ATOM     35  C   UNL     1       7.605  -5.862   3.818  1.00  0.00    -0.014 A 
BRANCH  35  36
ATOM     36  C   UNL     1       6.680  -6.378   4.859  1.00  0.00     0.031 A 
ATOM     37  C   UNL     1       6.207  -7.806   4.808  1.00  0.00     0.074 A 
ATOM     38  C   UNL     1       6.225  -5.552   5.822  1.00  0.00     0.049 A 
ATOM     39  N   UNL     1       5.351  -8.426   5.582  1.00  0.00    -0.248 NA
ATOM     40  C   UNL     1       6.748  -8.642   3.725  1.00  0.00     0.031 C 
ATOM     41  C   UNL     1       6.571  -4.137   5.954  1.00  0.00     0.029 A 
ATOM     42  N   UNL     1       5.366  -5.784   6.866  1.00  0.00    -0.354 N 
ATOM     43  C   UNL     1       5.237  -9.711   5.067  1.00  0.00     0.074 A 
ATOM     44  C   UNL     1       6.070  -9.769   3.886  1.00  0.00     0.031 C 
ATOM     45  C   UNL     1       5.948  -3.631   7.030  1.00  0.00     0.029 A 
ATOM     46  C   UNL     1       5.134  -4.676   7.644  1.00  0.00     0.049 A 
ATOM     47  H   UNL     1       4.954  -6.661   7.042  1.00  0.00     0.167 HD
ATOM     48  C   UNL     1       4.523 -10.757   5.549  1.00  0.00     0.037 A 
ATOM     49  C   UNL     1       4.352  -4.521   8.729  1.00  0.00     0.037 A 
ATOM     50  C   UNL     1       3.721 -10.708   6.743  1.00  0.00     0.049 A 
ATOM     51  C   UNL     1       3.587  -5.704   9.259  1.00  0.00     0.074 A 
ATOM     52  C   UNL     1       2.997 -11.724   7.341  1.00  0.00     0.029 A 
ATOM     53  N   UNL     1       3.545  -9.577   7.527  1.00  0.00    -0.354 N 
ATOM     54  N   UNL     1       3.530  -6.928   8.794  1.00  0.00    -0.248 NA
ATOM     55  C   UNL     1       2.789  -5.485  10.473  1.00  0.00     0.031 C 
ATOM     56  C   UNL     1       2.356 -11.200   8.469  1.00  0.00     0.029 A 
ATOM     57  C   UNL     1       2.717  -9.869   8.599  1.00  0.00     0.049 A 
ATOM     58  H   UNL     1       3.949  -8.697   7.348  1.00  0.00     0.167 HD
ATOM     59  C   UNL     1       2.717  -7.632   9.672  1.00  0.00     0.074 A 
ATOM     60  C   UNL     1       2.314  -6.701  10.705  1.00  0.00     0.031 C 
ATOM     61  C   UNL     1       2.338  -8.933   9.626  1.00  0.00     0.037 A 
BRANCH  48  62
ATOM     62  C   UNL     1       4.582 -12.047   4.783  1.00  0.00     0.064 A 
ATOM     63  C   UNL     1       5.747 -12.830   4.752  1.00  0.00     0.173 A 
ATOM     64  C   UNL     1       3.455 -12.523   4.096  1.00  0.00     0.173 A 
ATOM     65  F   UNL     1       6.857 -12.414   5.382  1.00  0.00    -0.203 F 
ATOM     66  C   UNL     1       5.792 -14.023   4.035  1.00  0.00     0.198 A 
ATOM     67  C   UNL     1       3.494 -13.732   3.406  1.00  0.00     0.198 A 
ATOM     68  F   UNL     1       2.314 -11.818   4.098  1.00  0.00    -0.203 F 
ATOM     69  F   UNL     1       6.931 -14.725   3.977  1.00  0.00    -0.200 F 
ATOM     70  C   UNL     1       4.663 -14.476   3.369  1.00  0.00     0.200 A 
ATOM     71  F   UNL     1       2.399 -14.175   2.772  1.00  0.00    -0.200 F 
ATOM     72  F   UNL     1       4.706 -15.627   2.683  1.00  0.00    -0.200 F 
ENDBRANCH  48  62
BRANCH  49  73
ATOM     73  C   UNL     1       4.283  -3.203   9.410  1.00  0.00     0.064 A 
ATOM     74  C   UNL     1       4.867  -3.014  10.670  1.00  0.00     0.173 A 
ATOM     75  C   UNL     1       3.637  -2.108   8.819  1.00  0.00     0.173 A 
ATOM     76  F   UNL     1       5.480  -4.037  11.284  1.00  0.00    -0.203 F 
ATOM     77  C   UNL     1       4.791  -1.785  11.323  1.00  0.00     0.198 A 
ATOM     78  C   UNL     1       3.585  -0.872   9.460  1.00  0.00     0.198 A 
ATOM     79  F   UNL     1       3.068  -2.235   7.611  1.00  0.00    -0.203 F 
ATOM     80  F   UNL     1       5.321  -1.645  12.545  1.00  0.00    -0.200 F 
ATOM     81  C   UNL     1       4.155  -0.714  10.715  1.00  0.00     0.200 A 
ATOM     82  F   UNL     1       2.983   0.166   8.863  1.00  0.00    -0.200 F 
ATOM     83  F   UNL     1       4.086   0.469  11.340  1.00  0.00    -0.200 F 
ENDBRANCH  49  73
BRANCH  61  84
ATOM     84  C   UNL     1       1.479  -9.437  10.748  1.00  0.00     0.064 A 
ATOM     85  C   UNL     1       0.131  -9.069  10.867  1.00  0.00     0.173 A 
ATOM     86  C   UNL     1       2.006 -10.324  11.699  1.00  0.00     0.173 A 
ATOM     87  F   UNL     1      -0.414  -8.211   9.992  1.00  0.00    -0.203 F 
ATOM     88  C   UNL     1      -0.651  -9.549  11.914  1.00  0.00     0.198 A 
ATOM     89  C   UNL     1       1.214 -10.825  12.728  1.00  0.00     0.198 A 
ATOM     90  F   UNL     1       3.288 -10.712  11.625  1.00  0.00    -0.203 F 
ATOM     91  F   UNL     1      -1.923  -9.146  12.037  1.00  0.00    -0.200 F 
ATOM     92  C   UNL     1      -0.111 -10.431  12.839  1.00  0.00     0.200 A 
ATOM     93  F   UNL     1       1.733 -11.686  13.614  1.00  0.00    -0.200 F 
ATOM     94  F   UNL     1      -0.867 -10.895  13.844  1.00  0.00    -0.200 F 
ENDBRANCH  61  84
ENDBRANCH  35  36
ENDBRANCH  27  30
ENDBRANCH  25  26
ENDBRANCH  24  25
ENDBRANCH   1  24
TORSDOF 14
