REMARK SMILES CS(=O)(=O)N1C[C@@H]2CN(C(=O)c3ccco3)C[C@]2(C(=O)NCCCNC(=O)c2ccc(-c3c4nc(c(-c5c(F)c(F)c(F)c(F)c5F)c5ccc([nH]5)c(-c5c(F)c(F)c(F)c(F)c5F)c5nc(c(-c6c(F)c(F)c(F)c(F)c6F)c6ccc3[nH]6)C=C5)C=C4)cc2)C1
REMARK SMILES IDX 23 1 22 2 21 3 19 4 20 5 18 7 5 8 6 9 91 10 7 11 8 12 17 13
REMARK SMILES IDX 9 14 2 15 1 16 3 17 4 18 10 19 11 20 12 21 13 22 16 23 14 24
REMARK SMILES IDX 15 25 24 26 25 27 26 28 27 30 28 31 29 32 90 33 30 34 89 35
REMARK SMILES IDX 31 36 32 37 33 38 83 39 34 40 88 41 82 42 84 43 35 44 87 45
REMARK SMILES IDX 81 46 80 47 36 49 68 50 48 51 67 52 49 53 52 54 66 55 85 56
REMARK SMILES IDX 50 57 51 58 65 60 86 61 53 62 37 63 38 64 46 65 39 66 40 67
REMARK SMILES IDX 44 68 47 69 41 70 42 71 45 72 43 73 69 74 70 75 78 76 71 77
REMARK SMILES IDX 72 78 76 79 79 80 73 81 74 82 77 83 75 84 54 85 55 86 63 87
REMARK SMILES IDX 56 88 57 89 61 90 64 91 58 92 59 93 62 94 60 95
REMARK H PARENT 21 6 25 29 84 48 52 59
REMARK Flexibility Score: inf
ROOT
ATOM      1  C   UNL     1       3.657   2.469   7.626  1.00  0.00     0.042 C 
ENDROOT
BRANCH   1   2
ATOM      2  C   UNL     1       2.569   2.633   6.568  1.00  0.00     0.117 C 
BRANCH   2   3
ATOM      3  N   UNL     1       3.131   3.224   5.366  1.00  0.00    -0.355 N 
ATOM      4  C   UNL     1       3.654   2.575   4.278  1.00  0.00     0.229 C 
ATOM      5  O   UNL     1       4.446   3.190   3.562  1.00  0.00    -0.274 OA
ATOM      6  H   UNL     1       3.138   4.208   5.329  1.00  0.00     0.163 HD
BRANCH   4   7
ATOM      7  C   UNL     1       3.189   1.123   4.027  1.00  0.00     0.086 C 
ATOM      8  N   UNL     1       1.323   0.901   2.393  1.00  0.00    -0.201 NA
ATOM      9  C   UNL     1       1.576  -0.412   2.943  1.00  0.00     0.108 C 
ATOM     10  C   UNL     1       2.518   1.747   2.658  1.00  0.00     0.121 C 
ATOM     11  C   UNL     1       3.039  -0.267   3.305  1.00  0.00     0.042 C 
ATOM     12  C   UNL     1       3.502  -1.368   4.217  1.00  0.00     0.126 C 
ATOM     13  C   UNL     1       4.670   0.662   4.487  1.00  0.00     0.138 C 
ATOM     14  N   UNL     1       4.521  -0.716   4.971  1.00  0.00    -0.334 N 
BRANCH   8  15
ATOM     15  S   UNL     1       0.368   1.124   1.043  1.00  0.00     0.211 S 
ATOM     16  C   UNL     1       1.123   0.076  -0.188  1.00  0.00     0.176 C 
ATOM     17  O   UNL     1       0.509   2.497   0.620  1.00  0.00    -0.213 OA
ATOM     18  O   UNL     1      -0.932   0.556   1.344  1.00  0.00    -0.213 OA
ENDBRANCH   8  15
BRANCH  14  19
ATOM     19  C   UNL     1       4.988  -1.373   6.104  1.00  0.00     0.289 C 
ATOM     20  O   UNL     1       4.761  -2.578   6.241  1.00  0.00    -0.265 OA
BRANCH  19  21
ATOM     21  C   UNL     1       5.549  -0.606   7.191  1.00  0.00     0.191 A 
ATOM     22  C   UNL     1       5.107  -0.524   8.500  1.00  0.00     0.056 A 
ATOM     23  O   UNL     1       6.709   0.102   7.052  1.00  0.00    -0.459 OA
ATOM     24  C   UNL     1       6.037   0.277   9.197  1.00  0.00     0.043 A 
ATOM     25  C   UNL     1       7.012   0.604   8.283  1.00  0.00     0.196 A 
ENDBRANCH  19  21
ENDBRANCH  14  19
ENDBRANCH   4   7
ENDBRANCH   2   3
ENDBRANCH   1   2
BRANCH   1  26
ATOM     26  C   UNL     1       4.186   3.779   8.200  1.00  0.00     0.118 C 
BRANCH  26  27
ATOM     27  N   UNL     1       3.409   4.198   9.352  1.00  0.00    -0.352 N 
ATOM     28  C   UNL     1       3.658   4.046  10.693  1.00  0.00     0.251 C 
ATOM     29  H   UNL     1       2.570   4.666   9.137  1.00  0.00     0.163 HD
ATOM     30  O   UNL     1       2.717   4.147  11.478  1.00  0.00    -0.269 OA
BRANCH  28  31
ATOM     31  C   UNL     1       5.019   3.770  11.227  1.00  0.00     0.039 A 
ATOM     32  C   UNL     1       5.125   3.054  12.426  1.00  0.00     0.014 A 
ATOM     33  C   UNL     1       6.177   4.298  10.651  1.00  0.00     0.014 A 
ATOM     34  C   UNL     1       6.373   2.860  13.029  1.00  0.00     0.010 A 
ATOM     35  C   UNL     1       7.432   4.028  11.205  1.00  0.00     0.010 A 
ATOM     36  C   UNL     1       7.545   3.332  12.418  1.00  0.00    -0.014 A 
BRANCH  36  37
ATOM     37  C   UNL     1       8.878   3.152  13.059  1.00  0.00     0.031 A 
ATOM     38  C   UNL     1       9.690   4.351  13.483  1.00  0.00     0.074 A 
ATOM     39  C   UNL     1       9.380   1.914  13.238  1.00  0.00     0.049 A 
ATOM     40  N   UNL     1      10.893   4.399  14.002  1.00  0.00    -0.248 NA
ATOM     41  C   UNL     1       9.078   5.673  13.277  1.00  0.00     0.031 C 
ATOM     42  C   UNL     1       8.712   0.669  12.859  1.00  0.00     0.029 A 
ATOM     43  N   UNL     1      10.572   1.499  13.781  1.00  0.00    -0.354 N 
ATOM     44  C   UNL     1      11.184   5.749  14.165  1.00  0.00     0.074 A 
ATOM     45  C   UNL     1      10.056   6.488  13.643  1.00  0.00     0.031 C 
ATOM     46  C   UNL     1       9.490  -0.369  13.201  1.00  0.00     0.029 A 
ATOM     47  C   UNL     1      10.732   0.134  13.782  1.00  0.00     0.049 A 
ATOM     48  H   UNL     1      11.248   2.120  14.135  1.00  0.00     0.167 HD
ATOM     49  C   UNL     1      12.280   6.321  14.721  1.00  0.00     0.037 A 
ATOM     50  C   UNL     1      11.765  -0.627  14.192  1.00  0.00     0.037 A 
ATOM     51  C   UNL     1      13.394   5.587  15.265  1.00  0.00     0.049 A 
ATOM     52  C   UNL     1      12.986   0.036  14.774  1.00  0.00     0.074 A 
ATOM     53  C   UNL     1      14.525   6.076  15.895  1.00  0.00     0.029 A 
ATOM     54  N   UNL     1      13.519   4.206  15.239  1.00  0.00    -0.354 N 
ATOM     55  N   UNL     1      13.223   1.310  14.974  1.00  0.00    -0.248 NA
ATOM     56  C   UNL     1      14.083  -0.849  15.192  1.00  0.00     0.031 C 
ATOM     57  C   UNL     1      15.362   4.997  16.195  1.00  0.00     0.029 A 
ATOM     58  C   UNL     1      14.723   3.829  15.815  1.00  0.00     0.049 A 
ATOM     59  H   UNL     1      12.852   3.585  14.867  1.00  0.00     0.167 HD
ATOM     60  C   UNL     1      14.476   1.376  15.570  1.00  0.00     0.074 A 
ATOM     61  C   UNL     1      14.943   0.014  15.714  1.00  0.00     0.031 C 
ATOM     62  C   UNL     1      15.175   2.469  15.964  1.00  0.00     0.037 A 
BRANCH  49  63
ATOM     63  C   UNL     1      12.339   7.824  14.767  1.00  0.00     0.064 A 
ATOM     64  C   UNL     1      11.487   8.572  15.594  1.00  0.00     0.173 A 
ATOM     65  C   UNL     1      13.293   8.522  14.011  1.00  0.00     0.173 A 
ATOM     66  F   UNL     1      10.551   7.957  16.332  1.00  0.00    -0.203 F 
ATOM     67  C   UNL     1      11.567   9.962  15.637  1.00  0.00     0.198 A 
ATOM     68  C   UNL     1      13.394   9.909  14.083  1.00  0.00     0.198 A 
ATOM     69  F   UNL     1      14.140   7.858  13.210  1.00  0.00    -0.203 F 
ATOM     70  F   UNL     1      10.707  10.658  16.395  1.00  0.00    -0.200 F 
ATOM     71  C   UNL     1      12.525  10.629  14.889  1.00  0.00     0.200 A 
ATOM     72  F   UNL     1      14.333  10.550  13.373  1.00  0.00    -0.200 F 
ATOM     73  F   UNL     1      12.608  11.965  14.940  1.00  0.00    -0.200 F 
ENDBRANCH  49  63
BRANCH  50  74
ATOM     74  C   UNL     1      11.690  -2.109  14.081  1.00  0.00     0.064 A 
ATOM     75  C   UNL     1      11.638  -2.916  15.226  1.00  0.00     0.173 A 
ATOM     76  C   UNL     1      11.687  -2.749  12.833  1.00  0.00     0.173 A 
ATOM     77  F   UNL     1      11.661  -2.352  16.443  1.00  0.00    -0.203 F 
ATOM     78  C   UNL     1      11.612  -4.305  15.129  1.00  0.00     0.198 A 
ATOM     79  C   UNL     1      11.627  -4.138  12.736  1.00  0.00     0.198 A 
ATOM     80  F   UNL     1      11.732  -2.024  11.706  1.00  0.00    -0.203 F 
ATOM     81  F   UNL     1      11.619  -5.052  16.241  1.00  0.00    -0.200 F 
ATOM     82  C   UNL     1      11.600  -4.915  13.884  1.00  0.00     0.200 A 
ATOM     83  F   UNL     1      11.601  -4.722  11.531  1.00  0.00    -0.200 F 
ATOM     84  F   UNL     1      11.574  -6.252  13.790  1.00  0.00    -0.200 F 
ENDBRANCH  50  74
BRANCH  62  85
ATOM     85  C   UNL     1      16.502   2.240  16.632  1.00  0.00     0.064 A 
ATOM     86  C   UNL     1      17.616   1.761  15.926  1.00  0.00     0.173 A 
ATOM     87  C   UNL     1      16.671   2.541  17.993  1.00  0.00     0.173 A 
ATOM     88  F   UNL     1      17.506   1.445  14.627  1.00  0.00    -0.203 F 
ATOM     89  C   UNL     1      18.838   1.565  16.563  1.00  0.00     0.198 A 
ATOM     90  C   UNL     1      17.904   2.378  18.618  1.00  0.00     0.198 A 
ATOM     91  F   UNL     1      15.642   3.010  18.715  1.00  0.00    -0.203 F 
ATOM     92  F   UNL     1      19.873   1.055  15.881  1.00  0.00    -0.200 F 
ATOM     93  C   UNL     1      18.984   1.881  17.906  1.00  0.00     0.200 A 
ATOM     94  F   UNL     1      18.046   2.701  19.911  1.00  0.00    -0.200 F 
ATOM     95  F   UNL     1      20.164   1.699  18.515  1.00  0.00    -0.200 F 
ENDBRANCH  62  85
ENDBRANCH  36  37
ENDBRANCH  28  31
ENDBRANCH  26  27
ENDBRANCH   1  26
TORSDOF 13
