REMARK SMILES Cc1cc(Br)cc([N+](=O)[O-])c1OCCC(=O)NCCCNC(=O)c1ccc(-c2c3nc(c(-c4c(F)c(F)c(F)c(F)c4F)c4ccc([nH]4)c(-c4c(F)c(F)c(F)c(F)c4F)c4nc(c(-c5c(F)c(F)c(F)c(F)c5F)c5ccc2[nH]5)C=C4)C=C3)cc1
REMARK SMILES IDX 18 1 17 2 15 3 16 4 14 6 13 7 12 8 11 9 1 10 2 11 3 12 4 13
REMARK SMILES IDX 7 14 5 15 6 16 8 17 9 18 10 19 19 20 20 21 21 22 22 23 23 25
REMARK SMILES IDX 24 26 25 27 86 28 26 29 85 30 27 31 28 32 29 33 79 34 30 35
REMARK SMILES IDX 84 36 78 37 80 38 31 39 83 40 77 41 76 42 32 44 64 45 44 46
REMARK SMILES IDX 63 47 45 48 48 49 62 50 81 51 46 52 47 53 61 55 82 56 49 57
REMARK SMILES IDX 33 58 34 59 42 60 35 61 36 62 40 63 43 64 37 65 38 66 41 67
REMARK SMILES IDX 39 68 65 69 66 70 74 71 67 72 68 73 72 74 75 75 69 76 70 77
REMARK SMILES IDX 73 78 71 79 50 80 51 81 59 82 52 83 53 84 57 85 60 86 54 87
REMARK SMILES IDX 55 88 58 89 56 90
REMARK H PARENT 17 5 21 24 80 43 48 54
REMARK Flexibility Score: inf
ROOT
ATOM      1  C   UNL     1      -2.301   0.864  -2.855  1.00  0.00     0.117 C 
ENDROOT
BRANCH   1   2
ATOM      2  N   UNL     1      -2.580  -0.477  -2.361  1.00  0.00    -0.356 N 
ATOM      3  C   UNL     1      -3.727  -1.007  -1.846  1.00  0.00     0.223 C 
ATOM      4  O   UNL     1      -3.789  -2.230  -1.703  1.00  0.00    -0.275 OA
ATOM      5  H   UNL     1      -1.821  -1.102  -2.406  1.00  0.00     0.163 HD
BRANCH   3   6
ATOM      6  C   UNL     1      -4.892  -0.127  -1.465  1.00  0.00     0.141 C 
BRANCH   6   7
ATOM      7  C   UNL     1      -5.100  -0.014   0.041  1.00  0.00     0.240 C 
BRANCH   7   8
ATOM      8  O   UNL     1      -4.074   0.715   0.688  1.00  0.00    -0.486 OA
BRANCH   8   9
ATOM      9  C   UNL     1      -2.980   0.227   1.331  1.00  0.00     0.200 A 
ATOM     10  C   UNL     1      -3.245  -2.393   1.210  1.00  0.00     0.049 C 
ATOM     11  C   UNL     1      -2.543  -1.097   1.510  1.00  0.00    -0.001 A 
ATOM     12  C   UNL     1      -1.255  -1.316   2.072  1.00  0.00     0.023 A 
ATOM     13  C   UNL     1      -0.438  -0.280   2.507  1.00  0.00     0.025 A 
ATOM     14  C   UNL     1      -2.138   1.256   1.838  1.00  0.00     0.312 A 
ATOM     15  Br  UNL     1       1.259  -0.679   3.227  1.00  0.00    -0.051 Br
ATOM     16  C   UNL     1      -0.882   1.023   2.417  1.00  0.00     0.105 A 
BRANCH  14  17
ATOM     17  N   UNL     1      -2.533   2.658   1.719  1.00  0.00     0.066 N 
ATOM     18  O   UNL     1      -1.721   3.421   1.174  1.00  0.00    -0.258 OA
ATOM     19  O   UNL     1      -3.618   3.000   2.208  1.00  0.00    -0.258 OA
ENDBRANCH  14  17
ENDBRANCH   8   9
ENDBRANCH   7   8
ENDBRANCH   6   7
ENDBRANCH   3   6
ENDBRANCH   1   2
BRANCH   1  20
ATOM     20  C   UNL     1      -1.649   1.786  -1.824  1.00  0.00     0.042 C 
BRANCH  20  21
ATOM     21  C   UNL     1      -0.225   1.391  -1.400  1.00  0.00     0.118 C 
BRANCH  21  22
ATOM     22  N   UNL     1       0.784   2.193  -2.076  1.00  0.00    -0.352 N 
ATOM     23  C   UNL     1       1.655   3.155  -1.631  1.00  0.00     0.251 C 
ATOM     24  H   UNL     1       0.855   2.010  -3.041  1.00  0.00     0.163 HD
ATOM     25  O   UNL     1       2.228   3.835  -2.493  1.00  0.00    -0.269 OA
BRANCH  23  26
ATOM     26  C   UNL     1       1.979   3.428  -0.200  1.00  0.00     0.039 A 
ATOM     27  C   UNL     1       2.325   4.744   0.144  1.00  0.00     0.014 A 
ATOM     28  C   UNL     1       2.137   2.437   0.770  1.00  0.00     0.014 A 
ATOM     29  C   UNL     1       2.816   5.063   1.421  1.00  0.00     0.010 A 
ATOM     30  C   UNL     1       2.583   2.769   2.071  1.00  0.00     0.010 A 
ATOM     31  C   UNL     1       2.946   4.082   2.417  1.00  0.00    -0.014 A 
BRANCH  31  32
ATOM     32  C   UNL     1       3.468   4.445   3.782  1.00  0.00     0.031 A 
ATOM     33  C   UNL     1       4.737   3.839   4.346  1.00  0.00     0.074 A 
ATOM     34  C   UNL     1       2.811   5.341   4.550  1.00  0.00     0.049 A 
ATOM     35  N   UNL     1       5.342   4.088   5.487  1.00  0.00    -0.248 NA
ATOM     36  C   UNL     1       5.403   2.808   3.539  1.00  0.00     0.031 C 
ATOM     37  C   UNL     1       1.547   5.988   4.200  1.00  0.00     0.029 A 
ATOM     38  N   UNL     1       3.120   5.871   5.785  1.00  0.00    -0.354 N 
ATOM     39  C   UNL     1       6.443   3.240   5.539  1.00  0.00     0.074 A 
ATOM     40  C   UNL     1       6.396   2.434   4.335  1.00  0.00     0.031 C 
ATOM     41  C   UNL     1       1.210   6.851   5.172  1.00  0.00     0.029 A 
ATOM     42  C   UNL     1       2.214   6.803   6.233  1.00  0.00     0.049 A 
ATOM     43  H   UNL     1       3.917   5.606   6.299  1.00  0.00     0.167 HD
ATOM     44  C   UNL     1       7.419   3.147   6.479  1.00  0.00     0.037 A 
ATOM     45  C   UNL     1       2.184   7.545   7.359  1.00  0.00     0.037 A 
ATOM     46  C   UNL     1       7.518   3.960   7.667  1.00  0.00     0.049 A 
ATOM     47  C   UNL     1       3.290   7.442   8.377  1.00  0.00     0.074 A 
ATOM     48  C   UNL     1       8.525   3.973   8.622  1.00  0.00     0.029 A 
ATOM     49  N   UNL     1       6.585   4.901   8.069  1.00  0.00    -0.354 N 
ATOM     50  N   UNL     1       4.365   6.696   8.362  1.00  0.00    -0.248 NA
ATOM     51  C   UNL     1       3.179   8.302   9.567  1.00  0.00     0.031 C 
ATOM     52  C   UNL     1       8.179   4.888   9.622  1.00  0.00     0.029 A 
ATOM     53  C   UNL     1       6.983   5.484   9.265  1.00  0.00     0.049 A 
ATOM     54  H   UNL     1       5.761   5.125   7.578  1.00  0.00     0.167 HD
ATOM     55  C   UNL     1       5.070   7.018   9.516  1.00  0.00     0.074 A 
ATOM     56  C   UNL     1       4.311   8.038  10.204  1.00  0.00     0.031 C 
ATOM     57  C   UNL     1       6.246   6.509   9.957  1.00  0.00     0.037 A 
BRANCH  44  58
ATOM     58  C   UNL     1       8.500   2.123   6.263  1.00  0.00     0.064 A 
ATOM     59  C   UNL     1       9.477   2.287   5.268  1.00  0.00     0.173 A 
ATOM     60  C   UNL     1       8.607   1.008   7.109  1.00  0.00     0.173 A 
ATOM     61  F   UNL     1       9.422   3.336   4.434  1.00  0.00    -0.203 F 
ATOM     62  C   UNL     1      10.501   1.356   5.110  1.00  0.00     0.198 A 
ATOM     63  C   UNL     1       9.650   0.097   6.967  1.00  0.00     0.198 A 
ATOM     64  F   UNL     1       7.712   0.814   8.089  1.00  0.00    -0.203 F 
ATOM     65  F   UNL     1      11.398   1.512   4.126  1.00  0.00    -0.200 F 
ATOM     66  C   UNL     1      10.591   0.267   5.963  1.00  0.00     0.200 A 
ATOM     67  F   UNL     1       9.749  -0.944   7.806  1.00  0.00    -0.200 F 
ATOM     68  F   UNL     1      11.585  -0.620   5.816  1.00  0.00    -0.200 F 
ENDBRANCH  44  58
BRANCH  45  69
ATOM     69  C   UNL     1       1.065   8.499   7.583  1.00  0.00     0.064 A 
ATOM     70  C   UNL     1       1.278   9.884   7.522  1.00  0.00     0.173 A 
ATOM     71  C   UNL     1      -0.225   8.047   7.891  1.00  0.00     0.173 A 
ATOM     72  F   UNL     1       2.503  10.363   7.264  1.00  0.00    -0.203 F 
ATOM     73  C   UNL     1       0.244  10.781   7.783  1.00  0.00     0.198 A 
ATOM     74  C   UNL     1      -1.264   8.945   8.123  1.00  0.00     0.198 A 
ATOM     75  F   UNL     1      -0.475   6.731   7.966  1.00  0.00    -0.203 F 
ATOM     76  F   UNL     1       0.486  12.099   7.772  1.00  0.00    -0.200 F 
ATOM     77  C   UNL     1      -1.027  10.311   8.077  1.00  0.00     0.200 A 
ATOM     78  F   UNL     1      -2.492   8.488   8.400  1.00  0.00    -0.200 F 
ATOM     79  F   UNL     1      -2.020  11.174   8.329  1.00  0.00    -0.200 F 
ENDBRANCH  45  69
BRANCH  57  80
ATOM     80  C   UNL     1       6.821   7.074  11.226  1.00  0.00     0.064 A 
ATOM     81  C   UNL     1       6.243   6.822  12.479  1.00  0.00     0.173 A 
ATOM     82  C   UNL     1       7.981   7.865  11.191  1.00  0.00     0.173 A 
ATOM     83  F   UNL     1       5.126   6.085  12.571  1.00  0.00    -0.203 F 
ATOM     84  C   UNL     1       6.786   7.363  13.644  1.00  0.00     0.198 A 
ATOM     85  C   UNL     1       8.537   8.381  12.359  1.00  0.00     0.198 A 
ATOM     86  F   UNL     1       8.580   8.134  10.021  1.00  0.00    -0.203 F 
ATOM     87  F   UNL     1       6.186   7.149  14.823  1.00  0.00    -0.200 F 
ATOM     88  C   UNL     1       7.935   8.137  13.583  1.00  0.00     0.200 A 
ATOM     89  F   UNL     1       9.654   9.119  12.299  1.00  0.00    -0.200 F 
ATOM     90  F   UNL     1       8.456   8.655  14.704  1.00  0.00    -0.200 F 
ENDBRANCH  57  80
ENDBRANCH  31  32
ENDBRANCH  23  26
ENDBRANCH  21  22
ENDBRANCH  20  21
ENDBRANCH   1  20
TORSDOF 14
