REMARK SMILES CCCN(CC(=O)OC)C(=O)N1CC[C@H](C(=O)NCCCNC(=O)c2ccc(-c3c4nc(c(-c5c(F)c(F)c(F)c(F)c5F)c5ccc([nH]5)c(-c5c(F)c(F)c(F)c(F)c5F)c5nc(c(-c6c(F)c(F)c(F)c(F)c6F)c6ccc3[nH]6)C=C5)C=C4)cc2)[C@H]1C
REMARK SMILES IDX 16 1 17 2 18 3 15 5 12 6 13 7 88 8 14 9 89 10 10 11 11 12
REMARK SMILES IDX 4 13 3 14 2 15 1 16 5 17 6 18 7 19 8 20 9 21 19 22 20 23
REMARK SMILES IDX 21 24 22 25 23 26 24 28 25 29 26 30 87 31 27 32 86 33 28 34
REMARK SMILES IDX 29 35 30 36 80 37 31 38 85 39 79 40 81 41 32 42 84 43 78 44
REMARK SMILES IDX 77 45 33 47 65 48 45 49 64 50 46 51 49 52 63 53 82 54 47 55
REMARK SMILES IDX 48 56 62 58 83 59 50 60 34 61 35 62 43 63 36 64 37 65 41 66
REMARK SMILES IDX 44 67 38 68 39 69 42 70 40 71 66 72 67 73 75 74 68 75 69 76
REMARK SMILES IDX 73 77 76 78 70 79 71 80 74 81 72 82 51 83 52 84 60 85 53 86
REMARK SMILES IDX 54 87 58 88 61 89 55 90 56 91 59 92 57 93
REMARK H PARENT 18 4 22 27 81 46 49 57
REMARK Flexibility Score: inf
ROOT
ATOM      1  C   UNL     1       1.446  -2.383   6.124  1.00  0.00     0.225 C 
ATOM      2  O   UNL     1       1.587  -1.371   6.822  1.00  0.00    -0.275 OA
ATOM      3  N   UNL     1       2.553  -3.155   6.023  1.00  0.00    -0.356 N 
ATOM      4  H   UNL     1       3.276  -2.888   6.635  1.00  0.00     0.163 HD
ENDROOT
BRANCH   1   5
ATOM      5  C   UNL     1       0.059  -2.782   5.608  1.00  0.00     0.102 C 
ATOM      6  N   UNL     1      -0.189  -2.183   3.314  1.00  0.00    -0.321 N 
ATOM      7  C   UNL     1      -0.501  -1.002   4.123  1.00  0.00     0.122 C 
ATOM      8  C   UNL     1      -0.130  -3.361   4.190  1.00  0.00     0.096 C 
ATOM      9  C   UNL     1      -0.828  -1.523   5.516  1.00  0.00     0.037 C 
ATOM     10  C   UNL     1      -1.444  -4.170   4.182  1.00  0.00     0.032 C 
BRANCH   6  11
ATOM     11  C   UNL     1       0.687  -1.988   2.256  1.00  0.00     0.320 C 
ATOM     12  O   UNL     1       1.500  -1.061   2.284  1.00  0.00    -0.248 OA
BRANCH  11  13
ATOM     13  N   UNL     1       0.579  -2.798   1.141  1.00  0.00    -0.314 N 
BRANCH  13  14
ATOM     14  C   UNL     1       1.367  -2.435  -0.042  1.00  0.00     0.122 C 
BRANCH  14  15
ATOM     15  C   UNL     1       0.643  -1.418  -0.941  1.00  0.00     0.018 C 
ATOM     16  C   UNL     1       0.746   0.021  -0.449  1.00  0.00     0.006 C 
ENDBRANCH  14  15
ENDBRANCH  13  14
BRANCH  13  17
ATOM     17  C   UNL     1      -0.363  -3.904   0.961  1.00  0.00     0.243 C 
BRANCH  17  18
ATOM     18  C   UNL     1       0.148  -5.291   1.367  1.00  0.00     0.325 C 
ATOM     19  O   UNL     1      -0.581  -6.282   1.413  1.00  0.00    -0.250 OA
BRANCH  18  20
ATOM     20  O   UNL     1       1.482  -5.315   1.626  1.00  0.00    -0.468 OA
ATOM     21  C   UNL     1       2.022  -6.587   2.006  1.00  0.00     0.282 C 
ENDBRANCH  18  20
ENDBRANCH  17  18
ENDBRANCH  13  17
ENDBRANCH  11  13
ENDBRANCH   6  11
ENDBRANCH   1   5
BRANCH   3  22
ATOM     22  C   UNL     1       2.888  -4.294   5.197  1.00  0.00     0.117 C 
BRANCH  22  23
ATOM     23  C   UNL     1       3.529  -3.838   3.886  1.00  0.00     0.042 C 
BRANCH  23  24
ATOM     24  C   UNL     1       4.966  -3.345   4.033  1.00  0.00     0.118 C 
BRANCH  24  25
ATOM     25  N   UNL     1       5.883  -4.442   4.316  1.00  0.00    -0.352 N 
ATOM     26  C   UNL     1       6.940  -4.929   3.593  1.00  0.00     0.251 C 
ATOM     27  H   UNL     1       5.716  -4.910   5.166  1.00  0.00     0.163 HD
ATOM     28  O   UNL     1       7.417  -6.028   3.899  1.00  0.00    -0.269 OA
BRANCH  26  29
ATOM     29  C   UNL     1       7.521  -4.180   2.457  1.00  0.00     0.039 A 
ATOM     30  C   UNL     1       8.003  -4.897   1.356  1.00  0.00     0.014 A 
ATOM     31  C   UNL     1       7.663  -2.791   2.490  1.00  0.00     0.014 A 
ATOM     32  C   UNL     1       8.574  -4.223   0.273  1.00  0.00     0.010 A 
ATOM     33  C   UNL     1       8.170  -2.112   1.383  1.00  0.00     0.010 A 
ATOM     34  C   UNL     1       8.635  -2.822   0.265  1.00  0.00    -0.014 A 
BRANCH  34  35
ATOM     35  C   UNL     1       9.171  -2.078  -0.903  1.00  0.00     0.031 A 
ATOM     36  C   UNL     1      10.420  -1.254  -0.772  1.00  0.00     0.074 A 
ATOM     37  C   UNL     1       8.481  -2.073  -2.058  1.00  0.00     0.049 A 
ATOM     38  N   UNL     1      10.983  -0.457  -1.646  1.00  0.00    -0.248 NA
ATOM     39  C   UNL     1      11.113  -1.311   0.523  1.00  0.00     0.031 C 
ATOM     40  C   UNL     1       7.227  -2.789  -2.293  1.00  0.00     0.029 A 
ATOM     41  N   UNL     1       8.722  -1.424  -3.243  1.00  0.00    -0.354 N 
ATOM     42  C   UNL     1      12.079   0.099  -0.999  1.00  0.00     0.074 A 
ATOM     43  C   UNL     1      12.078  -0.420   0.353  1.00  0.00     0.031 C 
ATOM     44  C   UNL     1       6.807  -2.539  -3.543  1.00  0.00     0.029 A 
ATOM     45  C   UNL     1       7.742  -1.619  -4.184  1.00  0.00     0.049 A 
ATOM     46  H   UNL     1       9.521  -0.871  -3.403  1.00  0.00     0.167 HD
ATOM     47  C   UNL     1      13.009   0.952  -1.493  1.00  0.00     0.037 A 
ATOM     48  C   UNL     1       7.599  -1.098  -5.418  1.00  0.00     0.037 A 
ATOM     49  C   UNL     1      13.020   1.444  -2.846  1.00  0.00     0.049 A 
ATOM     50  C   UNL     1       8.644  -0.159  -5.949  1.00  0.00     0.074 A 
ATOM     51  C   UNL     1      13.973   2.228  -3.472  1.00  0.00     0.029 A 
ATOM     52  N   UNL     1      12.021   1.207  -3.779  1.00  0.00    -0.354 N 
ATOM     53  N   UNL     1       9.725   0.291  -5.359  1.00  0.00    -0.248 NA
ATOM     54  C   UNL     1       8.453   0.342  -7.316  1.00  0.00     0.031 C 
ATOM     55  C   UNL     1      13.526   2.507  -4.769  1.00  0.00     0.029 A 
ATOM     56  C   UNL     1      12.316   1.860  -4.966  1.00  0.00     0.049 A 
ATOM     57  H   UNL     1      11.221   0.656  -3.622  1.00  0.00     0.167 HD
ATOM     58  C   UNL     1      10.345   1.122  -6.281  1.00  0.00     0.074 A 
ATOM     59  C   UNL     1       9.532   1.096  -7.479  1.00  0.00     0.031 C 
ATOM     60  C   UNL     1      11.486   1.842  -6.144  1.00  0.00     0.037 A 
BRANCH  47  61
ATOM     61  C   UNL     1      14.088   1.413  -0.555  1.00  0.00     0.064 A 
ATOM     62  C   UNL     1      15.087   0.543  -0.093  1.00  0.00     0.173 A 
ATOM     63  C   UNL     1      14.128   2.746  -0.120  1.00  0.00     0.173 A 
ATOM     64  F   UNL     1      15.089  -0.744  -0.472  1.00  0.00    -0.203 F 
ATOM     65  C   UNL     1      16.060   0.979   0.803  1.00  0.00     0.198 A 
ATOM     66  C   UNL     1      15.121   3.186   0.752  1.00  0.00     0.198 A 
ATOM     67  F   UNL     1      13.203   3.623  -0.538  1.00  0.00    -0.203 F 
ATOM     68  F   UNL     1      16.967   0.114   1.277  1.00  0.00    -0.200 F 
ATOM     69  C   UNL     1      16.078   2.300   1.222  1.00  0.00     0.200 A 
ATOM     70  F   UNL     1      15.145   4.467   1.147  1.00  0.00    -0.200 F 
ATOM     71  F   UNL     1      17.014   2.717   2.087  1.00  0.00    -0.200 F 
ENDBRANCH  47  61
BRANCH  48  72
ATOM     72  C   UNL     1       6.412  -1.470  -6.228  1.00  0.00     0.064 A 
ATOM     73  C   UNL     1       6.529  -2.342  -7.317  1.00  0.00     0.173 A 
ATOM     74  C   UNL     1       5.132  -1.001  -5.897  1.00  0.00     0.173 A 
ATOM     75  F   UNL     1       7.736  -2.802  -7.680  1.00  0.00    -0.203 F 
ATOM     76  C   UNL     1       5.409  -2.732  -8.049  1.00  0.00     0.198 A 
ATOM     77  C   UNL     1       4.010  -1.410  -6.615  1.00  0.00     0.198 A 
ATOM     78  F   UNL     1       4.968  -0.171  -4.857  1.00  0.00    -0.203 F 
ATOM     79  F   UNL     1       5.549  -3.551  -9.099  1.00  0.00    -0.200 F 
ATOM     80  C   UNL     1       4.150  -2.272  -7.691  1.00  0.00     0.200 A 
ATOM     81  F   UNL     1       2.793  -0.979  -6.255  1.00  0.00    -0.200 F 
ATOM     82  F   UNL     1       3.071  -2.663  -8.383  1.00  0.00    -0.200 F 
ENDBRANCH  48  72
BRANCH  60  83
ATOM     83  C   UNL     1      11.918   2.670  -7.318  1.00  0.00     0.064 A 
ATOM     84  C   UNL     1      11.249   3.854  -7.661  1.00  0.00     0.173 A 
ATOM     85  C   UNL     1      13.036   2.301  -8.081  1.00  0.00     0.173 A 
ATOM     86  F   UNL     1      10.164   4.239  -6.974  1.00  0.00    -0.203 F 
ATOM     87  C   UNL     1      11.675   4.630  -8.736  1.00  0.00     0.198 A 
ATOM     88  C   UNL     1      13.475   3.093  -9.138  1.00  0.00     0.198 A 
ATOM     89  F   UNL     1      13.712   1.179  -7.791  1.00  0.00    -0.203 F 
ATOM     90  F   UNL     1      10.998   5.738  -9.070  1.00  0.00    -0.200 F 
ATOM     91  C   UNL     1      12.791   4.254  -9.468  1.00  0.00     0.200 A 
ATOM     92  F   UNL     1      14.559   2.734  -9.838  1.00  0.00    -0.200 F 
ATOM     93  F   UNL     1      13.204   5.007 -10.497  1.00  0.00    -0.200 F 
ENDBRANCH  60  83
ENDBRANCH  34  35
ENDBRANCH  26  29
ENDBRANCH  24  25
ENDBRANCH  23  24
ENDBRANCH  22  23
ENDBRANCH   3  22
TORSDOF 17
