REMARK SMILES O=C(NCCCNC(=O)c1nccnc1C(=O)N1CCC(Cc2ccccc2)CC1)c1ccc(-c2c3nc(c(-c4c(F)c(F)c(F)c(F)c4F)c4ccc([nH]4)c(-c4c(F)c(F)c(F)c(F)c4F)c4nc(c(-c5c(F)c(F)c(F)c(F)c5F)c5ccc2[nH]5)C=C4)C=C3)cc1
REMARK SMILES IDX 5 1 4 2 3 3 1 4 2 5 31 7 32 8 93 9 33 10 92 11 34 12 35 13
REMARK SMILES IDX 36 14 86 15 37 16 91 17 85 18 87 19 38 20 90 21 84 22 83 23
REMARK SMILES IDX 39 25 71 26 51 27 70 28 52 29 55 30 69 31 88 32 53 33 54 34
REMARK SMILES IDX 68 36 89 37 56 38 40 39 41 40 49 41 42 42 43 43 47 44 50 45
REMARK SMILES IDX 44 46 45 47 48 48 46 49 72 50 73 51 81 52 74 53 75 54 79 55
REMARK SMILES IDX 82 56 76 57 77 58 80 59 78 60 57 61 58 62 66 63 59 64 60 65
REMARK SMILES IDX 64 66 67 67 61 68 62 69 65 70 63 71 6 72 7 73 8 74 9 76
REMARK SMILES IDX 10 77 11 78 15 79 12 80 14 81 13 82 16 83 17 84 18 85 19 86
REMARK SMILES IDX 30 87 20 88 29 89 21 90 22 91 23 92 24 93 28 94 25 95 27 96
REMARK SMILES IDX 26 97
REMARK H PARENT 3 6 87 24 55 35 7 75
REMARK Flexibility Score: inf
ROOT
ATOM      1  C   UNL     1       4.813  -1.472   2.064  1.00  0.00     0.042 C 
ENDROOT
BRANCH   1   2
ATOM      2  C   UNL     1       4.472  -1.431   0.578  1.00  0.00     0.118 C 
BRANCH   2   3
ATOM      3  N   UNL     1       3.053  -1.248   0.327  1.00  0.00    -0.352 N 
ATOM      4  O   UNL     1       1.109  -0.204  -0.079  1.00  0.00    -0.269 OA
ATOM      5  C   UNL     1       2.339  -0.172  -0.137  1.00  0.00     0.251 C 
ATOM      6  H   UNL     1       2.503  -2.041   0.525  1.00  0.00     0.163 HD
BRANCH   5   7
ATOM      7  C   UNL     1       3.006   1.029  -0.685  1.00  0.00     0.039 A 
ATOM      8  C   UNL     1       4.119   0.937  -1.523  1.00  0.00     0.014 A 
ATOM      9  C   UNL     1       2.447   2.283  -0.414  1.00  0.00     0.014 A 
ATOM     10  C   UNL     1       4.750   2.095  -1.977  1.00  0.00     0.010 A 
ATOM     11  C   UNL     1       3.034   3.440  -0.933  1.00  0.00     0.010 A 
ATOM     12  C   UNL     1       4.210   3.358  -1.693  1.00  0.00    -0.014 A 
BRANCH  12  13
ATOM     13  C   UNL     1       4.856   4.588  -2.220  1.00  0.00     0.031 A 
ATOM     14  C   UNL     1       5.449   5.601  -1.283  1.00  0.00     0.074 A 
ATOM     15  C   UNL     1       4.890   4.800  -3.549  1.00  0.00     0.049 A 
ATOM     16  N   UNL     1       5.998   6.760  -1.554  1.00  0.00    -0.248 NA
ATOM     17  C   UNL     1       5.412   5.276   0.150  1.00  0.00     0.031 C 
ATOM     18  C   UNL     1       4.343   3.895  -4.560  1.00  0.00     0.029 A 
ATOM     19  N   UNL     1       5.398   5.846  -4.277  1.00  0.00    -0.354 N 
ATOM     20  C   UNL     1       6.352   7.309  -0.328  1.00  0.00     0.074 A 
ATOM     21  C   UNL     1       5.929   6.370   0.690  1.00  0.00     0.031 C 
ATOM     22  C   UNL     1       4.558   4.415  -5.777  1.00  0.00     0.029 A 
ATOM     23  C   UNL     1       5.204   5.716  -5.630  1.00  0.00     0.049 A 
ATOM     24  H   UNL     1       5.857   6.616  -3.869  1.00  0.00     0.167 HD
ATOM     25  C   UNL     1       6.978   8.484  -0.078  1.00  0.00     0.037 A 
ATOM     26  C   UNL     1       5.489   6.560  -6.640  1.00  0.00     0.037 A 
ATOM     27  C   UNL     1       7.402   9.411  -1.097  1.00  0.00     0.049 A 
ATOM     28  C   UNL     1       6.149   7.875  -6.335  1.00  0.00     0.074 A 
ATOM     29  C   UNL     1       8.078  10.609  -0.947  1.00  0.00     0.029 A 
ATOM     30  N   UNL     1       7.181   9.245  -2.457  1.00  0.00    -0.354 N 
ATOM     31  N   UNL     1       6.513   8.367  -5.176  1.00  0.00    -0.248 NA
ATOM     32  C   UNL     1       6.439   8.751  -7.478  1.00  0.00     0.031 C 
ATOM     33  C   UNL     1       8.218  11.195  -2.210  1.00  0.00     0.029 A 
ATOM     34  C   UNL     1       7.685  10.333  -3.155  1.00  0.00     0.049 A 
ATOM     35  H   UNL     1       6.733   8.470  -2.867  1.00  0.00     0.167 HD
ATOM     36  C   UNL     1       7.100   9.595  -5.450  1.00  0.00     0.074 A 
ATOM     37  C   UNL     1       7.048   9.770  -6.887  1.00  0.00     0.031 C 
ATOM     38  C   UNL     1       7.636  10.491  -4.587  1.00  0.00     0.037 A 
BRANCH  25  39
ATOM     39  C   UNL     1       7.218   8.850   1.360  1.00  0.00     0.064 A 
ATOM     40  C   UNL     1       8.146   8.160   2.155  1.00  0.00     0.173 A 
ATOM     41  C   UNL     1       6.525   9.922   1.944  1.00  0.00     0.173 A 
ATOM     42  F   UNL     1       8.828   7.121   1.649  1.00  0.00    -0.203 F 
ATOM     43  C   UNL     1       8.344   8.506   3.490  1.00  0.00     0.198 A 
ATOM     44  C   UNL     1       6.750  10.285   3.270  1.00  0.00     0.198 A 
ATOM     45  F   UNL     1       5.632  10.621   1.228  1.00  0.00    -0.203 F 
ATOM     46  F   UNL     1       9.194   7.795   4.245  1.00  0.00    -0.200 F 
ATOM     47  C   UNL     1       7.651   9.571   4.044  1.00  0.00     0.200 A 
ATOM     48  F   UNL     1       6.088  11.323   3.800  1.00  0.00    -0.200 F 
ATOM     49  F   UNL     1       7.843   9.902   5.329  1.00  0.00    -0.200 F 
ENDBRANCH  25  39
BRANCH  26  50
ATOM     50  C   UNL     1       5.143   6.174  -8.032  1.00  0.00     0.064 A 
ATOM     51  C   UNL     1       6.141   5.848  -8.959  1.00  0.00     0.173 A 
ATOM     52  C   UNL     1       3.807   6.090  -8.451  1.00  0.00     0.173 A 
ATOM     53  F   UNL     1       7.433   5.932  -8.610  1.00  0.00    -0.203 F 
ATOM     54  C   UNL     1       5.816   5.458 -10.257  1.00  0.00     0.198 A 
ATOM     55  C   UNL     1       3.482   5.672  -9.739  1.00  0.00     0.198 A 
ATOM     56  F   UNL     1       2.815   6.386  -7.598  1.00  0.00    -0.203 F 
ATOM     57  F   UNL     1       6.790   5.181 -11.134  1.00  0.00    -0.200 F 
ATOM     58  C   UNL     1       4.487   5.362 -10.643  1.00  0.00     0.200 A 
ATOM     59  F   UNL     1       2.197   5.563 -10.102  1.00  0.00    -0.200 F 
ATOM     60  F   UNL     1       4.175   4.971 -11.886  1.00  0.00    -0.200 F 
ENDBRANCH  26  50
BRANCH  38  61
ATOM     61  C   UNL     1       8.258  11.727  -5.171  1.00  0.00     0.064 A 
ATOM     62  C   UNL     1       7.481  12.761  -5.711  1.00  0.00     0.173 A 
ATOM     63  C   UNL     1       9.651  11.898  -5.139  1.00  0.00     0.173 A 
ATOM     64  F   UNL     1       6.147  12.639  -5.780  1.00  0.00    -0.203 F 
ATOM     65  C   UNL     1       8.077  13.915  -6.214  1.00  0.00     0.198 A 
ATOM     66  C   UNL     1      10.241  13.065  -5.616  1.00  0.00     0.198 A 
ATOM     67  F   UNL     1      10.438  10.939  -4.628  1.00  0.00    -0.203 F 
ATOM     68  F   UNL     1       7.319  14.875  -6.762  1.00  0.00    -0.200 F 
ATOM     69  C   UNL     1       9.455  14.070  -6.158  1.00  0.00     0.200 A 
ATOM     70  F   UNL     1      11.571  13.217  -5.548  1.00  0.00    -0.200 F 
ATOM     71  F   UNL     1      10.025  15.186  -6.631  1.00  0.00    -0.200 F 
ENDBRANCH  38  61
ENDBRANCH  12  13
ENDBRANCH   5   7
ENDBRANCH   2   3
ENDBRANCH   1   2
BRANCH   1  72
ATOM     72  C   UNL     1       4.093  -2.564   2.850  1.00  0.00     0.118 C 
BRANCH  72  73
ATOM     73  N   UNL     1       4.379  -3.909   2.373  1.00  0.00    -0.351 N 
ATOM     74  C   UNL     1       5.173  -4.891   2.938  1.00  0.00     0.272 C 
ATOM     75  H   UNL     1       3.944  -4.155   1.525  1.00  0.00     0.163 HD
ATOM     76  O   UNL     1       5.229  -6.001   2.409  1.00  0.00    -0.267 OA
BRANCH  74  77
ATOM     77  C   UNL     1       5.937  -4.589   4.166  1.00  0.00     0.159 A 
ATOM     78  N   UNL     1       5.145  -4.196   5.219  1.00  0.00    -0.247 NA
ATOM     79  C   UNL     1       7.313  -4.732   4.280  1.00  0.00     0.159 A 
ATOM     80  C   UNL     1       5.777  -3.964   6.386  1.00  0.00     0.132 A 
ATOM     81  N   UNL     1       7.935  -4.423   5.468  1.00  0.00    -0.247 NA
ATOM     82  C   UNL     1       7.146  -4.060   6.505  1.00  0.00     0.132 A 
BRANCH  79  83
ATOM     83  C   UNL     1       8.202  -5.448   3.312  1.00  0.00     0.274 C 
ATOM     84  O   UNL     1       9.077  -6.175   3.797  1.00  0.00    -0.267 OA
ATOM     85  N   UNL     1       8.039  -5.391   1.929  1.00  0.00    -0.337 N 
ATOM     86  C   UNL     1       8.291  -6.626   1.194  1.00  0.00     0.120 C 
ATOM     87  C   UNL     1       7.615  -4.242   1.135  1.00  0.00     0.120 C 
ATOM     88  C   UNL     1       9.254  -6.413   0.039  1.00  0.00     0.025 C 
ATOM     89  C   UNL     1       8.546  -4.014  -0.065  1.00  0.00     0.025 C 
ATOM     90  C   UNL     1       8.733  -5.306  -0.890  1.00  0.00    -0.003 C 
BRANCH  90  91
ATOM     91  C   UNL     1       9.669  -5.072  -2.092  1.00  0.00     0.039 C 
BRANCH  91  92
ATOM     92  C   UNL     1       9.908  -6.314  -2.924  1.00  0.00    -0.048 A 
ATOM     93  C   UNL     1      11.179  -6.906  -2.959  1.00  0.00     0.004 A 
ATOM     94  C   UNL     1       8.863  -6.917  -3.639  1.00  0.00     0.004 A 
ATOM     95  C   UNL     1      11.397  -8.080  -3.682  1.00  0.00     0.000 A 
ATOM     96  C   UNL     1       9.083  -8.093  -4.360  1.00  0.00     0.000 A 
ATOM     97  C   UNL     1      10.349  -8.675  -4.380  1.00  0.00     0.000 A 
ENDBRANCH  91  92
ENDBRANCH  90  91
ENDBRANCH  79  83
ENDBRANCH  74  77
ENDBRANCH  72  73
ENDBRANCH   1  72
TORSDOF 13
