REMARK SMILES O=C(NCCCNC(=O)[C@@H](Cc1ccccc1)N1C(=O)/C(=C/c2ccc3ncccc3c2)SC1=S)c1ccc(-c2c3nc(c(-c4c(F)c(F)c(F)c(F)c4F)c4ccc([nH]4)c(-c4c(F)c(F)c(F)c(F)c4F)c4nc(c(-c5c(F)c(F)c(F)c(F)c5F)c5ccc2[nH]5)C=C4)C=C3)cc1
REMARK SMILES IDX 5 1 4 2 3 3 1 4 2 5 36 7 37 8 98 9 38 10 97 11 39 12 40 13
REMARK SMILES IDX 41 14 91 15 42 16 96 17 90 18 92 19 43 20 95 21 89 22 88 23
REMARK SMILES IDX 44 25 76 26 56 27 75 28 57 29 60 30 74 31 93 32 58 33 59 34
REMARK SMILES IDX 73 36 94 37 61 38 45 39 46 40 54 41 47 42 48 43 52 44 55 45
REMARK SMILES IDX 49 46 50 47 53 48 51 49 77 50 78 51 86 52 79 53 80 54 84 55
REMARK SMILES IDX 87 56 81 57 82 58 85 59 83 60 62 61 63 62 71 63 64 64 65 65
REMARK SMILES IDX 69 66 72 67 66 68 67 69 70 70 68 71 6 72 7 73 8 74 9 76
REMARK SMILES IDX 10 77 11 78 12 79 13 80 17 81 14 82 16 83 15 84 18 85 19 86
REMARK SMILES IDX 34 87 20 88 21 89 33 90 35 91 22 92 23 93 24 94 32 95 25 96
REMARK SMILES IDX 31 97 26 98 30 99 27 100 29 101 28 102
REMARK H PARENT 3 6 92 24 60 35 7 75
REMARK Flexibility Score: inf
ROOT
ATOM      1  C   UNL     1       4.929   1.834   0.461  1.00  0.00     0.042 C 
ENDROOT
BRANCH   1   2
ATOM      2  C   UNL     1       4.199   1.128   1.593  1.00  0.00     0.118 C 
BRANCH   2   3
ATOM      3  N   UNL     1       2.832   0.770   1.223  1.00  0.00    -0.352 N 
ATOM      4  O   UNL     1       1.119  -0.160   0.129  1.00  0.00    -0.269 OA
ATOM      5  C   UNL     1       2.298  -0.249   0.470  1.00  0.00     0.251 C 
ATOM      6  H   UNL     1       2.154   1.385   1.587  1.00  0.00     0.163 HD
BRANCH   5   7
ATOM      7  C   UNL     1       3.078  -1.440   0.044  1.00  0.00     0.039 A 
ATOM      8  C   UNL     1       4.154  -1.928   0.777  1.00  0.00     0.014 A 
ATOM      9  C   UNL     1       2.647  -2.171  -1.075  1.00  0.00     0.014 A 
ATOM     10  C   UNL     1       4.878  -3.029   0.334  1.00  0.00     0.010 A 
ATOM     11  C   UNL     1       3.289  -3.364  -1.444  1.00  0.00     0.010 A 
ATOM     12  C   UNL     1       4.421  -3.799  -0.743  1.00  0.00    -0.014 A 
BRANCH  12  13
ATOM     13  C   UNL     1       5.090  -5.102  -1.005  1.00  0.00     0.031 A 
ATOM     14  C   UNL     1       5.788  -5.382  -2.303  1.00  0.00     0.074 A 
ATOM     15  C   UNL     1       5.117  -6.015  -0.010  1.00  0.00     0.049 A 
ATOM     16  N   UNL     1       6.480  -6.439  -2.650  1.00  0.00    -0.248 NA
ATOM     17  C   UNL     1       5.694  -4.357  -3.352  1.00  0.00     0.031 C 
ATOM     18  C   UNL     1       4.446  -5.866   1.285  1.00  0.00     0.029 A 
ATOM     19  N   UNL     1       5.761  -7.221   0.094  1.00  0.00    -0.354 N 
ATOM     20  C   UNL     1       6.878  -6.220  -3.962  1.00  0.00     0.074 A 
ATOM     21  C   UNL     1       6.341  -4.935  -4.356  1.00  0.00     0.031 C 
ATOM     22  C   UNL     1       4.784  -6.889   2.081  1.00  0.00     0.029 A 
ATOM     23  C   UNL     1       5.628  -7.810   1.330  1.00  0.00     0.049 A 
ATOM     24  H   UNL     1       6.271  -7.627  -0.644  1.00  0.00     0.167 HD
ATOM     25  C   UNL     1       7.628  -7.020  -4.757  1.00  0.00     0.037 A 
ATOM     26  C   UNL     1       6.118  -8.968   1.808  1.00  0.00     0.037 A 
ATOM     27  C   UNL     1       8.186  -8.284  -4.347  1.00  0.00     0.049 A 
ATOM     28  C   UNL     1       6.959  -9.822   0.905  1.00  0.00     0.074 A 
ATOM     29  C   UNL     1       8.989  -9.148  -5.071  1.00  0.00     0.029 A 
ATOM     30  N   UNL     1       8.001  -8.862  -3.099  1.00  0.00    -0.354 N 
ATOM     31  N   UNL     1       7.347  -9.588  -0.325  1.00  0.00    -0.248 NA
ATOM     32  C   UNL     1       7.419 -11.106   1.449  1.00  0.00     0.031 C 
ATOM     33  C   UNL     1       9.259 -10.266  -4.276  1.00  0.00     0.029 A 
ATOM     34  C   UNL     1       8.660 -10.080  -3.041  1.00  0.00     0.049 A 
ATOM     35  H   UNL     1       7.479  -8.466  -2.364  1.00  0.00     0.167 HD
ATOM     36  C   UNL     1       8.096 -10.691  -0.703  1.00  0.00     0.074 A 
ATOM     37  C   UNL     1       8.136 -11.581   0.440  1.00  0.00     0.031 C 
ATOM     38  C   UNL     1       8.686 -10.951  -1.894  1.00  0.00     0.037 A 
BRANCH  25  39
ATOM     39  C   UNL     1       7.882  -6.568  -6.165  1.00  0.00     0.064 A 
ATOM     40  C   UNL     1       8.784  -5.535  -6.456  1.00  0.00     0.173 A 
ATOM     41  C   UNL     1       7.263  -7.223  -7.241  1.00  0.00     0.173 A 
ATOM     42  F   UNL     1       9.392  -4.869  -5.462  1.00  0.00    -0.203 F 
ATOM     43  C   UNL     1       9.049  -5.166  -7.773  1.00  0.00     0.198 A 
ATOM     44  C   UNL     1       7.547  -6.867  -8.557  1.00  0.00     0.198 A 
ATOM     45  F   UNL     1       6.395  -8.220  -7.016  1.00  0.00    -0.203 F 
ATOM     46  F   UNL     1       9.893  -4.156  -8.028  1.00  0.00    -0.200 F 
ATOM     47  C   UNL     1       8.437  -5.837  -8.822  1.00  0.00     0.200 A 
ATOM     48  F   UNL     1       6.963  -7.523  -9.569  1.00  0.00    -0.200 F 
ATOM     49  F   UNL     1       8.703  -5.489 -10.088  1.00  0.00    -0.200 F 
ENDBRANCH  25  39
BRANCH  26  50
ATOM     50  C   UNL     1       5.810  -9.389   3.199  1.00  0.00     0.064 A 
ATOM     51  C   UNL     1       6.811  -9.449   4.178  1.00  0.00     0.173 A 
ATOM     52  C   UNL     1       4.504  -9.732   3.582  1.00  0.00     0.173 A 
ATOM     53  F   UNL     1       8.079  -9.151   3.858  1.00  0.00    -0.203 F 
ATOM     54  C   UNL     1       6.521  -9.848   5.481  1.00  0.00     0.198 A 
ATOM     55  C   UNL     1       4.209 -10.099   4.892  1.00  0.00     0.198 A 
ATOM     56  F   UNL     1       3.508  -9.687   2.684  1.00  0.00    -0.203 F 
ATOM     57  F   UNL     1       7.504  -9.936   6.388  1.00  0.00    -0.200 F 
ATOM     58  C   UNL     1       5.218 -10.164   5.839  1.00  0.00     0.200 A 
ATOM     59  F   UNL     1       2.946 -10.385   5.236  1.00  0.00    -0.200 F 
ATOM     60  F   UNL     1       4.938 -10.538   7.095  1.00  0.00    -0.200 F 
ENDBRANCH  26  50
BRANCH  38  61
ATOM     61  C   UNL     1       9.434 -12.244  -2.010  1.00  0.00     0.064 A 
ATOM     62  C   UNL     1       8.761 -13.470  -2.109  1.00  0.00     0.173 A 
ATOM     63  C   UNL     1      10.836 -12.255  -2.042  1.00  0.00     0.173 A 
ATOM     64  F   UNL     1       7.420 -13.509  -2.064  1.00  0.00    -0.203 F 
ATOM     65  C   UNL     1       9.466 -14.665  -2.212  1.00  0.00     0.198 A 
ATOM     66  C   UNL     1      11.537 -13.449  -2.170  1.00  0.00     0.198 A 
ATOM     67  F   UNL     1      11.523 -11.106  -1.952  1.00  0.00    -0.203 F 
ATOM     68  F   UNL     1       8.805 -15.829  -2.258  1.00  0.00    -0.200 F 
ATOM     69  C   UNL     1      10.853 -14.653  -2.247  1.00  0.00     0.200 A 
ATOM     70  F   UNL     1      12.877 -13.437  -2.213  1.00  0.00    -0.200 F 
ATOM     71  F   UNL     1      11.531 -15.805  -2.347  1.00  0.00    -0.200 F 
ENDBRANCH  38  61
ENDBRANCH  12  13
ENDBRANCH   5   7
ENDBRANCH   2   3
ENDBRANCH   1   2
BRANCH   1  72
ATOM     72  C   UNL     1       4.499   3.286   0.375  1.00  0.00     0.117 C 
BRANCH  72  73
ATOM     73  N   UNL     1       5.361   4.181   1.125  1.00  0.00    -0.354 N 
ATOM     74  C   UNL     1       5.817   5.421   0.800  1.00  0.00     0.243 C 
ATOM     75  H   UNL     1       5.659   3.841   1.999  1.00  0.00     0.163 HD
ATOM     76  O   UNL     1       6.163   6.136   1.751  1.00  0.00    -0.273 OA
BRANCH  74  77
ATOM     77  C   UNL     1       5.897   5.979  -0.643  1.00  0.00     0.185 C 
BRANCH  77  78
ATOM     78  C   UNL     1       6.711   5.166  -1.690  1.00  0.00     0.071 C 
BRANCH  78  79
ATOM     79  C   UNL     1       6.135   3.967  -2.405  1.00  0.00    -0.045 A 
ATOM     80  C   UNL     1       4.995   4.053  -3.213  1.00  0.00     0.004 A 
ATOM     81  C   UNL     1       6.785   2.725  -2.304  1.00  0.00     0.004 A 
ATOM     82  C   UNL     1       4.458   2.911  -3.814  1.00  0.00     0.000 A 
ATOM     83  C   UNL     1       6.266   1.589  -2.929  1.00  0.00     0.000 A 
ATOM     84  C   UNL     1       5.088   1.678  -3.665  1.00  0.00     0.000 A 
ENDBRANCH  78  79
ENDBRANCH  77  78
BRANCH  77  85
ATOM     85  N   UNL     1       4.744   6.747  -1.167  1.00  0.00    -0.280 N 
ATOM     86  C   UNL     1       3.469   6.240  -1.108  1.00  0.00     0.266 C 
ATOM     87  C   UNL     1       4.846   7.970  -1.810  1.00  0.00     0.149 C 
ATOM     88  O   UNL     1       3.033   5.387  -0.347  1.00  0.00    -0.268 OA
ATOM     89  C   UNL     1       2.585   6.925  -2.071  1.00  0.00     0.081 C 
ATOM     90  S   UNL     1       3.286   8.417  -2.507  1.00  0.00    -0.054 SA
ATOM     91  S   UNL     1       6.187   8.941  -2.023  1.00  0.00    -0.052 S 
ATOM     92  C   UNL     1       1.460   6.322  -2.480  1.00  0.00     0.029 C 
BRANCH  92  93
ATOM     93  C   UNL     1       0.439   6.837  -3.394  1.00  0.00    -0.024 A 
ATOM     94  C   UNL     1      -0.901   6.614  -3.067  1.00  0.00     0.010 A 
ATOM     95  C   UNL     1       0.738   7.529  -4.568  1.00  0.00     0.018 A 
ATOM     96  C   UNL     1      -1.919   7.164  -3.849  1.00  0.00     0.029 A 
ATOM     97  C   UNL     1      -0.287   8.112  -5.331  1.00  0.00     0.001 A 
ATOM     98  C   UNL     1      -1.638   7.944  -4.960  1.00  0.00     0.070 A 
ATOM     99  C   UNL     1      -0.004   8.902  -6.451  1.00  0.00     0.012 A 
ATOM    100  N   UNL     1      -2.646   8.523  -5.632  1.00  0.00    -0.256 NA
ATOM    101  C   UNL     1      -1.042   9.522  -7.134  1.00  0.00     0.021 A 
ATOM    102  C   UNL     1      -2.332   9.307  -6.686  1.00  0.00     0.112 A 
ENDBRANCH  92  93
ENDBRANCH  77  85
ENDBRANCH  74  77
ENDBRANCH  72  73
ENDBRANCH   1  72
TORSDOF 14
