REMARK SMILES COC(=O)C[C@H](c1ccc(C(=O)NCCCNC(=O)c2ccc(-c3c4nc(c(-c5c(F)c(F)c(F)c(F)c5F)c5ccc([nH]5)c(-c5c(F)c(F)c(F)c(F)c5F)c5nc(c(-c6c(F)c(F)c(F)c(F)c6F)c6ccc3[nH]6)C=C5)C=C4)cc2)cc1)c1c(O)n[nH]c1C
REMARK SMILES IDX 14 1 13 2 11 3 12 4 10 6 7 7 8 8 84 9 9 10 83 11 6 12 5 13
REMARK SMILES IDX 3 14 4 15 2 16 1 17 85 18 86 19 90 20 88 21 89 22 91 23
REMARK SMILES IDX 87 25 15 27 16 28 17 29 18 30 19 32 20 33 21 34 82 35 22 36
REMARK SMILES IDX 81 37 23 38 24 39 25 40 75 41 26 42 80 43 74 44 76 45 27 46
REMARK SMILES IDX 79 47 73 48 72 49 28 51 60 52 40 53 59 54 41 55 44 56 58 57
REMARK SMILES IDX 77 58 42 59 43 60 57 62 78 63 45 64 29 65 30 66 38 67 31 68
REMARK SMILES IDX 32 69 36 70 39 71 33 72 34 73 37 74 35 75 61 76 62 77 70 78
REMARK SMILES IDX 63 79 64 80 68 81 71 82 65 83 66 84 69 85 67 86 46 87 47 88
REMARK SMILES IDX 55 89 48 90 49 91 53 92 56 93 50 94 51 95 54 96 52 97
REMARK H PARENT 13 5 89 24 87 26 17 31 76 50 44 61
REMARK Flexibility Score: inf
ROOT
ATOM      1  C   UNL     1       1.368   3.866   3.656  1.00  0.00     0.118 C 
ENDROOT
BRANCH   1   2
ATOM      2  N   UNL     1      -0.013   4.285   3.571  1.00  0.00    -0.352 N 
ATOM      3  C   UNL     1      -0.805   4.511   2.482  1.00  0.00     0.251 C 
ATOM      4  O   UNL     1      -1.935   4.961   2.659  1.00  0.00    -0.269 OA
ATOM      5  H   UNL     1      -0.454   4.433   4.439  1.00  0.00     0.163 HD
BRANCH   3   6
ATOM      6  C   UNL     1      -0.371   4.137   1.118  1.00  0.00     0.039 A 
ATOM      7  C   UNL     1       0.202   3.408  -1.564  1.00  0.00    -0.040 A 
ATOM      8  C   UNL     1      -1.044   3.146  -0.974  1.00  0.00     0.005 A 
ATOM      9  C   UNL     1       1.193   3.944  -0.726  1.00  0.00     0.005 A 
ATOM     10  C   UNL     1      -1.335   3.515   0.336  1.00  0.00     0.014 A 
ATOM     11  C   UNL     1       0.896   4.359   0.580  1.00  0.00     0.014 A 
BRANCH   7  12
ATOM     12  C   UNL     1       0.521   3.106  -3.034  1.00  0.00     0.068 C 
BRANCH  12  13
ATOM     13  C   UNL     1      -0.254   1.893  -3.607  1.00  0.00     0.136 C 
BRANCH  13  14
ATOM     14  C   UNL     1      -1.750   2.031  -3.864  1.00  0.00     0.306 C 
ATOM     15  O   UNL     1      -2.461   1.065  -4.126  1.00  0.00    -0.252 OA
BRANCH  14  16
ATOM     16  O   UNL     1      -2.205   3.295  -3.691  1.00  0.00    -0.469 OA
ATOM     17  C   UNL     1      -3.616   3.518  -3.629  1.00  0.00     0.282 C 
ENDBRANCH  14  16
ENDBRANCH  13  14
ENDBRANCH  12  13
BRANCH  12  18
ATOM     18  C   UNL     1       0.435   4.389  -3.863  1.00  0.00     0.044 A 
ATOM     19  C   UNL     1       0.053   4.460  -5.226  1.00  0.00     0.234 A 
ATOM     20  C   UNL     1       0.757   5.728  -3.610  1.00  0.00     0.040 A 
ATOM     21  N   UNL     1       0.015   5.667  -5.758  1.00  0.00    -0.137 NA
ATOM     22  N   UNL     1       0.411   6.433  -4.739  1.00  0.00    -0.279 N 
ATOM     23  C   UNL     1       1.340   6.475  -2.469  1.00  0.00     0.066 C 
ATOM     24  H   UNL     1       0.451   7.415  -4.790  1.00  0.00     0.190 HD
BRANCH  19  25
ATOM     25  O   UNL     1      -0.296   3.494  -6.071  1.00  0.00    -0.492 OA
ATOM     26  H   UNL     1      -0.301   2.602  -5.786  1.00  0.00     0.295 HD
ENDBRANCH  19  25
ENDBRANCH  12  18
ENDBRANCH   7  12
ENDBRANCH   3   6
ENDBRANCH   1   2
BRANCH   1  27
ATOM     27  C   UNL     1       2.260   5.086   3.866  1.00  0.00     0.042 C 
BRANCH  27  28
ATOM     28  C   UNL     1       2.046   5.730   5.230  1.00  0.00     0.118 C 
BRANCH  28  29
ATOM     29  N   UNL     1       2.444   4.833   6.303  1.00  0.00    -0.352 N 
ATOM     30  C   UNL     1       3.423   4.984   7.241  1.00  0.00     0.251 C 
ATOM     31  H   UNL     1       1.932   3.994   6.362  1.00  0.00     0.163 HD
ATOM     32  O   UNL     1       3.832   3.998   7.858  1.00  0.00    -0.269 OA
BRANCH  30  33
ATOM     33  C   UNL     1       3.984   6.317   7.531  1.00  0.00     0.039 A 
ATOM     34  C   UNL     1       5.335   6.416   7.867  1.00  0.00     0.014 A 
ATOM     35  C   UNL     1       3.170   7.455   7.548  1.00  0.00     0.014 A 
ATOM     36  C   UNL     1       5.870   7.656   8.211  1.00  0.00     0.010 A 
ATOM     37  C   UNL     1       3.724   8.704   7.804  1.00  0.00     0.010 A 
ATOM     38  C   UNL     1       5.072   8.811   8.172  1.00  0.00    -0.014 A 
BRANCH  38  39
ATOM     39  C   UNL     1       5.635  10.126   8.560  1.00  0.00     0.031 A 
ATOM     40  C   UNL     1       5.106  10.848   9.771  1.00  0.00     0.074 A 
ATOM     41  C   UNL     1       6.607  10.675   7.807  1.00  0.00     0.049 A 
ATOM     42  N   UNL     1       5.477  11.998  10.274  1.00  0.00    -0.248 NA
ATOM     43  C   UNL     1       3.996  10.210  10.499  1.00  0.00     0.031 C 
ATOM     44  C   UNL     1       7.150  10.095   6.577  1.00  0.00     0.029 A 
ATOM     45  N   UNL     1       7.310  11.842   7.963  1.00  0.00    -0.354 N 
ATOM     46  C   UNL     1       4.638  12.225  11.358  1.00  0.00     0.074 A 
ATOM     47  C   UNL     1       3.704  11.124  11.412  1.00  0.00     0.031 C 
ATOM     48  C   UNL     1       8.120  10.895   6.105  1.00  0.00     0.029 A 
ATOM     49  C   UNL     1       8.243  12.057   6.979  1.00  0.00     0.049 A 
ATOM     50  H   UNL     1       7.160  12.466   8.710  1.00  0.00     0.167 HD
ATOM     51  C   UNL     1       4.663  13.251  12.241  1.00  0.00     0.037 A 
ATOM     52  C   UNL     1       9.098  13.082   6.802  1.00  0.00     0.037 A 
ATOM     53  C   UNL     1       5.626  14.320  12.204  1.00  0.00     0.049 A 
ATOM     54  C   UNL     1       9.123  14.190   7.821  1.00  0.00     0.074 A 
ATOM     55  C   UNL     1       5.798  15.355  13.106  1.00  0.00     0.029 A 
ATOM     56  N   UNL     1       6.576  14.491  11.209  1.00  0.00    -0.354 N 
ATOM     57  N   UNL     1       8.395  14.340   8.901  1.00  0.00    -0.248 NA
ATOM     58  C   UNL     1      10.100  15.265   7.604  1.00  0.00     0.031 C 
ATOM     59  C   UNL     1       6.813  16.187  12.624  1.00  0.00     0.029 A 
ATOM     60  C   UNL     1       7.315  15.636  11.456  1.00  0.00     0.049 A 
ATOM     61  H   UNL     1       6.705  13.889  10.440  1.00  0.00     0.167 HD
ATOM     62  C   UNL     1       8.839  15.509   9.502  1.00  0.00     0.074 A 
ATOM     63  C   UNL     1       9.922  16.012   8.683  1.00  0.00     0.031 C 
ATOM     64  C   UNL     1       8.390  16.118  10.627  1.00  0.00     0.037 A 
BRANCH  51  65
ATOM     65  C   UNL     1       3.629  13.274  13.329  1.00  0.00     0.064 A 
ATOM     66  C   UNL     1       3.650  12.357  14.391  1.00  0.00     0.173 A 
ATOM     67  C   UNL     1       2.645  14.274  13.347  1.00  0.00     0.173 A 
ATOM     68  F   UNL     1       4.562  11.373  14.416  1.00  0.00    -0.203 F 
ATOM     69  C   UNL     1       2.717  12.432  15.422  1.00  0.00     0.198 A 
ATOM     70  C   UNL     1       1.732  14.365  14.395  1.00  0.00     0.198 A 
ATOM     71  F   UNL     1       2.581  15.178  12.358  1.00  0.00    -0.203 F 
ATOM     72  F   UNL     1       2.735  11.525  16.408  1.00  0.00    -0.200 F 
ATOM     73  C   UNL     1       1.766  13.442  15.429  1.00  0.00     0.200 A 
ATOM     74  F   UNL     1       0.824  15.351  14.407  1.00  0.00    -0.200 F 
ATOM     75  F   UNL     1       0.882  13.525  16.433  1.00  0.00    -0.200 F 
ENDBRANCH  51  65
BRANCH  52  76
ATOM     76  C   UNL     1      10.005  13.107   5.623  1.00  0.00     0.064 A 
ATOM     77  C   UNL     1      11.395  13.005   5.773  1.00  0.00     0.173 A 
ATOM     78  C   UNL     1       9.501  13.268   4.324  1.00  0.00     0.173 A 
ATOM     79  F   UNL     1      11.929  12.865   6.995  1.00  0.00    -0.203 F 
ATOM     80  C   UNL     1      12.247  13.102   4.674  1.00  0.00     0.198 A 
ATOM     81  C   UNL     1      10.351  13.329   3.223  1.00  0.00     0.198 A 
ATOM     82  F   UNL     1       8.178  13.360   4.123  1.00  0.00    -0.203 F 
ATOM     83  F   UNL     1      13.575  13.068   4.854  1.00  0.00    -0.200 F 
ATOM     84  C   UNL     1      11.725  13.261   3.400  1.00  0.00     0.200 A 
ATOM     85  F   UNL     1       9.841  13.463   1.991  1.00  0.00    -0.200 F 
ATOM     86  F   UNL     1      12.544  13.359   2.345  1.00  0.00    -0.200 F 
ENDBRANCH  52  76
BRANCH  64  87
ATOM     87  C   UNL     1       9.087  17.380  11.047  1.00  0.00     0.064 A 
ATOM     88  C   UNL     1       8.960  18.570  10.315  1.00  0.00     0.173 A 
ATOM     89  C   UNL     1       9.871  17.406  12.211  1.00  0.00     0.173 A 
ATOM     90  F   UNL     1       8.233  18.594   9.188  1.00  0.00    -0.203 F 
ATOM     91  C   UNL     1       9.622  19.728  10.711  1.00  0.00     0.198 A 
ATOM     92  C   UNL     1      10.501  18.575  12.625  1.00  0.00     0.198 A 
ATOM     93  F   UNL     1      10.017  16.298  12.954  1.00  0.00    -0.203 F 
ATOM     94  F   UNL     1       9.536  20.835   9.962  1.00  0.00    -0.200 F 
ATOM     95  C   UNL     1      10.385  19.732  11.869  1.00  0.00     0.200 A 
ATOM     96  F   UNL     1      11.223  18.582  13.753  1.00  0.00    -0.200 F 
ATOM     97  F   UNL     1      11.018  20.849  12.252  1.00  0.00    -0.200 F 
ENDBRANCH  64  87
ENDBRANCH  38  39
ENDBRANCH  30  33
ENDBRANCH  28  29
ENDBRANCH  27  28
ENDBRANCH   1  27
TORSDOF 16
