REMARK SMILES COc1cccc([C@@H]2CN(C(=O)CCSC)C[C@H]2C(=O)NCCCNC(=O)c2ccc(-c3c4nc(c(-c5c(F)c(F)c(F)c(F)c5F)c5ccc([nH]5)c(-c5c(F)c(F)c(F)c(F)c5F)c5nc(c(-c6c(F)c(F)c(F)c(F)c6F)c6ccc3[nH]6)C=C5)C=C4)cc2)c1OC
REMARK SMILES IDX 22 1 21 2 19 3 20 4 18 6 8 7 9 8 10 9 17 10 7 11 3 12 4 13
REMARK SMILES IDX 91 14 5 15 6 16 2 17 1 18 92 19 93 20 11 21 12 22 13 23
REMARK SMILES IDX 14 24 15 25 16 26 23 27 24 28 25 29 26 30 27 32 28 33 29 34
REMARK SMILES IDX 90 35 30 36 89 37 31 38 32 39 33 40 83 41 34 42 88 43 82 44
REMARK SMILES IDX 84 45 35 46 87 47 81 48 80 49 36 51 68 52 48 53 67 54 49 55
REMARK SMILES IDX 52 56 66 57 85 58 50 59 51 60 65 62 86 63 53 64 37 65 38 66
REMARK SMILES IDX 46 67 39 68 40 69 44 70 47 71 41 72 42 73 45 74 43 75 69 76
REMARK SMILES IDX 70 77 78 78 71 79 72 80 76 81 79 82 73 83 74 84 77 85 75 86
REMARK SMILES IDX 54 87 55 88 63 89 56 90 57 91 61 92 64 93 58 94 59 95 62 96
REMARK SMILES IDX 60 97
REMARK H PARENT 21 5 25 31 84 50 52 61
REMARK Flexibility Score: inf
ROOT
ATOM      1  C   UNL     1       6.117   6.002  -1.970  1.00  0.00     0.117 C 
ENDROOT
BRANCH   1   2
ATOM      2  N   UNL     1       5.315   5.837  -0.771  1.00  0.00    -0.356 N 
ATOM      3  C   UNL     1       4.680   4.755  -0.253  1.00  0.00     0.225 C 
ATOM      4  O   UNL     1       4.058   4.924   0.800  1.00  0.00    -0.275 OA
ATOM      5  H   UNL     1       5.213   6.659  -0.237  1.00  0.00     0.163 HD
BRANCH   3   6
ATOM      6  C   UNL     1       4.695   3.396  -0.923  1.00  0.00     0.107 C 
ATOM      7  C   UNL     1       3.984   3.393  -2.290  1.00  0.00     0.057 C 
ATOM      8  C   UNL     1       4.922   2.659  -3.248  1.00  0.00     0.128 C 
ATOM      9  N   UNL     1       6.206   2.567  -2.576  1.00  0.00    -0.341 N 
ATOM     10  C   UNL     1       6.102   2.864  -1.157  1.00  0.00     0.133 C 
BRANCH   7  11
ATOM     11  C   UNL     1       2.574   2.824  -2.316  1.00  0.00     0.004 A 
ATOM     12  C   UNL     1       0.914   1.123  -1.813  1.00  0.00     0.161 A 
ATOM     13  C   UNL     1      -0.070   1.893  -2.446  1.00  0.00     0.050 A 
ATOM     14  C   UNL     1       2.248   1.559  -1.776  1.00  0.00     0.164 A 
ATOM     15  C   UNL     1       0.257   3.120  -3.014  1.00  0.00     0.004 A 
ATOM     16  C   UNL     1       1.566   3.587  -2.940  1.00  0.00     0.008 A 
BRANCH  12  17
ATOM     17  O   UNL     1       0.542  -0.104  -1.333  1.00  0.00    -0.493 OA
ATOM     18  C   UNL     1      -0.160   0.015  -0.093  1.00  0.00     0.278 C 
ENDBRANCH  12  17
BRANCH  14  19
ATOM     19  O   UNL     1       3.321   0.835  -1.325  1.00  0.00    -0.493 OA
ATOM     20  C   UNL     1       3.107  -0.128  -0.305  1.00  0.00     0.278 C 
ENDBRANCH  14  19
ENDBRANCH   7  11
BRANCH   9  21
ATOM     21  C   UNL     1       7.391   2.112  -3.109  1.00  0.00     0.223 C 
ATOM     22  O   UNL     1       8.425   2.070  -2.439  1.00  0.00    -0.275 OA
BRANCH  21  23
ATOM     23  C   UNL     1       7.395   1.625  -4.542  1.00  0.00     0.111 C 
BRANCH  23  24
ATOM     24  C   UNL     1       7.494   0.104  -4.612  1.00  0.00     0.079 C 
BRANCH  24  25
ATOM     25  S   UNL     1       5.888  -0.752  -4.442  1.00  0.00    -0.165 SA
ATOM     26  C   UNL     1       5.833  -0.965  -2.644  1.00  0.00     0.085 C 
ENDBRANCH  24  25
ENDBRANCH  23  24
ENDBRANCH  21  23
ENDBRANCH   9  21
ENDBRANCH   3   6
ENDBRANCH   1   2
BRANCH   1  27
ATOM     27  C   UNL     1       5.412   6.839  -3.026  1.00  0.00     0.042 C 
BRANCH  27  28
ATOM     28  C   UNL     1       5.116   8.254  -2.561  1.00  0.00     0.118 C 
BRANCH  28  29
ATOM     29  N   UNL     1       6.334   9.000  -2.271  1.00  0.00    -0.352 N 
ATOM     30  C   UNL     1       6.926  10.017  -2.974  1.00  0.00     0.251 C 
ATOM     31  H   UNL     1       6.801   8.733  -1.447  1.00  0.00     0.163 HD
ATOM     32  O   UNL     1       8.084  10.347  -2.727  1.00  0.00    -0.269 OA
BRANCH  30  33
ATOM     33  C   UNL     1       6.174  10.701  -4.043  1.00  0.00     0.039 A 
ATOM     34  C   UNL     1       6.816  11.002  -5.246  1.00  0.00     0.014 A 
ATOM     35  C   UNL     1       4.830  11.031  -3.858  1.00  0.00     0.014 A 
ATOM     36  C   UNL     1       6.082  11.560  -6.294  1.00  0.00     0.010 A 
ATOM     37  C   UNL     1       4.079  11.485  -4.933  1.00  0.00     0.010 A 
ATOM     38  C   UNL     1       4.698  11.758  -6.160  1.00  0.00    -0.014 A 
BRANCH  38  39
ATOM     39  C   UNL     1       3.870  12.243  -7.290  1.00  0.00     0.031 A 
ATOM     40  C   UNL     1       3.124  13.541  -7.172  1.00  0.00     0.074 A 
ATOM     41  C   UNL     1       3.722  11.470  -8.382  1.00  0.00     0.049 A 
ATOM     42  N   UNL     1       2.285  14.095  -8.011  1.00  0.00    -0.248 NA
ATOM     43  C   UNL     1       3.321  14.304  -5.929  1.00  0.00     0.031 C 
ATOM     44  C   UNL     1       4.362  10.171  -8.591  1.00  0.00     0.029 A 
ATOM     45  N   UNL     1       2.980  11.662  -9.520  1.00  0.00    -0.354 N 
ATOM     46  C   UNL     1       1.845  15.256  -7.390  1.00  0.00     0.074 A 
ATOM     47  C   UNL     1       2.457  15.295  -6.080  1.00  0.00     0.031 C 
ATOM     48  C   UNL     1       4.018   9.701  -9.800  1.00  0.00     0.029 A 
ATOM     49  C   UNL     1       3.094  10.639 -10.429  1.00  0.00     0.049 A 
ATOM     50  H   UNL     1       2.419  12.457  -9.670  1.00  0.00     0.167 HD
ATOM     51  C   UNL     1       1.022  16.215  -7.879  1.00  0.00     0.037 A 
ATOM     52  C   UNL     1       2.511  10.476 -11.631  1.00  0.00     0.037 A 
ATOM     53  C   UNL     1       0.430  16.172  -9.191  1.00  0.00     0.049 A 
ATOM     54  C   UNL     1       1.566  11.533 -12.134  1.00  0.00     0.074 A 
ATOM     55  C   UNL     1      -0.359  17.122  -9.813  1.00  0.00     0.029 A 
ATOM     56  N   UNL     1       0.552  15.110 -10.077  1.00  0.00    -0.354 N 
ATOM     57  N   UNL     1       1.219  12.667 -11.576  1.00  0.00    -0.248 NA
ATOM     58  C   UNL     1       0.929  11.282 -13.434  1.00  0.00     0.031 C 
ATOM     59  C   UNL     1      -0.771  16.606 -11.047  1.00  0.00     0.029 A 
ATOM     60  C   UNL     1      -0.184  15.363 -11.224  1.00  0.00     0.049 A 
ATOM     61  H   UNL     1       1.084  14.297  -9.915  1.00  0.00     0.167 HD
ATOM     62  C   UNL     1       0.350  13.281 -12.467  1.00  0.00     0.074 A 
ATOM     63  C   UNL     1       0.232  12.396 -13.609  1.00  0.00     0.031 C 
ATOM     64  C   UNL     1      -0.291  14.470 -12.352  1.00  0.00     0.037 A 
BRANCH  51  65
ATOM     65  C   UNL     1       0.704  17.376  -6.980  1.00  0.00     0.064 A 
ATOM     66  C   UNL     1       1.683  18.303  -6.589  1.00  0.00     0.173 A 
ATOM     67  C   UNL     1      -0.601  17.565  -6.499  1.00  0.00     0.173 A 
ATOM     68  F   UNL     1       2.950  18.166  -7.011  1.00  0.00    -0.203 F 
ATOM     69  C   UNL     1       1.381  19.343  -5.713  1.00  0.00     0.198 A 
ATOM     70  C   UNL     1      -0.909  18.629  -5.654  1.00  0.00     0.198 A 
ATOM     71  F   UNL     1      -1.580  16.716  -6.845  1.00  0.00    -0.203 F 
ATOM     72  F   UNL     1       2.350  20.169  -5.296  1.00  0.00    -0.200 F 
ATOM     73  C   UNL     1       0.084  19.507  -5.250  1.00  0.00     0.200 A 
ATOM     74  F   UNL     1      -2.166  18.795  -5.221  1.00  0.00    -0.200 F 
ATOM     75  F   UNL     1      -0.206  20.506  -4.405  1.00  0.00    -0.200 F 
ENDBRANCH  51  65
BRANCH  52  76
ATOM     76  C   UNL     1       2.838   9.284 -12.456  1.00  0.00     0.064 A 
ATOM     77  C   UNL     1       3.579   9.418 -13.639  1.00  0.00     0.173 A 
ATOM     78  C   UNL     1       2.437   7.994 -12.081  1.00  0.00     0.173 A 
ATOM     79  F   UNL     1       3.969  10.634 -14.049  1.00  0.00    -0.203 F 
ATOM     80  C   UNL     1       3.896   8.310 -14.421  1.00  0.00     0.198 A 
ATOM     81  C   UNL     1       2.779   6.882 -12.849  1.00  0.00     0.198 A 
ATOM     82  F   UNL     1       1.732   7.809 -10.955  1.00  0.00    -0.203 F 
ATOM     83  F   UNL     1       4.573   8.472 -15.566  1.00  0.00    -0.200 F 
ATOM     84  C   UNL     1       3.502   7.042 -14.021  1.00  0.00     0.200 A 
ATOM     85  F   UNL     1       2.412   5.657 -12.450  1.00  0.00    -0.200 F 
ATOM     86  F   UNL     1       3.815   5.975 -14.769  1.00  0.00    -0.200 F 
ENDBRANCH  52  76
BRANCH  64  87
ATOM     87  C   UNL     1      -1.157  14.901 -13.502  1.00  0.00     0.064 A 
ATOM     88  C   UNL     1      -2.374  14.266 -13.788  1.00  0.00     0.173 A 
ATOM     89  C   UNL     1      -0.784  15.996 -14.297  1.00  0.00     0.173 A 
ATOM     90  F   UNL     1      -2.768  13.205 -13.069  1.00  0.00    -0.203 F 
ATOM     91  C   UNL     1      -3.175  14.697 -14.843  1.00  0.00     0.198 A 
ATOM     92  C   UNL     1      -1.604  16.445 -15.328  1.00  0.00     0.198 A 
ATOM     93  F   UNL     1       0.368  16.643 -14.063  1.00  0.00    -0.203 F 
ATOM     94  F   UNL     1      -4.310  14.044 -15.129  1.00  0.00    -0.200 F 
ATOM     95  C   UNL     1      -2.794  15.791 -15.605  1.00  0.00     0.200 A 
ATOM     96  F   UNL     1      -1.242  17.514 -16.052  1.00  0.00    -0.200 F 
ATOM     97  F   UNL     1      -3.573  16.212 -16.611  1.00  0.00    -0.200 F 
ENDBRANCH  64  87
ENDBRANCH  38  39
ENDBRANCH  30  33
ENDBRANCH  28  29
ENDBRANCH  27  28
ENDBRANCH   1  27
TORSDOF 17
