REMARK SMILES CCCNC(=O)c1cnn([C@@H](C)C(=O)NCCCNC(=O)c2ccc(-c3c4nc(c(-c5c(F)c(F)c(F)c(F)c5F)c5ccc([nH]5)c(-c5c(F)c(F)c(F)c(F)c5F)c5nc(c(-c6c(F)c(F)c(F)c(F)c6F)c6ccc3[nH]6)C=C5)C=C4)cc2)c1
REMARK SMILES IDX 16 1 15 2 13 3 14 4 11 6 12 7 10 8 7 9 8 10 85 11 9 12 5 13
REMARK SMILES IDX 4 14 6 16 3 17 2 18 1 19 17 20 18 21 19 22 20 23 21 25 22 26
REMARK SMILES IDX 23 27 84 28 24 29 83 30 25 31 26 32 27 33 77 34 28 35 82 36
REMARK SMILES IDX 76 37 78 38 29 39 81 40 75 41 74 42 30 44 62 45 42 46 61 47
REMARK SMILES IDX 43 48 46 49 60 50 79 51 44 52 45 53 59 55 80 56 47 57 31 58
REMARK SMILES IDX 32 59 40 60 33 61 34 62 38 63 41 64 35 65 36 66 39 67 37 68
REMARK SMILES IDX 63 69 64 70 72 71 65 72 66 73 70 74 73 75 67 76 68 77 71 78
REMARK SMILES IDX 69 79 48 80 49 81 57 82 50 83 51 84 55 85 58 86 52 87 53 88
REMARK SMILES IDX 56 89 54 90
REMARK H PARENT 15 5 4 15 19 24 78 43 46 54
REMARK Flexibility Score: inf
ROOT
ATOM      1  C   UNL     1      -0.707   7.959   4.186  1.00  0.00     0.117 C 
ENDROOT
BRANCH   1   2
ATOM      2  N   UNL     1      -1.492   8.696   3.200  1.00  0.00    -0.354 N 
ATOM      3  C   UNL     1      -2.434   8.298   2.296  1.00  0.00     0.244 C 
ATOM      4  O   UNL     1      -2.879   9.187   1.556  1.00  0.00    -0.273 OA
ATOM      5  H   UNL     1      -1.307   9.663   3.184  1.00  0.00     0.163 HD
BRANCH   3   6
ATOM      6  C   UNL     1      -2.985   6.875   2.173  1.00  0.00     0.193 C 
ATOM      7  C   UNL     1      -3.689   6.362   3.425  1.00  0.00     0.044 C 
BRANCH   6   8
ATOM      8  N   UNL     1      -2.001   5.952   1.626  1.00  0.00    -0.260 N 
ATOM      9  C   UNL     1      -0.812   4.647   0.293  1.00  0.00     0.077 A 
ATOM     10  C   UNL     1      -0.141   4.991   1.478  1.00  0.00     0.149 A 
ATOM     11  C   UNL     1      -2.017   5.326   0.409  1.00  0.00     0.123 A 
ATOM     12  N   UNL     1      -0.923   5.619   2.350  1.00  0.00    -0.180 NA
BRANCH   9  13
ATOM     13  C   UNL     1      -0.367   3.866  -0.842  1.00  0.00     0.254 C 
ATOM     14  N   UNL     1       0.541   2.850  -0.661  1.00  0.00    -0.352 N 
ATOM     15  H   UNL     1       0.905   2.479  -1.498  1.00  0.00     0.163 HD
ATOM     16  O   UNL     1      -0.785   4.080  -1.978  1.00  0.00    -0.269 OA
BRANCH  14  17
ATOM     17  C   UNL     1       1.060   2.224   0.546  1.00  0.00     0.116 C 
BRANCH  17  18
ATOM     18  C   UNL     1       0.483   0.834   0.785  1.00  0.00     0.018 C 
ATOM     19  C   UNL     1       0.997  -0.185  -0.216  1.00  0.00     0.006 C 
ENDBRANCH  17  18
ENDBRANCH  14  17
ENDBRANCH   9  13
ENDBRANCH   6   8
ENDBRANCH   3   6
ENDBRANCH   1   2
BRANCH   1  20
ATOM     20  C   UNL     1       0.728   7.660   3.734  1.00  0.00     0.042 C 
BRANCH  20  21
ATOM     21  C   UNL     1       1.638   8.865   3.757  1.00  0.00     0.118 C 
BRANCH  21  22
ATOM     22  N   UNL     1       1.958   9.333   5.100  1.00  0.00    -0.352 N 
ATOM     23  C   UNL     1       2.784  10.387   5.447  1.00  0.00     0.251 C 
ATOM     24  H   UNL     1       1.540   8.843   5.844  1.00  0.00     0.163 HD
ATOM     25  O   UNL     1       3.246  10.481   6.569  1.00  0.00    -0.269 OA
BRANCH  23  26
ATOM     26  C   UNL     1       3.126  11.379   4.406  1.00  0.00     0.039 A 
ATOM     27  C   UNL     1       4.430  11.857   4.288  1.00  0.00     0.014 A 
ATOM     28  C   UNL     1       2.144  11.770   3.499  1.00  0.00     0.014 A 
ATOM     29  C   UNL     1       4.751  12.645   3.188  1.00  0.00     0.010 A 
ATOM     30  C   UNL     1       2.501  12.393   2.327  1.00  0.00     0.010 A 
ATOM     31  C   UNL     1       3.794  12.871   2.179  1.00  0.00    -0.014 A 
BRANCH  31  32
ATOM     32  C   UNL     1       4.200  13.497   0.921  1.00  0.00     0.031 A 
ATOM     33  C   UNL     1       5.458  12.941   0.362  1.00  0.00     0.074 A 
ATOM     34  C   UNL     1       3.480  14.407   0.229  1.00  0.00     0.049 A 
ATOM     35  N   UNL     1       6.620  13.500   0.399  1.00  0.00    -0.248 NA
ATOM     36  C   UNL     1       5.480  11.557  -0.134  1.00  0.00     0.031 C 
ATOM     37  C   UNL     1       2.103  14.849   0.474  1.00  0.00     0.029 A 
ATOM     38  N   UNL     1       3.813  15.085  -0.911  1.00  0.00    -0.354 N 
ATOM     39  C   UNL     1       7.479  12.644  -0.279  1.00  0.00     0.074 A 
ATOM     40  C   UNL     1       6.778  11.394  -0.407  1.00  0.00     0.031 C 
ATOM     41  C   UNL     1       1.643  15.524  -0.601  1.00  0.00     0.029 A 
ATOM     42  C   UNL     1       2.743  15.730  -1.522  1.00  0.00     0.049 A 
ATOM     43  H   UNL     1       4.730  15.114  -1.268  1.00  0.00     0.167 HD
ATOM     44  C   UNL     1       8.551  13.161  -0.941  1.00  0.00     0.037 A 
ATOM     45  C   UNL     1       2.758  16.401  -2.699  1.00  0.00     0.037 A 
ATOM     46  C   UNL     1       8.782  14.526  -0.526  1.00  0.00     0.049 A 
ATOM     47  C   UNL     1       4.150  16.846  -2.925  1.00  0.00     0.074 A 
ATOM     48  C   UNL     1       9.208  15.175   0.612  1.00  0.00     0.029 A 
ATOM     49  N   UNL     1       8.126  15.447  -1.296  1.00  0.00    -0.354 N 
ATOM     50  N   UNL     1       4.747  17.747  -2.195  1.00  0.00    -0.248 NA
ATOM     51  C   UNL     1       5.025  16.052  -3.779  1.00  0.00     0.031 C 
ATOM     52  C   UNL     1       8.588  16.463   0.586  1.00  0.00     0.029 A 
ATOM     53  C   UNL     1       7.844  16.580  -0.588  1.00  0.00     0.049 A 
ATOM     54  H   UNL     1       7.888  15.310  -2.241  1.00  0.00     0.167 HD
ATOM     55  C   UNL     1       6.060  17.325  -2.149  1.00  0.00     0.074 A 
ATOM     56  C   UNL     1       6.208  16.422  -3.284  1.00  0.00     0.031 C 
ATOM     57  C   UNL     1       6.795  17.481  -1.010  1.00  0.00     0.037 A 
BRANCH  44  58
ATOM     58  C   UNL     1       9.018  12.702  -2.313  1.00  0.00     0.064 A 
ATOM     59  C   UNL     1      10.138  13.344  -2.888  1.00  0.00     0.173 A 
ATOM     60  C   UNL     1       8.223  11.959  -3.213  1.00  0.00     0.173 A 
ATOM     61  F   UNL     1      10.959  14.089  -2.133  1.00  0.00    -0.203 F 
ATOM     62  C   UNL     1      10.375  13.329  -4.266  1.00  0.00     0.198 A 
ATOM     63  C   UNL     1       8.492  11.908  -4.581  1.00  0.00     0.198 A 
ATOM     64  F   UNL     1       7.092  11.352  -2.842  1.00  0.00    -0.203 F 
ATOM     65  F   UNL     1      11.366  14.072  -4.780  1.00  0.00    -0.200 F 
ATOM     66  C   UNL     1       9.544  12.621  -5.113  1.00  0.00     0.200 A 
ATOM     67  F   UNL     1       7.659  11.236  -5.388  1.00  0.00    -0.200 F 
ATOM     68  F   UNL     1       9.723  12.664  -6.439  1.00  0.00    -0.200 F 
ENDBRANCH  44  58
BRANCH  45  69
ATOM     69  C   UNL     1       1.710  16.515  -3.740  1.00  0.00     0.064 A 
ATOM     70  C   UNL     1       1.849  17.428  -4.800  1.00  0.00     0.173 A 
ATOM     71  C   UNL     1       0.720  15.526  -3.894  1.00  0.00     0.173 A 
ATOM     72  F   UNL     1       2.782  18.390  -4.747  1.00  0.00    -0.203 F 
ATOM     73  C   UNL     1       1.095  17.316  -5.971  1.00  0.00     0.198 A 
ATOM     74  C   UNL     1      -0.040  15.421  -5.061  1.00  0.00     0.198 A 
ATOM     75  F   UNL     1       0.539  14.581  -2.961  1.00  0.00    -0.203 F 
ATOM     76  F   UNL     1       1.323  18.151  -6.995  1.00  0.00    -0.200 F 
ATOM     77  C   UNL     1       0.165  16.300  -6.109  1.00  0.00     0.200 A 
ATOM     78  F   UNL     1      -0.917  14.416  -5.194  1.00  0.00    -0.200 F 
ATOM     79  F   UNL     1      -0.500  16.142  -7.262  1.00  0.00    -0.200 F 
ENDBRANCH  45  69
BRANCH  57  80
ATOM     80  C   UNL     1       6.379  18.569  -0.069  1.00  0.00     0.064 A 
ATOM     81  C   UNL     1       5.166  18.605   0.636  1.00  0.00     0.173 A 
ATOM     82  C   UNL     1       7.301  19.598   0.173  1.00  0.00     0.173 A 
ATOM     83  F   UNL     1       4.267  17.619   0.520  1.00  0.00    -0.203 F 
ATOM     84  C   UNL     1       4.875  19.654   1.509  1.00  0.00     0.198 A 
ATOM     85  C   UNL     1       7.025  20.619   1.074  1.00  0.00     0.198 A 
ATOM     86  F   UNL     1       8.492  19.592  -0.447  1.00  0.00    -0.203 F 
ATOM     87  F   UNL     1       3.698  19.686   2.152  1.00  0.00    -0.200 F 
ATOM     88  C   UNL     1       5.807  20.655   1.731  1.00  0.00     0.200 A 
ATOM     89  F   UNL     1       7.948  21.561   1.315  1.00  0.00    -0.200 F 
ATOM     90  F   UNL     1       5.540  21.645   2.594  1.00  0.00    -0.200 F 
ENDBRANCH  57  80
ENDBRANCH  31  32
ENDBRANCH  23  26
ENDBRANCH  21  22
ENDBRANCH  20  21
ENDBRANCH   1  20
TORSDOF 14
