REMARK SMILES N#Cc1cc2c(nc1N(CC(=O)NCCCNC(=O)c1ccc(-c3c4nc(c(-c5c(F)c(F)c(F)c(F)c5F)c5ccc([nH]5)c(-c5c(F)c(F)c(F)c(F)c5F)c5nc(c(-c6c(F)c(F)c(F)c(F)c6F)c6ccc3[nH]6)C=C5)C=C4)cc1)CC(F)(F)F)CCC2
REMARK SMILES IDX 14 1 13 2 11 3 12 4 10 6 9 7 8 8 3 9 4 10 5 11 7 12 6 13
REMARK SMILES IDX 90 14 88 15 89 16 2 17 1 18 83 19 84 20 85 21 86 22 87 23
REMARK SMILES IDX 15 24 16 25 17 26 18 27 19 29 20 30 21 31 82 32 22 33 81 34
REMARK SMILES IDX 23 35 24 36 25 37 75 38 26 39 80 40 74 41 76 42 27 43 79 44
REMARK SMILES IDX 73 45 72 46 28 48 60 49 40 50 59 51 41 52 44 53 58 54 77 55
REMARK SMILES IDX 42 56 43 57 57 59 78 60 45 61 29 62 30 63 38 64 31 65 32 66
REMARK SMILES IDX 36 67 39 68 33 69 34 70 37 71 35 72 61 73 62 74 70 75 63 76
REMARK SMILES IDX 64 77 68 78 71 79 65 80 66 81 69 82 67 83 46 84 47 85 55 86
REMARK SMILES IDX 48 87 49 88 53 89 56 90 50 91 51 92 54 93 52 94
REMARK H PARENT 13 5 17 28 76 47 44 58
REMARK Flexibility Score: inf
ROOT
ATOM      1  C   UNL     1       5.334  -2.983   2.738  1.00  0.00     0.117 C 
ENDROOT
BRANCH   1   2
ATOM      2  N   UNL     1       4.573  -4.136   2.294  1.00  0.00    -0.354 N 
ATOM      3  C   UNL     1       4.098  -4.422   1.047  1.00  0.00     0.239 C 
ATOM      4  O   UNL     1       3.410  -5.436   0.902  1.00  0.00    -0.273 OA
ATOM      5  H   UNL     1       4.372  -4.805   2.988  1.00  0.00     0.163 HD
BRANCH   3   6
ATOM      6  C   UNL     1       4.395  -3.491  -0.134  1.00  0.00     0.218 C 
BRANCH   6   7
ATOM      7  N   UNL     1       3.550  -2.266  -0.128  1.00  0.00    -0.337 N 
BRANCH   7   8
ATOM      8  C   UNL     1       4.186  -1.036  -0.195  1.00  0.00     0.147 A 
ATOM      9  C   UNL     1       3.577   0.236  -0.320  1.00  0.00     0.095 A 
ATOM     10  C   UNL     1       4.349   1.416  -0.240  1.00  0.00     0.029 A 
ATOM     11  C   UNL     1       5.712   1.306  -0.114  1.00  0.00    -0.025 A 
ATOM     12  N   UNL     1       5.545  -1.092  -0.103  1.00  0.00    -0.234 NA
ATOM     13  C   UNL     1       6.260   0.046  -0.082  1.00  0.00     0.046 A 
ATOM     14  C   UNL     1       6.756   2.359   0.027  1.00  0.00     0.038 C 
ATOM     15  C   UNL     1       7.757   0.108   0.031  1.00  0.00     0.057 C 
ATOM     16  C   UNL     1       8.017   1.572  -0.360  1.00  0.00     0.011 C 
BRANCH   9  17
ATOM     17  C   UNL     1       2.184   0.442  -0.578  1.00  0.00     0.103 C 
ATOM     18  N   UNL     1       1.062   0.624  -0.801  1.00  0.00    -0.192 NA
ENDBRANCH   9  17
ENDBRANCH   7   8
BRANCH   7  19
ATOM     19  C   UNL     1       2.079  -2.512  -0.125  1.00  0.00     0.234 C 
BRANCH  19  20
ATOM     20  C   UNL     1       1.337  -2.242   1.200  1.00  0.00     0.405 C 
ATOM     21  F   UNL     1       1.607  -1.018   1.707  1.00  0.00    -0.169 F 
ATOM     22  F   UNL     1      -0.002  -2.320   1.022  1.00  0.00    -0.169 F 
ATOM     23  F   UNL     1       1.664  -3.142   2.156  1.00  0.00    -0.169 F 
ENDBRANCH  19  20
ENDBRANCH   7  19
ENDBRANCH   6   7
ENDBRANCH   3   6
ENDBRANCH   1   2
BRANCH   1  24
ATOM     24  C   UNL     1       4.464  -1.953   3.451  1.00  0.00     0.042 C 
BRANCH  24  25
ATOM     25  C   UNL     1       3.861  -2.467   4.755  1.00  0.00     0.118 C 
BRANCH  25  26
ATOM     26  N   UNL     1       4.877  -2.661   5.782  1.00  0.00    -0.352 N 
ATOM     27  C   UNL     1       5.044  -2.016   6.981  1.00  0.00     0.251 C 
ATOM     28  H   UNL     1       5.542  -3.360   5.587  1.00  0.00     0.163 HD
ATOM     29  O   UNL     1       6.096  -2.136   7.602  1.00  0.00    -0.269 OA
BRANCH  27  30
ATOM     30  C   UNL     1       3.965  -1.163   7.522  1.00  0.00     0.039 A 
ATOM     31  C   UNL     1       4.297   0.073   8.081  1.00  0.00     0.014 A 
ATOM     32  C   UNL     1       2.634  -1.589   7.500  1.00  0.00     0.014 A 
ATOM     33  C   UNL     1       3.286   0.908   8.562  1.00  0.00     0.010 A 
ATOM     34  C   UNL     1       1.621  -0.725   7.911  1.00  0.00     0.010 A 
ATOM     35  C   UNL     1       1.937   0.531   8.449  1.00  0.00    -0.014 A 
BRANCH  35  36
ATOM     36  C   UNL     1       0.852   1.441   8.897  1.00  0.00     0.031 A 
ATOM     37  C   UNL     1      -0.036   1.052  10.048  1.00  0.00     0.074 A 
ATOM     38  C   UNL     1       0.657   2.610   8.255  1.00  0.00     0.049 A 
ATOM     39  N   UNL     1      -1.043   1.706  10.570  1.00  0.00    -0.248 NA
ATOM     40  C   UNL     1       0.233  -0.245  10.692  1.00  0.00     0.031 C 
ATOM     41  C   UNL     1       1.436   3.085   7.110  1.00  0.00     0.029 A 
ATOM     42  N   UNL     1      -0.251   3.617   8.475  1.00  0.00    -0.354 N 
ATOM     43  C   UNL     1      -1.515   0.909  11.604  1.00  0.00     0.074 A 
ATOM     44  C   UNL     1      -0.733  -0.306  11.598  1.00  0.00     0.031 C 
ATOM     45  C   UNL     1       1.002   4.305   6.756  1.00  0.00     0.029 A 
ATOM     46  C   UNL     1      -0.116   4.682   7.616  1.00  0.00     0.049 A 
ATOM     47  H   UNL     1      -0.935   3.580   9.182  1.00  0.00     0.167 HD
ATOM     48  C   UNL     1      -2.490   1.185  12.501  1.00  0.00     0.037 A 
ATOM     49  C   UNL     1      -0.816   5.831   7.532  1.00  0.00     0.037 A 
ATOM     50  C   UNL     1      -3.256   2.402  12.516  1.00  0.00     0.049 A 
ATOM     51  C   UNL     1      -1.941   6.074   8.505  1.00  0.00     0.074 A 
ATOM     52  C   UNL     1      -4.255   2.776  13.398  1.00  0.00     0.029 A 
ATOM     53  N   UNL     1      -3.106   3.443  11.614  1.00  0.00    -0.354 N 
ATOM     54  N   UNL     1      -2.339   5.336   9.512  1.00  0.00    -0.248 NA
ATOM     55  C   UNL     1      -2.713   7.314   8.332  1.00  0.00     0.031 C 
ATOM     56  C   UNL     1      -4.742   4.023  13.002  1.00  0.00     0.029 A 
ATOM     57  C   UNL     1      -4.007   4.453  11.909  1.00  0.00     0.049 A 
ATOM     58  H   UNL     1      -2.457   3.462  10.874  1.00  0.00     0.167 HD
ATOM     59  C   UNL     1      -3.374   6.038  10.114  1.00  0.00     0.074 A 
ATOM     60  C   UNL     1      -3.534   7.269   9.371  1.00  0.00     0.031 C 
ATOM     61  C   UNL     1      -4.128   5.691  11.185  1.00  0.00     0.037 A 
BRANCH  48  62
ATOM     62  C   UNL     1      -2.768   0.180  13.580  1.00  0.00     0.064 A 
ATOM     63  C   UNL     1      -1.874  -0.001  14.645  1.00  0.00     0.173 A 
ATOM     64  C   UNL     1      -3.992  -0.505  13.624  1.00  0.00     0.173 A 
ATOM     65  F   UNL     1      -0.687   0.625  14.645  1.00  0.00    -0.203 F 
ATOM     66  C   UNL     1      -2.196  -0.828  15.717  1.00  0.00     0.198 A 
ATOM     67  C   UNL     1      -4.322  -1.309  14.711  1.00  0.00     0.198 A 
ATOM     68  F   UNL     1      -4.885  -0.359  12.633  1.00  0.00    -0.203 F 
ATOM     69  F   UNL     1      -1.322  -0.995  16.719  1.00  0.00    -0.200 F 
ATOM     70  C   UNL     1      -3.426  -1.468  15.757  1.00  0.00     0.200 A 
ATOM     71  F   UNL     1      -5.519  -1.911  14.758  1.00  0.00    -0.200 F 
ATOM     72  F   UNL     1      -3.750  -2.233  16.809  1.00  0.00    -0.200 F 
ENDBRANCH  48  62
BRANCH  49  73
ATOM     73  C   UNL     1      -0.467   6.857   6.511  1.00  0.00     0.064 A 
ATOM     74  C   UNL     1       0.005   8.121   6.897  1.00  0.00     0.173 A 
ATOM     75  C   UNL     1      -0.632   6.619   5.139  1.00  0.00     0.173 A 
ATOM     76  F   UNL     1       0.164   8.408   8.198  1.00  0.00    -0.203 F 
ATOM     77  C   UNL     1       0.265   9.114   5.955  1.00  0.00     0.198 A 
ATOM     78  C   UNL     1      -0.336   7.601   4.195  1.00  0.00     0.198 A 
ATOM     79  F   UNL     1      -1.076   5.428   4.712  1.00  0.00    -0.203 F 
ATOM     80  F   UNL     1       0.653  10.332   6.359  1.00  0.00    -0.200 F 
ATOM     81  C   UNL     1       0.099   8.852   4.604  1.00  0.00     0.200 A 
ATOM     82  F   UNL     1      -0.481   7.338   2.889  1.00  0.00    -0.200 F 
ATOM     83  F   UNL     1       0.347   9.808   3.699  1.00  0.00    -0.200 F 
ENDBRANCH  49  73
BRANCH  61  84
ATOM     84  C   UNL     1      -5.166   6.665  11.663  1.00  0.00     0.064 A 
ATOM     85  C   UNL     1      -6.342   6.902  10.938  1.00  0.00     0.173 A 
ATOM     86  C   UNL     1      -5.024   7.293  12.911  1.00  0.00     0.173 A 
ATOM     87  F   UNL     1      -6.520   6.335   9.735  1.00  0.00    -0.203 F 
ATOM     88  C   UNL     1      -7.334   7.740  11.439  1.00  0.00     0.198 A 
ATOM     89  C   UNL     1      -6.033   8.102  13.424  1.00  0.00     0.198 A 
ATOM     90  F   UNL     1      -3.922   7.090  13.649  1.00  0.00    -0.203 F 
ATOM     91  F   UNL     1      -8.435   7.978  10.715  1.00  0.00    -0.200 F 
ATOM     92  C   UNL     1      -7.185   8.328  12.687  1.00  0.00     0.200 A 
ATOM     93  F   UNL     1      -5.896   8.651  14.639  1.00  0.00    -0.200 F 
ATOM     94  F   UNL     1      -8.153   9.112  13.179  1.00  0.00    -0.200 F 
ENDBRANCH  61  84
ENDBRANCH  35  36
ENDBRANCH  27  30
ENDBRANCH  25  26
ENDBRANCH  24  25
ENDBRANCH   1  24
TORSDOF 15
