REMARK SMILES CCCCCn1c(SCC(=O)NCCCNC(=O)c2ccc(-c3c4nc(c(-c5c(F)c(F)c(F)c(F)c5F)c5ccc([nH]5)c(-c5c(F)c(F)c(F)c(F)c5F)c5nc(c(-c6c(F)c(F)c(F)c(F)c6F)c6ccc3[nH]6)C=C5)C=C4)cc2)nc2ccccc2c1=O
REMARK SMILES IDX 10 1 11 2 12 3 9 5 8 6 7 7 6 8 89 9 82 10 88 11 90 12 83 13
REMARK SMILES IDX 87 14 84 15 86 16 85 17 5 18 4 19 3 20 2 21 1 22 13 23 14 24
REMARK SMILES IDX 15 25 16 26 17 27 18 29 19 30 20 31 81 32 21 33 80 34 22 35
REMARK SMILES IDX 23 36 24 37 74 38 25 39 79 40 73 41 75 42 26 43 78 44 72 45
REMARK SMILES IDX 71 46 27 48 59 49 39 50 58 51 40 52 43 53 57 54 76 55 41 56
REMARK SMILES IDX 42 57 56 59 77 60 44 61 28 62 29 63 37 64 30 65 31 66 35 67
REMARK SMILES IDX 38 68 32 69 33 70 36 71 34 72 60 73 61 74 69 75 62 76 63 77
REMARK SMILES IDX 67 78 70 79 64 80 65 81 68 82 66 83 45 84 46 85 54 86 47 87
REMARK SMILES IDX 48 88 52 89 55 90 49 91 50 92 53 93 51 94
REMARK H PARENT 12 4 16 28 75 47 43 58
REMARK Flexibility Score: inf
ROOT
ATOM      1  C   UNL     1      -1.756   0.185   0.469  1.00  0.00     0.230 C 
ATOM      2  O   UNL     1      -2.653  -0.663   0.395  1.00  0.00    -0.274 OA
ATOM      3  N   UNL     1      -1.244   0.408   1.704  1.00  0.00    -0.355 N 
ATOM      4  H   UNL     1      -1.530  -0.249   2.378  1.00  0.00     0.163 HD
ENDROOT
BRANCH   1   5
ATOM      5  C   UNL     1      -1.202   0.787  -0.796  1.00  0.00     0.178 C 
BRANCH   5   6
ATOM      6  S   UNL     1      -0.954   2.553  -0.811  1.00  0.00    -0.078 SA
BRANCH   6   7
ATOM      7  C   UNL     1      -1.281   3.093  -2.422  1.00  0.00     0.171 A 
ATOM      8  N   UNL     1      -1.160   2.283  -3.520  1.00  0.00    -0.287 N 
ATOM      9  C   UNL     1      -2.163   2.451  -4.485  1.00  0.00     0.262 A 
ATOM     10  N   UNL     1      -1.746   4.301  -2.467  1.00  0.00    -0.224 NA
ATOM     11  C   UNL     1      -2.776   3.792  -4.584  1.00  0.00     0.066 A 
ATOM     12  O   UNL     1      -2.567   1.554  -5.222  1.00  0.00    -0.269 OA
ATOM     13  C   UNL     1      -2.354   4.728  -3.649  1.00  0.00     0.079 A 
ATOM     14  C   UNL     1      -3.694   4.135  -5.580  1.00  0.00     0.016 A 
ATOM     15  C   UNL     1      -2.720   6.064  -3.808  1.00  0.00     0.029 A 
ATOM     16  C   UNL     1      -4.106   5.464  -5.699  1.00  0.00     0.001 A 
ATOM     17  C   UNL     1      -3.581   6.436  -4.844  1.00  0.00     0.002 A 
BRANCH   8  18
ATOM     18  C   UNL     1      -0.320   1.086  -3.680  1.00  0.00     0.128 C 
BRANCH  18  19
ATOM     19  C   UNL     1       1.199   1.018  -3.346  1.00  0.00     0.022 C 
BRANCH  19  20
ATOM     20  C   UNL     1       2.002   1.992  -2.469  1.00  0.00     0.002 C 
BRANCH  20  21
ATOM     21  C   UNL     1       2.307   1.701  -0.983  1.00  0.00    -0.003 C 
ATOM     22  C   UNL     1       2.523   0.266  -0.525  1.00  0.00     0.004 C 
ENDBRANCH  20  21
ENDBRANCH  19  20
ENDBRANCH  18  19
ENDBRANCH   8  18
ENDBRANCH   6   7
ENDBRANCH   5   6
ENDBRANCH   1   5
BRANCH   3  23
ATOM     23  C   UNL     1      -0.352   1.431   2.223  1.00  0.00     0.117 C 
BRANCH  23  24
ATOM     24  C   UNL     1      -1.059   2.748   2.539  1.00  0.00     0.042 C 
BRANCH  24  25
ATOM     25  C   UNL     1      -2.484   2.575   3.027  1.00  0.00     0.118 C 
BRANCH  25  26
ATOM     26  N   UNL     1      -2.523   1.950   4.341  1.00  0.00    -0.352 N 
ATOM     27  C   UNL     1      -3.006   2.481   5.514  1.00  0.00     0.251 C 
ATOM     28  H   UNL     1      -2.161   1.036   4.396  1.00  0.00     0.163 HD
ATOM     29  O   UNL     1      -2.736   1.980   6.592  1.00  0.00    -0.269 OA
BRANCH  27  30
ATOM     30  C   UNL     1      -3.837   3.697   5.425  1.00  0.00     0.039 A 
ATOM     31  C   UNL     1      -4.832   3.775   4.448  1.00  0.00     0.014 A 
ATOM     32  C   UNL     1      -3.561   4.785   6.253  1.00  0.00     0.014 A 
ATOM     33  C   UNL     1      -5.415   4.999   4.172  1.00  0.00     0.010 A 
ATOM     34  C   UNL     1      -4.252   5.982   6.057  1.00  0.00     0.010 A 
ATOM     35  C   UNL     1      -5.155   6.111   4.989  1.00  0.00    -0.014 A 
BRANCH  35  36
ATOM     36  C   UNL     1      -5.875   7.381   4.725  1.00  0.00     0.031 A 
ATOM     37  C   UNL     1      -5.130   8.640   4.384  1.00  0.00     0.074 A 
ATOM     38  C   UNL     1      -7.223   7.370   4.750  1.00  0.00     0.049 A 
ATOM     39  N   UNL     1      -5.604   9.841   4.161  1.00  0.00    -0.248 NA
ATOM     40  C   UNL     1      -3.665   8.550   4.288  1.00  0.00     0.031 C 
ATOM     41  C   UNL     1      -8.048   6.195   5.047  1.00  0.00     0.029 A 
ATOM     42  N   UNL     1      -8.137   8.357   4.494  1.00  0.00    -0.354 N 
ATOM     43  C   UNL     1      -4.499  10.648   3.923  1.00  0.00     0.074 A 
ATOM     44  C   UNL     1      -3.327   9.811   4.058  1.00  0.00     0.031 C 
ATOM     45  C   UNL     1      -9.339   6.510   4.887  1.00  0.00     0.029 A 
ATOM     46  C   UNL     1      -9.440   7.930   4.576  1.00  0.00     0.049 A 
ATOM     47  H   UNL     1      -7.885   9.283   4.274  1.00  0.00     0.167 HD
ATOM     48  C   UNL     1      -4.475  11.965   3.608  1.00  0.00     0.037 A 
ATOM     49  C   UNL     1     -10.593   8.610   4.446  1.00  0.00     0.037 A 
ATOM     50  C   UNL     1      -5.654  12.778   3.452  1.00  0.00     0.049 A 
ATOM     51  C   UNL     1     -10.531  10.080   4.158  1.00  0.00     0.074 A 
ATOM     52  C   UNL     1      -5.738  14.121   3.126  1.00  0.00     0.029 A 
ATOM     53  N   UNL     1      -6.957  12.323   3.606  1.00  0.00    -0.354 N 
ATOM     54  N   UNL     1      -9.481  10.836   3.949  1.00  0.00    -0.248 NA
ATOM     55  C   UNL     1     -11.811  10.796   4.103  1.00  0.00     0.031 C 
ATOM     56  C   UNL     1      -7.086  14.489   3.135  1.00  0.00     0.029 A 
ATOM     57  C   UNL     1      -7.849  13.364   3.405  1.00  0.00     0.049 A 
ATOM     58  H   UNL     1      -7.209  11.397   3.826  1.00  0.00     0.167 HD
ATOM     59  C   UNL     1      -9.971  12.113   3.720  1.00  0.00     0.074 A 
ATOM     60  C   UNL     1     -11.416  12.024   3.796  1.00  0.00     0.031 C 
ATOM     61  C   UNL     1      -9.285  13.255   3.477  1.00  0.00     0.037 A 
BRANCH  48  62
ATOM     62  C   UNL     1      -3.137  12.623   3.417  1.00  0.00     0.064 A 
ATOM     63  C   UNL     1      -2.333  12.351   2.301  1.00  0.00     0.173 A 
ATOM     64  C   UNL     1      -2.689  13.598   4.324  1.00  0.00     0.173 A 
ATOM     65  F   UNL     1      -2.708  11.422   1.409  1.00  0.00    -0.203 F 
ATOM     66  C   UNL     1      -1.126  13.018   2.106  1.00  0.00     0.198 A 
ATOM     67  C   UNL     1      -1.497  14.285   4.110  1.00  0.00     0.198 A 
ATOM     68  F   UNL     1      -3.421  13.903   5.405  1.00  0.00    -0.203 F 
ATOM     69  F   UNL     1      -0.359  12.717   1.049  1.00  0.00    -0.200 F 
ATOM     70  C   UNL     1      -0.714  13.992   3.004  1.00  0.00     0.200 A 
ATOM     71  F   UNL     1      -1.110  15.238   4.970  1.00  0.00    -0.200 F 
ATOM     72  F   UNL     1       0.437  14.648   2.803  1.00  0.00    -0.200 F 
ENDBRANCH  48  62
BRANCH  49  73
ATOM     73  C   UNL     1     -11.886   7.895   4.596  1.00  0.00     0.064 A 
ATOM     74  C   UNL     1     -12.742   7.722   3.500  1.00  0.00     0.173 A 
ATOM     75  C   UNL     1     -12.273   7.330   5.822  1.00  0.00     0.173 A 
ATOM     76  F   UNL     1     -12.426   8.257   2.312  1.00  0.00    -0.203 F 
ATOM     77  C   UNL     1     -13.937   7.016   3.626  1.00  0.00     0.198 A 
ATOM     78  C   UNL     1     -13.450   6.595   5.938  1.00  0.00     0.198 A 
ATOM     79  F   UNL     1     -11.486   7.461   6.900  1.00  0.00    -0.203 F 
ATOM     80  F   UNL     1     -14.753   6.892   2.571  1.00  0.00    -0.200 F 
ATOM     81  C   UNL     1     -14.284   6.443   4.841  1.00  0.00     0.200 A 
ATOM     82  F   UNL     1     -13.768   6.025   7.108  1.00  0.00    -0.200 F 
ATOM     83  F   UNL     1     -15.423   5.747   4.956  1.00  0.00    -0.200 F 
ENDBRANCH  49  73
BRANCH  61  84
ATOM     84  C   UNL     1     -10.085  14.503   3.248  1.00  0.00     0.064 A 
ATOM     85  C   UNL     1     -10.762  15.144   4.296  1.00  0.00     0.173 A 
ATOM     86  C   UNL     1     -10.119  15.102   1.979  1.00  0.00     0.173 A 
ATOM     87  F   UNL     1     -10.773  14.602   5.523  1.00  0.00    -0.203 F 
ATOM     88  C   UNL     1     -11.457  16.329   4.078  1.00  0.00     0.198 A 
ATOM     89  C   UNL     1     -10.786  16.305   1.773  1.00  0.00     0.198 A 
ATOM     90  F   UNL     1      -9.481  14.532   0.945  1.00  0.00    -0.203 F 
ATOM     91  F   UNL     1     -12.131  16.903   5.084  1.00  0.00    -0.200 F 
ATOM     92  C   UNL     1     -11.459  16.915   2.820  1.00  0.00     0.200 A 
ATOM     93  F   UNL     1     -10.772  16.878   0.561  1.00  0.00    -0.200 F 
ATOM     94  F   UNL     1     -12.113  18.067   2.617  1.00  0.00    -0.200 F 
ENDBRANCH  61  84
ENDBRANCH  35  36
ENDBRANCH  27  30
ENDBRANCH  25  26
ENDBRANCH  24  25
ENDBRANCH  23  24
ENDBRANCH   3  23
TORSDOF 16
