REMARK SMILES O=C(NCCCNC(=O)c1ccc(-c2c3nc(c(-c4c(F)c(F)c(F)c(F)c4F)c4ccc([nH]4)c(-c4c(F)c(F)c(F)c(F)c4F)c4nc(c(-c5c(F)c(F)c(F)c(F)c5F)c5ccc2[nH]5)C=C4)C=C3)cc1)c1ccc(/C=C/c2ccnc(-c3cccc([N+](=O)[O-])c3)[n+]2[O-])cc1
REMARK SMILES IDX 4 1 3 2 1 3 2 4 73 6 74 7 96 8 75 9 95 10 76 11 77 12 78 13
REMARK SMILES IDX 79 14 80 15 93 16 81 17 83 18 94 19 82 20 84 21 85 22 92 23
REMARK SMILES IDX 86 24 88 25 87 26 89 27 90 28 91 29 5 30 6 31 7 32 8 33 9 35
REMARK SMILES IDX 10 36 11 37 72 38 12 39 71 40 13 41 14 42 15 43 65 44 16 45
REMARK SMILES IDX 70 46 64 47 66 48 17 49 69 50 63 51 62 52 18 54 50 55 30 56
REMARK SMILES IDX 49 57 31 58 34 59 48 60 67 61 32 62 33 63 47 65 68 66 35 67
REMARK SMILES IDX 19 68 20 69 28 70 21 71 22 72 26 73 29 74 23 75 24 76 27 77
REMARK SMILES IDX 25 78 51 79 52 80 60 81 53 82 54 83 58 84 61 85 55 86 56 87
REMARK SMILES IDX 59 88 57 89 36 90 37 91 45 92 38 93 39 94 43 95 46 96 40 97
REMARK SMILES IDX 41 98 44 99 42 100
REMARK H PARENT 3 5 7 34 66 53 34 64
REMARK Flexibility Score: inf
ROOT
ATOM      1  C   UNL     1       4.452  -0.988  -0.806  1.00  0.00     0.118 C 
ENDROOT
BRANCH   1   2
ATOM      2  N   UNL     1       3.010  -0.791  -0.794  1.00  0.00    -0.352 N 
ATOM      3  O   UNL     1       1.042   0.062  -0.090  1.00  0.00    -0.269 OA
ATOM      4  C   UNL     1       2.265   0.149  -0.126  1.00  0.00     0.251 C 
ATOM      5  H   UNL     1       2.494  -1.424  -1.345  1.00  0.00     0.163 HD
BRANCH   4   6
ATOM      6  C   UNL     1       2.948   1.257   0.570  1.00  0.00     0.039 A 
ATOM      7  C   UNL     1       3.874   2.054  -0.104  1.00  0.00     0.014 A 
ATOM      8  C   UNL     1       2.659   1.498   1.913  1.00  0.00     0.014 A 
ATOM      9  C   UNL     1       4.597   3.019   0.596  1.00  0.00     0.009 A 
ATOM     10  C   UNL     1       3.376   2.477   2.606  1.00  0.00     0.009 A 
ATOM     11  C   UNL     1       4.381   3.221   1.967  1.00  0.00    -0.025 A 
BRANCH  11  12
ATOM     12  C   UNL     1       5.130   4.219   2.747  1.00  0.00     0.012 C 
ATOM     13  C   UNL     1       6.313   4.742   2.385  1.00  0.00     0.053 C 
BRANCH  13  14
ATOM     14  C   UNL     1       6.982   5.790   3.167  1.00  0.00     0.134 A 
ATOM     15  C   UNL     1       7.193   7.030   2.561  1.00  0.00     0.100 A 
ATOM     16  N   UNL     1       7.405   5.556   4.485  1.00  0.00    -0.228 N 
ATOM     17  C   UNL     1       7.790   8.017   3.306  1.00  0.00     0.259 A 
ATOM     18  C   UNL     1       8.022   6.612   5.161  1.00  0.00     0.333 A 
ATOM     19  O   UNL     1       7.236   4.413   5.038  1.00  0.00    -0.710 OA
ATOM     20  N   UNL     1       8.192   7.840   4.575  1.00  0.00    -0.049 NA
BRANCH  18  21
ATOM     21  C   UNL     1       8.558   6.447   6.514  1.00  0.00     0.076 A 
ATOM     22  C   UNL     1       8.160   7.310   7.552  1.00  0.00     0.017 A 
ATOM     23  C   UNL     1       9.524   5.467   6.797  1.00  0.00     0.102 A 
ATOM     24  C   UNL     1       8.694   7.192   8.839  1.00  0.00     0.008 A 
ATOM     25  C   UNL     1      10.072   5.364   8.083  1.00  0.00     0.270 A 
ATOM     26  C   UNL     1       9.656   6.220   9.109  1.00  0.00     0.085 A 
BRANCH  25  27
ATOM     27  N   UNL     1      11.116   4.366   8.348  1.00  0.00     0.062 N 
ATOM     28  O   UNL     1      11.529   4.258   9.512  1.00  0.00    -0.258 OA
ATOM     29  O   UNL     1      11.539   3.703   7.390  1.00  0.00    -0.258 OA
ENDBRANCH  25  27
ENDBRANCH  18  21
ENDBRANCH  13  14
ENDBRANCH  11  12
ENDBRANCH   4   6
ENDBRANCH   1   2
BRANCH   1  30
ATOM     30  C   UNL     1       4.882  -2.233  -0.044  1.00  0.00     0.042 C 
BRANCH  30  31
ATOM     31  C   UNL     1       4.370  -3.541  -0.631  1.00  0.00     0.118 C 
BRANCH  31  32
ATOM     32  N   UNL     1       4.795  -3.751  -2.007  1.00  0.00    -0.352 N 
ATOM     33  C   UNL     1       5.516  -4.763  -2.587  1.00  0.00     0.251 C 
ATOM     34  H   UNL     1       4.515  -3.042  -2.631  1.00  0.00     0.163 HD
ATOM     35  O   UNL     1       5.894  -4.633  -3.749  1.00  0.00    -0.269 OA
BRANCH  33  36
ATOM     36  C   UNL     1       5.863  -5.993  -1.840  1.00  0.00     0.039 A 
ATOM     37  C   UNL     1       7.097  -6.600  -2.099  1.00  0.00     0.014 A 
ATOM     38  C   UNL     1       4.981  -6.587  -0.934  1.00  0.00     0.014 A 
ATOM     39  C   UNL     1       7.463  -7.760  -1.414  1.00  0.00     0.010 A 
ATOM     40  C   UNL     1       5.383  -7.690  -0.184  1.00  0.00     0.010 A 
ATOM     41  C   UNL     1       6.623  -8.298  -0.425  1.00  0.00    -0.014 A 
BRANCH  41  42
ATOM     42  C   UNL     1       7.035  -9.495   0.351  1.00  0.00     0.031 A 
ATOM     43  C   UNL     1       6.253 -10.777   0.258  1.00  0.00     0.074 A 
ATOM     44  C   UNL     1       8.098  -9.415   1.175  1.00  0.00     0.049 A 
ATOM     45  N   UNL     1       6.468 -11.923   0.857  1.00  0.00    -0.248 NA
ATOM     46  C   UNL     1       5.056 -10.766  -0.596  1.00  0.00     0.031 C 
ATOM     47  C   UNL     1       8.894  -8.209   1.411  1.00  0.00     0.029 A 
ATOM     48  N   UNL     1       8.693 -10.364   1.967  1.00  0.00    -0.354 N 
ATOM     49  C   UNL     1       5.429 -12.757   0.464  1.00  0.00     0.074 A 
ATOM     50  C   UNL     1       4.553 -11.973  -0.379  1.00  0.00     0.031 C 
ATOM     51  C   UNL     1       9.892  -8.499   2.261  1.00  0.00     0.029 A 
ATOM     52  C   UNL     1       9.790  -9.902   2.652  1.00  0.00     0.049 A 
ATOM     53  H   UNL     1       8.364 -11.290   2.039  1.00  0.00     0.167 HD
ATOM     54  C   UNL     1       5.236 -14.065   0.759  1.00  0.00     0.037 A 
ATOM     55  C   UNL     1      10.625 -10.539   3.494  1.00  0.00     0.037 A 
ATOM     56  C   UNL     1       6.126 -14.853   1.570  1.00  0.00     0.049 A 
ATOM     57  C   UNL     1      10.413 -12.003   3.768  1.00  0.00     0.074 A 
ATOM     58  C   UNL     1       6.059 -16.204   1.865  1.00  0.00     0.029 A 
ATOM     59  N   UNL     1       7.249 -14.359   2.218  1.00  0.00    -0.354 N 
ATOM     60  N   UNL     1       9.477 -12.803   3.318  1.00  0.00    -0.248 NA
ATOM     61  C   UNL     1      11.386 -12.655   4.654  1.00  0.00     0.031 C 
ATOM     62  C   UNL     1       7.117 -16.518   2.725  1.00  0.00     0.029 A 
ATOM     63  C   UNL     1       7.872 -15.374   2.926  1.00  0.00     0.049 A 
ATOM     64  H   UNL     1       7.557 -13.425   2.180  1.00  0.00     0.167 HD
ATOM     65  C   UNL     1       9.759 -14.054   3.847  1.00  0.00     0.074 A 
ATOM     66  C   UNL     1      10.969 -13.913   4.630  1.00  0.00     0.031 C 
ATOM     67  C   UNL     1       9.075 -15.216   3.702  1.00  0.00     0.037 A 
BRANCH  54  68
ATOM     68  C   UNL     1       4.017 -14.735   0.190  1.00  0.00     0.064 A 
ATOM     69  C   UNL     1       3.900 -15.007  -1.182  1.00  0.00     0.173 A 
ATOM     70  C   UNL     1       2.974 -15.148   1.031  1.00  0.00     0.173 A 
ATOM     71  F   UNL     1       4.865 -14.623  -2.031  1.00  0.00    -0.203 F 
ATOM     72  C   UNL     1       2.772 -15.645  -1.693  1.00  0.00     0.198 A 
ATOM     73  C   UNL     1       1.861 -15.812   0.520  1.00  0.00     0.198 A 
ATOM     74  F   UNL     1       3.037 -14.918   2.351  1.00  0.00    -0.203 F 
ATOM     75  F   UNL     1       2.663 -15.852  -3.013  1.00  0.00    -0.200 F 
ATOM     76  C   UNL     1       1.758 -16.053  -0.841  1.00  0.00     0.200 A 
ATOM     77  F   UNL     1       0.887 -16.218   1.347  1.00  0.00    -0.200 F 
ATOM     78  F   UNL     1       0.678 -16.675  -1.333  1.00  0.00    -0.200 F 
ENDBRANCH  54  68
BRANCH  55  79
ATOM     79  C   UNL     1      11.763  -9.806   4.106  1.00  0.00     0.064 A 
ATOM     80  C   UNL     1      13.084 -10.081   3.727  1.00  0.00     0.173 A 
ATOM     81  C   UNL     1      11.555  -8.824   5.085  1.00  0.00     0.173 A 
ATOM     82  F   UNL     1      13.334 -11.026   2.808  1.00  0.00    -0.203 F 
ATOM     83  C   UNL     1      14.156  -9.419   4.322  1.00  0.00     0.198 A 
ATOM     84  C   UNL     1      12.627  -8.142   5.658  1.00  0.00     0.198 A 
ATOM     85  F   UNL     1      10.310  -8.520   5.478  1.00  0.00    -0.203 F 
ATOM     86  F   UNL     1      15.411  -9.737   3.976  1.00  0.00    -0.200 F 
ATOM     87  C   UNL     1      13.927  -8.447   5.283  1.00  0.00     0.200 A 
ATOM     88  F   UNL     1      12.400  -7.194   6.577  1.00  0.00    -0.200 F 
ATOM     89  F   UNL     1      14.958  -7.810   5.853  1.00  0.00    -0.200 F 
ENDBRANCH  55  79
BRANCH  67  90
ATOM     90  C   UNL     1       9.639 -16.428   4.387  1.00  0.00     0.064 A 
ATOM     91  C   UNL     1       9.610 -16.564   5.783  1.00  0.00     0.173 A 
ATOM     92  C   UNL     1      10.206 -17.469   3.637  1.00  0.00     0.173 A 
ATOM     93  F   UNL     1       9.092 -15.589   6.546  1.00  0.00    -0.203 F 
ATOM     94  C   UNL     1      10.164 -17.680   6.404  1.00  0.00     0.198 A 
ATOM     95  C   UNL     1      10.730 -18.598   4.260  1.00  0.00     0.198 A 
ATOM     96  F   UNL     1      10.251 -17.392   2.298  1.00  0.00    -0.203 F 
ATOM     97  F   UNL     1      10.181 -17.759   7.742  1.00  0.00    -0.200 F 
ATOM     98  C   UNL     1      10.719 -18.697   5.643  1.00  0.00     0.200 A 
ATOM     99  F   UNL     1      11.255 -19.586   3.522  1.00  0.00    -0.200 F 
ATOM    100  F   UNL     1      11.254 -19.769   6.243  1.00  0.00    -0.200 F 
ENDBRANCH  67  90
ENDBRANCH  41  42
ENDBRANCH  33  36
ENDBRANCH  31  32
ENDBRANCH  30  31
ENDBRANCH   1  30
TORSDOF 14
