REMARK SMILES O=C(NCCCNC(=O)c1cnc2c(C(F)(F)F)cccc2c1NCc1cccnc1)c1ccc(-c2c3nc(c(-c4c(F)c(F)c(F)c(F)c4F)c4ccc([nH]4)c(-c4c(F)c(F)c(F)c(F)c4F)c4nc(c(-c5c(F)c(F)c(F)c(F)c5F)c5ccc2[nH]5)C=C4)C=C3)cc1
REMARK SMILES IDX 5 1 4 2 3 3 1 4 2 5 32 7 33 8 94 9 34 10 93 11 35 12 36 13
REMARK SMILES IDX 37 14 87 15 38 16 92 17 86 18 88 19 39 20 91 21 85 22 84 23
REMARK SMILES IDX 40 25 72 26 52 27 71 28 53 29 56 30 70 31 89 32 54 33 55 34
REMARK SMILES IDX 69 36 90 37 57 38 41 39 42 40 50 41 43 42 44 43 48 44 51 45
REMARK SMILES IDX 45 46 46 47 49 48 47 49 73 50 74 51 82 52 75 53 76 54 80 55
REMARK SMILES IDX 83 56 77 57 78 58 81 59 79 60 58 61 59 62 67 63 60 64 61 65
REMARK SMILES IDX 65 66 68 67 62 68 63 69 66 70 64 71 6 72 7 73 8 74 9 76
REMARK SMILES IDX 10 77 11 78 23 79 12 80 22 81 13 82 21 83 14 84 20 85 19 86
REMARK SMILES IDX 24 87 25 89 26 90 27 91 31 92 28 93 30 94 29 95 15 96 16 97
REMARK SMILES IDX 17 98 18 99
REMARK H PARENT 3 6 88 24 56 35 7 75 24 88
REMARK Flexibility Score: inf
ROOT
ATOM      1  C   UNL     1       4.986  -0.277   2.379  1.00  0.00     0.042 C 
ENDROOT
BRANCH   1   2
ATOM      2  C   UNL     1       4.547  -0.838   1.032  1.00  0.00     0.118 C 
BRANCH   2   3
ATOM      3  N   UNL     1       3.106  -0.781   0.829  1.00  0.00    -0.352 N 
ATOM      4  O   UNL     1       1.121  -0.028   0.098  1.00  0.00    -0.269 OA
ATOM      5  C   UNL     1       2.345  -0.021  -0.022  1.00  0.00     0.251 C 
ATOM      6  H   UNL     1       2.590  -1.393   1.402  1.00  0.00     0.163 HD
BRANCH   5   7
ATOM      7  C   UNL     1       2.967   0.824  -1.064  1.00  0.00     0.039 A 
ATOM      8  C   UNL     1       4.036   0.368  -1.838  1.00  0.00     0.014 A 
ATOM      9  C   UNL     1       2.421   2.088  -1.311  1.00  0.00     0.014 A 
ATOM     10  C   UNL     1       4.646   1.219  -2.757  1.00  0.00     0.010 A 
ATOM     11  C   UNL     1       2.980   2.911  -2.292  1.00  0.00     0.010 A 
ATOM     12  C   UNL     1       4.116   2.494  -3.002  1.00  0.00    -0.014 A 
BRANCH  12  13
ATOM     13  C   UNL     1       4.718   3.372  -4.037  1.00  0.00     0.031 A 
ATOM     14  C   UNL     1       5.343   4.684  -3.659  1.00  0.00     0.074 A 
ATOM     15  C   UNL     1       4.661   2.999  -5.329  1.00  0.00     0.049 A 
ATOM     16  N   UNL     1       5.831   5.622  -4.431  1.00  0.00    -0.248 NA
ATOM     17  C   UNL     1       5.419   4.987  -2.222  1.00  0.00     0.031 C 
ATOM     18  C   UNL     1       4.073   1.752  -5.818  1.00  0.00     0.029 A 
ATOM     19  N   UNL     1       5.085   3.638  -6.466  1.00  0.00    -0.354 N 
ATOM     20  C   UNL     1       6.247   6.636  -3.579  1.00  0.00     0.074 A 
ATOM     21  C   UNL     1       5.933   6.208  -2.231  1.00  0.00     0.031 C 
ATOM     22  C   UNL     1       4.173   1.714  -7.154  1.00  0.00     0.029 A 
ATOM     23  C   UNL     1       4.776   2.960  -7.619  1.00  0.00     0.049 A 
ATOM     24  H   UNL     1       5.565   4.497  -6.457  1.00  0.00     0.167 HD
ATOM     25  C   UNL     1       6.840   7.813  -3.895  1.00  0.00     0.037 A 
ATOM     26  C   UNL     1       4.921   3.315  -8.909  1.00  0.00     0.037 A 
ATOM     27  C   UNL     1       7.153   8.224  -5.240  1.00  0.00     0.049 A 
ATOM     28  C   UNL     1       5.546   4.639  -9.240  1.00  0.00     0.074 A 
ATOM     29  C   UNL     1       7.800   9.372  -5.663  1.00  0.00     0.029 A 
ATOM     30  N   UNL     1       6.826   7.507  -6.383  1.00  0.00    -0.354 N 
ATOM     31  N   UNL     1       5.980   5.571  -8.427  1.00  0.00    -0.248 NA
ATOM     32  C   UNL     1       5.703   4.963 -10.664  1.00  0.00     0.031 C 
ATOM     33  C   UNL     1       7.811   9.379  -7.061  1.00  0.00     0.029 A 
ATOM     34  C   UNL     1       7.229   8.204  -7.511  1.00  0.00     0.049 A 
ATOM     35  H   UNL     1       6.375   6.632  -6.391  1.00  0.00     0.167 HD
ATOM     36  C   UNL     1       6.484   6.580  -9.236  1.00  0.00     0.074 A 
ATOM     37  C   UNL     1       6.303   6.145 -10.606  1.00  0.00     0.031 C 
ATOM     38  C   UNL     1       7.050   7.756  -8.871  1.00  0.00     0.037 A 
BRANCH  25  39
ATOM     39  C   UNL     1       7.155   8.756  -2.768  1.00  0.00     0.064 A 
ATOM     40  C   UNL     1       8.148   8.473  -1.818  1.00  0.00     0.173 A 
ATOM     41  C   UNL     1       6.460   9.969  -2.646  1.00  0.00     0.173 A 
ATOM     42  F   UNL     1       8.837   7.324  -1.882  1.00  0.00    -0.203 F 
ATOM     43  C   UNL     1       8.402   9.349  -0.764  1.00  0.00     0.198 A 
ATOM     44  C   UNL     1       6.740  10.857  -1.611  1.00  0.00     0.198 A 
ATOM     45  F   UNL     1       5.507  10.296  -3.533  1.00  0.00    -0.203 F 
ATOM     46  F   UNL     1       9.312   9.027   0.167  1.00  0.00    -0.200 F 
ATOM     47  C   UNL     1       7.702  10.541  -0.664  1.00  0.00     0.200 A 
ATOM     48  F   UNL     1       6.072  12.016  -1.525  1.00  0.00    -0.200 F 
ATOM     49  F   UNL     1       7.946  11.381   0.351  1.00  0.00    -0.200 F 
ENDBRANCH  25  39
BRANCH  26  50
ATOM     50  C   UNL     1       4.443   2.391  -9.968  1.00  0.00     0.064 A 
ATOM     51  C   UNL     1       5.346   1.678 -10.767  1.00  0.00     0.173 A 
ATOM     52  C   UNL     1       3.073   2.154 -10.156  1.00  0.00     0.173 A 
ATOM     53  F   UNL     1       6.664   1.883 -10.634  1.00  0.00    -0.203 F 
ATOM     54  C   UNL     1       4.896   0.762 -11.716  1.00  0.00     0.198 A 
ATOM     55  C   UNL     1       2.625   1.218 -11.085  1.00  0.00     0.198 A 
ATOM     56  F   UNL     1       2.170   2.805  -9.408  1.00  0.00    -0.203 F 
ATOM     57  F   UNL     1       5.778   0.107 -12.482  1.00  0.00    -0.200 F 
ATOM     58  C   UNL     1       3.537   0.525 -11.866  1.00  0.00     0.200 A 
ATOM     59  F   UNL     1       1.313   0.977 -11.212  1.00  0.00    -0.200 F 
ATOM     60  F   UNL     1       3.107  -0.373 -12.762  1.00  0.00    -0.200 F 
ENDBRANCH  26  50
BRANCH  38  61
ATOM     61  C   UNL     1       7.560   8.649  -9.963  1.00  0.00     0.064 A 
ATOM     62  C   UNL     1       6.691   9.388 -10.779  1.00  0.00     0.173 A 
ATOM     63  C   UNL     1       8.941   8.826 -10.141  1.00  0.00     0.173 A 
ATOM     64  F   UNL     1       5.363   9.240 -10.660  1.00  0.00    -0.203 F 
ATOM     65  C   UNL     1       7.188  10.267 -11.739  1.00  0.00     0.198 A 
ATOM     66  C   UNL     1       9.433   9.726 -11.082  1.00  0.00     0.198 A 
ATOM     67  F   UNL     1       9.812   8.145  -9.382  1.00  0.00    -0.203 F 
ATOM     68  F   UNL     1       6.341  10.943 -12.528  1.00  0.00    -0.200 F 
ATOM     69  C   UNL     1       8.557  10.444 -11.881  1.00  0.00     0.200 A 
ATOM     70  F   UNL     1      10.755   9.906 -11.207  1.00  0.00    -0.200 F 
ATOM     71  F   UNL     1       9.031  11.306 -12.790  1.00  0.00    -0.200 F 
ENDBRANCH  38  61
ENDBRANCH  12  13
ENDBRANCH   5   7
ENDBRANCH   2   3
ENDBRANCH   1   2
BRANCH   1  72
ATOM     72  C   UNL     1       4.391  -0.979   3.592  1.00  0.00     0.118 C 
BRANCH  72  73
ATOM     73  N   UNL     1       4.647  -2.413   3.615  1.00  0.00    -0.352 N 
ATOM     74  C   UNL     1       5.265  -3.180   4.574  1.00  0.00     0.254 C 
ATOM     75  H   UNL     1       4.330  -2.907   2.825  1.00  0.00     0.163 HD
ATOM     76  O   UNL     1       5.302  -4.403   4.450  1.00  0.00    -0.269 OA
BRANCH  74  77
ATOM     77  C   UNL     1       5.843  -2.546   5.764  1.00  0.00     0.081 A 
ATOM     78  C   UNL     1       4.903  -1.969   6.604  1.00  0.00     0.127 A 
ATOM     79  C   UNL     1       7.201  -2.531   6.133  1.00  0.00     0.058 A 
ATOM     80  N   UNL     1       5.197  -1.300   7.730  1.00  0.00    -0.255 NA
ATOM     81  C   UNL     1       7.512  -1.904   7.403  1.00  0.00     0.025 A 
ATOM     82  C   UNL     1       6.468  -1.269   8.135  1.00  0.00     0.085 A 
ATOM     83  C   UNL     1       8.807  -1.877   7.987  1.00  0.00     0.012 A 
ATOM     84  C   UNL     1       6.745  -0.590   9.320  1.00  0.00     0.082 A 
ATOM     85  C   UNL     1       9.066  -1.242   9.201  1.00  0.00     0.001 A 
ATOM     86  C   UNL     1       8.041  -0.584   9.857  1.00  0.00     0.015 A 
BRANCH  79  87
ATOM     87  N   UNL     1       8.258  -2.998   5.352  1.00  0.00    -0.380 N 
ATOM     88  H   UNL     1       9.153  -2.828   5.724  1.00  0.00     0.160 HD
BRANCH  87  89
ATOM     89  C   UNL     1       8.250  -3.696   4.076  1.00  0.00     0.150 C 
BRANCH  89  90
ATOM     90  C   UNL     1       9.253  -3.075   3.136  1.00  0.00    -0.011 A 
ATOM     91  C   UNL     1       9.273  -1.697   2.893  1.00  0.00     0.009 A 
ATOM     92  C   UNL     1      10.111  -3.866   2.380  1.00  0.00     0.116 A 
ATOM     93  C   UNL     1      10.133  -1.173   1.933  1.00  0.00     0.020 A 
ATOM     94  N   UNL     1      10.960  -3.384   1.443  1.00  0.00    -0.264 NA
ATOM     95  C   UNL     1      10.949  -2.049   1.239  1.00  0.00     0.111 A 
ENDBRANCH  89  90
ENDBRANCH  87  89
ENDBRANCH  79  87
BRANCH  84  96
ATOM     96  C   UNL     1       5.641   0.170  10.009  1.00  0.00     0.418 C 
ATOM     97  F   UNL     1       5.149   1.197   9.257  1.00  0.00    -0.166 F 
ATOM     98  F   UNL     1       4.575  -0.595  10.373  1.00  0.00    -0.166 F 
ATOM     99  F   UNL     1       6.060   0.762  11.170  1.00  0.00    -0.166 F 
ENDBRANCH  84  96
ENDBRANCH  74  77
ENDBRANCH  72  73
ENDBRANCH   1  72
TORSDOF 14
