REMARK SMILES CN1C(=O)C[C@@H](C(=O)NCCCNC(=O)c2ccc(-c3c4nc(c(-c5c(F)c(F)c(F)c(F)c5F)c5ccc([nH]5)c(-c5c(F)c(F)c(F)c(F)c5F)c5nc(c(-c6c(F)c(F)c(F)c(F)c6F)c6ccc3[nH]6)C=C5)C=C4)cc2)C12CCN(C(=O)c1cc3ccccc3[nH]1)CC2
REMARK SMILES IDX 11 1 10 2 9 3 7 4 8 5 6 7 1 8 2 9 3 10 79 11 4 12 5 13 80 14
REMARK SMILES IDX 95 15 81 16 94 17 82 18 83 19 84 20 85 21 86 22 93 23 87 24
REMARK SMILES IDX 92 25 88 27 91 28 89 29 90 30 12 31 13 32 14 33 15 35 16 36
REMARK SMILES IDX 17 37 78 38 18 39 77 40 19 41 20 42 21 43 71 44 22 45 76 46
REMARK SMILES IDX 70 47 72 48 23 49 75 50 69 51 68 52 24 54 56 55 36 56 55 57
REMARK SMILES IDX 37 58 40 59 54 60 73 61 38 62 39 63 53 65 74 66 41 67 25 68
REMARK SMILES IDX 26 69 34 70 27 71 28 72 32 73 35 74 29 75 30 76 33 77 31 78
REMARK SMILES IDX 57 79 58 80 66 81 59 82 60 83 64 84 67 85 61 86 62 87 65 88
REMARK SMILES IDX 63 89 42 90 43 91 51 92 44 93 45 94 49 95 52 96 46 97 47 98
REMARK SMILES IDX 50 99 48 100
REMARK H PARENT 9 6 93 26 13 34 72 53 40 64
REMARK Flexibility Score: inf
ROOT
ATOM      1  C   UNL     1       3.498   0.478  -2.865  1.00  0.00     0.042 C 
ENDROOT
BRANCH   1   2
ATOM      2  C   UNL     1       2.429   1.136  -3.737  1.00  0.00     0.117 C 
BRANCH   2   3
ATOM      3  N   UNL     1       1.728   0.205  -4.609  1.00  0.00    -0.356 N 
ATOM      4  C   UNL     1       0.519  -0.402  -4.578  1.00  0.00     0.226 C 
ATOM      5  O   UNL     1       0.273  -1.153  -5.531  1.00  0.00    -0.275 OA
ATOM      6  H   UNL     1       2.254  -0.038  -5.405  1.00  0.00     0.163 HD
BRANCH   4   7
ATOM      7  C   UNL     1      -0.510  -0.302  -3.455  1.00  0.00     0.113 C 
ATOM      8  C   UNL     1       0.905  -0.141   0.009  1.00  0.00     0.147 C 
ATOM      9  N   UNL     1       0.265   0.052  -1.282  1.00  0.00    -0.339 N 
ATOM     10  C   UNL     1      -0.203   1.289  -1.699  1.00  0.00     0.223 C 
ATOM     11  C   UNL     1      -0.194  -1.052  -2.138  1.00  0.00     0.058 C 
ATOM     12  O   UNL     1      -0.095   2.350  -1.106  1.00  0.00    -0.275 OA
ATOM     13  C   UNL     1      -0.864   1.124  -3.042  1.00  0.00     0.116 C 
ATOM     14  C   UNL     1       0.850  -2.184  -2.304  1.00  0.00     0.051 C 
ATOM     15  C   UNL     1      -1.516  -1.617  -1.516  1.00  0.00     0.051 C 
ATOM     16  C   UNL     1       0.258  -3.449  -2.931  1.00  0.00     0.122 C 
ATOM     17  C   UNL     1      -1.968  -2.949  -2.116  1.00  0.00     0.122 C 
ATOM     18  N   UNL     1      -0.882  -3.912  -2.163  1.00  0.00    -0.337 N 
ATOM     19  C   UNL     1      -0.557  -4.570  -0.975  1.00  0.00     0.270 C 
ATOM     20  O   UNL     1      -0.049  -3.977  -0.026  1.00  0.00    -0.267 OA
BRANCH  19  21
ATOM     21  C   UNL     1      -0.838  -5.980  -0.952  1.00  0.00     0.105 A 
ATOM     22  C   UNL     1      -0.291  -6.923  -0.101  1.00  0.00     0.042 A 
ATOM     23  N   UNL     1      -1.762  -6.639  -1.728  1.00  0.00    -0.351 N 
ATOM     24  C   UNL     1      -1.057  -8.109  -0.210  1.00  0.00     0.000 A 
ATOM     25  C   UNL     1      -2.007  -7.891  -1.207  1.00  0.00     0.046 A 
ATOM     26  H   UNL     1      -2.187  -6.270  -2.536  1.00  0.00     0.167 HD
ATOM     27  C   UNL     1      -1.070  -9.324   0.498  1.00  0.00     0.010 A 
ATOM     28  C   UNL     1      -3.000  -8.827  -1.514  1.00  0.00     0.026 A 
ATOM     29  C   UNL     1      -2.077 -10.255   0.228  1.00  0.00     0.001 A 
ATOM     30  C   UNL     1      -3.031 -10.004  -0.757  1.00  0.00     0.002 A 
ENDBRANCH  19  21
ENDBRANCH   4   7
ENDBRANCH   2   3
ENDBRANCH   1   2
BRANCH   1  31
ATOM     31  C   UNL     1       4.624  -0.204  -3.642  1.00  0.00     0.118 C 
BRANCH  31  32
ATOM     32  N   UNL     1       5.459   0.751  -4.353  1.00  0.00    -0.352 N 
ATOM     33  C   UNL     1       6.783   1.072  -4.191  1.00  0.00     0.251 C 
ATOM     34  H   UNL     1       4.999   1.249  -5.066  1.00  0.00     0.163 HD
ATOM     35  O   UNL     1       7.230   2.068  -4.754  1.00  0.00    -0.269 OA
BRANCH  33  36
ATOM     36  C   UNL     1       7.687   0.246  -3.357  1.00  0.00     0.039 A 
ATOM     37  C   UNL     1       8.637   0.897  -2.562  1.00  0.00     0.014 A 
ATOM     38  C   UNL     1       7.679  -1.150  -3.421  1.00  0.00     0.014 A 
ATOM     39  C   UNL     1       9.552   0.155  -1.810  1.00  0.00     0.010 A 
ATOM     40  C   UNL     1       8.561  -1.893  -2.632  1.00  0.00     0.010 A 
ATOM     41  C   UNL     1       9.513  -1.248  -1.829  1.00  0.00    -0.014 A 
BRANCH  41  42
ATOM     42  C   UNL     1      10.482  -2.044  -1.032  1.00  0.00     0.031 A 
ATOM     43  C   UNL     1      11.553  -2.847  -1.716  1.00  0.00     0.074 A 
ATOM     44  C   UNL     1      10.380  -2.071   0.311  1.00  0.00     0.049 A 
ATOM     45  N   UNL     1      12.459  -3.635  -1.193  1.00  0.00    -0.248 NA
ATOM     46  C   UNL     1      11.601  -2.770  -3.184  1.00  0.00     0.031 C 
ATOM     47  C   UNL     1       9.366  -1.366   1.095  1.00  0.00     0.029 A 
ATOM     48  N   UNL     1      11.138  -2.721   1.252  1.00  0.00    -0.354 N 
ATOM     49  C   UNL     1      13.169  -4.161  -2.264  1.00  0.00     0.074 A 
ATOM     50  C   UNL     1      12.571  -3.627  -3.470  1.00  0.00     0.031 C 
ATOM     51  C   UNL     1       9.576  -1.607   2.400  1.00  0.00     0.029 A 
ATOM     52  C   UNL     1      10.723  -2.499   2.542  1.00  0.00     0.049 A 
ATOM     53  H   UNL     1      11.907  -3.292   1.024  1.00  0.00     0.167 HD
ATOM     54  C   UNL     1      14.232  -5.001  -2.245  1.00  0.00     0.037 A 
ATOM     55  C   UNL     1      11.214  -2.962   3.707  1.00  0.00     0.037 A 
ATOM     56  C   UNL     1      14.855  -5.505  -1.050  1.00  0.00     0.049 A 
ATOM     57  C   UNL     1      12.418  -3.861   3.701  1.00  0.00     0.074 A 
ATOM     58  C   UNL     1      15.964  -6.325  -0.933  1.00  0.00     0.029 A 
ATOM     59  N   UNL     1      14.426  -5.228   0.238  1.00  0.00    -0.354 N 
ATOM     60  N   UNL     1      13.103  -4.319   2.682  1.00  0.00    -0.248 NA
ATOM     61  C   UNL     1      12.922  -4.301   5.010  1.00  0.00     0.031 C 
ATOM     62  C   UNL     1      16.196  -6.560   0.427  1.00  0.00     0.029 A 
ATOM     63  C   UNL     1      15.246  -5.864   1.157  1.00  0.00     0.049 A 
ATOM     64  H   UNL     1      13.653  -4.663   0.468  1.00  0.00     0.167 HD
ATOM     65  C   UNL     1      14.125  -5.084   3.224  1.00  0.00     0.074 A 
ATOM     66  C   UNL     1      13.982  -5.019   4.663  1.00  0.00     0.031 C 
ATOM     67  C   UNL     1      15.094  -5.782   2.585  1.00  0.00     0.037 A 
BRANCH  54  68
ATOM     68  C   UNL     1      14.800  -5.425  -3.566  1.00  0.00     0.064 A 
ATOM     69  C   UNL     1      15.582  -4.555  -4.337  1.00  0.00     0.173 A 
ATOM     70  C   UNL     1      14.596  -6.728  -4.043  1.00  0.00     0.173 A 
ATOM     71  F   UNL     1      15.794  -3.295  -3.927  1.00  0.00    -0.203 F 
ATOM     72  C   UNL     1      16.125  -4.968  -5.551  1.00  0.00     0.198 A 
ATOM     73  C   UNL     1      15.158  -7.144  -5.247  1.00  0.00     0.198 A 
ATOM     74  F   UNL     1      13.858  -7.599  -3.338  1.00  0.00    -0.203 F 
ATOM     75  F   UNL     1      16.842  -4.109  -6.289  1.00  0.00    -0.200 F 
ATOM     76  C   UNL     1      15.918  -6.263  -6.001  1.00  0.00     0.200 A 
ATOM     77  F   UNL     1      14.964  -8.398  -5.678  1.00  0.00    -0.200 F 
ATOM     78  F   UNL     1      16.447  -6.661  -7.167  1.00  0.00    -0.200 F 
ENDBRANCH  54  68
BRANCH  55  79
ATOM     79  C   UNL     1      10.585  -2.552   4.986  1.00  0.00     0.064 A 
ATOM     80  C   UNL     1      11.213  -1.625   5.828  1.00  0.00     0.173 A 
ATOM     81  C   UNL     1       9.351  -3.080   5.392  1.00  0.00     0.173 A 
ATOM     82  F   UNL     1      12.405  -1.113   5.488  1.00  0.00    -0.203 F 
ATOM     83  C   UNL     1      10.637  -1.250   7.039  1.00  0.00     0.198 A 
ATOM     84  C   UNL     1       8.767  -2.689   6.595  1.00  0.00     0.198 A 
ATOM     85  F   UNL     1       8.714  -3.969   4.618  1.00  0.00    -0.203 F 
ATOM     86  F   UNL     1      11.274  -0.390   7.844  1.00  0.00    -0.200 F 
ATOM     87  C   UNL     1       9.412  -1.779   7.420  1.00  0.00     0.200 A 
ATOM     88  F   UNL     1       7.581  -3.197   6.957  1.00  0.00    -0.200 F 
ATOM     89  F   UNL     1       8.858  -1.419   8.585  1.00  0.00    -0.200 F 
ENDBRANCH  55  79
BRANCH  67  90
ATOM     90  C   UNL     1      16.087  -6.510   3.439  1.00  0.00     0.064 A 
ATOM     91  C   UNL     1      15.756  -7.714   4.075  1.00  0.00     0.173 A 
ATOM     92  C   UNL     1      17.388  -6.011   3.599  1.00  0.00     0.173 A 
ATOM     93  F   UNL     1      14.518  -8.219   3.962  1.00  0.00    -0.203 F 
ATOM     94  C   UNL     1      16.689  -8.386   4.860  1.00  0.00     0.198 A 
ATOM     95  C   UNL     1      18.324  -6.696   4.370  1.00  0.00     0.198 A 
ATOM     96  F   UNL     1      17.750  -4.864   3.008  1.00  0.00    -0.203 F 
ATOM     97  F   UNL     1      16.343  -9.517   5.489  1.00  0.00    -0.200 F 
ATOM     98  C   UNL     1      17.973  -7.879   5.003  1.00  0.00     0.200 A 
ATOM     99  F   UNL     1      19.564  -6.207   4.504  1.00  0.00    -0.200 F 
ATOM    100  F   UNL     1      18.869  -8.527   5.759  1.00  0.00    -0.200 F 
ENDBRANCH  67  90
ENDBRANCH  41  42
ENDBRANCH  33  36
ENDBRANCH  31  32
ENDBRANCH   1  31
TORSDOF 11
