REMARK SMILES CC[C@@](C)(NC(=O)c1cccc2ccccc12)C(=O)NCCCNC(=O)c1ccc(-c2c3nc(c(-c4c(F)c(F)c(F)c(F)c4F)c4ccc([nH]4)c(-c4c(F)c(F)c(F)c(F)c4F)c4nc(c(-c5c(F)c(F)c(F)c(F)c5F)c5ccc2[nH]5)C=C4)C=C3)cc1
REMARK SMILES IDX 22 1 21 2 20 3 18 4 19 5 3 7 4 8 2 9 1 10 5 11 6 12 7 14
REMARK SMILES IDX 8 15 9 16 17 17 10 18 12 19 16 20 11 21 13 22 15 23 14 24
REMARK SMILES IDX 23 25 24 26 25 27 26 29 27 30 28 31 89 32 29 33 88 34 30 35
REMARK SMILES IDX 31 36 32 37 82 38 33 39 87 40 81 41 83 42 34 43 86 44 80 45
REMARK SMILES IDX 79 46 35 48 67 49 47 50 66 51 48 52 51 53 65 54 84 55 49 56
REMARK SMILES IDX 50 57 64 59 85 60 52 61 36 62 37 63 45 64 38 65 39 66 43 67
REMARK SMILES IDX 46 68 40 69 41 70 44 71 42 72 68 73 69 74 77 75 70 76 71 77
REMARK SMILES IDX 75 78 78 79 72 80 73 81 76 82 74 83 53 84 54 85 62 86 55 87
REMARK SMILES IDX 56 88 60 89 63 90 57 91 58 92 61 93 59 94
REMARK H PARENT 20 6 5 13 24 28 83 47 51 58
REMARK Flexibility Score: inf
ROOT
ATOM      1  C   UNL     1       2.395   5.089   3.453  1.00  0.00     0.042 C 
ENDROOT
BRANCH   1   2
ATOM      2  C   UNL     1       1.969   4.999   1.986  1.00  0.00     0.117 C 
BRANCH   2   3
ATOM      3  N   UNL     1       2.498   3.919   1.167  1.00  0.00    -0.354 N 
ATOM      4  C   UNL     1       2.107   2.631   0.906  1.00  0.00     0.245 C 
ATOM      5  O   UNL     1       2.689   2.098  -0.046  1.00  0.00    -0.272 OA
ATOM      6  H   UNL     1       3.324   4.169   0.694  1.00  0.00     0.163 HD
BRANCH   4   7
ATOM      7  C   UNL     1       0.977   1.889   1.692  1.00  0.00     0.116 C 
ATOM      8  C   UNL     1      -0.337   2.503   1.135  1.00  0.00     0.045 C 
BRANCH   7   9
ATOM      9  C   UNL     1       0.913   0.350   1.440  1.00  0.00     0.035 C 
ATOM     10  C   UNL     1       0.886  -0.144  -0.003  1.00  0.00     0.007 C 
ENDBRANCH   7   9
BRANCH   7  11
ATOM     11  N   UNL     1       0.988   2.081   3.179  1.00  0.00    -0.338 N 
ATOM     12  C   UNL     1       1.759   1.641   4.247  1.00  0.00     0.252 C 
ATOM     13  H   UNL     1       0.259   2.674   3.475  1.00  0.00     0.164 HD
ATOM     14  O   UNL     1       1.168   1.674   5.330  1.00  0.00    -0.269 OA
BRANCH  12  15
ATOM     15  C   UNL     1       3.225   1.257   4.213  1.00  0.00     0.047 A 
ATOM     16  C   UNL     1       4.016   1.717   3.163  1.00  0.00     0.014 A 
ATOM     17  C   UNL     1       3.908   0.620   5.304  1.00  0.00    -0.006 A 
ATOM     18  C   UNL     1       5.392   1.554   3.086  1.00  0.00     0.001 A 
ATOM     19  C   UNL     1       5.333   0.486   5.230  1.00  0.00    -0.018 A 
ATOM     20  C   UNL     1       3.311   0.122   6.491  1.00  0.00     0.009 A 
ATOM     21  C   UNL     1       6.049   0.934   4.121  1.00  0.00     0.009 A 
ATOM     22  C   UNL     1       6.073  -0.070   6.280  1.00  0.00     0.009 A 
ATOM     23  C   UNL     1       4.066  -0.424   7.539  1.00  0.00     0.001 A 
ATOM     24  C   UNL     1       5.446  -0.513   7.436  1.00  0.00     0.001 A 
ENDBRANCH  12  15
ENDBRANCH   7  11
ENDBRANCH   4   7
ENDBRANCH   2   3
ENDBRANCH   1   2
BRANCH   1  25
ATOM     25  C   UNL     1       3.882   5.183   3.790  1.00  0.00     0.118 C 
BRANCH  25  26
ATOM     26  N   UNL     1       4.574   6.299   3.179  1.00  0.00    -0.352 N 
ATOM     27  C   UNL     1       5.393   7.251   3.736  1.00  0.00     0.251 C 
ATOM     28  H   UNL     1       4.435   6.390   2.209  1.00  0.00     0.163 HD
ATOM     29  O   UNL     1       5.861   8.129   3.016  1.00  0.00    -0.269 OA
BRANCH  27  30
ATOM     30  C   UNL     1       5.695   7.273   5.188  1.00  0.00     0.039 A 
ATOM     31  C   UNL     1       5.614   8.505   5.847  1.00  0.00     0.014 A 
ATOM     32  C   UNL     1       6.117   6.141   5.893  1.00  0.00     0.014 A 
ATOM     33  C   UNL     1       5.907   8.596   7.211  1.00  0.00     0.010 A 
ATOM     34  C   UNL     1       6.363   6.224   7.271  1.00  0.00     0.010 A 
ATOM     35  C   UNL     1       6.261   7.453   7.945  1.00  0.00    -0.014 A 
BRANCH  35  36
ATOM     36  C   UNL     1       6.508   7.550   9.412  1.00  0.00     0.031 A 
ATOM     37  C   UNL     1       7.883   7.334   9.982  1.00  0.00     0.074 A 
ATOM     38  C   UNL     1       5.483   7.828  10.242  1.00  0.00     0.049 A 
ATOM     39  N   UNL     1       8.282   7.390  11.230  1.00  0.00    -0.248 NA
ATOM     40  C   UNL     1       8.950   6.998   9.028  1.00  0.00     0.031 C 
ATOM     41  C   UNL     1       4.095   8.031   9.826  1.00  0.00     0.029 A 
ATOM     42  N   UNL     1       5.447   7.986  11.606  1.00  0.00    -0.354 N 
ATOM     43  C   UNL     1       9.639   7.095  11.211  1.00  0.00     0.074 A 
ATOM     44  C   UNL     1       9.986   6.813   9.834  1.00  0.00     0.031 C 
ATOM     45  C   UNL     1       3.348   8.308  10.906  1.00  0.00     0.029 A 
ATOM     46  C   UNL     1       4.194   8.266  12.096  1.00  0.00     0.049 A 
ATOM     47  H   UNL     1       6.244   7.906  12.179  1.00  0.00     0.167 HD
ATOM     48  C   UNL     1      10.520   7.079  12.242  1.00  0.00     0.037 A 
ATOM     49  C   UNL     1       3.770   8.461  13.360  1.00  0.00     0.037 A 
ATOM     50  C   UNL     1      10.178   7.365  13.613  1.00  0.00     0.049 A 
ATOM     51  C   UNL     1       4.763   8.408  14.491  1.00  0.00     0.074 A 
ATOM     52  C   UNL     1      11.011   7.420  14.718  1.00  0.00     0.029 A 
ATOM     53  N   UNL     1       8.896   7.636  14.071  1.00  0.00    -0.354 N 
ATOM     54  N   UNL     1       6.056   8.197  14.450  1.00  0.00    -0.248 NA
ATOM     55  C   UNL     1       4.236   8.629  15.845  1.00  0.00     0.031 C 
ATOM     56  C   UNL     1      10.227   7.667  15.850  1.00  0.00     0.029 A 
ATOM     57  C   UNL     1       8.913   7.830  15.444  1.00  0.00     0.049 A 
ATOM     58  H   UNL     1       8.093   7.684  13.504  1.00  0.00     0.167 HD
ATOM     59  C   UNL     1       6.501   8.291  15.762  1.00  0.00     0.074 A 
ATOM     60  C   UNL     1       5.342   8.595  16.575  1.00  0.00     0.031 C 
ATOM     61  C   UNL     1       7.757   8.139  16.248  1.00  0.00     0.037 A 
BRANCH  48  62
ATOM     62  C   UNL     1      11.949   6.732  11.933  1.00  0.00     0.064 A 
ATOM     63  C   UNL     1      12.778   7.601  11.206  1.00  0.00     0.173 A 
ATOM     64  C   UNL     1      12.513   5.538  12.410  1.00  0.00     0.173 A 
ATOM     65  F   UNL     1      12.289   8.752  10.722  1.00  0.00    -0.203 F 
ATOM     66  C   UNL     1      14.106   7.274  10.943  1.00  0.00     0.198 A 
ATOM     67  C   UNL     1      13.850   5.229  12.173  1.00  0.00     0.198 A 
ATOM     68  F   UNL     1      11.770   4.675  13.120  1.00  0.00    -0.203 F 
ATOM     69  F   UNL     1      14.863   8.097  10.205  1.00  0.00    -0.200 F 
ATOM     70  C   UNL     1      14.643   6.093  11.432  1.00  0.00     0.200 A 
ATOM     71  F   UNL     1      14.372   4.095  12.661  1.00  0.00    -0.200 F 
ATOM     72  F   UNL     1      15.923   5.783  11.185  1.00  0.00    -0.200 F 
ENDBRANCH  48  62
BRANCH  49  73
ATOM     73  C   UNL     1       2.334   8.740  13.627  1.00  0.00     0.064 A 
ATOM     74  C   UNL     1       1.916   9.994  14.096  1.00  0.00     0.173 A 
ATOM     75  C   UNL     1       1.352   7.757  13.435  1.00  0.00     0.173 A 
ATOM     76  F   UNL     1       2.819  10.960  14.320  1.00  0.00    -0.203 F 
ATOM     77  C   UNL     1       0.576  10.246  14.384  1.00  0.00     0.198 A 
ATOM     78  C   UNL     1       0.008   8.020  13.692  1.00  0.00     0.198 A 
ATOM     79  F   UNL     1       1.698   6.541  12.987  1.00  0.00    -0.203 F 
ATOM     80  F   UNL     1       0.212  11.436  14.881  1.00  0.00    -0.200 F 
ATOM     81  C   UNL     1      -0.378   9.261  14.176  1.00  0.00     0.200 A 
ATOM     82  F   UNL     1      -0.912   7.070  13.476  1.00  0.00    -0.200 F 
ATOM     83  F   UNL     1      -1.666   9.505  14.449  1.00  0.00    -0.200 F 
ENDBRANCH  49  73
BRANCH  61  84
ATOM     84  C   UNL     1       7.957   8.338  17.724  1.00  0.00     0.064 A 
ATOM     85  C   UNL     1       7.465   7.423  18.668  1.00  0.00     0.173 A 
ATOM     86  C   UNL     1       8.676   9.445  18.200  1.00  0.00     0.173 A 
ATOM     87  F   UNL     1       6.758   6.355  18.269  1.00  0.00    -0.203 F 
ATOM     88  C   UNL     1       7.660   7.626  20.032  1.00  0.00     0.198 A 
ATOM     89  C   UNL     1       8.898   9.627  19.562  1.00  0.00     0.198 A 
ATOM     90  F   UNL     1       9.175  10.348  17.341  1.00  0.00    -0.203 F 
ATOM     91  F   UNL     1       7.134   6.768  20.917  1.00  0.00    -0.200 F 
ATOM     92  C   UNL     1       8.382   8.723  20.478  1.00  0.00     0.200 A 
ATOM     93  F   UNL     1       9.610  10.679  19.989  1.00  0.00    -0.200 F 
ATOM     94  F   UNL     1       8.574   8.913  21.790  1.00  0.00    -0.200 F 
ENDBRANCH  61  84
ENDBRANCH  35  36
ENDBRANCH  27  30
ENDBRANCH  25  26
ENDBRANCH   1  25
TORSDOF 13
