REMARK SMILES C[NH2+][C@]1(C(=O)NCCCNC(=O)c2ccc(-c3c4nc(c(-c5c(F)c(F)c(F)c(F)c5F)c5ccc([nH]5)c(-c5c(F)c(F)c(F)c(F)c5F)c5nc(c(-c6c(F)c(F)c(F)c(F)c6F)c6ccc3[nH]6)C=C5)C=C4)cc2)CCC[C@@H]1CC[N@H+]1CCC[C@H]([NH+](C)C)C1
REMARK SMILES IDX 7 1 6 2 4 3 5 4 3 6 76 7 79 8 77 9 78 10 2 11 1 12 80 15
REMARK SMILES IDX 81 16 82 17 83 18 90 19 84 21 86 22 85 23 87 24 88 25 89 26
REMARK SMILES IDX 8 28 9 29 10 30 11 31 12 33 13 34 14 35 75 36 15 37 74 38
REMARK SMILES IDX 16 39 17 40 18 41 68 42 19 43 73 44 67 45 69 46 20 47 72 48
REMARK SMILES IDX 66 49 65 50 21 52 53 53 33 54 52 55 34 56 37 57 51 58 70 59
REMARK SMILES IDX 35 60 36 61 50 63 71 64 38 65 22 66 23 67 31 68 24 69 25 70
REMARK SMILES IDX 29 71 32 72 26 73 27 74 30 75 28 76 54 77 55 78 63 79 56 80
REMARK SMILES IDX 57 81 61 82 64 83 58 84 59 85 62 86 60 87 39 88 40 89 48 90
REMARK SMILES IDX 41 91 42 92 46 93 49 94 43 95 44 96 47 97 45 98
REMARK H PARENT 6 5 2 13 2 14 82 20 87 27 10 32 69 51 37 62
REMARK Flexibility Score: inf
ROOT
ATOM      1  C   UNL     1       0.832   2.173  -2.078  1.00  0.00     0.118 C 
ENDROOT
BRANCH   1   2
ATOM      2  N   UNL     1       1.132   1.954  -0.674  1.00  0.00    -0.351 N 
ATOM      3  C   UNL     1       0.352   1.793   0.427  1.00  0.00     0.281 C 
ATOM      4  O   UNL     1       0.974   1.639   1.489  1.00  0.00    -0.268 OA
ATOM      5  H   UNL     1       2.097   1.915  -0.481  1.00  0.00     0.163 HD
BRANCH   3   6
ATOM      6  C   UNL     1      -1.212   1.690   0.399  1.00  0.00     0.178 C 
ATOM      7  C   UNL     1      -1.954   2.773  -0.399  1.00  0.00     0.079 C 
ATOM      8  C   UNL     1      -1.645   0.385  -0.347  1.00  0.00     0.066 C 
ATOM      9  C   UNL     1      -3.321   2.166  -0.679  1.00  0.00     0.008 C 
ATOM     10  C   UNL     1      -3.080   0.663  -0.840  1.00  0.00     0.011 C 
BRANCH   6  11
ATOM     11  N   UNL     1      -1.717   1.616   1.812  1.00  0.00    -0.336 N 
ATOM     12  C   UNL     1      -1.700   2.882   2.537  1.00  0.00     0.331 C 
ATOM     13  H   UNL     1      -2.679   1.278   1.788  1.00  0.00     0.346 HD
ATOM     14  H   UNL     1      -1.081   0.993   2.311  1.00  0.00     0.346 HD
ENDBRANCH   6  11
BRANCH   8  15
ATOM     15  C   UNL     1      -1.528  -0.910   0.487  1.00  0.00     0.072 C 
BRANCH  15  16
ATOM     16  C   UNL     1      -1.256  -2.191  -0.319  1.00  0.00     0.262 C 
BRANCH  16  17
ATOM     17  N   UNL     1      -0.019  -2.223  -1.122  1.00  0.00    -0.330 N 
ATOM     18  C   UNL     1       1.176  -1.745  -0.419  1.00  0.00     0.262 C 
ATOM     19  C   UNL     1       0.229  -3.608  -1.585  1.00  0.00     0.327 C 
ATOM     20  H   UNL     1      -0.176  -1.582  -1.899  1.00  0.00     0.348 HD
ATOM     21  C   UNL     1       2.356  -1.653  -1.384  1.00  0.00     0.068 C 
ATOM     22  C   UNL     1       1.423  -3.745  -2.574  1.00  0.00     0.239 C 
ATOM     23  C   UNL     1       2.664  -2.992  -2.045  1.00  0.00     0.077 C 
BRANCH  22  24
ATOM     24  N   UNL     1       1.141  -3.478  -4.008  1.00  0.00    -0.333 N 
ATOM     25  C   UNL     1       0.213  -4.465  -4.567  1.00  0.00     0.332 C 
ATOM     26  C   UNL     1       0.658  -2.131  -4.297  1.00  0.00     0.332 C 
ATOM     27  H   UNL     1       2.051  -3.560  -4.460  1.00  0.00     0.348 HD
ENDBRANCH  22  24
ENDBRANCH  16  17
ENDBRANCH  15  16
ENDBRANCH   8  15
ENDBRANCH   3   6
ENDBRANCH   1   2
BRANCH   1  28
ATOM     28  C   UNL     1       0.965   3.649  -2.440  1.00  0.00     0.042 C 
BRANCH  28  29
ATOM     29  C   UNL     1       2.414   4.121  -2.498  1.00  0.00     0.118 C 
BRANCH  29  30
ATOM     30  N   UNL     1       3.111   3.600  -3.665  1.00  0.00    -0.352 N 
ATOM     31  C   UNL     1       3.751   4.271  -4.676  1.00  0.00     0.251 C 
ATOM     32  H   UNL     1       3.126   2.618  -3.739  1.00  0.00     0.163 HD
ATOM     33  O   UNL     1       4.093   3.666  -5.687  1.00  0.00    -0.269 OA
BRANCH  31  34
ATOM     34  C   UNL     1       4.021   5.721  -4.564  1.00  0.00     0.039 A 
ATOM     35  C   UNL     1       3.839   6.527  -5.692  1.00  0.00     0.014 A 
ATOM     36  C   UNL     1       4.492   6.282  -3.373  1.00  0.00     0.014 A 
ATOM     37  C   UNL     1       4.080   7.900  -5.611  1.00  0.00     0.010 A 
ATOM     38  C   UNL     1       4.666   7.660  -3.274  1.00  0.00     0.010 A 
ATOM     39  C   UNL     1       4.469   8.482  -4.394  1.00  0.00    -0.014 A 
BRANCH  39  40
ATOM     40  C   UNL     1       4.681   9.947  -4.277  1.00  0.00     0.031 A 
ATOM     41  C   UNL     1       6.051  10.492  -3.982  1.00  0.00     0.074 A 
ATOM     42  C   UNL     1       3.628  10.780  -4.376  1.00  0.00     0.049 A 
ATOM     43  N   UNL     1       6.423  11.731  -3.777  1.00  0.00    -0.248 NA
ATOM     44  C   UNL     1       7.143   9.513  -3.879  1.00  0.00     0.031 C 
ATOM     45  C   UNL     1       2.245  10.368  -4.618  1.00  0.00     0.029 A 
ATOM     46  N   UNL     1       3.556  12.147  -4.274  1.00  0.00    -0.354 N 
ATOM     47  C   UNL     1       7.784  11.677  -3.507  1.00  0.00     0.074 A 
ATOM     48  C   UNL     1       8.163  10.280  -3.525  1.00  0.00     0.031 C 
ATOM     49  C   UNL     1       1.464  11.459  -4.664  1.00  0.00     0.029 A 
ATOM     50  C   UNL     1       2.283  12.642  -4.419  1.00  0.00     0.049 A 
ATOM     51  H   UNL     1       4.341  12.718  -4.113  1.00  0.00     0.167 HD
ATOM     52  C   UNL     1       8.643  12.701  -3.285  1.00  0.00     0.037 A 
ATOM     53  C   UNL     1       1.827  13.907  -4.353  1.00  0.00     0.037 A 
ATOM     54  C   UNL     1       8.265  14.090  -3.293  1.00  0.00     0.049 A 
ATOM     55  C   UNL     1       2.801  15.026  -4.100  1.00  0.00     0.074 A 
ATOM     56  C   UNL     1       9.071  15.205  -3.143  1.00  0.00     0.029 A 
ATOM     57  N   UNL     1       6.968  14.554  -3.458  1.00  0.00    -0.354 N 
ATOM     58  N   UNL     1       4.097  14.969  -3.913  1.00  0.00    -0.248 NA
ATOM     59  C   UNL     1       2.248  16.387  -4.054  1.00  0.00     0.031 C 
ATOM     60  C   UNL     1       8.256  16.341  -3.170  1.00  0.00     0.029 A 
ATOM     61  C   UNL     1       6.948  15.938  -3.389  1.00  0.00     0.049 A 
ATOM     62  H   UNL     1       6.178  13.985  -3.603  1.00  0.00     0.167 HD
ATOM     63  C   UNL     1       4.519  16.282  -3.754  1.00  0.00     0.074 A 
ATOM     64  C   UNL     1       3.341  17.116  -3.882  1.00  0.00     0.031 C 
ATOM     65  C   UNL     1       5.768  16.754  -3.522  1.00  0.00     0.037 A 
BRANCH  52  66
ATOM     66  C   UNL     1      10.079  12.356  -3.015  1.00  0.00     0.064 A 
ATOM     67  C   UNL     1      10.914  11.842  -4.019  1.00  0.00     0.173 A 
ATOM     68  C   UNL     1      10.638  12.574  -1.747  1.00  0.00     0.173 A 
ATOM     69  F   UNL     1      10.427  11.605  -5.247  1.00  0.00    -0.203 F 
ATOM     70  C   UNL     1      12.245  11.530  -3.755  1.00  0.00     0.198 A 
ATOM     71  C   UNL     1      11.978  12.290  -1.494  1.00  0.00     0.198 A 
ATOM     72  F   UNL     1       9.886  13.070  -0.753  1.00  0.00    -0.203 F 
ATOM     73  F   UNL     1      13.009  10.992  -4.716  1.00  0.00    -0.200 F 
ATOM     74  C   UNL     1      12.778  11.760  -2.495  1.00  0.00     0.200 A 
ATOM     75  F   UNL     1      12.494  12.526  -0.280  1.00  0.00    -0.200 F 
ATOM     76  F   UNL     1      14.061  11.465  -2.244  1.00  0.00    -0.200 F 
ENDBRANCH  52  66
BRANCH  53  77
ATOM     77  C   UNL     1       0.382  14.185  -4.553  1.00  0.00     0.064 A 
ATOM     78  C   UNL     1      -0.070  14.842  -5.706  1.00  0.00     0.173 A 
ATOM     79  C   UNL     1      -0.575  13.800  -3.604  1.00  0.00     0.173 A 
ATOM     80  F   UNL     1       0.809  15.248  -6.633  1.00  0.00    -0.203 F 
ATOM     81  C   UNL     1      -1.423  15.120  -5.893  1.00  0.00     0.198 A 
ATOM     82  C   UNL     1      -1.931  14.053  -3.805  1.00  0.00     0.198 A 
ATOM     83  F   UNL     1      -0.195  13.163  -2.486  1.00  0.00    -0.203 F 
ATOM     84  F   UNL     1      -1.823  15.787  -6.984  1.00  0.00    -0.200 F 
ATOM     85  C   UNL     1      -2.353  14.720  -4.945  1.00  0.00     0.200 A 
ATOM     86  F   UNL     1      -2.827  13.651  -2.893  1.00  0.00    -0.200 F 
ATOM     87  F   UNL     1      -3.654  14.982  -5.128  1.00  0.00    -0.200 F 
ENDBRANCH  53  77
BRANCH  65  88
ATOM     88  C   UNL     1       5.932  18.242  -3.422  1.00  0.00     0.064 A 
ATOM     89  C   UNL     1       5.468  18.961  -2.310  1.00  0.00     0.173 A 
ATOM     90  C   UNL     1       6.594  18.953  -4.435  1.00  0.00     0.173 A 
ATOM     91  F   UNL     1       4.815  18.329  -1.323  1.00  0.00    -0.203 F 
ATOM     92  C   UNL     1       5.641  20.340  -2.228  1.00  0.00     0.198 A 
ATOM     93  C   UNL     1       6.790  20.328  -4.335  1.00  0.00     0.198 A 
ATOM     94  F   UNL     1       7.061  18.312  -5.517  1.00  0.00    -0.203 F 
ATOM     95  F   UNL     1       5.148  21.012  -1.178  1.00  0.00    -0.200 F 
ATOM     96  C   UNL     1       6.308  21.020  -3.235  1.00  0.00     0.200 A 
ATOM     97  F   UNL     1       7.447  20.982  -5.303  1.00  0.00    -0.200 F 
ATOM     98  F   UNL     1       6.478  22.347  -3.150  1.00  0.00    -0.200 F 
ENDBRANCH  65  88
ENDBRANCH  39  40
ENDBRANCH  31  34
ENDBRANCH  29  30
ENDBRANCH  28  29
ENDBRANCH   1  28
TORSDOF 15
