REMARK SMILES Cc1[nH]c2ccccc2c1[C@H]([NH3+])CC(=O)NCCCNC(=O)c1ccc(-c2c3nc(c(-c4c(F)c(F)c(F)c(F)c4F)c4ccc([nH]4)c(-c4c(F)c(F)c(F)c(F)c4F)c4nc(c(-c5c(F)c(F)c(F)c(F)c5F)c5ccc2[nH]5)C=C4)C=C3)cc1
REMARK SMILES IDX 18 1 17 2 16 3 14 4 15 5 13 7 11 8 10 9 1 10 2 11 3 12 4 13
REMARK SMILES IDX 9 15 5 16 8 17 6 18 7 19 12 20 19 24 20 25 21 26 22 28 23 29
REMARK SMILES IDX 24 30 85 31 25 32 84 33 26 34 27 35 28 36 78 37 29 38 83 39
REMARK SMILES IDX 77 40 79 41 30 42 82 43 76 44 75 45 31 47 63 48 43 49 62 50
REMARK SMILES IDX 44 51 47 52 61 53 80 54 45 55 46 56 60 58 81 59 48 60 32 61
REMARK SMILES IDX 33 62 41 63 34 64 35 65 39 66 42 67 36 68 37 69 40 70 38 71
REMARK SMILES IDX 64 72 65 73 73 74 66 75 67 76 71 77 74 78 68 79 69 80 72 81
REMARK SMILES IDX 70 82 49 83 50 84 58 85 51 86 52 87 56 88 59 89 53 90 54 91
REMARK SMILES IDX 57 92 55 93
REMARK H PARENT 16 6 3 14 12 21 12 22 12 23 20 27 79 46 47 57
REMARK Flexibility Score: inf
ROOT
ATOM      1  C   UNL     1      -0.908   0.911   1.638  1.00  0.00     0.042 C 
ENDROOT
BRANCH   1   2
ATOM      2  C   UNL     1      -0.197  -0.284   2.263  1.00  0.00     0.117 C 
BRANCH   2   3
ATOM      3  N   UNL     1      -1.131  -1.242   2.830  1.00  0.00    -0.356 N 
ATOM      4  C   UNL     1      -1.576  -2.429   2.329  1.00  0.00     0.226 C 
ATOM      5  O   UNL     1      -2.442  -3.042   2.957  1.00  0.00    -0.275 OA
ATOM      6  H   UNL     1      -1.497  -0.996   3.711  1.00  0.00     0.163 HD
BRANCH   4   7
ATOM      7  C   UNL     1      -0.984  -2.990   1.058  1.00  0.00     0.170 C 
BRANCH   7   8
ATOM      8  C   UNL     1      -1.946  -2.892  -0.128  1.00  0.00     0.223 C 
BRANCH   8   9
ATOM      9  C   UNL     1      -1.365  -3.598  -1.339  1.00  0.00     0.038 A 
ATOM     10  C   UNL     1      -0.006  -1.796  -2.745  1.00  0.00     0.065 C 
ATOM     11  C   UNL     1      -0.576  -3.125  -2.389  1.00  0.00     0.022 A 
ATOM     12  N   UNL     1      -0.327  -4.187  -3.228  1.00  0.00    -0.358 N 
ATOM     13  C   UNL     1      -0.862  -5.346  -2.732  1.00  0.00     0.046 A 
ATOM     14  H   UNL     1       0.172  -4.123  -4.074  1.00  0.00     0.166 HD
ATOM     15  C   UNL     1      -1.518  -5.016  -1.552  1.00  0.00     0.009 A 
ATOM     16  C   UNL     1      -0.808  -6.651  -3.236  1.00  0.00     0.027 A 
ATOM     17  C   UNL     1      -2.148  -6.051  -0.826  1.00  0.00     0.011 A 
ATOM     18  C   UNL     1      -1.438  -7.656  -2.498  1.00  0.00     0.002 A 
ATOM     19  C   UNL     1      -2.098  -7.363  -1.308  1.00  0.00     0.001 A 
ENDBRANCH   8   9
BRANCH   8  20
ATOM     20  N   UNL     1      -2.307  -1.520  -0.490  1.00  0.00    -0.351 N 
ATOM     21  H   UNL     1      -1.474  -1.020  -0.801  1.00  0.00     0.345 HD
ATOM     22  H   UNL     1      -2.703  -1.047   0.323  1.00  0.00     0.345 HD
ATOM     23  H   UNL     1      -2.994  -1.536  -1.243  1.00  0.00     0.345 HD
ENDBRANCH   8  20
ENDBRANCH   7   8
ENDBRANCH   4   7
ENDBRANCH   2   3
ENDBRANCH   1   2
BRANCH   1  24
ATOM     24  C   UNL     1      -1.581   1.822   2.657  1.00  0.00     0.118 C 
BRANCH  24  25
ATOM     25  N   UNL     1      -0.618   2.631   3.390  1.00  0.00    -0.352 N 
ATOM     26  C   UNL     1      -0.342   3.975   3.314  1.00  0.00     0.251 C 
ATOM     27  H   UNL     1      -0.078   2.136   4.047  1.00  0.00     0.163 HD
ATOM     28  O   UNL     1       0.664   4.415   3.863  1.00  0.00    -0.269 OA
BRANCH  26  29
ATOM     29  C   UNL     1      -1.224   4.897   2.563  1.00  0.00     0.039 A 
ATOM     30  C   UNL     1      -0.639   5.917   1.805  1.00  0.00     0.014 A 
ATOM     31  C   UNL     1      -2.616   4.799   2.632  1.00  0.00     0.014 A 
ATOM     32  C   UNL     1      -1.443   6.787   1.064  1.00  0.00     0.010 A 
ATOM     33  C   UNL     1      -3.414   5.615   1.833  1.00  0.00     0.010 A 
ATOM     34  C   UNL     1      -2.837   6.619   1.042  1.00  0.00    -0.014 A 
BRANCH  34  35
ATOM     35  C   UNL     1      -3.704   7.475   0.193  1.00  0.00     0.031 A 
ATOM     36  C   UNL     1      -4.716   8.393   0.819  1.00  0.00     0.074 A 
ATOM     37  C   UNL     1      -3.629   7.374  -1.148  1.00  0.00     0.049 A 
ATOM     38  N   UNL     1      -5.610   9.157   0.243  1.00  0.00    -0.248 NA
ATOM     39  C   UNL     1      -4.742   8.441   2.288  1.00  0.00     0.031 C 
ATOM     40  C   UNL     1      -2.719   6.492  -1.879  1.00  0.00     0.029 A 
ATOM     41  N   UNL     1      -4.338   8.013  -2.135  1.00  0.00    -0.354 N 
ATOM     42  C   UNL     1      -6.314   9.760   1.276  1.00  0.00     0.074 A 
ATOM     43  C   UNL     1      -5.775   9.239   2.515  1.00  0.00     0.031 C 
ATOM     44  C   UNL     1      -2.906   6.662  -3.197  1.00  0.00     0.029 A 
ATOM     45  C   UNL     1      -3.976   7.634  -3.404  1.00  0.00     0.049 A 
ATOM     46  H   UNL     1      -5.039   8.679  -1.951  1.00  0.00     0.167 HD
ATOM     47  C   UNL     1      -7.305  10.680   1.200  1.00  0.00     0.037 A 
ATOM     48  C   UNL     1      -4.458   8.018  -4.601  1.00  0.00     0.037 A 
ATOM     49  C   UNL     1      -7.821  11.219  -0.030  1.00  0.00     0.049 A 
ATOM     50  C   UNL     1      -5.574   9.023  -4.660  1.00  0.00     0.074 A 
ATOM     51  C   UNL     1      -8.764  12.217  -0.209  1.00  0.00     0.029 A 
ATOM     52  N   UNL     1      -7.440  10.799  -1.296  1.00  0.00    -0.354 N 
ATOM     53  N   UNL     1      -6.186   9.636  -3.677  1.00  0.00    -0.248 NA
ATOM     54  C   UNL     1      -6.071   9.382  -5.995  1.00  0.00     0.031 C 
ATOM     55  C   UNL     1      -8.985  12.369  -1.583  1.00  0.00     0.029 A 
ATOM     56  C   UNL     1      -8.152  11.494  -2.261  1.00  0.00     0.049 A 
ATOM     57  H   UNL     1      -6.764  10.108  -1.482  1.00  0.00     0.167 HD
ATOM     58  C   UNL     1      -7.127  10.465  -4.271  1.00  0.00     0.074 A 
ATOM     59  C   UNL     1      -6.996  10.287  -5.703  1.00  0.00     0.031 C 
ATOM     60  C   UNL     1      -8.019  11.298  -3.682  1.00  0.00     0.037 A 
BRANCH  47  61
ATOM     61  C   UNL     1      -7.897  11.163   2.492  1.00  0.00     0.064 A 
ATOM     62  C   UNL     1      -7.178  11.995   3.364  1.00  0.00     0.173 A 
ATOM     63  C   UNL     1      -9.205  10.807   2.854  1.00  0.00     0.173 A 
ATOM     64  F   UNL     1      -5.920  12.356   3.069  1.00  0.00    -0.203 F 
ATOM     65  C   UNL     1      -7.734  12.423   4.567  1.00  0.00     0.198 A 
ATOM     66  C   UNL     1      -9.768  11.260   4.044  1.00  0.00     0.198 A 
ATOM     67  F   UNL     1      -9.938  10.019   2.052  1.00  0.00    -0.203 F 
ATOM     68  F   UNL     1      -7.010  13.174   5.408  1.00  0.00    -0.200 F 
ATOM     69  C   UNL     1      -9.029  12.060   4.904  1.00  0.00     0.200 A 
ATOM     70  F   UNL     1     -11.023  10.917   4.364  1.00  0.00    -0.200 F 
ATOM     71  F   UNL     1      -9.563  12.473   6.061  1.00  0.00    -0.200 F 
ENDBRANCH  47  61
BRANCH  48  72
ATOM     72  C   UNL     1      -3.864   7.465  -5.843  1.00  0.00     0.064 A 
ATOM     73  C   UNL     1      -3.049   8.260  -6.660  1.00  0.00     0.173 A 
ATOM     74  C   UNL     1      -4.074   6.133  -6.226  1.00  0.00     0.173 A 
ATOM     75  F   UNL     1      -2.837   9.546  -6.344  1.00  0.00    -0.203 F 
ATOM     76  C   UNL     1      -2.469   7.745  -7.817  1.00  0.00     0.198 A 
ATOM     77  C   UNL     1      -3.476   5.612  -7.371  1.00  0.00     0.198 A 
ATOM     78  F   UNL     1      -4.844   5.332  -5.475  1.00  0.00    -0.203 F 
ATOM     79  F   UNL     1      -1.715   8.533  -8.595  1.00  0.00    -0.200 F 
ATOM     80  C   UNL     1      -2.677   6.419  -8.168  1.00  0.00     0.200 A 
ATOM     81  F   UNL     1      -3.668   4.327  -7.700  1.00  0.00    -0.200 F 
ATOM     82  F   UNL     1      -2.110   5.920  -9.274  1.00  0.00    -0.200 F 
ENDBRANCH  48  72
BRANCH  60  83
ATOM     83  C   UNL     1      -8.921  12.085  -4.585  1.00  0.00     0.064 A 
ATOM     84  C   UNL     1      -9.997  11.479  -5.250  1.00  0.00     0.173 A 
ATOM     85  C   UNL     1      -8.731  13.464  -4.758  1.00  0.00     0.173 A 
ATOM     86  F   UNL     1     -10.207  10.159  -5.131  1.00  0.00    -0.203 F 
ATOM     87  C   UNL     1     -10.841  12.223  -6.069  1.00  0.00     0.198 A 
ATOM     88  C   UNL     1      -9.592  14.209  -5.558  1.00  0.00     0.198 A 
ATOM     89  F   UNL     1      -7.718  14.089  -4.141  1.00  0.00    -0.203 F 
ATOM     90  F   UNL     1     -11.840  11.617  -6.726  1.00  0.00    -0.200 F 
ATOM     91  C   UNL     1     -10.643  13.588  -6.217  1.00  0.00     0.200 A 
ATOM     92  F   UNL     1      -9.405  15.529  -5.693  1.00  0.00    -0.200 F 
ATOM     93  F   UNL     1     -11.460  14.304  -7.001  1.00  0.00    -0.200 F 
ENDBRANCH  60  83
ENDBRANCH  34  35
ENDBRANCH  26  29
ENDBRANCH  24  25
ENDBRANCH   1  24
TORSDOF 13
