REMARK SMILES Cc1ccc(OCCn2ccnc2)c(/C=C/C(=O)NCCCNC(=O)c2ccc(-c3c4nc(c(-c5c(F)c(F)c(F)c(F)c5F)c5ccc([nH]5)c(-c5c(F)c(F)c(F)c(F)c5F)c5nc(c(-c6c(F)c(F)c(F)c(F)c6F)c6ccc3[nH]6)C=C5)C=C4)cc2)n1
REMARK SMILES IDX 17 1 18 2 19 3 16 5 15 6 14 7 1 8 2 9 3 10 89 11 4 12 5 13
REMARK SMILES IDX 6 14 7 15 8 16 9 17 10 18 13 19 11 20 12 21 20 22 21 23
REMARK SMILES IDX 22 24 23 25 24 26 25 28 26 29 27 30 88 31 28 32 87 33 29 34
REMARK SMILES IDX 30 35 31 36 81 37 32 38 86 39 80 40 82 41 33 42 85 43 79 44
REMARK SMILES IDX 78 45 34 47 66 48 46 49 65 50 47 51 50 52 64 53 83 54 48 55
REMARK SMILES IDX 49 56 63 58 84 59 51 60 35 61 36 62 44 63 37 64 38 65 42 66
REMARK SMILES IDX 45 67 39 68 40 69 43 70 41 71 67 72 68 73 76 74 69 75 70 76
REMARK SMILES IDX 74 77 77 78 71 79 72 80 75 81 73 82 52 83 53 84 61 85 54 86
REMARK SMILES IDX 55 87 59 88 62 89 56 90 57 91 60 92 58 93
REMARK H PARENT 19 4 23 27 82 46 50 57
REMARK Flexibility Score: inf
ROOT
ATOM      1  C   UNL     1      -1.463   4.859  -0.035  1.00  0.00     0.244 C 
ATOM      2  O   UNL     1      -0.772   5.863   0.131  1.00  0.00    -0.270 OA
ATOM      3  N   UNL     1      -2.804   5.011  -0.226  1.00  0.00    -0.352 N 
ATOM      4  H   UNL     1      -3.134   5.929  -0.087  1.00  0.00     0.163 HD
ENDROOT
BRANCH   1   5
ATOM      5  C   UNL     1      -0.807   3.529  -0.073  1.00  0.00     0.073 C 
ATOM      6  C   UNL     1      -1.378   2.385   0.324  1.00  0.00     0.038 C 
BRANCH   6   7
ATOM      7  C   UNL     1      -0.753   1.061   0.384  1.00  0.00     0.105 A 
ATOM      8  C   UNL     1       2.695  -0.181   0.264  1.00  0.00     0.067 C 
ATOM      9  C   UNL     1       1.214  -0.149   0.482  1.00  0.00     0.038 A 
ATOM     10  C   UNL     1       0.525  -1.293   0.863  1.00  0.00     0.027 A 
ATOM     11  N   UNL     1       0.598   1.038   0.295  1.00  0.00    -0.250 NA
ATOM     12  C   UNL     1      -0.867  -1.256   0.927  1.00  0.00     0.050 A 
ATOM     13  C   UNL     1      -1.537  -0.086   0.595  1.00  0.00     0.145 A 
BRANCH  13  14
ATOM     14  O   UNL     1      -2.896   0.017   0.431  1.00  0.00    -0.489 OA
BRANCH  14  15
ATOM     15  C   UNL     1      -3.651  -1.166   0.130  1.00  0.00     0.251 C 
BRANCH  15  16
ATOM     16  C   UNL     1      -3.588  -1.615  -1.339  1.00  0.00     0.164 C 
BRANCH  16  17
ATOM     17  N   UNL     1      -2.337  -2.236  -1.723  1.00  0.00    -0.334 N 
ATOM     18  C   UNL     1      -1.295  -1.625  -2.362  1.00  0.00     0.107 A 
ATOM     19  C   UNL     1      -1.973  -3.531  -1.483  1.00  0.00     0.199 A 
ATOM     20  C   UNL     1      -0.293  -2.567  -2.382  1.00  0.00     0.130 A 
ATOM     21  N   UNL     1      -0.727  -3.749  -1.838  1.00  0.00    -0.245 NA
ENDBRANCH  16  17
ENDBRANCH  15  16
ENDBRANCH  14  15
ENDBRANCH  13  14
ENDBRANCH   6   7
ENDBRANCH   1   5
BRANCH   3  22
ATOM     22  C   UNL     1      -3.833   4.050  -0.598  1.00  0.00     0.118 C 
BRANCH  22  23
ATOM     23  C   UNL     1      -4.597   3.498   0.616  1.00  0.00     0.042 C 
BRANCH  23  24
ATOM     24  C   UNL     1      -5.794   4.348   0.981  1.00  0.00     0.118 C 
BRANCH  24  25
ATOM     25  N   UNL     1      -6.878   4.268  -0.012  1.00  0.00    -0.352 N 
ATOM     26  C   UNL     1      -8.078   4.958  -0.036  1.00  0.00     0.251 C 
ATOM     27  H   UNL     1      -6.731   3.640  -0.756  1.00  0.00     0.163 HD
ATOM     28  O   UNL     1      -9.021   4.581  -0.726  1.00  0.00    -0.269 OA
BRANCH  26  29
ATOM     29  C   UNL     1      -8.190   6.171   0.785  1.00  0.00     0.039 A 
ATOM     30  C   UNL     1      -9.322   6.505   1.537  1.00  0.00     0.014 A 
ATOM     31  C   UNL     1      -7.041   6.935   0.858  1.00  0.00     0.014 A 
ATOM     32  C   UNL     1      -9.237   7.582   2.420  1.00  0.00     0.010 A 
ATOM     33  C   UNL     1      -6.864   7.729   1.943  1.00  0.00     0.010 A 
ATOM     34  C   UNL     1      -7.989   8.183   2.616  1.00  0.00    -0.014 A 
BRANCH  34  35
ATOM     35  C   UNL     1      -7.744   9.296   3.520  1.00  0.00     0.031 A 
ATOM     36  C   UNL     1      -7.985   9.016   4.961  1.00  0.00     0.074 A 
ATOM     37  C   UNL     1      -7.009  10.347   3.079  1.00  0.00     0.049 A 
ATOM     38  N   UNL     1      -8.758   9.650   5.779  1.00  0.00    -0.248 NA
ATOM     39  C   UNL     1      -7.358   7.817   5.546  1.00  0.00     0.031 C 
ATOM     40  C   UNL     1      -6.419  10.560   1.743  1.00  0.00     0.029 A 
ATOM     41  N   UNL     1      -6.486  11.380   3.785  1.00  0.00    -0.354 N 
ATOM     42  C   UNL     1      -8.572   9.052   7.023  1.00  0.00     0.074 A 
ATOM     43  C   UNL     1      -7.851   7.830   6.785  1.00  0.00     0.031 C 
ATOM     44  C   UNL     1      -5.434  11.479   1.815  1.00  0.00     0.029 A 
ATOM     45  C   UNL     1      -5.457  12.059   3.140  1.00  0.00     0.049 A 
ATOM     46  H   UNL     1      -6.809  11.630   4.682  1.00  0.00     0.167 HD
ATOM     47  C   UNL     1      -8.803   9.733   8.180  1.00  0.00     0.037 A 
ATOM     48  C   UNL     1      -4.654  13.002   3.690  1.00  0.00     0.037 A 
ATOM     49  C   UNL     1      -9.593  10.914   7.947  1.00  0.00     0.049 A 
ATOM     50  C   UNL     1      -5.347  13.493   4.909  1.00  0.00     0.074 A 
ATOM     51  C   UNL     1     -10.857  11.148   7.441  1.00  0.00     0.029 A 
ATOM     52  N   UNL     1      -8.943  12.123   7.878  1.00  0.00    -0.354 N 
ATOM     53  N   UNL     1      -6.483  14.139   4.880  1.00  0.00    -0.248 NA
ATOM     54  C   UNL     1      -5.039  12.826   6.165  1.00  0.00     0.031 C 
ATOM     55  C   UNL     1     -10.718  12.318   6.635  1.00  0.00     0.029 A 
ATOM     56  C   UNL     1      -9.402  12.765   6.755  1.00  0.00     0.049 A 
ATOM     57  H   UNL     1      -8.274  12.464   8.514  1.00  0.00     0.167 HD
ATOM     58  C   UNL     1      -7.212  13.628   5.945  1.00  0.00     0.074 A 
ATOM     59  C   UNL     1      -6.246  12.868   6.737  1.00  0.00     0.031 C 
ATOM     60  C   UNL     1      -8.579  13.615   5.926  1.00  0.00     0.037 A 
BRANCH  47  61
ATOM     61  C   UNL     1      -8.017   9.535   9.452  1.00  0.00     0.064 A 
ATOM     62  C   UNL     1      -8.472  10.131  10.644  1.00  0.00     0.173 A 
ATOM     63  C   UNL     1      -6.695   9.040   9.484  1.00  0.00     0.173 A 
ATOM     64  F   UNL     1      -9.706  10.654  10.717  1.00  0.00    -0.203 F 
ATOM     65  C   UNL     1      -7.641  10.282  11.757  1.00  0.00     0.198 A 
ATOM     66  C   UNL     1      -5.887   9.141  10.615  1.00  0.00     0.198 A 
ATOM     67  F   UNL     1      -6.092   8.546   8.396  1.00  0.00    -0.203 F 
ATOM     68  F   UNL     1      -8.075  10.965  12.825  1.00  0.00    -0.200 F 
ATOM     69  C   UNL     1      -6.348   9.791  11.740  1.00  0.00     0.200 A 
ATOM     70  F   UNL     1      -4.631   8.675  10.571  1.00  0.00    -0.200 F 
ATOM     71  F   UNL     1      -5.529   9.988  12.782  1.00  0.00    -0.200 F 
ENDBRANCH  47  61
BRANCH  48  72
ATOM     72  C   UNL     1      -3.209  13.211   3.430  1.00  0.00     0.064 A 
ATOM     73  C   UNL     1      -2.572  14.411   3.776  1.00  0.00     0.173 A 
ATOM     74  C   UNL     1      -2.369  12.137   3.071  1.00  0.00     0.173 A 
ATOM     75  F   UNL     1      -3.297  15.466   4.176  1.00  0.00    -0.203 F 
ATOM     76  C   UNL     1      -1.176  14.527   3.779  1.00  0.00     0.198 A 
ATOM     77  C   UNL     1      -0.978  12.254   3.069  1.00  0.00     0.198 A 
ATOM     78  F   UNL     1      -2.878  10.925   2.806  1.00  0.00    -0.203 F 
ATOM     79  F   UNL     1      -0.601  15.673   4.168  1.00  0.00    -0.200 F 
ATOM     80  C   UNL     1      -0.381  13.446   3.433  1.00  0.00     0.200 A 
ATOM     81  F   UNL     1      -0.221  11.188   2.771  1.00  0.00    -0.200 F 
ATOM     82  F   UNL     1       0.955  13.539   3.491  1.00  0.00    -0.200 F 
ENDBRANCH  48  72
BRANCH  60  83
ATOM     83  C   UNL     1      -9.274  14.345   4.806  1.00  0.00     0.064 A 
ATOM     84  C   UNL     1      -9.194  13.962   3.455  1.00  0.00     0.173 A 
ATOM     85  C   UNL     1     -10.180  15.362   5.125  1.00  0.00     0.173 A 
ATOM     86  F   UNL     1      -8.439  12.929   3.077  1.00  0.00    -0.203 F 
ATOM     87  C   UNL     1      -9.949  14.594   2.468  1.00  0.00     0.198 A 
ATOM     88  C   UNL     1     -10.960  15.971   4.143  1.00  0.00     0.198 A 
ATOM     89  F   UNL     1     -10.350  15.729   6.404  1.00  0.00    -0.203 F 
ATOM     90  F   UNL     1      -9.845  14.205   1.188  1.00  0.00    -0.200 F 
ATOM     91  C   UNL     1     -10.838  15.595   2.815  1.00  0.00     0.200 A 
ATOM     92  F   UNL     1     -11.857  16.903   4.492  1.00  0.00    -0.200 F 
ATOM     93  F   UNL     1     -11.598  16.175   1.876  1.00  0.00    -0.200 F 
ENDBRANCH  60  83
ENDBRANCH  34  35
ENDBRANCH  26  29
ENDBRANCH  24  25
ENDBRANCH  23  24
ENDBRANCH  22  23
ENDBRANCH   3  22
TORSDOF 15
