REMARK SMILES O=C(/C=C/N[C@@H](Cc1c[nH]c2ccccc12)C(=O)NCCCNC(=O)c1ccc(-c2c3nc(c(-c4c(F)c(F)c(F)c(F)c4F)c4ccc([nH]4)c(-c4c(F)c(F)c(F)c(F)c4F)c4nc(c(-c5c(F)c(F)c(F)c(F)c5F)c5ccc2[nH]5)C=C4)C=C3)cc1)c1ccccc1
REMARK SMILES IDX 20 1 19 2 17 3 18 4 6 6 5 7 4 9 3 10 2 11 1 12 89 13 90 14
REMARK SMILES IDX 94 15 91 16 93 17 92 18 7 19 8 20 9 21 16 22 10 23 11 24
REMARK SMILES IDX 15 25 12 27 14 28 13 29 21 30 22 31 23 32 24 33 25 35 26 36
REMARK SMILES IDX 27 37 88 38 28 39 87 40 29 41 30 42 31 43 81 44 32 45 86 46
REMARK SMILES IDX 80 47 82 48 33 49 85 50 79 51 78 52 34 54 66 55 46 56 65 57
REMARK SMILES IDX 47 58 50 59 64 60 83 61 48 62 49 63 63 65 84 66 51 67 35 68
REMARK SMILES IDX 36 69 44 70 37 71 38 72 42 73 45 74 39 75 40 76 43 77 41 78
REMARK SMILES IDX 67 79 68 80 76 81 69 82 70 83 74 84 77 85 71 86 72 87 75 88
REMARK SMILES IDX 73 89 52 90 53 91 61 92 54 93 55 94 59 95 62 96 56 97 57 98
REMARK SMILES IDX 60 99 58 100
REMARK H PARENT 19 5 5 8 10 26 23 34 82 53 50 64
REMARK Flexibility Score: inf
ROOT
ATOM      1  C   UNL     1       7.583  -3.956  -4.156  1.00  0.00     0.117 C 
ENDROOT
BRANCH   1   2
ATOM      2  N   UNL     1       7.446  -2.561  -3.762  1.00  0.00    -0.354 N 
ATOM      3  C   UNL     1       6.965  -1.908  -2.671  1.00  0.00     0.242 C 
ATOM      4  O   UNL     1       6.949  -0.670  -2.804  1.00  0.00    -0.273 OA
ATOM      5  H   UNL     1       7.781  -1.942  -4.451  1.00  0.00     0.163 HD
BRANCH   3   6
ATOM      6  C   UNL     1       6.498  -2.521  -1.315  1.00  0.00     0.173 C 
BRANCH   6   7
ATOM      7  N   UNL     1       5.102  -2.201  -0.979  1.00  0.00    -0.379 N 
ATOM      8  H   UNL     1       4.475  -2.960  -0.997  1.00  0.00     0.160 HD
BRANCH   7   9
ATOM      9  C   UNL     1       4.556  -0.988  -0.644  1.00  0.00     0.082 C 
ATOM     10  C   UNL     1       3.243  -0.775  -0.502  1.00  0.00     0.070 C 
BRANCH  10  11
ATOM     11  C   UNL     1       2.554   0.461  -0.052  1.00  0.00     0.187 C 
ATOM     12  O   UNL     1       1.349   0.591  -0.231  1.00  0.00    -0.289 OA
BRANCH  11  13
ATOM     13  C   UNL     1       3.279   1.446   0.770  1.00  0.00     0.022 A 
ATOM     14  C   UNL     1       4.321   2.215   0.250  1.00  0.00     0.012 A 
ATOM     15  C   UNL     1       2.862   1.613   2.096  1.00  0.00     0.012 A 
ATOM     16  C   UNL     1       4.981   3.122   1.081  1.00  0.00     0.001 A 
ATOM     17  C   UNL     1       3.523   2.522   2.919  1.00  0.00     0.001 A 
ATOM     18  C   UNL     1       4.587   3.270   2.413  1.00  0.00     0.000 A 
ENDBRANCH  11  13
ENDBRANCH  10  11
ENDBRANCH   7   9
ENDBRANCH   6   7
BRANCH   6  19
ATOM     19  C   UNL     1       6.825  -3.959  -0.930  1.00  0.00     0.072 C 
BRANCH  19  20
ATOM     20  C   UNL     1       6.012  -5.142  -1.413  1.00  0.00    -0.020 A 
ATOM     21  C   UNL     1       6.422  -6.434  -1.117  1.00  0.00     0.087 A 
ATOM     22  C   UNL     1       4.803  -5.282  -2.198  1.00  0.00     0.003 A 
ATOM     23  N   UNL     1       5.572  -7.323  -1.703  1.00  0.00    -0.361 N 
ATOM     24  C   UNL     1       4.597  -6.653  -2.396  1.00  0.00     0.046 A 
ATOM     25  C   UNL     1       3.882  -4.412  -2.835  1.00  0.00     0.010 A 
ATOM     26  H   UNL     1       5.647  -8.302  -1.638  1.00  0.00     0.166 HD
ATOM     27  C   UNL     1       3.573  -7.176  -3.199  1.00  0.00     0.026 A 
ATOM     28  C   UNL     1       2.850  -4.916  -3.638  1.00  0.00     0.001 A 
ATOM     29  C   UNL     1       2.706  -6.282  -3.826  1.00  0.00     0.002 A 
ENDBRANCH  19  20
ENDBRANCH   6  19
ENDBRANCH   3   6
ENDBRANCH   1   2
BRANCH   1  30
ATOM     30  C   UNL     1       6.351  -4.447  -4.915  1.00  0.00     0.042 C 
BRANCH  30  31
ATOM     31  C   UNL     1       6.469  -4.468  -6.434  1.00  0.00     0.118 C 
BRANCH  31  32
ATOM     32  N   UNL     1       6.665  -5.824  -6.931  1.00  0.00    -0.352 N 
ATOM     33  C   UNL     1       5.793  -6.788  -7.377  1.00  0.00     0.251 C 
ATOM     34  H   UNL     1       7.608  -6.106  -6.950  1.00  0.00     0.163 HD
ATOM     35  O   UNL     1       6.215  -7.945  -7.431  1.00  0.00    -0.269 OA
BRANCH  33  36
ATOM     36  C   UNL     1       4.392  -6.525  -7.824  1.00  0.00     0.039 A 
ATOM     37  C   UNL     1       3.494  -7.607  -7.822  1.00  0.00     0.014 A 
ATOM     38  C   UNL     1       3.968  -5.322  -8.392  1.00  0.00     0.014 A 
ATOM     39  C   UNL     1       2.211  -7.490  -8.380  1.00  0.00     0.010 A 
ATOM     40  C   UNL     1       2.660  -5.181  -8.881  1.00  0.00     0.010 A 
ATOM     41  C   UNL     1       1.777  -6.271  -8.916  1.00  0.00    -0.014 A 
BRANCH  41  42
ATOM     42  C   UNL     1       0.450  -6.140  -9.588  1.00  0.00     0.031 A 
ATOM     43  C   UNL     1       0.374  -5.827 -11.063  1.00  0.00     0.074 A 
ATOM     44  C   UNL     1      -0.695  -6.265  -8.889  1.00  0.00     0.049 A 
ATOM     45  N   UNL     1      -0.674  -5.561 -11.806  1.00  0.00    -0.248 NA
ATOM     46  C   UNL     1       1.648  -5.794 -11.798  1.00  0.00     0.031 C 
ATOM     47  C   UNL     1      -0.787  -6.561  -7.460  1.00  0.00     0.029 A 
ATOM     48  N   UNL     1      -2.005  -6.143  -9.289  1.00  0.00    -0.354 N 
ATOM     49  C   UNL     1      -0.182  -5.294 -13.078  1.00  0.00     0.074 A 
ATOM     50  C   UNL     1       1.259  -5.407 -13.004  1.00  0.00     0.031 C 
ATOM     51  C   UNL     1      -2.082  -6.606  -7.104  1.00  0.00     0.029 A 
ATOM     52  C   UNL     1      -2.911  -6.304  -8.269  1.00  0.00     0.049 A 
ATOM     53  H   UNL     1      -2.269  -5.959 -10.220  1.00  0.00     0.167 HD
ATOM     54  C   UNL     1      -0.865  -4.995 -14.210  1.00  0.00     0.037 A 
ATOM     55  C   UNL     1      -4.255  -6.202  -8.265  1.00  0.00     0.037 A 
ATOM     56  C   UNL     1      -2.300  -4.934 -14.315  1.00  0.00     0.049 A 
ATOM     57  C   UNL     1      -4.990  -5.870  -9.535  1.00  0.00     0.074 A 
ATOM     58  C   UNL     1      -3.073  -4.699 -15.440  1.00  0.00     0.029 A 
ATOM     59  N   UNL     1      -3.177  -5.117 -13.259  1.00  0.00    -0.354 N 
ATOM     60  N   UNL     1      -4.513  -5.646 -10.734  1.00  0.00    -0.248 NA
ATOM     61  C   UNL     1      -6.456  -5.775  -9.448  1.00  0.00     0.031 C 
ATOM     62  C   UNL     1      -4.419  -4.710 -15.059  1.00  0.00     0.029 A 
ATOM     63  C   UNL     1      -4.484  -4.987 -13.704  1.00  0.00     0.049 A 
ATOM     64  H   UNL     1      -2.912  -5.311 -12.331  1.00  0.00     0.167 HD
ATOM     65  C   UNL     1      -5.615  -5.408 -11.545  1.00  0.00     0.074 A 
ATOM     66  C   UNL     1      -6.788  -5.524 -10.707  1.00  0.00     0.031 C 
ATOM     67  C   UNL     1      -5.647  -5.117 -12.868  1.00  0.00     0.037 A 
BRANCH  54  68
ATOM     68  C   UNL     1      -0.067  -4.709 -15.448  1.00  0.00     0.064 A 
ATOM     69  C   UNL     1       0.566  -5.732 -16.167  1.00  0.00     0.173 A 
ATOM     70  C   UNL     1       0.018  -3.401 -15.949  1.00  0.00     0.173 A 
ATOM     71  F   UNL     1       0.520  -6.997 -15.723  1.00  0.00    -0.203 F 
ATOM     72  C   UNL     1       1.274  -5.454 -17.333  1.00  0.00     0.198 A 
ATOM     73  C   UNL     1       0.707  -3.130 -17.128  1.00  0.00     0.198 A 
ATOM     74  F   UNL     1      -0.578  -2.388 -15.302  1.00  0.00    -0.203 F 
ATOM     75  F   UNL     1       1.901  -6.442 -17.986  1.00  0.00    -0.200 F 
ATOM     76  C   UNL     1       1.338  -4.155 -17.816  1.00  0.00     0.200 A 
ATOM     77  F   UNL     1       0.759  -1.877 -17.600  1.00  0.00    -0.200 F 
ATOM     78  F   UNL     1       2.013  -3.891 -18.943  1.00  0.00    -0.200 F 
ENDBRANCH  54  68
BRANCH  55  79
ATOM     79  C   UNL     1      -5.007  -6.423  -7.004  1.00  0.00     0.064 A 
ATOM     80  C   UNL     1      -5.780  -7.577  -6.822  1.00  0.00     0.173 A 
ATOM     81  C   UNL     1      -4.984  -5.479  -5.968  1.00  0.00     0.173 A 
ATOM     82  F   UNL     1      -5.854  -8.493  -7.799  1.00  0.00    -0.203 F 
ATOM     83  C   UNL     1      -6.515  -7.773  -5.655  1.00  0.00     0.198 A 
ATOM     84  C   UNL     1      -5.700  -5.687  -4.792  1.00  0.00     0.198 A 
ATOM     85  F   UNL     1      -4.261  -4.357  -6.098  1.00  0.00    -0.203 F 
ATOM     86  F   UNL     1      -7.279  -8.866  -5.523  1.00  0.00    -0.200 F 
ATOM     87  C   UNL     1      -6.470  -6.830  -4.639  1.00  0.00     0.200 A 
ATOM     88  F   UNL     1      -5.650  -4.777  -3.809  1.00  0.00    -0.200 F 
ATOM     89  F   UNL     1      -7.177  -7.020  -3.516  1.00  0.00    -0.200 F 
ENDBRANCH  55  79
BRANCH  67  90
ATOM     90  C   UNL     1      -6.994  -4.938 -13.504  1.00  0.00     0.064 A 
ATOM     91  C   UNL     1      -7.751  -3.776 -13.302  1.00  0.00     0.173 A 
ATOM     92  C   UNL     1      -7.512  -5.922 -14.359  1.00  0.00     0.173 A 
ATOM     93  F   UNL     1      -7.304  -2.813 -12.481  1.00  0.00    -0.203 F 
ATOM     94  C   UNL     1      -8.989  -3.613 -13.920  1.00  0.00     0.198 A 
ATOM     95  C   UNL     1      -8.739  -5.746 -14.992  1.00  0.00     0.198 A 
ATOM     96  F   UNL     1      -6.823  -7.050 -14.588  1.00  0.00    -0.203 F 
ATOM     97  F   UNL     1      -9.713  -2.509 -13.685  1.00  0.00    -0.200 F 
ATOM     98  C   UNL     1      -9.479  -4.594 -14.768  1.00  0.00     0.200 A 
ATOM     99  F   UNL     1      -9.208  -6.692 -15.818  1.00  0.00    -0.200 F 
ATOM    100  F   UNL     1     -10.668  -4.433 -15.366  1.00  0.00    -0.200 F 
ENDBRANCH  67  90
ENDBRANCH  41  42
ENDBRANCH  33  36
ENDBRANCH  31  32
ENDBRANCH  30  31
ENDBRANCH   1  30
TORSDOF 16
