REMARK SMILES Cc1noc(C[N@H+]2CCC[C@@H](c3ccc(C(=O)NCCCNC(=O)c4ccc(-c5c6nc(c(-c7c(F)c(F)c(F)c(F)c7F)c7ccc([nH]7)c(-c7c(F)c(F)c(F)c(F)c7F)c7nc(c(-c8c(F)c(F)c(F)c(F)c8F)c8ccc5[nH]8)C=C7)C=C6)cc4)cc3)C2)n1
REMARK SMILES IDX 19 1 18 2 16 3 17 4 15 6 12 7 13 8 89 9 14 10 88 11 11 12
REMARK SMILES IDX 7 13 8 14 90 15 9 17 10 18 6 19 5 20 1 21 2 22 3 23 91 24
REMARK SMILES IDX 4 25 20 26 21 27 22 28 23 29 24 31 25 32 26 33 87 34 27 35
REMARK SMILES IDX 86 36 28 37 29 38 30 39 80 40 31 41 85 42 79 43 81 44 32 45
REMARK SMILES IDX 84 46 78 47 77 48 33 50 65 51 45 52 64 53 46 54 49 55 63 56
REMARK SMILES IDX 82 57 47 58 48 59 62 61 83 62 50 63 34 64 35 65 43 66 36 67
REMARK SMILES IDX 37 68 41 69 44 70 38 71 39 72 42 73 40 74 66 75 67 76 75 77
REMARK SMILES IDX 68 78 69 79 73 80 76 81 70 82 71 83 74 84 72 85 51 86 52 87
REMARK SMILES IDX 60 88 53 89 54 90 58 91 61 92 55 93 56 94 59 95 57 96
REMARK H PARENT 18 5 7 16 22 30 81 49 49 60
REMARK Flexibility Score: inf
ROOT
ATOM      1  C   UNL     1      -3.063   9.174  -1.978  1.00  0.00     0.118 C 
ENDROOT
BRANCH   1   2
ATOM      2  N   UNL     1      -4.043   8.214  -2.450  1.00  0.00    -0.352 N 
ATOM      3  C   UNL     1      -3.921   6.912  -2.859  1.00  0.00     0.251 C 
ATOM      4  O   UNL     1      -4.950   6.306  -3.159  1.00  0.00    -0.269 OA
ATOM      5  H   UNL     1      -4.964   8.562  -2.483  1.00  0.00     0.163 HD
BRANCH   3   6
ATOM      6  C   UNL     1      -2.619   6.195  -2.896  1.00  0.00     0.039 A 
ATOM      7  C   UNL     1      -0.230   4.685  -2.865  1.00  0.00    -0.039 A 
ATOM      8  C   UNL     1      -1.469   4.078  -2.611  1.00  0.00     0.005 A 
ATOM      9  C   UNL     1      -0.212   6.043  -3.201  1.00  0.00     0.005 A 
ATOM     10  C   UNL     1      -2.647   4.826  -2.614  1.00  0.00     0.014 A 
ATOM     11  C   UNL     1      -1.399   6.784  -3.236  1.00  0.00     0.014 A 
BRANCH   7  12
ATOM     12  C   UNL     1       1.075   3.903  -2.799  1.00  0.00     0.074 C 
ATOM     13  N   UNL     1       2.364   2.219  -1.411  1.00  0.00    -0.327 N 
ATOM     14  C   UNL     1       2.435   1.320  -2.572  1.00  0.00     0.262 C 
ATOM     15  C   UNL     1       1.186   3.104  -1.482  1.00  0.00     0.270 C 
ATOM     16  H   UNL     1       3.197   2.806  -1.433  1.00  0.00     0.348 HD
ATOM     17  C   UNL     1       2.457   2.107  -3.883  1.00  0.00     0.062 C 
ATOM     18  C   UNL     1       1.216   2.982  -4.017  1.00  0.00     0.020 C 
BRANCH  13  19
ATOM     19  C   UNL     1       2.374   1.453  -0.131  1.00  0.00     0.364 C 
BRANCH  19  20
ATOM     20  C   UNL     1       1.179   0.580   0.106  1.00  0.00     0.281 A 
ATOM     21  C   UNL     1      -2.200  -0.331   0.294  1.00  0.00     0.093 C 
ATOM     22  C   UNL     1      -0.729  -0.260   0.240  1.00  0.00     0.169 A 
ATOM     23  N   UNL     1       0.043  -1.311  -0.066  1.00  0.00    -0.063 NA
ATOM     24  N   UNL     1      -0.058   0.921   0.401  1.00  0.00    -0.191 NA
ATOM     25  O   UNL     1       1.323  -0.754  -0.153  1.00  0.00    -0.333 OA
ENDBRANCH  19  20
ENDBRANCH  13  19
ENDBRANCH   7  12
ENDBRANCH   3   6
ENDBRANCH   1   2
BRANCH   1  26
ATOM     26  C   UNL     1      -2.675  10.151  -3.086  1.00  0.00     0.042 C 
BRANCH  26  27
ATOM     27  C   UNL     1      -3.781  11.141  -3.437  1.00  0.00     0.118 C 
BRANCH  27  28
ATOM     28  N   UNL     1      -3.980  12.131  -2.390  1.00  0.00    -0.352 N 
ATOM     29  C   UNL     1      -3.921  13.500  -2.455  1.00  0.00     0.251 C 
ATOM     30  H   UNL     1      -4.187  11.764  -1.501  1.00  0.00     0.163 HD
ATOM     31  O   UNL     1      -3.905  14.157  -1.419  1.00  0.00    -0.269 OA
BRANCH  29  32
ATOM     32  C   UNL     1      -3.867  14.193  -3.762  1.00  0.00     0.039 A 
ATOM     33  C   UNL     1      -3.029  15.305  -3.895  1.00  0.00     0.014 A 
ATOM     34  C   UNL     1      -4.670  13.792  -4.834  1.00  0.00     0.014 A 
ATOM     35  C   UNL     1      -2.962  15.985  -5.113  1.00  0.00     0.010 A 
ATOM     36  C   UNL     1      -4.553  14.429  -6.067  1.00  0.00     0.010 A 
ATOM     37  C   UNL     1      -3.706  15.537  -6.216  1.00  0.00    -0.014 A 
BRANCH  37  38
ATOM     38  C   UNL     1      -3.617  16.222  -7.530  1.00  0.00     0.031 A 
ATOM     39  C   UNL     1      -4.814  16.938  -8.091  1.00  0.00     0.074 A 
ATOM     40  C   UNL     1      -2.478  16.148  -8.243  1.00  0.00     0.049 A 
ATOM     41  N   UNL     1      -4.957  17.532  -9.249  1.00  0.00    -0.248 NA
ATOM     42  C   UNL     1      -6.020  16.968  -7.249  1.00  0.00     0.031 C 
ATOM     43  C   UNL     1      -1.264  15.447  -7.823  1.00  0.00     0.029 A 
ATOM     44  N   UNL     1      -2.159  16.657  -9.477  1.00  0.00    -0.354 N 
ATOM     45  C   UNL     1      -6.268  17.988  -9.281  1.00  0.00     0.074 A 
ATOM     46  C   UNL     1      -6.893  17.565  -8.046  1.00  0.00     0.031 C 
ATOM     47  C   UNL     1      -0.327  15.583  -8.775  1.00  0.00     0.029 A 
ATOM     48  C   UNL     1      -0.884  16.351  -9.885  1.00  0.00     0.049 A 
ATOM     49  H   UNL     1      -2.785  17.191 -10.018  1.00  0.00     0.167 HD
ATOM     50  C   UNL     1      -6.887  18.711 -10.245  1.00  0.00     0.037 A 
ATOM     51  C   UNL     1      -0.241  16.649 -11.030  1.00  0.00     0.037 A 
ATOM     52  C   UNL     1      -6.253  19.155 -11.458  1.00  0.00     0.049 A 
ATOM     53  C   UNL     1      -0.949  17.460 -12.080  1.00  0.00     0.074 A 
ATOM     54  C   UNL     1      -6.776  19.944 -12.467  1.00  0.00     0.029 A 
ATOM     55  N   UNL     1      -4.951  18.846 -11.825  1.00  0.00    -0.354 N 
ATOM     56  N   UNL     1      -2.169  17.940 -12.072  1.00  0.00    -0.248 NA
ATOM     57  C   UNL     1      -0.187  17.777 -13.296  1.00  0.00     0.031 C 
ATOM     58  C   UNL     1      -5.803  20.082 -13.464  1.00  0.00     0.029 A 
ATOM     59  C   UNL     1      -4.659  19.415 -13.055  1.00  0.00     0.049 A 
ATOM     60  H   UNL     1      -4.327  18.304 -11.291  1.00  0.00     0.167 HD
ATOM     61  C   UNL     1      -2.313  18.635 -13.264  1.00  0.00     0.074 A 
ATOM     62  C   UNL     1      -1.051  18.527 -13.966  1.00  0.00     0.031 C 
ATOM     63  C   UNL     1      -3.395  19.303 -13.735  1.00  0.00     0.037 A 
BRANCH  50  64
ATOM     64  C   UNL     1      -8.328  19.072 -10.024  1.00  0.00     0.064 A 
ATOM     65  C   UNL     1      -8.709  20.017  -9.060  1.00  0.00     0.173 A 
ATOM     66  C   UNL     1      -9.336  18.494 -10.810  1.00  0.00     0.173 A 
ATOM     67  F   UNL     1      -7.785  20.591  -8.275  1.00  0.00    -0.203 F 
ATOM     68  C   UNL     1     -10.048  20.350  -8.872  1.00  0.00     0.198 A 
ATOM     69  C   UNL     1     -10.671  18.849 -10.639  1.00  0.00     0.198 A 
ATOM     70  F   UNL     1      -9.025  17.589 -11.750  1.00  0.00    -0.203 F 
ATOM     71  F   UNL     1     -10.392  21.221  -7.914  1.00  0.00    -0.200 F 
ATOM     72  C   UNL     1     -11.027  19.771  -9.666  1.00  0.00     0.200 A 
ATOM     73  F   UNL     1     -11.615  18.298 -11.415  1.00  0.00    -0.200 F 
ATOM     74  F   UNL     1     -12.315  20.097  -9.488  1.00  0.00    -0.200 F 
ENDBRANCH  50  64
BRANCH  51  75
ATOM     75  C   UNL     1       1.161  16.201 -11.228  1.00  0.00     0.064 A 
ATOM     76  C   UNL     1       2.218  17.121 -11.212  1.00  0.00     0.173 A 
ATOM     77  C   UNL     1       1.474  14.849 -11.431  1.00  0.00     0.173 A 
ATOM     78  F   UNL     1       1.965  18.427 -11.041  1.00  0.00    -0.203 F 
ATOM     79  C   UNL     1       3.534  16.709 -11.409  1.00  0.00     0.198 A 
ATOM     80  C   UNL     1       2.793  14.435 -11.602  1.00  0.00     0.198 A 
ATOM     81  F   UNL     1       0.499  13.929 -11.449  1.00  0.00    -0.203 F 
ATOM     82  F   UNL     1       4.521  17.615 -11.429  1.00  0.00    -0.200 F 
ATOM     83  C   UNL     1       3.821  15.366 -11.598  1.00  0.00     0.200 A 
ATOM     84  F   UNL     1       3.068  13.134 -11.770  1.00  0.00    -0.200 F 
ATOM     85  F   UNL     1       5.088  14.969 -11.782  1.00  0.00    -0.200 F 
ENDBRANCH  51  75
BRANCH  63  86
ATOM     86  C   UNL     1      -3.250  19.997 -15.057  1.00  0.00     0.064 A 
ATOM     87  C   UNL     1      -3.210  19.280 -16.261  1.00  0.00     0.173 A 
ATOM     88  C   UNL     1      -3.191  21.397 -15.120  1.00  0.00     0.173 A 
ATOM     89  F   UNL     1      -3.247  17.939 -16.250  1.00  0.00    -0.203 F 
ATOM     90  C   UNL     1      -3.092  19.940 -17.482  1.00  0.00     0.198 A 
ATOM     91  C   UNL     1      -3.101  22.054 -16.344  1.00  0.00     0.198 A 
ATOM     92  F   UNL     1      -3.231  22.127 -13.996  1.00  0.00    -0.203 F 
ATOM     93  F   UNL     1      -3.012  19.234 -18.618  1.00  0.00    -0.200 F 
ATOM     94  C   UNL     1      -3.045  21.326 -17.522  1.00  0.00     0.200 A 
ATOM     95  F   UNL     1      -3.066  23.393 -16.382  1.00  0.00    -0.200 F 
ATOM     96  F   UNL     1      -2.939  21.959 -18.698  1.00  0.00    -0.200 F 
ENDBRANCH  63  86
ENDBRANCH  37  38
ENDBRANCH  29  32
ENDBRANCH  27  28
ENDBRANCH  26  27
ENDBRANCH   1  26
TORSDOF 13
