REMARK SMILES O=C(Cc1ccc2c(c1)NC(=O)CO2)NCCCNC(=O)c1ccc(-c2c3nc(c(-c4c(F)c(F)c(F)c(F)c4F)c4ccc([nH]4)c(-c4c(F)c(F)c(F)c(F)c4F)c4nc(c(-c5c(F)c(F)c(F)c(F)c5F)c5ccc2[nH]5)C=C4)C=C3)cc1
REMARK SMILES IDX 17 1 16 2 15 3 1 4 2 5 3 7 4 8 5 9 9 10 6 11 8 12 7 13 10 14
REMARK SMILES IDX 14 15 11 16 13 18 12 19 18 20 19 21 20 22 21 24 22 25 23 26
REMARK SMILES IDX 84 27 24 28 83 29 25 30 26 31 27 32 77 33 28 34 82 35 76 36
REMARK SMILES IDX 78 37 29 38 81 39 75 40 74 41 30 43 62 44 42 45 61 46 43 47
REMARK SMILES IDX 46 48 60 49 79 50 44 51 45 52 59 54 80 55 47 56 31 57 32 58
REMARK SMILES IDX 40 59 33 60 34 61 38 62 41 63 35 64 36 65 39 66 37 67 63 68
REMARK SMILES IDX 64 69 72 70 65 71 66 72 70 73 73 74 67 75 68 76 71 77 69 78
REMARK SMILES IDX 48 79 49 80 57 81 50 82 51 83 55 84 58 85 52 86 53 87 56 88
REMARK SMILES IDX 54 89
REMARK H PARENT 15 6 10 17 19 23 78 42 46 53
REMARK Flexibility Score: inf
ROOT
ATOM      1  C   UNL     1       2.450  -1.364  -3.182  1.00  0.00     0.042 C 
ENDROOT
BRANCH   1   2
ATOM      2  C   UNL     1       2.146  -1.698  -1.730  1.00  0.00     0.117 C 
BRANCH   2   3
ATOM      3  N   UNL     1       2.812  -0.811  -0.798  1.00  0.00    -0.356 N 
ATOM      4  O   UNL     1       0.908   0.217  -0.029  1.00  0.00    -0.275 OA
ATOM      5  C   UNL     1       2.118   0.028   0.051  1.00  0.00     0.224 C 
ATOM      6  H   UNL     1       3.796  -0.806  -0.768  1.00  0.00     0.163 HD
BRANCH   5   7
ATOM      7  C   UNL     1       2.979   0.717   1.099  1.00  0.00     0.135 C 
BRANCH   7   8
ATOM      8  C   UNL     1       3.789  -0.206   1.992  1.00  0.00    -0.036 A 
ATOM      9  C   UNL     1       4.858   0.331   2.728  1.00  0.00     0.008 A 
ATOM     10  C   UNL     1       3.493  -1.571   2.141  1.00  0.00     0.034 A 
ATOM     11  C   UNL     1       5.641  -0.486   3.550  1.00  0.00     0.049 A 
ATOM     12  C   UNL     1       4.305  -2.390   2.928  1.00  0.00     0.084 A 
ATOM     13  C   UNL     1       5.380  -1.851   3.631  1.00  0.00     0.143 A 
ATOM     14  N   UNL     1       4.024  -3.753   3.006  1.00  0.00    -0.320 N 
ATOM     15  O   UNL     1       6.189  -2.582   4.455  1.00  0.00    -0.482 OA
ATOM     16  C   UNL     1       4.839  -4.612   3.687  1.00  0.00     0.262 C 
ATOM     17  H   UNL     1       3.220  -4.104   2.561  1.00  0.00     0.170 HD
ATOM     18  C   UNL     1       6.107  -3.987   4.266  1.00  0.00     0.329 C 
ATOM     19  O   UNL     1       4.588  -5.813   3.754  1.00  0.00    -0.271 OA
ENDBRANCH   7   8
ENDBRANCH   5   7
ENDBRANCH   2   3
ENDBRANCH   1   2
BRANCH   1  20
ATOM     20  C   UNL     1       3.926  -1.456  -3.554  1.00  0.00     0.118 C 
BRANCH  20  21
ATOM     21  N   UNL     1       4.465  -2.808  -3.477  1.00  0.00    -0.352 N 
ATOM     22  C   UNL     1       5.160  -3.528  -4.420  1.00  0.00     0.251 C 
ATOM     23  H   UNL     1       4.308  -3.275  -2.624  1.00  0.00     0.163 HD
ATOM     24  O   UNL     1       5.443  -4.704  -4.214  1.00  0.00    -0.269 OA
BRANCH  22  25
ATOM     25  C   UNL     1       5.536  -2.896  -5.703  1.00  0.00     0.039 A 
ATOM     26  C   UNL     1       5.268  -3.575  -6.895  1.00  0.00     0.014 A 
ATOM     27  C   UNL     1       6.123  -1.629  -5.732  1.00  0.00     0.014 A 
ATOM     28  C   UNL     1       5.500  -2.944  -8.120  1.00  0.00     0.010 A 
ATOM     29  C   UNL     1       6.288  -0.975  -6.949  1.00  0.00     0.010 A 
ATOM     30  C   UNL     1       5.964  -1.619  -8.154  1.00  0.00    -0.014 A 
BRANCH  30  31
ATOM     31  C   UNL     1       6.095  -0.868  -9.429  1.00  0.00     0.031 A 
ATOM     32  C   UNL     1       7.443  -0.384  -9.881  1.00  0.00     0.074 A 
ATOM     33  C   UNL     1       4.990  -0.530 -10.121  1.00  0.00     0.049 A 
ATOM     34  N   UNL     1       7.747   0.423 -10.865  1.00  0.00    -0.248 NA
ATOM     35  C   UNL     1       8.602  -0.846  -9.101  1.00  0.00     0.031 C 
ATOM     36  C   UNL     1       3.621  -0.909  -9.769  1.00  0.00     0.029 A 
ATOM     37  N   UNL     1       4.842   0.233 -11.254  1.00  0.00    -0.354 N 
ATOM     38  C   UNL     1       9.124   0.586 -10.808  1.00  0.00     0.074 A 
ATOM     39  C   UNL     1       9.594  -0.176  -9.670  1.00  0.00     0.031 C 
ATOM     40  C   UNL     1       2.773  -0.384 -10.669  1.00  0.00     0.029 A 
ATOM     41  C   UNL     1       3.533   0.405 -11.634  1.00  0.00     0.049 A 
ATOM     42  H   UNL     1       5.601   0.620 -11.746  1.00  0.00     0.167 HD
ATOM     43  C   UNL     1       9.925   1.294 -11.639  1.00  0.00     0.037 A 
ATOM     44  C   UNL     1       3.002   1.135 -12.634  1.00  0.00     0.037 A 
ATOM     45  C   UNL     1       9.460   2.023 -12.789  1.00  0.00     0.049 A 
ATOM     46  C   UNL     1       3.914   1.917 -13.540  1.00  0.00     0.074 A 
ATOM     47  C   UNL     1      10.201   2.724 -13.724  1.00  0.00     0.029 A 
ATOM     48  N   UNL     1       8.129   2.143 -13.161  1.00  0.00    -0.354 N 
ATOM     49  N   UNL     1       5.220   2.025 -13.505  1.00  0.00    -0.248 NA
ATOM     50  C   UNL     1       3.279   2.679 -14.625  1.00  0.00     0.031 C 
ATOM     51  C   UNL     1       9.316   3.299 -14.642  1.00  0.00     0.029 A 
ATOM     52  C   UNL     1       8.027   2.920 -14.304  1.00  0.00     0.049 A 
ATOM     53  H   UNL     1       7.370   1.737 -12.684  1.00  0.00     0.167 HD
ATOM     54  C   UNL     1       5.564   2.836 -14.578  1.00  0.00     0.074 A 
ATOM     55  C   UNL     1       4.331   3.191 -15.248  1.00  0.00     0.031 C 
ATOM     56  C   UNL     1       6.794   3.245 -14.973  1.00  0.00     0.037 A 
BRANCH  43  57
ATOM     57  C   UNL     1      11.394   1.316 -11.335  1.00  0.00     0.064 A 
ATOM     58  C   UNL     1      12.200   0.183 -11.521  1.00  0.00     0.173 A 
ATOM     59  C   UNL     1      12.011   2.495 -10.891  1.00  0.00     0.173 A 
ATOM     60  F   UNL     1      11.656  -0.972 -11.932  1.00  0.00    -0.203 F 
ATOM     61  C   UNL     1      13.565   0.223 -11.248  1.00  0.00     0.198 A 
ATOM     62  C   UNL     1      13.381   2.539 -10.646  1.00  0.00     0.198 A 
ATOM     63  F   UNL     1      11.286   3.609 -10.702  1.00  0.00    -0.203 F 
ATOM     64  F   UNL     1      14.307  -0.884 -11.388  1.00  0.00    -0.200 F 
ATOM     65  C   UNL     1      14.155   1.402 -10.818  1.00  0.00     0.200 A 
ATOM     66  F   UNL     1      13.952   3.683 -10.243  1.00  0.00    -0.200 F 
ATOM     67  F   UNL     1      15.470   1.440 -10.562  1.00  0.00    -0.200 F 
ENDBRANCH  43  57
BRANCH  44  68
ATOM     68  C   UNL     1       1.532   1.149 -12.842  1.00  0.00     0.064 A 
ATOM     69  C   UNL     1       0.958   0.508 -13.949  1.00  0.00     0.173 A 
ATOM     70  C   UNL     1       0.671   1.798 -11.945  1.00  0.00     0.173 A 
ATOM     71  F   UNL     1       1.743  -0.107 -14.846  1.00  0.00    -0.203 F 
ATOM     72  C   UNL     1      -0.419   0.531 -14.161  1.00  0.00     0.198 A 
ATOM     73  C   UNL     1      -0.708   1.798 -12.144  1.00  0.00     0.198 A 
ATOM     74  F   UNL     1       1.171   2.422 -10.868  1.00  0.00    -0.203 F 
ATOM     75  F   UNL     1      -0.936  -0.053 -15.250  1.00  0.00    -0.200 F 
ATOM     76  C   UNL     1      -1.251   1.171 -13.255  1.00  0.00     0.200 A 
ATOM     77  F   UNL     1      -1.510   2.407 -11.260  1.00  0.00    -0.200 F 
ATOM     78  F   UNL     1      -2.575   1.190 -13.457  1.00  0.00    -0.200 F 
ENDBRANCH  44  68
BRANCH  56  79
ATOM     79  C   UNL     1       6.880   4.081 -16.215  1.00  0.00     0.064 A 
ATOM     80  C   UNL     1       6.499   5.430 -16.223  1.00  0.00     0.173 A 
ATOM     81  C   UNL     1       7.412   3.538 -17.395  1.00  0.00     0.173 A 
ATOM     82  F   UNL     1       5.971   5.989 -15.124  1.00  0.00    -0.203 F 
ATOM     83  C   UNL     1       6.636   6.203 -17.373  1.00  0.00     0.198 A 
ATOM     84  C   UNL     1       7.571   4.321 -18.534  1.00  0.00     0.198 A 
ATOM     85  F   UNL     1       7.796   2.253 -17.434  1.00  0.00    -0.203 F 
ATOM     86  F   UNL     1       6.236   7.482 -17.370  1.00  0.00    -0.200 F 
ATOM     87  C   UNL     1       7.180   5.651 -18.524  1.00  0.00     0.200 A 
ATOM     88  F   UNL     1       8.108   3.789 -19.641  1.00  0.00    -0.200 F 
ATOM     89  F   UNL     1       7.323   6.401 -19.625  1.00  0.00    -0.200 F 
ENDBRANCH  56  79
ENDBRANCH  30  31
ENDBRANCH  22  25
ENDBRANCH  20  21
ENDBRANCH   1  20
TORSDOF 11
