REMARK SMILES C#Cc1ccc2c(c1)C=C(C(=O)NCCCNC(=O)c1ccc(-c3c4nc(c(-c5c(F)c(F)c(F)c(F)c5F)c5ccc([nH]5)c(-c5c(F)c(F)c(F)c(F)c5F)c5nc(c(-c6c(F)c(F)c(F)c(F)c6F)c6ccc3[nH]6)C=C5)C=C4)cc1)[C@@H](C(F)(F)F)O2
REMARK SMILES IDX 15 1 14 2 13 3 11 4 12 5 10 7 3 8 4 9 8 10 5 11 7 12 6 13
REMARK SMILES IDX 9 14 88 15 83 16 2 17 1 18 84 19 85 20 86 21 87 22 16 23
REMARK SMILES IDX 17 24 18 25 19 27 20 28 21 29 82 30 22 31 81 32 23 33 24 34
REMARK SMILES IDX 25 35 75 36 26 37 80 38 74 39 76 40 27 41 79 42 73 43 72 44
REMARK SMILES IDX 28 46 60 47 40 48 59 49 41 50 44 51 58 52 77 53 42 54 43 55
REMARK SMILES IDX 57 57 78 58 45 59 29 60 30 61 38 62 31 63 32 64 36 65 39 66
REMARK SMILES IDX 33 67 34 68 37 69 35 70 61 71 62 72 70 73 63 74 64 75 68 76
REMARK SMILES IDX 71 77 65 78 66 79 69 80 67 81 46 82 47 83 55 84 48 85 49 86
REMARK SMILES IDX 53 87 56 88 50 89 51 90 54 91 52 92
REMARK H PARENT 13 6 17 26 76 45 44 56
REMARK Flexibility Score: inf
ROOT
ATOM      1  C   UNL     1      -9.953   2.550   1.089  1.00  0.00     0.042 C 
ENDROOT
BRANCH   1   2
ATOM      2  C   UNL     1      -9.159   2.672  -0.196  1.00  0.00     0.118 C 
BRANCH   2   3
ATOM      3  N   UNL     1      -8.050   3.606  -0.063  1.00  0.00    -0.352 N 
ATOM      4  C   UNL     1      -6.697   3.540  -0.033  1.00  0.00     0.251 C 
ATOM      5  O   UNL     1      -6.118   4.624   0.081  1.00  0.00    -0.270 OA
ATOM      6  H   UNL     1      -8.368   4.532   0.029  1.00  0.00     0.163 HD
BRANCH   4   7
ATOM      7  C   UNL     1      -5.907   2.278  -0.120  1.00  0.00     0.067 C 
ATOM      8  C   UNL     1      -1.616   0.056  -0.096  1.00  0.00     0.025 A 
ATOM      9  C   UNL     1      -2.261  -1.183  -0.087  1.00  0.00     0.021 A 
ATOM     10  C   UNL     1      -2.363   1.241  -0.075  1.00  0.00     0.029 A 
ATOM     11  C   UNL     1      -3.650  -1.243  -0.054  1.00  0.00     0.048 A 
ATOM     12  C   UNL     1      -3.759   1.184  -0.047  1.00  0.00     0.018 A 
ATOM     13  C   UNL     1      -4.388  -0.063  -0.041  1.00  0.00     0.128 A 
ATOM     14  C   UNL     1      -4.574   2.393   0.024  1.00  0.00     0.025 C 
ATOM     15  O   UNL     1      -5.741  -0.211   0.026  1.00  0.00    -0.475 OA
ATOM     16  C   UNL     1      -6.528   0.936  -0.374  1.00  0.00     0.314 C 
BRANCH   8  17
ATOM     17  C   UNL     1      -0.188   0.100  -0.109  1.00  0.00    -0.070 C 
ATOM     18  C   UNL     1       1.014   0.104  -0.112  1.00  0.00     0.010 C 
ENDBRANCH   8  17
BRANCH  16  19
ATOM     19  C   UNL     1      -6.972   0.760  -1.841  1.00  0.00     0.429 C 
ATOM     20  F   UNL     1      -7.897  -0.229  -1.935  1.00  0.00    -0.167 F 
ATOM     21  F   UNL     1      -7.554   1.873  -2.351  1.00  0.00    -0.167 F 
ATOM     22  F   UNL     1      -5.950   0.444  -2.665  1.00  0.00    -0.167 F 
ENDBRANCH  16  19
ENDBRANCH   4   7
ENDBRANCH   2   3
ENDBRANCH   1   2
BRANCH   1  23
ATOM     23  C   UNL     1     -10.912   3.714   1.261  1.00  0.00     0.118 C 
BRANCH  23  24
ATOM     24  N   UNL     1     -11.940   3.743   0.217  1.00  0.00    -0.352 N 
ATOM     25  C   UNL     1     -13.295   3.528   0.290  1.00  0.00     0.251 C 
ATOM     26  H   UNL     1     -11.604   3.951  -0.685  1.00  0.00     0.163 HD
ATOM     27  O   UNL     1     -13.954   3.373  -0.733  1.00  0.00    -0.269 OA
BRANCH  25  28
ATOM     28  C   UNL     1     -13.941   3.453   1.612  1.00  0.00     0.039 A 
ATOM     29  C   UNL     1     -13.528   4.312   2.627  1.00  0.00     0.014 A 
ATOM     30  C   UNL     1     -14.912   2.482   1.860  1.00  0.00     0.014 A 
ATOM     31  C   UNL     1     -13.868   4.023   3.935  1.00  0.00     0.010 A 
ATOM     32  C   UNL     1     -15.379   2.299   3.164  1.00  0.00     0.010 A 
ATOM     33  C   UNL     1     -14.803   3.017   4.223  1.00  0.00    -0.014 A 
BRANCH  33  34
ATOM     34  C   UNL     1     -15.140   2.742   5.643  1.00  0.00     0.031 A 
ATOM     35  C   UNL     1     -14.897   1.384   6.246  1.00  0.00     0.074 A 
ATOM     36  C   UNL     1     -15.593   3.753   6.411  1.00  0.00     0.049 A 
ATOM     37  N   UNL     1     -15.108   0.981   7.474  1.00  0.00    -0.248 NA
ATOM     38  C   UNL     1     -14.356   0.339   5.363  1.00  0.00     0.031 C 
ATOM     39  C   UNL     1     -15.847   5.117   5.939  1.00  0.00     0.029 A 
ATOM     40  N   UNL     1     -15.887   3.807   7.748  1.00  0.00    -0.354 N 
ATOM     41  C   UNL     1     -14.746  -0.360   7.503  1.00  0.00     0.074 A 
ATOM     42  C   UNL     1     -14.342  -0.718   6.162  1.00  0.00     0.031 C 
ATOM     43  C   UNL     1     -16.189   5.887   6.979  1.00  0.00     0.029 A 
ATOM     44  C   UNL     1     -16.273   5.055   8.173  1.00  0.00     0.049 A 
ATOM     45  H   UNL     1     -15.827   3.028   8.347  1.00  0.00     0.167 HD
ATOM     46  C   UNL     1     -14.735  -1.207   8.559  1.00  0.00     0.037 A 
ATOM     47  C   UNL     1     -16.676   5.482   9.384  1.00  0.00     0.037 A 
ATOM     48  C   UNL     1     -15.115  -0.833   9.897  1.00  0.00     0.049 A 
ATOM     49  C   UNL     1     -16.720   4.503  10.520  1.00  0.00     0.074 A 
ATOM     50  C   UNL     1     -15.113  -1.613  11.040  1.00  0.00     0.029 A 
ATOM     51  N   UNL     1     -15.566   0.425  10.271  1.00  0.00    -0.354 N 
ATOM     52  N   UNL     1     -16.351   3.245  10.539  1.00  0.00    -0.248 NA
ATOM     53  C   UNL     1     -17.241   4.996  11.801  1.00  0.00     0.031 C 
ATOM     54  C   UNL     1     -15.628  -0.850  12.089  1.00  0.00     0.029 A 
ATOM     55  C   UNL     1     -15.883   0.429  11.621  1.00  0.00     0.049 A 
ATOM     56  H   UNL     1     -15.649   1.199   9.668  1.00  0.00     0.167 HD
ATOM     57  C   UNL     1     -16.580   2.800  11.833  1.00  0.00     0.074 A 
ATOM     58  C   UNL     1     -17.096   3.931  12.577  1.00  0.00     0.031 C 
ATOM     59  C   UNL     1     -16.387   1.564  12.352  1.00  0.00     0.037 A 
BRANCH  46  60
ATOM     60  C   UNL     1     -14.305  -2.628   8.325  1.00  0.00     0.064 A 
ATOM     61  C   UNL     1     -12.974  -2.959   8.034  1.00  0.00     0.173 A 
ATOM     62  C   UNL     1     -15.222  -3.681   8.478  1.00  0.00     0.173 A 
ATOM     63  F   UNL     1     -12.058  -1.993   7.867  1.00  0.00    -0.203 F 
ATOM     64  C   UNL     1     -12.580  -4.288   7.890  1.00  0.00     0.198 A 
ATOM     65  C   UNL     1     -14.818  -5.009   8.368  1.00  0.00     0.198 A 
ATOM     66  F   UNL     1     -16.507  -3.423   8.764  1.00  0.00    -0.203 F 
ATOM     67  F   UNL     1     -11.309  -4.577   7.575  1.00  0.00    -0.200 F 
ATOM     68  C   UNL     1     -13.498  -5.311   8.069  1.00  0.00     0.200 A 
ATOM     69  F   UNL     1     -15.703  -5.996   8.562  1.00  0.00    -0.200 F 
ATOM     70  F   UNL     1     -13.112  -6.589   7.953  1.00  0.00    -0.200 F 
ENDBRANCH  46  60
BRANCH  47  71
ATOM     71  C   UNL     1     -17.074   6.903   9.563  1.00  0.00     0.064 A 
ATOM     72  C   UNL     1     -16.320   7.767  10.368  1.00  0.00     0.173 A 
ATOM     73  C   UNL     1     -18.193   7.437   8.904  1.00  0.00     0.173 A 
ATOM     74  F   UNL     1     -15.252   7.302  11.032  1.00  0.00    -0.203 F 
ATOM     75  C   UNL     1     -16.674   9.107  10.512  1.00  0.00     0.198 A 
ATOM     76  C   UNL     1     -18.523   8.784   9.018  1.00  0.00     0.198 A 
ATOM     77  F   UNL     1     -18.945   6.655   8.115  1.00  0.00    -0.203 F 
ATOM     78  F   UNL     1     -15.956   9.903  11.316  1.00  0.00    -0.200 F 
ATOM     79  C   UNL     1     -17.767   9.617   9.828  1.00  0.00     0.200 A 
ATOM     80  F   UNL     1     -19.566   9.277   8.335  1.00  0.00    -0.200 F 
ATOM     81  F   UNL     1     -18.094  10.911   9.951  1.00  0.00    -0.200 F 
ENDBRANCH  47  71
BRANCH  59  82
ATOM     82  C   UNL     1     -16.719   1.355  13.801  1.00  0.00     0.064 A 
ATOM     83  C   UNL     1     -18.047   1.330  14.252  1.00  0.00     0.173 A 
ATOM     84  C   UNL     1     -15.704   1.075  14.730  1.00  0.00     0.173 A 
ATOM     85  F   UNL     1     -19.052   1.604  13.407  1.00  0.00    -0.203 F 
ATOM     86  C   UNL     1     -18.346   1.039  15.580  1.00  0.00     0.198 A 
ATOM     87  C   UNL     1     -16.009   0.750  16.048  1.00  0.00     0.198 A 
ATOM     88  F   UNL     1     -14.418   1.078  14.348  1.00  0.00    -0.203 F 
ATOM     89  F   UNL     1     -19.620   1.051  15.995  1.00  0.00    -0.200 F 
ATOM     90  C   UNL     1     -17.329   0.735  16.472  1.00  0.00     0.200 A 
ATOM     91  F   UNL     1     -15.026   0.434  16.903  1.00  0.00    -0.200 F 
ATOM     92  F   UNL     1     -17.621   0.425  17.743  1.00  0.00    -0.200 F 
ENDBRANCH  59  82
ENDBRANCH  33  34
ENDBRANCH  25  28
ENDBRANCH  23  24
ENDBRANCH   1  23
TORSDOF 12
