REMARK SMILES COc1cc(OC)cc(-c2cc3nc(C)c(CCC(=O)NCCCNC(=O)c4ccc(-c5c6nc(c(-c7c(F)c(F)c(F)c(F)c7F)c7ccc([nH]7)c(-c7c(F)c(F)c(F)c(F)c7F)c7nc(c(-c8c(F)c(F)c(F)c(F)c8F)c8ccc5[nH]8)C=C7)C=C6)cc4)c(C)n3n2)c1
REMARK SMILES IDX 22 1 21 2 19 3 20 4 18 6 17 7 16 8 10 9 11 10 94 11 12 12
REMARK SMILES IDX 93 13 13 14 91 15 14 16 92 17 15 18 9 19 3 20 4 21 95 22
REMARK SMILES IDX 5 23 8 24 2 25 1 26 6 27 7 28 23 29 24 30 25 31 26 32 27 34
REMARK SMILES IDX 28 35 29 36 90 37 30 38 89 39 31 40 32 41 33 42 83 43 34 44
REMARK SMILES IDX 88 45 82 46 84 47 35 48 87 49 81 50 80 51 36 53 68 54 48 55
REMARK SMILES IDX 67 56 49 57 52 58 66 59 85 60 50 61 51 62 65 64 86 65 53 66
REMARK SMILES IDX 37 67 38 68 46 69 39 70 40 71 44 72 47 73 41 74 42 75 45 76
REMARK SMILES IDX 43 77 69 78 70 79 78 80 71 81 72 82 76 83 79 84 73 85 74 86
REMARK SMILES IDX 77 87 75 88 54 89 55 90 63 91 56 92 57 93 61 94 64 95 58 96
REMARK SMILES IDX 59 97 62 98 60 99
REMARK H PARENT 21 5 25 33 84 52 52 63
REMARK Flexibility Score: inf
ROOT
ATOM      1  C   UNL     1       8.337  -1.168   1.213  1.00  0.00     0.117 C 
ENDROOT
BRANCH   1   2
ATOM      2  N   UNL     1       9.214  -0.045   1.515  1.00  0.00    -0.356 N 
ATOM      3  C   UNL     1       9.891   0.265   2.656  1.00  0.00     0.220 C 
ATOM      4  O   UNL     1      10.322   1.411   2.782  1.00  0.00    -0.275 OA
ATOM      5  H   UNL     1       9.337   0.594   0.775  1.00  0.00     0.163 HD
BRANCH   3   6
ATOM      6  C   UNL     1      10.147  -0.791   3.714  1.00  0.00     0.105 C 
BRANCH   6   7
ATOM      7  C   UNL     1       9.689  -0.362   5.123  1.00  0.00     0.049 C 
BRANCH   7   8
ATOM      8  C   UNL     1       8.287  -0.840   5.436  1.00  0.00    -0.005 A 
ATOM      9  C   UNL     1       3.855  -1.080   4.861  1.00  0.00     0.095 A 
ATOM     10  C   UNL     1       4.493  -2.333   4.982  1.00  0.00     0.080 A 
ATOM     11  N   UNL     1       4.686  -0.082   5.205  1.00  0.00    -0.166 NA
ATOM     12  C   UNL     1       5.791  -2.062   5.338  1.00  0.00     0.156 A 
ATOM     13  N   UNL     1       5.902  -0.672   5.398  1.00  0.00    -0.219 N 
ATOM     14  N   UNL     1       6.852  -2.885   5.556  1.00  0.00    -0.234 NA
ATOM     15  C   UNL     1       7.177  -0.058   5.472  1.00  0.00     0.046 A 
ATOM     16  C   UNL     1       8.026  -2.327   5.616  1.00  0.00     0.045 A 
ATOM     17  C   UNL     1       7.222   1.443   5.423  1.00  0.00     0.067 C 
ATOM     18  C   UNL     1       9.174  -3.253   5.969  1.00  0.00     0.067 C 
BRANCH   9  19
ATOM     19  C   UNL     1       2.457  -0.846   4.492  1.00  0.00     0.009 A 
ATOM     20  C   UNL     1       0.587  -1.048   2.957  1.00  0.00     0.123 A 
ATOM     21  C   UNL     1      -0.253  -0.492   3.922  1.00  0.00     0.092 A 
ATOM     22  C   UNL     1       1.945  -1.233   3.237  1.00  0.00     0.057 A 
ATOM     23  C   UNL     1       0.243  -0.106   5.168  1.00  0.00     0.123 A 
ATOM     24  C   UNL     1       1.598  -0.282   5.450  1.00  0.00     0.057 A 
BRANCH  20  25
ATOM     25  O   UNL     1      -0.034  -1.516   1.830  1.00  0.00    -0.497 OA
ATOM     26  C   UNL     1       0.453  -0.987   0.601  1.00  0.00     0.278 C 
ENDBRANCH  20  25
BRANCH  23  27
ATOM     27  O   UNL     1      -0.697   0.403   6.021  1.00  0.00    -0.497 OA
ATOM     28  C   UNL     1      -0.260   0.749   7.329  1.00  0.00     0.278 C 
ENDBRANCH  23  27
ENDBRANCH   9  19
ENDBRANCH   7   8
ENDBRANCH   6   7
ENDBRANCH   3   6
ENDBRANCH   1   2
BRANCH   1  29
ATOM     29  C   UNL     1       7.032  -1.087   1.981  1.00  0.00     0.042 C 
BRANCH  29  30
ATOM     30  C   UNL     1       6.335   0.248   1.849  1.00  0.00     0.118 C 
BRANCH  30  31
ATOM     31  N   UNL     1       5.312   0.263   0.829  1.00  0.00    -0.352 N 
ATOM     32  C   UNL     1       4.039   0.781   0.898  1.00  0.00     0.251 C 
ATOM     33  H   UNL     1       5.558  -0.153  -0.028  1.00  0.00     0.163 HD
ATOM     34  O   UNL     1       3.236   0.466   0.026  1.00  0.00    -0.269 OA
BRANCH  32  35
ATOM     35  C   UNL     1       3.649   1.745   1.963  1.00  0.00     0.039 A 
ATOM     36  C   UNL     1       2.300   2.099   2.104  1.00  0.00     0.014 A 
ATOM     37  C   UNL     1       4.604   2.431   2.713  1.00  0.00     0.014 A 
ATOM     38  C   UNL     1       1.947   3.209   2.850  1.00  0.00     0.010 A 
ATOM     39  C   UNL     1       4.247   3.385   3.623  1.00  0.00     0.010 A 
ATOM     40  C   UNL     1       2.966   3.891   3.499  1.00  0.00    -0.014 A 
BRANCH  40  41
ATOM     41  C   UNL     1       2.860   5.318   3.727  1.00  0.00     0.031 A 
ATOM     42  C   UNL     1       2.342   5.719   5.048  1.00  0.00     0.074 A 
ATOM     43  C   UNL     1       3.504   6.134   2.857  1.00  0.00     0.049 A 
ATOM     44  N   UNL     1       1.385   6.545   5.308  1.00  0.00    -0.248 NA
ATOM     45  C   UNL     1       2.898   5.045   6.235  1.00  0.00     0.031 C 
ATOM     46  C   UNL     1       4.328   5.750   1.694  1.00  0.00     0.029 A 
ATOM     47  N   UNL     1       3.700   7.477   2.915  1.00  0.00    -0.354 N 
ATOM     48  C   UNL     1       1.343   6.637   6.695  1.00  0.00     0.074 A 
ATOM     49  C   UNL     1       2.154   5.568   7.207  1.00  0.00     0.031 C 
ATOM     50  C   UNL     1       5.110   6.785   1.326  1.00  0.00     0.029 A 
ATOM     51  C   UNL     1       4.745   7.938   2.122  1.00  0.00     0.049 A 
ATOM     52  H   UNL     1       3.148   8.073   3.471  1.00  0.00     0.167 HD
ATOM     53  C   UNL     1       0.866   7.753   7.307  1.00  0.00     0.037 A 
ATOM     54  C   UNL     1       5.321   9.163   2.194  1.00  0.00     0.037 A 
ATOM     55  C   UNL     1       0.011   8.508   6.426  1.00  0.00     0.049 A 
ATOM     56  C   UNL     1       4.379  10.040   2.938  1.00  0.00     0.074 A 
ATOM     57  C   UNL     1      -1.152   8.220   5.737  1.00  0.00     0.029 A 
ATOM     58  N   UNL     1       0.509   9.648   5.843  1.00  0.00    -0.354 N 
ATOM     59  N   UNL     1       3.207  10.397   2.485  1.00  0.00    -0.248 NA
ATOM     60  C   UNL     1       4.540  10.121   4.383  1.00  0.00     0.031 C 
ATOM     61  C   UNL     1      -1.021   8.896   4.488  1.00  0.00     0.029 A 
ATOM     62  C   UNL     1       0.183   9.599   4.511  1.00  0.00     0.049 A 
ATOM     63  H   UNL     1       1.006  10.367   6.296  1.00  0.00     0.167 HD
ATOM     64  C   UNL     1       2.368  10.354   3.591  1.00  0.00     0.074 A 
ATOM     65  C   UNL     1       3.260  10.252   4.743  1.00  0.00     0.031 C 
ATOM     66  C   UNL     1       1.031  10.106   3.457  1.00  0.00     0.037 A 
BRANCH  53  67
ATOM     67  C   UNL     1       1.474   8.332   8.560  1.00  0.00     0.064 A 
ATOM     68  C   UNL     1       0.830   9.411   9.192  1.00  0.00     0.173 A 
ATOM     69  C   UNL     1       2.795   8.072   8.998  1.00  0.00     0.173 A 
ATOM     70  F   UNL     1      -0.421   9.755   8.848  1.00  0.00    -0.203 F 
ATOM     71  C   UNL     1       1.487  10.220  10.121  1.00  0.00     0.198 A 
ATOM     72  C   UNL     1       3.426   8.847   9.968  1.00  0.00     0.198 A 
ATOM     73  F   UNL     1       3.571   7.139   8.437  1.00  0.00    -0.203 F 
ATOM     74  F   UNL     1       0.877  11.315  10.595  1.00  0.00    -0.200 F 
ATOM     75  C   UNL     1       2.787   9.943  10.502  1.00  0.00     0.200 A 
ATOM     76  F   UNL     1       4.691   8.565  10.314  1.00  0.00    -0.200 F 
ATOM     77  F   UNL     1       3.441  10.755  11.342  1.00  0.00    -0.200 F 
ENDBRANCH  53  67
BRANCH  54  78
ATOM     78  C   UNL     1       6.752   9.491   1.984  1.00  0.00     0.064 A 
ATOM     79  C   UNL     1       7.174  10.806   1.732  1.00  0.00     0.173 A 
ATOM     80  C   UNL     1       7.769   8.554   2.262  1.00  0.00     0.173 A 
ATOM     81  F   UNL     1       6.270  11.771   1.511  1.00  0.00    -0.203 F 
ATOM     82  C   UNL     1       8.529  11.160   1.762  1.00  0.00     0.198 A 
ATOM     83  C   UNL     1       9.120   8.905   2.280  1.00  0.00     0.198 A 
ATOM     84  F   UNL     1       7.469   7.294   2.610  1.00  0.00    -0.203 F 
ATOM     85  F   UNL     1       8.891  12.436   1.566  1.00  0.00    -0.200 F 
ATOM     86  C   UNL     1       9.500  10.211   2.040  1.00  0.00     0.200 A 
ATOM     87  F   UNL     1      10.043   7.983   2.588  1.00  0.00    -0.200 F 
ATOM     88  F   UNL     1      10.791  10.560   2.117  1.00  0.00    -0.200 F 
ENDBRANCH  54  78
BRANCH  66  89
ATOM     89  C   UNL     1       0.455  10.099   2.067  1.00  0.00     0.064 A 
ATOM     90  C   UNL     1       0.807   9.155   1.086  1.00  0.00     0.173 A 
ATOM     91  C   UNL     1      -0.603  10.966   1.770  1.00  0.00     0.173 A 
ATOM     92  F   UNL     1       1.732   8.222   1.332  1.00  0.00    -0.203 F 
ATOM     93  C   UNL     1       0.162   9.111  -0.149  1.00  0.00     0.198 A 
ATOM     94  C   UNL     1      -1.271  10.898   0.549  1.00  0.00     0.198 A 
ATOM     95  F   UNL     1      -1.028  11.846   2.689  1.00  0.00    -0.203 F 
ATOM     96  F   UNL     1       0.526   8.203  -1.067  1.00  0.00    -0.200 F 
ATOM     97  C   UNL     1      -0.883   9.979  -0.413  1.00  0.00     0.200 A 
ATOM     98  F   UNL     1      -2.316  11.705   0.316  1.00  0.00    -0.200 F 
ATOM     99  F   UNL     1      -1.535   9.910  -1.582  1.00  0.00    -0.200 F 
ENDBRANCH  66  89
ENDBRANCH  40  41
ENDBRANCH  32  35
ENDBRANCH  30  31
ENDBRANCH  29  30
ENDBRANCH   1  29
TORSDOF 15
