REMARK SMILES CC(C)(C(=O)NCCCNC(=O)c1ccc(-c2c3nc(c(-c4c(F)c(F)c(F)c(F)c4F)c4ccc([nH]4)c(-c4c(F)c(F)c(F)c(F)c4F)c4nc(c(-c5c(F)c(F)c(F)c(F)c5F)c5ccc2[nH]5)C=C4)C=C3)cc1)C1CCCCC1
REMARK SMILES IDX 8 1 7 2 6 3 4 4 5 5 2 7 1 8 3 9 76 10 77 11 81 12 78 13
REMARK SMILES IDX 80 14 79 15 9 16 10 17 11 18 12 20 13 21 14 22 75 23 15 24
REMARK SMILES IDX 74 25 16 26 17 27 18 28 68 29 19 30 73 31 67 32 69 33 20 34
REMARK SMILES IDX 72 35 66 36 65 37 21 39 53 40 33 41 52 42 34 43 37 44 51 45
REMARK SMILES IDX 70 46 35 47 36 48 50 50 71 51 38 52 22 53 23 54 31 55 24 56
REMARK SMILES IDX 25 57 29 58 32 59 26 60 27 61 30 62 28 63 54 64 55 65 63 66
REMARK SMILES IDX 56 67 57 68 61 69 64 70 58 71 59 72 62 73 60 74 39 75 40 76
REMARK SMILES IDX 48 77 41 78 42 79 46 80 49 81 43 82 44 83 47 84 45 85
REMARK H PARENT 6 6 10 19 69 38 37 49
REMARK Flexibility Score: inf
ROOT
ATOM      1  C   UNL     1      -1.375   0.071  -2.690  1.00  0.00     0.042 C 
ENDROOT
BRANCH   1   2
ATOM      2  C   UNL     1      -0.981   1.401  -2.064  1.00  0.00     0.117 C 
BRANCH   2   3
ATOM      3  N   UNL     1      -1.499   1.528  -0.716  1.00  0.00    -0.356 N 
ATOM      4  C   UNL     1      -0.925   1.496   0.513  1.00  0.00     0.225 C 
ATOM      5  O   UNL     1      -1.729   1.518   1.449  1.00  0.00    -0.275 OA
ATOM      6  H   UNL     1      -2.473   1.666  -0.686  1.00  0.00     0.163 HD
BRANCH   4   7
ATOM      7  C   UNL     1       0.608   1.440   0.730  1.00  0.00     0.046 C 
ATOM      8  C   UNL     1       1.172   0.127   0.150  1.00  0.00     0.022 C 
ATOM      9  C   UNL     1       1.279   2.649   0.038  1.00  0.00     0.022 C 
BRANCH   7  10
ATOM     10  C   UNL     1       0.980   1.510   2.275  1.00  0.00     0.004 C 
ATOM     11  C   UNL     1       0.560   2.838   2.952  1.00  0.00     0.005 C 
ATOM     12  C   UNL     1       0.517   0.285   3.099  1.00  0.00     0.005 C 
ATOM     13  C   UNL     1       0.940   2.893   4.429  1.00  0.00     0.000 C 
ATOM     14  C   UNL     1       0.900   0.394   4.574  1.00  0.00     0.000 C 
ATOM     15  C   UNL     1       0.400   1.692   5.190  1.00  0.00     0.000 C 
ENDBRANCH   7  10
ENDBRANCH   4   7
ENDBRANCH   2   3
ENDBRANCH   1   2
BRANCH   1  16
ATOM     16  C   UNL     1      -2.878  -0.087  -2.877  1.00  0.00     0.118 C 
BRANCH  16  17
ATOM     17  N   UNL     1      -3.435   0.903  -3.792  1.00  0.00    -0.352 N 
ATOM     18  C   UNL     1      -4.018   0.731  -5.023  1.00  0.00     0.251 C 
ATOM     19  H   UNL     1      -3.385   1.835  -3.480  1.00  0.00     0.163 HD
ATOM     20  O   UNL     1      -4.235   1.699  -5.746  1.00  0.00    -0.269 OA
BRANCH  18  21
ATOM     21  C   UNL     1      -4.370  -0.627  -5.481  1.00  0.00     0.039 A 
ATOM     22  C   UNL     1      -4.084  -1.002  -6.796  1.00  0.00     0.014 A 
ATOM     23  C   UNL     1      -4.976  -1.530  -4.606  1.00  0.00     0.014 A 
ATOM     24  C   UNL     1      -4.340  -2.311  -7.210  1.00  0.00     0.010 A 
ATOM     25  C   UNL     1      -5.137  -2.855  -4.988  1.00  0.00     0.010 A 
ATOM     26  C   UNL     1      -4.830  -3.258  -6.297  1.00  0.00    -0.014 A 
BRANCH  26  27
ATOM     27  C   UNL     1      -5.061  -4.673  -6.678  1.00  0.00     0.031 A 
ATOM     28  C   UNL     1      -6.447  -5.248  -6.589  1.00  0.00     0.074 A 
ATOM     29  C   UNL     1      -4.019  -5.460  -7.008  1.00  0.00     0.049 A 
ATOM     30  N   UNL     1      -6.844  -6.487  -6.729  1.00  0.00    -0.248 NA
ATOM     31  C   UNL     1      -7.530  -4.305  -6.263  1.00  0.00     0.031 C 
ATOM     32  C   UNL     1      -2.623  -5.028  -7.093  1.00  0.00     0.029 A 
ATOM     33  N   UNL     1      -3.971  -6.798  -7.312  1.00  0.00    -0.354 N 
ATOM     34  C   UNL     1      -8.210  -6.474  -6.483  1.00  0.00     0.074 A 
ATOM     35  C   UNL     1      -8.566  -5.118  -6.128  1.00  0.00     0.031 C 
ATOM     36  C   UNL     1      -1.859  -6.075  -7.443  1.00  0.00     0.029 A 
ATOM     37  C   UNL     1      -2.701  -7.262  -7.557  1.00  0.00     0.049 A 
ATOM     38  H   UNL     1      -4.771  -7.370  -7.352  1.00  0.00     0.167 HD
ATOM     39  C   UNL     1      -9.093  -7.497  -6.569  1.00  0.00     0.037 A 
ATOM     40  C   UNL     1      -2.266  -8.508  -7.823  1.00  0.00     0.037 A 
ATOM     41  C   UNL     1      -8.735  -8.838  -6.948  1.00  0.00     0.049 A 
ATOM     42  C   UNL     1      -3.265  -9.633  -7.894  1.00  0.00     0.074 A 
ATOM     43  C   UNL     1      -9.560  -9.935  -7.119  1.00  0.00     0.029 A 
ATOM     44  N   UNL     1      -7.441  -9.264  -7.214  1.00  0.00    -0.354 N 
ATOM     45  N   UNL     1      -4.564  -9.600  -7.717  1.00  0.00    -0.248 NA
ATOM     46  C   UNL     1      -2.737 -10.968  -8.208  1.00  0.00     0.031 C 
ATOM     47  C   UNL     1      -8.759 -11.038  -7.433  1.00  0.00     0.029 A 
ATOM     48  C   UNL     1      -7.443 -10.613  -7.525  1.00  0.00     0.049 A 
ATOM     49  H   UNL     1      -6.641  -8.691  -7.186  1.00  0.00     0.167 HD
ATOM     50  C   UNL     1      -5.013 -10.896  -7.936  1.00  0.00     0.074 A 
ATOM     51  C   UNL     1      -3.848 -11.689  -8.267  1.00  0.00     0.031 C 
ATOM     52  C   UNL     1      -6.276 -11.384  -7.872  1.00  0.00     0.037 A 
BRANCH  39  53
ATOM     53  C   UNL     1     -10.531  -7.205  -6.245  1.00  0.00     0.064 A 
ATOM     54  C   UNL     1     -11.321  -6.383  -7.064  1.00  0.00     0.173 A 
ATOM     55  C   UNL     1     -11.136  -7.778  -5.116  1.00  0.00     0.173 A 
ATOM     56  F   UNL     1     -10.789  -5.799  -8.149  1.00  0.00    -0.203 F 
ATOM     57  C   UNL     1     -12.650  -6.118  -6.746  1.00  0.00     0.198 A 
ATOM     58  C   UNL     1     -12.476  -7.540  -4.822  1.00  0.00     0.198 A 
ATOM     59  F   UNL     1     -10.430  -8.576  -4.301  1.00  0.00    -0.203 F 
ATOM     60  F   UNL     1     -13.366  -5.283  -7.512  1.00  0.00    -0.200 F 
ATOM     61  C   UNL     1     -13.229  -6.703  -5.631  1.00  0.00     0.200 A 
ATOM     62  F   UNL     1     -13.038  -8.119  -3.752  1.00  0.00    -0.200 F 
ATOM     63  F   UNL     1     -14.511  -6.454  -5.331  1.00  0.00    -0.200 F 
ENDBRANCH  39  53
BRANCH  40  64
ATOM     64  C   UNL     1      -0.819  -8.758  -8.059  1.00  0.00     0.064 A 
ATOM     65  C   UNL     1      -0.351  -9.134  -9.326  1.00  0.00     0.173 A 
ATOM     66  C   UNL     1       0.124  -8.640  -7.027  1.00  0.00     0.173 A 
ATOM     67  F   UNL     1      -1.216  -9.280 -10.342  1.00  0.00    -0.203 F 
ATOM     68  C   UNL     1       0.997  -9.408  -9.546  1.00  0.00     0.198 A 
ATOM     69  C   UNL     1       1.477  -8.882  -7.255  1.00  0.00     0.198 A 
ATOM     70  F   UNL     1      -0.268  -8.276  -5.797  1.00  0.00    -0.203 F 
ATOM     71  F   UNL     1       1.407  -9.817 -10.755  1.00  0.00    -0.200 F 
ATOM     72  C   UNL     1       1.911  -9.276  -8.512  1.00  0.00     0.200 A 
ATOM     73  F   UNL     1       2.359  -8.737  -6.258  1.00  0.00    -0.200 F 
ATOM     74  F   UNL     1       3.208  -9.537  -8.724  1.00  0.00    -0.200 F 
ENDBRANCH  40  64
BRANCH  52  75
ATOM     75  C   UNL     1      -6.479 -12.829  -8.225  1.00  0.00     0.064 A 
ATOM     76  C   UNL     1      -6.041 -13.867  -7.390  1.00  0.00     0.173 A 
ATOM     77  C   UNL     1      -7.173 -13.177  -9.396  1.00  0.00     0.173 A 
ATOM     78  F   UNL     1      -5.362 -13.589  -6.267  1.00  0.00    -0.203 F 
ATOM     79  C   UNL     1      -6.267 -15.199  -7.726  1.00  0.00     0.198 A 
ATOM     80  C   UNL     1      -7.428 -14.508  -9.710  1.00  0.00     0.198 A 
ATOM     81  F   UNL     1      -7.620 -12.223 -10.226  1.00  0.00    -0.203 F 
ATOM     82  F   UNL     1      -5.797 -16.176  -6.937  1.00  0.00    -0.200 F 
ATOM     83  C   UNL     1      -6.968 -15.518  -8.879  1.00  0.00     0.200 A 
ATOM     84  F   UNL     1      -8.120 -14.813 -10.816  1.00  0.00    -0.200 F 
ATOM     85  F   UNL     1      -7.196 -16.801  -9.194  1.00  0.00    -0.200 F 
ENDBRANCH  52  75
ENDBRANCH  26  27
ENDBRANCH  18  21
ENDBRANCH  16  17
ENDBRANCH   1  16
TORSDOF 11
