REMARK SMILES C[C@H]1[C@H](C(=O)NCCCNC(=O)c2ccc(-c3c4nc(c(-c5c(F)c(F)c(F)c(F)c5F)c5ccc([nH]5)c(-c5c(F)c(F)c(F)c(F)c5F)c5nc(c(-c6c(F)c(F)c(F)c(F)c6F)c6ccc3[nH]6)C=C5)C=C4)cc2)CC[N@@H+]1[C@@H](c1ccccc1)c1ccco1
REMARK SMILES IDX 8 1 7 2 6 3 4 4 5 5 3 7 1 8 2 9 78 10 76 11 77 12 79 14
REMARK SMILES IDX 80 15 81 16 85 17 82 18 84 19 83 20 86 21 87 22 90 23 88 24
REMARK SMILES IDX 89 25 9 26 10 27 11 28 12 30 13 31 14 32 75 33 15 34 74 35
REMARK SMILES IDX 16 36 17 37 18 38 68 39 19 40 73 41 67 42 69 43 20 44 72 45
REMARK SMILES IDX 66 46 65 47 21 49 53 50 33 51 52 52 34 53 37 54 51 55 70 56
REMARK SMILES IDX 35 57 36 58 50 60 71 61 38 62 22 63 23 64 31 65 24 66 25 67
REMARK SMILES IDX 29 68 32 69 26 70 27 71 30 72 28 73 54 74 55 75 63 76 56 77
REMARK SMILES IDX 57 78 61 79 64 80 58 81 59 82 62 83 60 84 39 85 40 86 48 87
REMARK SMILES IDX 41 88 42 89 46 90 49 91 43 92 44 93 47 94 45 95
REMARK H PARENT 6 6 78 13 10 29 69 48 37 59
REMARK Flexibility Score: inf
ROOT
ATOM      1  C   UNL     1       0.453   1.127   4.110  1.00  0.00     0.042 C 
ENDROOT
BRANCH   1   2
ATOM      2  C   UNL     1      -0.513   1.639   3.046  1.00  0.00     0.117 C 
BRANCH   2   3
ATOM      3  N   UNL     1       0.101   2.593   2.153  1.00  0.00    -0.356 N 
ATOM      4  C   UNL     1       0.379   2.493   0.827  1.00  0.00     0.229 C 
ATOM      5  O   UNL     1       0.850   3.503   0.290  1.00  0.00    -0.275 OA
ATOM      6  H   UNL     1       0.357   3.448   2.568  1.00  0.00     0.163 HD
BRANCH   4   7
ATOM      7  C   UNL     1       0.102   1.249  -0.019  1.00  0.00     0.142 C 
ATOM      8  C   UNL     1       1.907  -0.475  -0.264  1.00  0.00     0.076 C 
ATOM      9  C   UNL     1       0.621  -0.108   0.492  1.00  0.00     0.194 C 
ATOM     10  N   UNL     1      -0.421  -1.108   0.167  1.00  0.00    -0.319 N 
ATOM     11  C   UNL     1      -1.363   1.006  -0.346  1.00  0.00     0.081 C 
ATOM     12  C   UNL     1      -1.385  -0.472  -0.721  1.00  0.00     0.264 C 
ATOM     13  H   UNL     1       0.005  -1.879  -0.347  1.00  0.00     0.349 HD
BRANCH  10  14
ATOM     14  C   UNL     1      -0.917  -1.974   1.266  1.00  0.00     0.283 C 
BRANCH  14  15
ATOM     15  C   UNL     1      -1.861  -1.407   2.338  1.00  0.00     0.017 A 
ATOM     16  C   UNL     1      -1.608  -1.710   3.691  1.00  0.00     0.010 A 
ATOM     17  C   UNL     1      -3.048  -0.709   2.055  1.00  0.00     0.010 A 
ATOM     18  C   UNL     1      -2.446  -1.248   4.709  1.00  0.00     0.001 A 
ATOM     19  C   UNL     1      -3.869  -0.214   3.074  1.00  0.00     0.001 A 
ATOM     20  C   UNL     1      -3.559  -0.473   4.402  1.00  0.00     0.000 A 
ENDBRANCH  14  15
BRANCH  14  21
ATOM     21  C   UNL     1      -1.407  -3.321   0.777  1.00  0.00     0.165 A 
ATOM     22  C   UNL     1      -0.786  -4.379   0.141  1.00  0.00     0.052 A 
ATOM     23  O   UNL     1      -2.683  -3.688   1.117  1.00  0.00    -0.463 OA
ATOM     24  C   UNL     1      -1.713  -5.452   0.141  1.00  0.00     0.042 A 
ATOM     25  C   UNL     1      -2.849  -4.980   0.750  1.00  0.00     0.195 A 
ENDBRANCH  14  21
ENDBRANCH  10  14
ENDBRANCH   4   7
ENDBRANCH   2   3
ENDBRANCH   1   2
BRANCH   1  26
ATOM     26  C   UNL     1       0.336   1.856   5.443  1.00  0.00     0.118 C 
BRANCH  26  27
ATOM     27  N   UNL     1      -0.971   1.705   6.080  1.00  0.00    -0.352 N 
ATOM     28  C   UNL     1      -1.401   1.024   7.188  1.00  0.00     0.251 C 
ATOM     29  H   UNL     1      -1.690   2.194   5.618  1.00  0.00     0.163 HD
ATOM     30  O   UNL     1      -2.615   0.977   7.421  1.00  0.00    -0.269 OA
BRANCH  28  31
ATOM     31  C   UNL     1      -0.477   0.317   8.101  1.00  0.00     0.039 A 
ATOM     32  C   UNL     1      -0.919  -0.850   8.740  1.00  0.00     0.014 A 
ATOM     33  C   UNL     1       0.788   0.817   8.399  1.00  0.00     0.014 A 
ATOM     34  C   UNL     1      -0.079  -1.532   9.628  1.00  0.00     0.010 A 
ATOM     35  C   UNL     1       1.663   0.081   9.190  1.00  0.00     0.010 A 
ATOM     36  C   UNL     1       1.233  -1.087   9.838  1.00  0.00    -0.014 A 
BRANCH  36  37
ATOM     37  C   UNL     1       2.163  -1.766  10.777  1.00  0.00     0.031 A 
ATOM     38  C   UNL     1       2.732  -0.997  11.942  1.00  0.00     0.074 A 
ATOM     39  C   UNL     1       2.572  -3.026  10.538  1.00  0.00     0.049 A 
ATOM     40  N   UNL     1       3.696  -1.322  12.766  1.00  0.00    -0.248 NA
ATOM     41  C   UNL     1       2.171   0.344  12.180  1.00  0.00     0.031 C 
ATOM     42  C   UNL     1       2.129  -3.865   9.424  1.00  0.00     0.029 A 
ATOM     43  N   UNL     1       3.476  -3.813  11.208  1.00  0.00    -0.354 N 
ATOM     44  C   UNL     1       3.880  -0.216  13.587  1.00  0.00     0.074 A 
ATOM     45  C   UNL     1       2.973   0.811  13.123  1.00  0.00     0.031 C 
ATOM     46  C   UNL     1       2.752  -5.052   9.493  1.00  0.00     0.029 A 
ATOM     47  C   UNL     1       3.672  -5.042  10.626  1.00  0.00     0.049 A 
ATOM     48  H   UNL     1       3.939  -3.525  12.027  1.00  0.00     0.167 HD
ATOM     49  C   UNL     1       4.709  -0.077  14.649  1.00  0.00     0.037 A 
ATOM     50  C   UNL     1       4.512  -6.040  10.961  1.00  0.00     0.037 A 
ATOM     51  C   UNL     1       5.573  -1.120  15.135  1.00  0.00     0.049 A 
ATOM     52  C   UNL     1       5.407  -5.873  12.159  1.00  0.00     0.074 A 
ATOM     53  C   UNL     1       6.407  -1.107  16.239  1.00  0.00     0.029 A 
ATOM     54  N   UNL     1       5.704  -2.371  14.549  1.00  0.00    -0.354 N 
ATOM     55  N   UNL     1       5.544  -4.838  12.953  1.00  0.00    -0.248 NA
ATOM     56  C   UNL     1       6.260  -7.016  12.511  1.00  0.00     0.031 C 
ATOM     57  C   UNL     1       7.073  -2.337  16.298  1.00  0.00     0.029 A 
ATOM     58  C   UNL     1       6.614  -3.134  15.261  1.00  0.00     0.049 A 
ATOM     59  H   UNL     1       5.221  -2.671  13.745  1.00  0.00     0.167 HD
ATOM     60  C   UNL     1       6.476  -5.213  13.912  1.00  0.00     0.074 A 
ATOM     61  C   UNL     1       6.856  -6.578  13.611  1.00  0.00     0.031 C 
ATOM     62  C   UNL     1       6.976  -4.493  14.946  1.00  0.00     0.037 A 
BRANCH  49  63
ATOM     63  C   UNL     1       4.713   1.249  15.358  1.00  0.00     0.064 A 
ATOM     64  C   UNL     1       3.602   1.697  16.091  1.00  0.00     0.173 A 
ATOM     65  C   UNL     1       5.846   2.075  15.321  1.00  0.00     0.173 A 
ATOM     66  F   UNL     1       2.487   0.953  16.150  1.00  0.00    -0.203 F 
ATOM     67  C   UNL     1       3.611   2.938  16.724  1.00  0.00     0.198 A 
ATOM     68  C   UNL     1       5.865   3.299  15.986  1.00  0.00     0.198 A 
ATOM     69  F   UNL     1       6.939   1.696  14.641  1.00  0.00    -0.203 F 
ATOM     70  F   UNL     1       2.515   3.370  17.362  1.00  0.00    -0.200 F 
ATOM     71  C   UNL     1       4.745   3.734  16.677  1.00  0.00     0.200 A 
ATOM     72  F   UNL     1       6.967   4.062  15.951  1.00  0.00    -0.200 F 
ATOM     73  F   UNL     1       4.754   4.926  17.290  1.00  0.00    -0.200 F 
ENDBRANCH  49  63
BRANCH  50  74
ATOM     74  C   UNL     1       4.528  -7.294  10.162  1.00  0.00     0.064 A 
ATOM     75  C   UNL     1       4.034  -8.492  10.696  1.00  0.00     0.173 A 
ATOM     76  C   UNL     1       5.028  -7.322   8.852  1.00  0.00     0.173 A 
ATOM     77  F   UNL     1       3.564  -8.521  11.952  1.00  0.00    -0.203 F 
ATOM     78  C   UNL     1       4.059  -9.674   9.959  1.00  0.00     0.198 A 
ATOM     79  C   UNL     1       5.025  -8.498   8.105  1.00  0.00     0.198 A 
ATOM     80  F   UNL     1       5.506  -6.201   8.291  1.00  0.00    -0.203 F 
ATOM     81  F   UNL     1       3.622 -10.814  10.511  1.00  0.00    -0.200 F 
ATOM     82  C   UNL     1       4.548  -9.675   8.662  1.00  0.00     0.200 A 
ATOM     83  F   UNL     1       5.483  -8.491   6.846  1.00  0.00    -0.200 F 
ATOM     84  F   UNL     1       4.564 -10.810   7.950  1.00  0.00    -0.200 F 
ENDBRANCH  50  74
BRANCH  62  85
ATOM     85  C   UNL     1       7.962  -5.181  15.846  1.00  0.00     0.064 A 
ATOM     86  C   UNL     1       9.264  -5.483  15.418  1.00  0.00     0.173 A 
ATOM     87  C   UNL     1       7.607  -5.518  17.161  1.00  0.00     0.173 A 
ATOM     88  F   UNL     1       9.647  -5.194  14.166  1.00  0.00    -0.203 F 
ATOM     89  C   UNL     1      10.162  -6.128  16.264  1.00  0.00     0.198 A 
ATOM     90  C   UNL     1       8.519  -6.132  18.014  1.00  0.00     0.198 A 
ATOM     91  F   UNL     1       6.378  -5.242  17.622  1.00  0.00    -0.203 F 
ATOM     92  F   UNL     1      11.382  -6.457  15.816  1.00  0.00    -0.200 F 
ATOM     93  C   UNL     1       9.792  -6.446  17.562  1.00  0.00     0.200 A 
ATOM     94  F   UNL     1       8.164  -6.425  19.273  1.00  0.00    -0.200 F 
ATOM     95  F   UNL     1      10.659  -7.063  18.376  1.00  0.00    -0.200 F 
ENDBRANCH  62  85
ENDBRANCH  36  37
ENDBRANCH  28  31
ENDBRANCH  26  27
ENDBRANCH   1  26
TORSDOF 13
