REMARK SMILES Cc1coc2c(C)c3oc(=O)c(CC(=O)NCC(=O)N[C@H](C(=O)NCCCNC(=O)c4ccc(-c5c6nc(c(-c7c(F)c(F)c(F)c(F)c7F)c7ccc([nH]7)c(-c7c(F)c(F)c(F)c(F)c7F)c7nc(c(-c8c(F)c(F)c(F)c(F)c8F)c8ccc5[nH]8)C=C7)C=C6)cc4)C(C)C)c(C)c3cc12
REMARK SMILES IDX 22 1 23 2 24 3 21 5 20 6 18 7 19 8 17 10 16 11 14 12 15 13
REMARK SMILES IDX 13 15 12 16 1 17 2 18 3 19 101 20 4 21 5 22 100 23 6 24
REMARK SMILES IDX 99 25 7 26 8 27 97 28 9 29 98 30 10 31 11 32 94 33 95 34
REMARK SMILES IDX 96 35 25 36 26 37 27 38 28 39 29 40 30 42 31 43 32 44 93 45
REMARK SMILES IDX 33 46 92 47 34 48 35 49 36 50 86 51 37 52 91 53 85 54 87 55
REMARK SMILES IDX 38 56 90 57 84 58 83 59 39 61 71 62 51 63 70 64 52 65 55 66
REMARK SMILES IDX 69 67 88 68 53 69 54 70 68 72 89 73 56 74 40 75 41 76 49 77
REMARK SMILES IDX 42 78 43 79 47 80 50 81 44 82 45 83 48 84 46 85 72 86 73 87
REMARK SMILES IDX 81 88 74 89 75 90 79 91 82 92 76 93 77 94 80 95 78 96 57 97
REMARK SMILES IDX 58 98 66 99 59 100 60 101 64 102 67 103 61 104 62 105 65 106
REMARK SMILES IDX 63 107
REMARK H PARENT 24 4 20 9 16 14 28 41 87 60 55 71
REMARK Flexibility Score: inf
ROOT
ATOM      1  C   UNL     1      -3.759  -1.195   3.391  1.00  0.00     0.242 C 
ATOM      2  O   UNL     1      -4.791  -0.924   4.011  1.00  0.00    -0.273 OA
ATOM      3  N   UNL     1      -3.107  -2.345   3.718  1.00  0.00    -0.354 N 
ATOM      4  H   UNL     1      -3.446  -2.835   4.502  1.00  0.00     0.163 HD
ENDROOT
BRANCH   1   5
ATOM      5  C   UNL     1      -3.377  -0.433   2.104  1.00  0.00     0.173 C 
BRANCH   5   6
ATOM      6  N   UNL     1      -1.949  -0.181   1.759  1.00  0.00    -0.343 N 
ATOM      7  C   UNL     1      -1.163  -0.326   0.636  1.00  0.00     0.240 C 
ATOM      8  O   UNL     1      -0.037   0.184   0.779  1.00  0.00    -0.273 OA
ATOM      9  H   UNL     1      -1.441   0.177   2.523  1.00  0.00     0.164 HD
BRANCH   7  10
ATOM     10  C   UNL     1      -1.537  -0.917  -0.862  1.00  0.00     0.216 C 
BRANCH  10  11
ATOM     11  N   UNL     1      -2.177  -2.250  -1.194  1.00  0.00    -0.347 N 
ATOM     12  C   UNL     1      -3.278  -2.854  -1.740  1.00  0.00     0.225 C 
ATOM     13  O   UNL     1      -3.238  -4.091  -1.582  1.00  0.00    -0.275 OA
ATOM     14  H   UNL     1      -1.560  -2.960  -0.901  1.00  0.00     0.164 HD
BRANCH  12  15
ATOM     15  C   UNL     1      -4.511  -2.309  -2.596  1.00  0.00     0.143 C 
BRANCH  15  16
ATOM     16  C   UNL     1      -5.765  -1.523  -2.107  1.00  0.00     0.051 A 
ATOM     17  C   UNL     1      -9.934  -0.719   3.598  1.00  0.00     0.048 C 
ATOM     18  C   UNL     1      -9.446   0.295   2.632  1.00  0.00    -0.005 A 
ATOM     19  C   UNL     1      -9.554   1.663   2.794  1.00  0.00     0.199 A 
ATOM     20  C   UNL     1      -8.767   0.101   1.379  1.00  0.00     0.024 A 
ATOM     21  O   UNL     1      -8.969   2.319   1.767  1.00  0.00    -0.464 OA
ATOM     22  C   UNL     1      -8.489   1.378   0.907  1.00  0.00     0.140 A 
ATOM     23  C   UNL     1      -8.307  -1.005   0.608  1.00  0.00     0.024 A 
ATOM     24  C   UNL     1      -7.792   1.659  -0.268  1.00  0.00     0.036 A 
ATOM     25  C   UNL     1      -7.599  -0.803  -0.608  1.00  0.00     0.022 A 
ATOM     26  C   UNL     1      -7.414   3.055  -0.652  1.00  0.00     0.052 C 
ATOM     27  C   UNL     1      -7.412   0.519  -1.018  1.00  0.00     0.145 A 
ATOM     28  C   UNL     1      -6.829  -1.886  -1.330  1.00  0.00    -0.029 A 
ATOM     29  O   UNL     1      -6.690   0.772  -2.200  1.00  0.00    -0.422 OA
ATOM     30  C   UNL     1      -7.184  -3.308  -0.959  1.00  0.00     0.046 C 
ATOM     31  C   UNL     1      -5.868  -0.179  -2.772  1.00  0.00     0.340 A 
ATOM     32  O   UNL     1      -5.225   0.089  -3.782  1.00  0.00    -0.246 OA
ENDBRANCH  15  16
ENDBRANCH  12  15
ENDBRANCH  10  11
ENDBRANCH   7  10
ENDBRANCH   5   6
BRANCH   5  33
ATOM     33  C   UNL     1      -3.992  -1.093   0.912  1.00  0.00     0.015 C 
ATOM     34  C   UNL     1      -4.934  -2.264   1.105  1.00  0.00     0.010 C 
ATOM     35  C   UNL     1      -4.286   0.051  -0.048  1.00  0.00     0.010 C 
ENDBRANCH   5  33
ENDBRANCH   1   5
BRANCH   3  36
ATOM     36  C   UNL     1      -1.973  -2.925   3.037  1.00  0.00     0.117 C 
BRANCH  36  37
ATOM     37  C   UNL     1      -0.672  -2.357   3.587  1.00  0.00     0.042 C 
BRANCH  37  38
ATOM     38  C   UNL     1      -0.193  -3.173   4.767  1.00  0.00     0.118 C 
BRANCH  38  39
ATOM     39  N   UNL     1       0.175  -4.522   4.349  1.00  0.00    -0.352 N 
ATOM     40  C   UNL     1       0.124  -5.695   5.086  1.00  0.00     0.251 C 
ATOM     41  H   UNL     1       0.501  -4.611   3.425  1.00  0.00     0.163 HD
ATOM     42  O   UNL     1       0.606  -6.719   4.713  1.00  0.00    -0.269 OA
BRANCH  40  43
ATOM     43  C   UNL     1      -0.557  -5.585   6.389  1.00  0.00     0.039 A 
ATOM     44  C   UNL     1       0.209  -5.601   7.553  1.00  0.00     0.014 A 
ATOM     45  C   UNL     1      -1.897  -5.205   6.386  1.00  0.00     0.014 A 
ATOM     46  C   UNL     1      -0.367  -5.149   8.735  1.00  0.00     0.010 A 
ATOM     47  C   UNL     1      -2.419  -4.647   7.533  1.00  0.00     0.010 A 
ATOM     48  C   UNL     1      -1.675  -4.641   8.721  1.00  0.00    -0.014 A 
BRANCH  48  49
ATOM     49  C   UNL     1      -2.241  -4.064   9.943  1.00  0.00     0.031 A 
ATOM     50  C   UNL     1      -1.449  -3.028  10.688  1.00  0.00     0.074 A 
ATOM     51  C   UNL     1      -3.512  -4.297  10.328  1.00  0.00     0.049 A 
ATOM     52  N   UNL     1      -1.072  -3.046  11.929  1.00  0.00    -0.248 NA
ATOM     53  C   UNL     1      -1.027  -1.819   9.964  1.00  0.00     0.031 C 
ATOM     54  C   UNL     1      -4.574  -5.033   9.631  1.00  0.00     0.029 A 
ATOM     55  N   UNL     1      -4.149  -3.810  11.426  1.00  0.00    -0.354 N 
ATOM     56  C   UNL     1      -0.458  -1.819  12.187  1.00  0.00     0.074 A 
ATOM     57  C   UNL     1      -0.408  -1.124  10.923  1.00  0.00     0.031 C 
ATOM     58  C   UNL     1      -5.764  -4.744  10.196  1.00  0.00     0.029 A 
ATOM     59  C   UNL     1      -5.520  -3.973  11.398  1.00  0.00     0.049 A 
ATOM     60  H   UNL     1      -3.675  -3.380  12.175  1.00  0.00     0.167 HD
ATOM     61  C   UNL     1      -0.126  -1.405  13.445  1.00  0.00     0.037 A 
ATOM     62  C   UNL     1      -6.408  -3.489  12.291  1.00  0.00     0.037 A 
ATOM     63  C   UNL     1      -0.124  -2.491  14.384  1.00  0.00     0.049 A 
ATOM     64  C   UNL     1      -5.678  -3.257  13.560  1.00  0.00     0.074 A 
ATOM     65  C   UNL     1       0.614  -3.651  14.518  1.00  0.00     0.029 A 
ATOM     66  N   UNL     1      -1.198  -2.651  15.223  1.00  0.00    -0.354 N 
ATOM     67  N   UNL     1      -5.154  -4.210  14.284  1.00  0.00    -0.248 NA
ATOM     68  C   UNL     1      -5.165  -1.922  13.821  1.00  0.00     0.031 C 
ATOM     69  C   UNL     1      -0.316  -4.622  14.993  1.00  0.00     0.029 A 
ATOM     70  C   UNL     1      -1.544  -3.977  15.150  1.00  0.00     0.049 A 
ATOM     71  H   UNL     1      -1.633  -1.956  15.767  1.00  0.00     0.167 HD
ATOM     72  C   UNL     1      -3.981  -3.670  14.789  1.00  0.00     0.074 A 
ATOM     73  C   UNL     1      -4.098  -2.233  14.561  1.00  0.00     0.031 C 
ATOM     74  C   UNL     1      -2.907  -4.456  15.101  1.00  0.00     0.037 A 
BRANCH  61  75
ATOM     75  C   UNL     1       0.022   0.027  13.892  1.00  0.00     0.064 A 
ATOM     76  C   UNL     1       0.679   0.335  15.102  1.00  0.00     0.173 A 
ATOM     77  C   UNL     1      -0.682   1.091  13.294  1.00  0.00     0.173 A 
ATOM     78  F   UNL     1       1.347  -0.611  15.779  1.00  0.00    -0.203 F 
ATOM     79  C   UNL     1       0.609   1.607  15.681  1.00  0.00     0.198 A 
ATOM     80  C   UNL     1      -0.711   2.372  13.849  1.00  0.00     0.198 A 
ATOM     81  F   UNL     1      -1.444   0.899  12.208  1.00  0.00    -0.203 F 
ATOM     82  F   UNL     1       1.172   1.828  16.877  1.00  0.00    -0.200 F 
ATOM     83  C   UNL     1      -0.084   2.625  15.053  1.00  0.00     0.200 A 
ATOM     84  F   UNL     1      -1.406   3.341  13.238  1.00  0.00    -0.200 F 
ATOM     85  F   UNL     1      -0.185   3.833  15.624  1.00  0.00    -0.200 F 
ENDBRANCH  61  75
BRANCH  62  86
ATOM     86  C   UNL     1      -7.747  -2.954  11.977  1.00  0.00     0.064 A 
ATOM     87  C   UNL     1      -8.729  -2.822  12.966  1.00  0.00     0.173 A 
ATOM     88  C   UNL     1      -8.015  -2.343  10.733  1.00  0.00     0.173 A 
ATOM     89  F   UNL     1      -8.527  -3.335  14.187  1.00  0.00    -0.203 F 
ATOM     90  C   UNL     1      -9.909  -2.110  12.727  1.00  0.00     0.198 A 
ATOM     91  C   UNL     1      -9.195  -1.644  10.493  1.00  0.00     0.198 A 
ATOM     92  F   UNL     1      -7.098  -2.342   9.753  1.00  0.00    -0.203 F 
ATOM     93  F   UNL     1     -10.806  -1.959  13.711  1.00  0.00    -0.200 F 
ATOM     94  C   UNL     1     -10.138  -1.518  11.495  1.00  0.00     0.200 A 
ATOM     95  F   UNL     1      -9.388  -1.050   9.307  1.00  0.00    -0.200 F 
ATOM     96  F   UNL     1     -11.247  -0.795  11.284  1.00  0.00    -0.200 F 
ENDBRANCH  62  86
BRANCH  74  97
ATOM     97  C   UNL     1      -3.088  -5.951  15.101  1.00  0.00     0.064 A 
ATOM     98  C   UNL     1      -3.406  -6.692  13.949  1.00  0.00     0.173 A 
ATOM     99  C   UNL     1      -2.739  -6.676  16.248  1.00  0.00     0.173 A 
ATOM    100  F   UNL     1      -3.641  -6.083  12.783  1.00  0.00    -0.203 F 
ATOM    101  C   UNL     1      -3.414  -8.086  13.956  1.00  0.00     0.198 A 
ATOM    102  C   UNL     1      -2.712  -8.070  16.244  1.00  0.00     0.198 A 
ATOM    103  F   UNL     1      -2.360  -6.030  17.363  1.00  0.00    -0.203 F 
ATOM    104  F   UNL     1      -3.723  -8.761  12.839  1.00  0.00    -0.200 F 
ATOM    105  C   UNL     1      -3.058  -8.774  15.102  1.00  0.00     0.200 A 
ATOM    106  F   UNL     1      -2.314  -8.733  17.340  1.00  0.00    -0.200 F 
ATOM    107  F   UNL     1      -3.014 -10.114  15.095  1.00  0.00    -0.200 F 
ENDBRANCH  74  97
ENDBRANCH  48  49
ENDBRANCH  40  43
ENDBRANCH  38  39
ENDBRANCH  37  38
ENDBRANCH  36  37
ENDBRANCH   3  36
TORSDOF 16
