REMARK SMILES Cc1cc(-n2nc(C)c(C(=O)NCCCNC(=O)c3ccc(-c4c5nc(c(-c6c(F)c(F)c(F)c(F)c6F)c6ccc([nH]6)c(-c6c(F)c(F)c(F)c(F)c6F)c6nc(c(-c7c(F)c(F)c(F)c(F)c7F)c7ccc4[nH]7)C=C6)C=C5)cc3)c2Cl)nc(C)n1
REMARK SMILES IDX 14 1 13 2 12 3 10 4 11 5 9 7 5 8 6 9 82 10 7 11 83 12 8 13
REMARK SMILES IDX 4 14 1 15 2 16 3 17 87 18 85 19 84 20 86 21 15 22 16 23
REMARK SMILES IDX 17 24 18 26 19 27 20 28 81 29 21 30 80 31 22 32 23 33 24 34
REMARK SMILES IDX 74 35 25 36 79 37 73 38 75 39 26 40 78 41 72 42 71 43 27 45
REMARK SMILES IDX 59 46 39 47 58 48 40 49 43 50 57 51 76 52 41 53 42 54 56 56
REMARK SMILES IDX 77 57 44 58 28 59 29 60 37 61 30 62 31 63 35 64 38 65 32 66
REMARK SMILES IDX 33 67 36 68 34 69 60 70 61 71 69 72 62 73 63 74 67 75 70 76
REMARK SMILES IDX 64 77 65 78 68 79 66 80 45 81 46 82 54 83 47 84 48 85 52 86
REMARK SMILES IDX 55 87 49 88 50 89 53 90 51 91
REMARK H PARENT 12 6 16 25 75 44 43 55
REMARK Flexibility Score: inf
ROOT
ATOM      1  C   UNL     1       2.229   1.352  -7.429  1.00  0.00     0.042 C 
ENDROOT
BRANCH   1   2
ATOM      2  C   UNL     1       0.866   1.831  -7.951  1.00  0.00     0.118 C 
BRANCH   2   3
ATOM      3  N   UNL     1       0.034   0.716  -8.357  1.00  0.00    -0.352 N 
ATOM      4  C   UNL     1      -0.875  -0.065  -7.694  1.00  0.00     0.256 C 
ATOM      5  O   UNL     1      -1.405  -0.929  -8.397  1.00  0.00    -0.269 OA
ATOM      6  H   UNL     1       0.145   0.470  -9.304  1.00  0.00     0.163 HD
BRANCH   4   7
ATOM      7  C   UNL     1      -1.251   0.096  -6.291  1.00  0.00     0.100 A 
ATOM      8  N   UNL     1      -1.472   0.595  -4.115  1.00  0.00    -0.203 N 
ATOM      9  N   UNL     1      -2.467  -0.288  -4.337  1.00  0.00    -0.170 NA
ATOM     10  C   UNL     1      -0.634   0.679  -5.204  1.00  0.00     0.147 A 
ATOM     11  C   UNL     1      -2.406  -0.511  -5.663  1.00  0.00     0.074 A 
ATOM     12  Cl  UNL     1       0.943   1.229  -4.850  1.00  0.00    -0.061 Cl
ATOM     13  C   UNL     1      -3.464  -1.373  -6.264  1.00  0.00     0.070 C 
BRANCH   8  14
ATOM     14  C   UNL     1      -1.172   1.143  -2.834  1.00  0.00     0.159 A 
ATOM     15  C   UNL     1       0.742  -0.122   0.103  1.00  0.00     0.067 C 
ATOM     16  C   UNL     1       0.049   0.771  -0.882  1.00  0.00     0.043 A 
ATOM     17  C   UNL     1      -0.769   0.246  -1.864  1.00  0.00     0.072 A 
ATOM     18  N   UNL     1       0.387   2.080  -0.832  1.00  0.00    -0.238 NA
ATOM     19  C   UNL     1      -0.099   2.885  -1.790  1.00  0.00     0.128 A 
ATOM     20  N   UNL     1      -0.865   2.466  -2.806  1.00  0.00    -0.214 NA
ATOM     21  C   UNL     1       0.389   4.300  -1.844  1.00  0.00     0.090 C 
ENDBRANCH   8  14
ENDBRANCH   4   7
ENDBRANCH   2   3
ENDBRANCH   1   2
BRANCH   1  22
ATOM     22  C   UNL     1       3.310   1.411  -8.462  1.00  0.00     0.118 C 
BRANCH  22  23
ATOM     23  N   UNL     1       3.665   2.805  -8.770  1.00  0.00    -0.352 N 
ATOM     24  C   UNL     1       4.627   3.260  -9.643  1.00  0.00     0.251 C 
ATOM     25  H   UNL     1       3.152   3.497  -8.293  1.00  0.00     0.163 HD
ATOM     26  O   UNL     1       5.053   4.416  -9.591  1.00  0.00    -0.269 OA
BRANCH  24  27
ATOM     27  C   UNL     1       5.125   2.316 -10.643  1.00  0.00     0.039 A 
ATOM     28  C   UNL     1       6.465   2.216 -11.008  1.00  0.00     0.014 A 
ATOM     29  C   UNL     1       4.181   1.423 -11.130  1.00  0.00     0.014 A 
ATOM     30  C   UNL     1       6.815   1.182 -11.866  1.00  0.00     0.010 A 
ATOM     31  C   UNL     1       4.601   0.221 -11.589  1.00  0.00     0.010 A 
ATOM     32  C   UNL     1       5.854   0.198 -12.151  1.00  0.00    -0.014 A 
BRANCH  32  33
ATOM     33  C   UNL     1       6.065  -0.877 -13.090  1.00  0.00     0.031 A 
ATOM     34  C   UNL     1       7.200  -1.751 -12.764  1.00  0.00     0.074 A 
ATOM     35  C   UNL     1       5.202  -1.138 -14.095  1.00  0.00     0.049 A 
ATOM     36  N   UNL     1       8.356  -1.740 -13.330  1.00  0.00    -0.248 NA
ATOM     37  C   UNL     1       7.106  -2.613 -11.581  1.00  0.00     0.031 C 
ATOM     38  C   UNL     1       3.881  -0.564 -14.399  1.00  0.00     0.029 A 
ATOM     39  N   UNL     1       5.356  -2.053 -15.082  1.00  0.00    -0.354 N 
ATOM     40  C   UNL     1       9.097  -2.723 -12.697  1.00  0.00     0.074 A 
ATOM     41  C   UNL     1       8.345  -3.108 -11.528  1.00  0.00     0.031 C 
ATOM     42  C   UNL     1       3.287  -1.275 -15.385  1.00  0.00     0.029 A 
ATOM     43  C   UNL     1       4.251  -2.227 -15.899  1.00  0.00     0.049 A 
ATOM     44  H   UNL     1       6.192  -2.558 -15.208  1.00  0.00     0.167 HD
ATOM     45  C   UNL     1      10.168  -3.283 -13.320  1.00  0.00     0.037 A 
ATOM     46  C   UNL     1       4.164  -3.091 -16.939  1.00  0.00     0.037 A 
ATOM     47  C   UNL     1      10.582  -2.491 -14.455  1.00  0.00     0.049 A 
ATOM     48  C   UNL     1       5.560  -3.373 -17.368  1.00  0.00     0.074 A 
ATOM     49  C   UNL     1      11.072  -1.206 -14.600  1.00  0.00     0.029 A 
ATOM     50  N   UNL     1      10.111  -2.846 -15.697  1.00  0.00    -0.354 N 
ATOM     51  N   UNL     1       6.341  -2.473 -17.903  1.00  0.00    -0.248 NA
ATOM     52  C   UNL     1       6.241  -4.500 -16.745  1.00  0.00     0.031 C 
ATOM     53  C   UNL     1      10.423  -0.690 -15.763  1.00  0.00     0.029 A 
ATOM     54  C   UNL     1       9.632  -1.707 -16.300  1.00  0.00     0.049 A 
ATOM     55  H   UNL     1      10.116  -3.751 -16.084  1.00  0.00     0.167 HD
ATOM     56  C   UNL     1       7.587  -2.695 -17.332  1.00  0.00     0.074 A 
ATOM     57  C   UNL     1       7.478  -3.997 -16.677  1.00  0.00     0.031 C 
ATOM     58  C   UNL     1       8.499  -1.686 -17.200  1.00  0.00     0.037 A 
BRANCH  45  59
ATOM     59  C   UNL     1      10.619  -4.699 -13.112  1.00  0.00     0.064 A 
ATOM     60  C   UNL     1      11.855  -5.112 -13.643  1.00  0.00     0.173 A 
ATOM     61  C   UNL     1       9.771  -5.731 -12.656  1.00  0.00     0.173 A 
ATOM     62  F   UNL     1      12.727  -4.213 -14.122  1.00  0.00    -0.203 F 
ATOM     63  C   UNL     1      12.184  -6.463 -13.769  1.00  0.00     0.198 A 
ATOM     64  C   UNL     1      10.126  -7.074 -12.733  1.00  0.00     0.198 A 
ATOM     65  F   UNL     1       8.526  -5.492 -12.226  1.00  0.00    -0.203 F 
ATOM     66  F   UNL     1      13.319  -6.815 -14.389  1.00  0.00    -0.200 F 
ATOM     67  C   UNL     1      11.318  -7.443 -13.318  1.00  0.00     0.200 A 
ATOM     68  F   UNL     1       9.264  -8.009 -12.309  1.00  0.00    -0.200 F 
ATOM     69  F   UNL     1      11.606  -8.739 -13.491  1.00  0.00    -0.200 F 
ENDBRANCH  45  59
BRANCH  46  70
ATOM     70  C   UNL     1       3.028  -3.987 -17.261  1.00  0.00     0.064 A 
ATOM     71  C   UNL     1       2.973  -4.661 -18.491  1.00  0.00     0.173 A 
ATOM     72  C   UNL     1       2.144  -4.434 -16.259  1.00  0.00     0.173 A 
ATOM     73  F   UNL     1       3.808  -4.319 -19.483  1.00  0.00    -0.203 F 
ATOM     74  C   UNL     1       2.113  -5.746 -18.694  1.00  0.00     0.198 A 
ATOM     75  C   UNL     1       1.286  -5.517 -16.463  1.00  0.00     0.198 A 
ATOM     76  F   UNL     1       2.166  -3.894 -15.032  1.00  0.00    -0.203 F 
ATOM     77  F   UNL     1       2.137  -6.409 -19.859  1.00  0.00    -0.200 F 
ATOM     78  C   UNL     1       1.283  -6.183 -17.675  1.00  0.00     0.200 A 
ATOM     79  F   UNL     1       0.516  -5.953 -15.457  1.00  0.00    -0.200 F 
ATOM     80  F   UNL     1       0.514  -7.268 -17.844  1.00  0.00    -0.200 F 
ENDBRANCH  46  70
BRANCH  58  81
ATOM     81  C   UNL     1       8.186  -0.373 -17.872  1.00  0.00     0.064 A 
ATOM     82  C   UNL     1       7.112   0.460 -17.509  1.00  0.00     0.173 A 
ATOM     83  C   UNL     1       9.089   0.129 -18.817  1.00  0.00     0.173 A 
ATOM     84  F   UNL     1       6.257   0.100 -16.547  1.00  0.00    -0.203 F 
ATOM     85  C   UNL     1       6.932   1.715 -18.092  1.00  0.00     0.198 A 
ATOM     86  C   UNL     1       8.927   1.396 -19.375  1.00  0.00     0.198 A 
ATOM     87  F   UNL     1      10.165  -0.594 -19.165  1.00  0.00    -0.203 F 
ATOM     88  F   UNL     1       5.894   2.484 -17.728  1.00  0.00    -0.200 F 
ATOM     89  C   UNL     1       7.844   2.184 -19.020  1.00  0.00     0.200 A 
ATOM     90  F   UNL     1       9.838   1.865 -20.238  1.00  0.00    -0.200 F 
ATOM     91  F   UNL     1       7.696   3.406 -19.552  1.00  0.00    -0.200 F 
ENDBRANCH  58  81
ENDBRANCH  32  33
ENDBRANCH  24  27
ENDBRANCH  22  23
ENDBRANCH   1  22
TORSDOF 11
