REMARK SMILES COc1ccc([C@@H](CC(=O)NCCCNC(=O)c2ccc(-c3c4nc(c(-c5c(F)c(F)c(F)c(F)c5F)c5ccc([nH]5)c(-c5c(F)c(F)c(F)c(F)c5F)c5nc(c(-c6c(F)c(F)c(F)c(F)c6F)c6ccc3[nH]6)C=C5)C=C4)cc2)N2C(=O)[C@H]3CC=CC[C@H]3C2=O)cc1OC
REMARK SMILES IDX 12 1 11 2 9 3 10 4 8 6 7 7 6 8 3 9 4 10 93 11 5 12 92 13
REMARK SMILES IDX 2 14 1 15 94 16 95 17 81 18 82 19 90 20 83 21 84 22 89 23
REMARK SMILES IDX 91 24 85 25 88 26 86 27 87 28 13 29 14 30 15 31 16 32 17 34
REMARK SMILES IDX 18 35 19 36 80 37 20 38 79 39 21 40 22 41 23 42 73 43 24 44
REMARK SMILES IDX 78 45 72 46 74 47 25 48 77 49 71 50 70 51 26 53 58 54 38 55
REMARK SMILES IDX 57 56 39 57 42 58 56 59 75 60 40 61 41 62 55 64 76 65 43 66
REMARK SMILES IDX 27 67 28 68 36 69 29 70 30 71 34 72 37 73 31 74 32 75 35 76
REMARK SMILES IDX 33 77 59 78 60 79 68 80 61 81 62 82 66 83 69 84 63 85 64 86
REMARK SMILES IDX 67 87 65 88 44 89 45 90 53 91 46 92 47 93 51 94 54 95 48 96
REMARK SMILES IDX 49 97 52 98 50 99
REMARK H PARENT 11 5 15 33 74 52 42 63
REMARK Flexibility Score: inf
ROOT
ATOM      1  C   UNL     1       0.348   5.575  -1.385  1.00  0.00     0.117 C 
ENDROOT
BRANCH   1   2
ATOM      2  N   UNL     1       0.007   6.777  -0.644  1.00  0.00    -0.356 N 
ATOM      3  C   UNL     1       0.460   7.208   0.566  1.00  0.00     0.222 C 
ATOM      4  O   UNL     1      -0.293   7.964   1.183  1.00  0.00    -0.275 OA
ATOM      5  H   UNL     1      -0.648   7.368  -1.082  1.00  0.00     0.163 HD
BRANCH   3   6
ATOM      6  C   UNL     1       1.852   6.850   1.071  1.00  0.00     0.130 C 
BRANCH   6   7
ATOM      7  C   UNL     1       1.953   5.949   2.332  1.00  0.00     0.133 C 
BRANCH   7   8
ATOM      8  C   UNL     1       1.794   4.476   1.916  1.00  0.00    -0.020 A 
ATOM      9  C   UNL     1       1.505   1.808   0.962  1.00  0.00     0.160 A 
ATOM     10  C   UNL     1       0.472   2.434   1.662  1.00  0.00     0.051 A 
ATOM     11  C   UNL     1       2.717   2.499   0.794  1.00  0.00     0.161 A 
ATOM     12  C   UNL     1       0.619   3.745   2.134  1.00  0.00     0.010 A 
ATOM     13  C   UNL     1       2.845   3.820   1.257  1.00  0.00     0.056 A 
BRANCH   9  14
ATOM     14  O   UNL     1       1.376   0.583   0.369  1.00  0.00    -0.493 OA
ATOM     15  C   UNL     1       0.263  -0.222   0.728  1.00  0.00     0.278 C 
ENDBRANCH   9  14
BRANCH  11  16
ATOM     16  O   UNL     1       3.843   2.036   0.159  1.00  0.00    -0.493 OA
ATOM     17  C   UNL     1       4.054   0.628   0.188  1.00  0.00     0.278 C 
ENDBRANCH  11  16
ENDBRANCH   7   8
BRANCH   7  18
ATOM     18  N   UNL     1       1.100   6.332   3.466  1.00  0.00    -0.274 N 
ATOM     19  C   UNL     1       0.794   7.611   3.819  1.00  0.00     0.234 C 
ATOM     20  C   UNL     1       0.987   5.584   4.603  1.00  0.00     0.234 C 
ATOM     21  O   UNL     1       1.343   8.633   3.431  1.00  0.00    -0.274 OA
ATOM     22  C   UNL     1      -0.252   7.579   4.911  1.00  0.00     0.095 C 
ATOM     23  C   UNL     1      -0.120   6.154   5.454  1.00  0.00     0.095 C 
ATOM     24  O   UNL     1       1.661   4.622   4.930  1.00  0.00    -0.274 OA
ATOM     25  C   UNL     1      -1.617   7.959   4.332  1.00  0.00     0.041 C 
ATOM     26  C   UNL     1      -1.343   5.237   5.320  1.00  0.00     0.041 C 
ATOM     27  C   UNL     1      -2.352   6.815   3.700  1.00  0.00    -0.030 C 
ATOM     28  C   UNL     1      -2.230   5.563   4.157  1.00  0.00    -0.030 C 
ENDBRANCH   7  18
ENDBRANCH   6   7
ENDBRANCH   3   6
ENDBRANCH   1   2
BRANCH   1  29
ATOM     29  C   UNL     1      -0.513   4.412  -0.898  1.00  0.00     0.042 C 
BRANCH  29  30
ATOM     30  C   UNL     1      -1.969   4.441  -1.340  1.00  0.00     0.118 C 
BRANCH  30  31
ATOM     31  N   UNL     1      -2.201   3.595  -2.491  1.00  0.00    -0.352 N 
ATOM     32  C   UNL     1      -2.568   2.282  -2.644  1.00  0.00     0.251 C 
ATOM     33  H   UNL     1      -2.067   4.061  -3.348  1.00  0.00     0.163 HD
ATOM     34  O   UNL     1      -2.455   1.810  -3.778  1.00  0.00    -0.269 OA
BRANCH  32  35
ATOM     35  C   UNL     1      -3.097   1.396  -1.562  1.00  0.00     0.039 A 
ATOM     36  C   UNL     1      -3.014   0.010  -1.787  1.00  0.00     0.014 A 
ATOM     37  C   UNL     1      -3.800   1.830  -0.436  1.00  0.00     0.014 A 
ATOM     38  C   UNL     1      -3.647  -0.909  -0.938  1.00  0.00     0.010 A 
ATOM     39  C   UNL     1      -4.368   0.907   0.461  1.00  0.00     0.010 A 
ATOM     40  C   UNL     1      -4.345  -0.470   0.193  1.00  0.00    -0.014 A 
BRANCH  40  41
ATOM     41  C   UNL     1      -5.147  -1.425   1.013  1.00  0.00     0.031 A 
ATOM     42  C   UNL     1      -6.654  -1.317   1.043  1.00  0.00     0.074 A 
ATOM     43  C   UNL     1      -4.547  -2.401   1.723  1.00  0.00     0.049 A 
ATOM     44  N   UNL     1      -7.530  -2.039   1.702  1.00  0.00    -0.248 NA
ATOM     45  C   UNL     1      -7.257  -0.242   0.239  1.00  0.00     0.031 C 
ATOM     46  C   UNL     1      -3.105  -2.623   1.803  1.00  0.00     0.029 A 
ATOM     47  N   UNL     1      -5.081  -3.392   2.513  1.00  0.00    -0.354 N 
ATOM     48  C   UNL     1      -8.774  -1.493   1.407  1.00  0.00     0.074 A 
ATOM     49  C   UNL     1      -8.540  -0.351   0.551  1.00  0.00     0.031 C 
ATOM     50  C   UNL     1      -2.868  -3.695   2.578  1.00  0.00     0.029 A 
ATOM     51  C   UNL     1      -4.139  -4.222   3.070  1.00  0.00     0.049 A 
ATOM     52  H   UNL     1      -6.048  -3.497   2.664  1.00  0.00     0.167 HD
ATOM     53  C   UNL     1     -10.005  -1.916   1.788  1.00  0.00     0.037 A 
ATOM     54  C   UNL     1      -4.281  -5.289   3.881  1.00  0.00     0.037 A 
ATOM     55  C   UNL     1     -10.257  -3.076   2.602  1.00  0.00     0.049 A 
ATOM     56  C   UNL     1      -5.659  -5.746   4.283  1.00  0.00     0.074 A 
ATOM     57  C   UNL     1     -11.472  -3.599   3.008  1.00  0.00     0.029 A 
ATOM     58  N   UNL     1      -9.273  -3.900   3.125  1.00  0.00    -0.354 N 
ATOM     59  N   UNL     1      -6.826  -5.243   3.962  1.00  0.00    -0.248 NA
ATOM     60  C   UNL     1      -5.738  -6.931   5.151  1.00  0.00     0.031 C 
ATOM     61  C   UNL     1     -11.223  -4.724   3.803  1.00  0.00     0.029 A 
ATOM     62  C   UNL     1      -9.854  -4.924   3.855  1.00  0.00     0.049 A 
ATOM     63  H   UNL     1      -8.305  -3.776   2.997  1.00  0.00     0.167 HD
ATOM     64  C   UNL     1      -7.774  -6.069   4.553  1.00  0.00     0.074 A 
ATOM     65  C   UNL     1      -7.048  -7.111   5.247  1.00  0.00     0.031 C 
ATOM     66  C   UNL     1      -9.125  -5.973   4.520  1.00  0.00     0.037 A 
BRANCH  53  67
ATOM     67  C   UNL     1     -11.187  -1.117   1.319  1.00  0.00     0.064 A 
ATOM     68  C   UNL     1     -11.598  -1.132  -0.023  1.00  0.00     0.173 A 
ATOM     69  C   UNL     1     -11.938  -0.355   2.226  1.00  0.00     0.173 A 
ATOM     70  F   UNL     1     -10.907  -1.836  -0.932  1.00  0.00    -0.203 F 
ATOM     71  C   UNL     1     -12.699  -0.390  -0.444  1.00  0.00     0.198 A 
ATOM     72  C   UNL     1     -13.056   0.363   1.807  1.00  0.00     0.198 A 
ATOM     73  F   UNL     1     -11.594  -0.312   3.522  1.00  0.00    -0.203 F 
ATOM     74  F   UNL     1     -13.042  -0.381  -1.739  1.00  0.00    -0.200 F 
ATOM     75  C   UNL     1     -13.430   0.351   0.472  1.00  0.00     0.200 A 
ATOM     76  F   UNL     1     -13.769   1.069   2.695  1.00  0.00    -0.200 F 
ATOM     77  F   UNL     1     -14.491   1.062   0.066  1.00  0.00    -0.200 F 
ENDBRANCH  53  67
BRANCH  54  78
ATOM     78  C   UNL     1      -3.081  -6.034   4.345  1.00  0.00     0.064 A 
ATOM     79  C   UNL     1      -2.807  -7.324   3.870  1.00  0.00     0.173 A 
ATOM     80  C   UNL     1      -2.200  -5.483   5.286  1.00  0.00     0.173 A 
ATOM     81  F   UNL     1      -3.636  -7.902   2.987  1.00  0.00    -0.203 F 
ATOM     82  C   UNL     1      -1.708  -8.044   4.333  1.00  0.00     0.198 A 
ATOM     83  C   UNL     1      -1.086  -6.194   5.729  1.00  0.00     0.198 A 
ATOM     84  F   UNL     1      -2.418  -4.252   5.770  1.00  0.00    -0.203 F 
ATOM     85  F   UNL     1      -1.496  -9.293   3.897  1.00  0.00    -0.200 F 
ATOM     86  C   UNL     1      -0.846  -7.476   5.259  1.00  0.00     0.200 A 
ATOM     87  F   UNL     1      -0.249  -5.638   6.616  1.00  0.00    -0.200 F 
ATOM     88  F   UNL     1       0.211  -8.168   5.705  1.00  0.00    -0.200 F 
ENDBRANCH  54  78
BRANCH  66  89
ATOM     89  C   UNL     1      -9.914  -7.050   5.205  1.00  0.00     0.064 A 
ATOM     90  C   UNL     1      -9.990  -7.136   6.602  1.00  0.00     0.173 A 
ATOM     91  C   UNL     1     -10.636  -7.987   4.448  1.00  0.00     0.173 A 
ATOM     92  F   UNL     1      -9.308  -6.272   7.369  1.00  0.00    -0.203 F 
ATOM     93  C   UNL     1     -10.739  -8.137   7.217  1.00  0.00     0.198 A 
ATOM     94  C   UNL     1     -11.404  -8.969   5.066  1.00  0.00     0.198 A 
ATOM     95  F   UNL     1     -10.602  -7.943   3.108  1.00  0.00    -0.203 F 
ATOM     96  F   UNL     1     -10.761  -8.228   8.554  1.00  0.00    -0.200 F 
ATOM     97  C   UNL     1     -11.449  -9.048   6.450  1.00  0.00     0.200 A 
ATOM     98  F   UNL     1     -12.099  -9.842   4.323  1.00  0.00    -0.200 F 
ATOM     99  F   UNL     1     -12.172 -10.007   7.044  1.00  0.00    -0.200 F 
ENDBRANCH  66  89
ENDBRANCH  40  41
ENDBRANCH  32  35
ENDBRANCH  30  31
ENDBRANCH  29  30
ENDBRANCH   1  29
TORSDOF 15
