REMARK SMILES Nn1c(Cc2ccc(F)c(F)c2)nnc1SCC(=O)NCCCNC(=O)c1ccc(-c2c3nc(c(-c4c(F)c(F)c(F)c(F)c4F)c4ccc([nH]4)c(-c4c(F)c(F)c(F)c(F)c4F)c4nc(c(-c5c(F)c(F)c(F)c(F)c5F)c5ccc2[nH]5)C=C4)C=C3)cc1
REMARK SMILES IDX 21 1 20 2 18 3 19 4 17 6 16 7 15 8 2 9 3 10 13 11 14 12 1 13
REMARK SMILES IDX 4 16 5 17 6 18 12 19 7 20 10 21 8 22 11 23 9 24 22 25 23 26
REMARK SMILES IDX 24 27 25 28 26 30 27 31 28 32 89 33 29 34 88 35 30 36 31 37
REMARK SMILES IDX 32 38 82 39 33 40 87 41 81 42 83 43 34 44 86 45 80 46 79 47
REMARK SMILES IDX 35 49 67 50 47 51 66 52 48 53 51 54 65 55 84 56 49 57 50 58
REMARK SMILES IDX 64 60 85 61 52 62 36 63 37 64 45 65 38 66 39 67 43 68 46 69
REMARK SMILES IDX 40 70 41 71 44 72 42 73 68 74 69 75 77 76 70 77 71 78 75 79
REMARK SMILES IDX 78 80 72 81 73 82 76 83 74 84 53 85 54 86 62 87 55 88 56 89
REMARK SMILES IDX 60 90 63 91 57 92 58 93 61 94 59 95
REMARK H PARENT 20 5 1 14 1 15 24 29 83 48 51 59
REMARK Flexibility Score: inf
ROOT
ATOM      1  C   UNL     1       1.607  -4.154  -2.658  1.00  0.00     0.117 C 
ENDROOT
BRANCH   1   2
ATOM      2  N   UNL     1       2.437  -2.982  -2.443  1.00  0.00    -0.355 N 
ATOM      3  C   UNL     1       2.724  -2.324  -1.287  1.00  0.00     0.230 C 
ATOM      4  O   UNL     1       3.326  -1.248  -1.366  1.00  0.00    -0.274 OA
ATOM      5  H   UNL     1       2.854  -2.608  -3.253  1.00  0.00     0.163 HD
BRANCH   3   6
ATOM      6  C   UNL     1       2.356  -2.912   0.058  1.00  0.00     0.178 C 
BRANCH   6   7
ATOM      7  S   UNL     1       0.625  -2.728   0.508  1.00  0.00    -0.074 SA
BRANCH   7   8
ATOM      8  C   UNL     1       0.157  -1.123   0.068  1.00  0.00     0.210 A 
ATOM      9  N   UNL     1       0.859   0.047   0.265  1.00  0.00    -0.221 N 
ATOM     10  C   UNL     1       0.004   1.057  -0.130  1.00  0.00     0.157 A 
ATOM     11  N   UNL     1      -1.130   0.516  -0.540  1.00  0.00    -0.132 NA
ATOM     12  N   UNL     1      -1.031  -0.844  -0.420  1.00  0.00    -0.121 NA
BRANCH   9  13
ATOM     13  N   UNL     1       2.197   0.192   0.762  1.00  0.00    -0.336 N 
ATOM     14  H   UNL     1       2.591   1.088   0.859  1.00  0.00     0.178 HD
ATOM     15  H   UNL     1       2.720  -0.606   1.006  1.00  0.00     0.178 HD
ENDBRANCH   9  13
BRANCH  10  16
ATOM     16  C   UNL     1       0.292   2.519  -0.034  1.00  0.00     0.115 C 
BRANCH  16  17
ATOM     17  C   UNL     1      -0.287   3.337  -1.172  1.00  0.00    -0.037 A 
ATOM     18  C   UNL     1      -1.681   3.476  -1.319  1.00  0.00     0.007 A 
ATOM     19  C   UNL     1       0.555   3.969  -2.100  1.00  0.00     0.046 A 
ATOM     20  C   UNL     1      -2.220   4.213  -2.376  1.00  0.00     0.043 A 
ATOM     21  C   UNL     1       0.008   4.709  -3.146  1.00  0.00     0.159 A 
ATOM     22  C   UNL     1      -1.369   4.827  -3.286  1.00  0.00     0.158 A 
ATOM     23  F   UNL     1       0.829   5.307  -4.022  1.00  0.00    -0.204 F 
ATOM     24  F   UNL     1      -1.887   5.533  -4.300  1.00  0.00    -0.204 F 
ENDBRANCH  16  17
ENDBRANCH  10  16
ENDBRANCH   7   8
ENDBRANCH   6   7
ENDBRANCH   3   6
ENDBRANCH   1   2
BRANCH   1  25
ATOM     25  C   UNL     1       0.283  -3.791  -3.328  1.00  0.00     0.042 C 
BRANCH  25  26
ATOM     26  C   UNL     1       0.427  -3.140  -4.703  1.00  0.00     0.118 C 
BRANCH  26  27
ATOM     27  N   UNL     1       1.067  -4.010  -5.681  1.00  0.00    -0.352 N 
ATOM     28  C   UNL     1       0.625  -4.438  -6.907  1.00  0.00     0.251 C 
ATOM     29  H   UNL     1       1.956  -4.342  -5.422  1.00  0.00     0.163 HD
ATOM     30  O   UNL     1       1.258  -5.305  -7.511  1.00  0.00    -0.269 OA
BRANCH  28  31
ATOM     31  C   UNL     1      -0.613  -3.892  -7.503  1.00  0.00     0.039 A 
ATOM     32  C   UNL     1      -1.503  -4.773  -8.124  1.00  0.00     0.014 A 
ATOM     33  C   UNL     1      -0.889  -2.522  -7.479  1.00  0.00     0.014 A 
ATOM     34  C   UNL     1      -2.703  -4.292  -8.654  1.00  0.00     0.010 A 
ATOM     35  C   UNL     1      -2.115  -2.053  -7.947  1.00  0.00     0.010 A 
ATOM     36  C   UNL     1      -3.036  -2.933  -8.533  1.00  0.00    -0.014 A 
BRANCH  36  37
ATOM     37  C   UNL     1      -4.352  -2.421  -8.991  1.00  0.00     0.031 A 
ATOM     38  C   UNL     1      -4.440  -1.441 -10.125  1.00  0.00     0.074 A 
ATOM     39  C   UNL     1      -5.471  -2.801  -8.344  1.00  0.00     0.049 A 
ATOM     40  N   UNL     1      -5.492  -0.840 -10.620  1.00  0.00    -0.248 NA
ATOM     41  C   UNL     1      -3.174  -1.072 -10.776  1.00  0.00     0.031 C 
ATOM     42  C   UNL     1      -5.514  -3.725  -7.210  1.00  0.00     0.029 A 
ATOM     43  N   UNL     1      -6.784  -2.457  -8.545  1.00  0.00    -0.354 N 
ATOM     44  C   UNL     1      -5.017  -0.022 -11.635  1.00  0.00     0.074 A 
ATOM     45  C   UNL     1      -3.576  -0.159 -11.648  1.00  0.00     0.031 C 
ATOM     46  C   UNL     1      -6.792  -3.902  -6.839  1.00  0.00     0.029 A 
ATOM     47  C   UNL     1      -7.652  -3.074  -7.678  1.00  0.00     0.049 A 
ATOM     48  H   UNL     1      -7.076  -1.827  -9.243  1.00  0.00     0.167 HD
ATOM     49  C   UNL     1      -5.721   0.755 -12.494  1.00  0.00     0.037 A 
ATOM     50  C   UNL     1      -8.991  -2.982  -7.571  1.00  0.00     0.037 A 
ATOM     51  C   UNL     1      -7.154   0.886 -12.481  1.00  0.00     0.049 A 
ATOM     52  C   UNL     1      -9.748  -2.083  -8.506  1.00  0.00     0.074 A 
ATOM     53  C   UNL     1      -7.960   1.627 -13.328  1.00  0.00     0.029 A 
ATOM     54  N   UNL     1      -7.997   0.262 -11.572  1.00  0.00    -0.354 N 
ATOM     55  N   UNL     1      -9.293  -1.339  -9.484  1.00  0.00    -0.248 NA
ATOM     56  C   UNL     1     -11.204  -2.009  -8.322  1.00  0.00     0.031 C 
ATOM     57  C   UNL     1      -9.286   1.486 -12.906  1.00  0.00     0.029 A 
ATOM     58  C   UNL     1      -9.313   0.617 -11.827  1.00  0.00     0.049 A 
ATOM     59  H   UNL     1      -7.704  -0.343 -10.853  1.00  0.00     0.167 HD
ATOM     60  C   UNL     1     -10.403  -0.724 -10.045  1.00  0.00     0.074 A 
ATOM     61  C   UNL     1     -11.557  -1.190  -9.305  1.00  0.00     0.031 C 
ATOM     62  C   UNL     1     -10.456   0.147 -11.082  1.00  0.00     0.037 A 
BRANCH  49  63
ATOM     63  C   UNL     1      -4.944   1.518 -13.528  1.00  0.00     0.064 A 
ATOM     64  C   UNL     1      -4.867   2.918 -13.479  1.00  0.00     0.173 A 
ATOM     65  C   UNL     1      -4.303   0.864 -14.591  1.00  0.00     0.173 A 
ATOM     66  F   UNL     1      -5.469   3.595 -12.489  1.00  0.00    -0.203 F 
ATOM     67  C   UNL     1      -4.178   3.633 -14.455  1.00  0.00     0.198 A 
ATOM     68  C   UNL     1      -3.589   1.579 -15.548  1.00  0.00     0.198 A 
ATOM     69  F   UNL     1      -4.338  -0.475 -14.679  1.00  0.00    -0.203 F 
ATOM     70  F   UNL     1      -4.136   4.971 -14.400  1.00  0.00    -0.200 F 
ATOM     71  C   UNL     1      -3.532   2.963 -15.483  1.00  0.00     0.200 A 
ATOM     72  F   UNL     1      -2.943   0.927 -16.525  1.00  0.00    -0.200 F 
ATOM     73  F   UNL     1      -2.850   3.651 -16.410  1.00  0.00    -0.200 F 
ENDBRANCH  49  63
BRANCH  50  74
ATOM     74  C   UNL     1      -9.694  -3.817  -6.564  1.00  0.00     0.064 A 
ATOM     75  C   UNL     1      -9.590  -3.556  -5.190  1.00  0.00     0.173 A 
ATOM     76  C   UNL     1     -10.435  -4.937  -6.964  1.00  0.00     0.173 A 
ATOM     77  F   UNL     1      -8.888  -2.498  -4.759  1.00  0.00    -0.203 F 
ATOM     78  C   UNL     1     -10.176  -4.404  -4.253  1.00  0.00     0.198 A 
ATOM     79  C   UNL     1     -11.040  -5.771  -6.027  1.00  0.00     0.198 A 
ATOM     80  F   UNL     1     -10.578  -5.213  -8.268  1.00  0.00    -0.203 F 
ATOM     81  F   UNL     1     -10.028  -4.158  -2.944  1.00  0.00    -0.200 F 
ATOM     82  C   UNL     1     -10.900  -5.510  -4.671  1.00  0.00     0.200 A 
ATOM     83  F   UNL     1     -11.753  -6.829  -6.436  1.00  0.00    -0.200 F 
ATOM     84  F   UNL     1     -11.463  -6.326  -3.769  1.00  0.00    -0.200 F 
ENDBRANCH  50  74
BRANCH  62  85
ATOM     85  C   UNL     1     -11.807   0.649 -11.501  1.00  0.00     0.064 A 
ATOM     86  C   UNL     1     -12.369   0.240 -12.720  1.00  0.00     0.173 A 
ATOM     87  C   UNL     1     -12.508   1.591 -10.736  1.00  0.00     0.173 A 
ATOM     88  F   UNL     1     -11.735  -0.655 -13.492  1.00  0.00    -0.203 F 
ATOM     89  C   UNL     1     -13.577   0.771 -13.165  1.00  0.00     0.198 A 
ATOM     90  C   UNL     1     -13.729   2.100 -11.172  1.00  0.00     0.198 A 
ATOM     91  F   UNL     1     -12.019   2.002  -9.556  1.00  0.00    -0.203 F 
ATOM     92  F   UNL     1     -14.078   0.392 -14.349  1.00  0.00    -0.200 F 
ATOM     93  C   UNL     1     -14.257   1.698 -12.390  1.00  0.00     0.200 A 
ATOM     94  F   UNL     1     -14.397   2.978 -10.411  1.00  0.00    -0.200 F 
ATOM     95  F   UNL     1     -15.423   2.202 -12.816  1.00  0.00    -0.200 F 
ENDBRANCH  62  85
ENDBRANCH  36  37
ENDBRANCH  28  31
ENDBRANCH  26  27
ENDBRANCH  25  26
ENDBRANCH   1  25
TORSDOF 15
