REMARK SMILES O=C1C[C@H](c2cn[nH]c2C(=O)NCCCNC(=O)c2ccc(-c3c4nc(c(-c5c(F)c(F)c(F)c(F)c5F)c5ccc([nH]5)c(-c5c(F)c(F)c(F)c(F)c5F)c5nc(c(-c6c(F)c(F)c(F)c(F)c6F)c6ccc3[nH]6)C=C5)C=C4)cc2)c2c(-c3cccs3)n[nH]c2N1
REMARK SMILES IDX 14 1 13 2 12 3 10 4 11 5 9 7 5 8 6 9 7 10 8 11 4 13 1 14
REMARK SMILES IDX 2 15 3 16 92 17 91 18 82 20 90 21 83 22 89 23 84 25 85 26
REMARK SMILES IDX 88 27 86 28 87 29 15 30 16 31 17 32 18 34 19 35 20 36 81 37
REMARK SMILES IDX 21 38 80 39 22 40 23 41 24 42 74 43 25 44 79 45 73 46 75 47
REMARK SMILES IDX 26 48 78 49 72 50 71 51 27 53 59 54 39 55 58 56 40 57 43 58
REMARK SMILES IDX 57 59 76 60 41 61 42 62 56 64 77 65 44 66 28 67 29 68 37 69
REMARK SMILES IDX 30 70 31 71 35 72 38 73 32 74 33 75 36 76 34 77 60 78 61 79
REMARK SMILES IDX 69 80 62 81 63 82 67 83 70 84 64 85 65 86 68 87 66 88 45 89
REMARK SMILES IDX 46 90 54 91 47 92 48 93 52 94 55 95 49 96 50 97 53 98 51 99
REMARK H PARENT 12 6 8 12 92 19 90 24 16 33 75 52 43 63
REMARK Flexibility Score: inf
ROOT
ATOM      1  C   UNL     1       3.782  -1.428   1.454  1.00  0.00     0.042 C 
ENDROOT
BRANCH   1   2
ATOM      2  C   UNL     1       5.202  -0.863   0.595  1.00  0.00     0.118 C 
BRANCH   2   3
ATOM      3  N   UNL     1       5.539  -0.413  -1.487  1.00  0.00    -0.351 N 
ATOM      4  C   UNL     1       5.526   0.349  -2.693  1.00  0.00     0.269 C 
ATOM      5  O   UNL     1       6.077  -0.182  -3.661  1.00  0.00    -0.268 OA
ATOM      6  H   UNL     1       5.963  -1.246  -1.794  1.00  0.00     0.163 HD
BRANCH   4   7
ATOM      7  C   UNL     1       4.997   1.685  -2.800  1.00  0.00     0.126 A 
ATOM      8  C   UNL     1       4.353   2.500  -1.885  1.00  0.00     0.011 A 
ATOM      9  C   UNL     1       4.141   3.714  -2.567  1.00  0.00     0.140 A 
ATOM     10  N   UNL     1       4.605   3.680  -3.817  1.00  0.00    -0.183 NA
ATOM     11  N   UNL     1       5.124   2.444  -3.931  1.00  0.00    -0.273 N 
ATOM     12  H   UNL     1       5.556   2.115  -4.753  1.00  0.00     0.190 HD
BRANCH   8  13
ATOM     13  C   UNL     1       4.016   2.105  -0.496  1.00  0.00     0.069 C 
ATOM     14  O   UNL     1       0.578   0.629  -1.097  1.00  0.00    -0.275 OA
ATOM     15  C   UNL     1       1.804   0.635  -0.943  1.00  0.00     0.226 C 
ATOM     16  C   UNL     1       2.496   1.877  -0.310  1.00  0.00     0.114 C 
ATOM     17  N   UNL     1       2.493  -0.528  -1.205  1.00  0.00    -0.311 N 
ATOM     18  C   UNL     1       3.798  -0.608  -0.807  1.00  0.00     0.132 A 
ATOM     19  H   UNL     1       2.058  -1.281  -1.666  1.00  0.00     0.171 HD
ATOM     20  C   UNL     1       4.695   0.815  -0.271  1.00  0.00     0.031 A 
ATOM     21  N   UNL     1       4.980  -2.029  -0.882  1.00  0.00    -0.262 N 
ATOM     22  C   UNL     1       6.579   0.306  -0.128  1.00  0.00     0.108 A 
ATOM     23  N   UNL     1       6.726  -1.405  -0.505  1.00  0.00    -0.173 NA
ATOM     24  H   UNL     1       4.739  -2.962  -1.087  1.00  0.00     0.192 HD
BRANCH  22  25
ATOM     25  C   UNL     1       7.692   1.282  -0.008  1.00  0.00     0.055 A 
ATOM     26  C   UNL     1       8.848   1.221  -0.748  1.00  0.00     0.022 A 
ATOM     27  S   UNL     1       7.626   2.646   1.006  1.00  0.00    -0.142 S 
ATOM     28  C   UNL     1       9.685   2.349  -0.497  1.00  0.00     0.012 A 
ATOM     29  C   UNL     1       9.174   3.164   0.491  1.00  0.00     0.065 A 
ENDBRANCH  22  25
ENDBRANCH   8  13
ENDBRANCH   4   7
ENDBRANCH   2   3
ENDBRANCH   1   2
BRANCH   1  30
ATOM     30  C   UNL     1       3.879  -2.868   1.934  1.00  0.00     0.118 C 
BRANCH  30  31
ATOM     31  N   UNL     1       4.930  -3.091   2.920  1.00  0.00    -0.352 N 
ATOM     32  C   UNL     1       5.373  -4.324   3.360  1.00  0.00     0.251 C 
ATOM     33  H   UNL     1       5.362  -2.295   3.304  1.00  0.00     0.163 HD
ATOM     34  O   UNL     1       5.918  -4.481   4.442  1.00  0.00    -0.269 OA
BRANCH  32  35
ATOM     35  C   UNL     1       5.182  -5.446   2.432  1.00  0.00     0.039 A 
ATOM     36  C   UNL     1       4.492  -6.596   2.804  1.00  0.00     0.014 A 
ATOM     37  C   UNL     1       5.575  -5.216   1.112  1.00  0.00     0.014 A 
ATOM     38  C   UNL     1       4.146  -7.494   1.801  1.00  0.00     0.010 A 
ATOM     39  C   UNL     1       5.073  -6.010   0.113  1.00  0.00     0.010 A 
ATOM     40  C   UNL     1       4.409  -7.179   0.447  1.00  0.00    -0.014 A 
BRANCH  40  41
ATOM     41  C   UNL     1       3.884  -8.019  -0.627  1.00  0.00     0.031 A 
ATOM     42  C   UNL     1       2.489  -8.468  -0.391  1.00  0.00     0.074 A 
ATOM     43  C   UNL     1       4.544  -8.343  -1.762  1.00  0.00     0.049 A 
ATOM     44  N   UNL     1       2.147  -9.628   0.057  1.00  0.00    -0.248 NA
ATOM     45  C   UNL     1       1.383  -7.500  -0.441  1.00  0.00     0.031 C 
ATOM     46  C   UNL     1       5.811  -7.839  -2.302  1.00  0.00     0.029 A 
ATOM     47  N   UNL     1       4.169  -9.250  -2.710  1.00  0.00    -0.354 N 
ATOM     48  C   UNL     1       0.766  -9.617   0.170  1.00  0.00     0.074 A 
ATOM     49  C   UNL     1       0.363  -8.244   0.003  1.00  0.00     0.031 C 
ATOM     50  C   UNL     1       5.990  -8.288  -3.567  1.00  0.00     0.029 A 
ATOM     51  C   UNL     1       4.957  -9.263  -3.860  1.00  0.00     0.049 A 
ATOM     52  H   UNL     1       3.399  -9.852  -2.591  1.00  0.00     0.167 HD
ATOM     53  C   UNL     1       0.086 -10.796   0.163  1.00  0.00     0.037 A 
ATOM     54  C   UNL     1       4.802 -10.067  -4.946  1.00  0.00     0.037 A 
ATOM     55  C   UNL     1       0.977 -11.897   0.460  1.00  0.00     0.049 A 
ATOM     56  C   UNL     1       4.046 -11.261  -4.487  1.00  0.00     0.074 A 
ATOM     57  C   UNL     1       1.772 -12.226   1.543  1.00  0.00     0.029 A 
ATOM     58  N   UNL     1       1.482 -12.614  -0.598  1.00  0.00    -0.354 N 
ATOM     59  N   UNL     1       4.545 -12.148  -3.673  1.00  0.00    -0.248 NA
ATOM     60  C   UNL     1       2.594 -11.183  -4.527  1.00  0.00     0.031 C 
ATOM     61  C   UNL     1       2.992 -12.702   0.973  1.00  0.00     0.029 A 
ATOM     62  C   UNL     1       2.837 -12.735  -0.412  1.00  0.00     0.049 A 
ATOM     63  H   UNL     1       0.966 -12.976  -1.354  1.00  0.00     0.167 HD
ATOM     64  C   UNL     1       3.519 -12.410  -2.779  1.00  0.00     0.074 A 
ATOM     65  C   UNL     1       2.323 -11.823  -3.386  1.00  0.00     0.031 C 
ATOM     66  C   UNL     1       3.783 -12.812  -1.501  1.00  0.00     0.037 A 
BRANCH  53  67
ATOM     67  C   UNL     1      -1.247 -10.999  -0.511  1.00  0.00     0.064 A 
ATOM     68  C   UNL     1      -1.867 -12.262  -0.423  1.00  0.00     0.173 A 
ATOM     69  C   UNL     1      -1.770 -10.132  -1.494  1.00  0.00     0.173 A 
ATOM     70  F   UNL     1      -1.447 -13.169   0.472  1.00  0.00    -0.203 F 
ATOM     71  C   UNL     1      -2.861 -12.660  -1.321  1.00  0.00     0.198 A 
ATOM     72  C   UNL     1      -2.793 -10.517  -2.358  1.00  0.00     0.198 A 
ATOM     73  F   UNL     1      -1.244  -8.928  -1.741  1.00  0.00    -0.203 F 
ATOM     74  F   UNL     1      -3.322 -13.918  -1.286  1.00  0.00    -0.200 F 
ATOM     75  C   UNL     1      -3.314 -11.791  -2.295  1.00  0.00     0.200 A 
ATOM     76  F   UNL     1      -3.204  -9.666  -3.309  1.00  0.00    -0.200 F 
ATOM     77  F   UNL     1      -4.213 -12.193  -3.203  1.00  0.00    -0.200 F 
ENDBRANCH  53  67
BRANCH  54  78
ATOM     78  C   UNL     1       4.916  -9.729  -6.388  1.00  0.00     0.064 A 
ATOM     79  C   UNL     1       4.868 -10.736  -7.371  1.00  0.00     0.173 A 
ATOM     80  C   UNL     1       4.740  -8.409  -6.843  1.00  0.00     0.173 A 
ATOM     81  F   UNL     1       4.989 -12.026  -7.022  1.00  0.00    -0.203 F 
ATOM     82  C   UNL     1       4.606 -10.445  -8.715  1.00  0.00     0.198 A 
ATOM     83  C   UNL     1       4.478  -8.120  -8.185  1.00  0.00     0.198 A 
ATOM     84  F   UNL     1       4.715  -7.385  -5.977  1.00  0.00    -0.203 F 
ATOM     85  F   UNL     1       4.491 -11.440  -9.607  1.00  0.00    -0.200 F 
ATOM     86  C   UNL     1       4.393  -9.138  -9.117  1.00  0.00     0.200 A 
ATOM     87  F   UNL     1       4.236  -6.855  -8.556  1.00  0.00    -0.200 F 
ATOM     88  F   UNL     1       4.064  -8.864 -10.388  1.00  0.00    -0.200 F 
ENDBRANCH  54  78
BRANCH  66  89
ATOM     89  C   UNL     1       5.201 -13.187  -1.160  1.00  0.00     0.064 A 
ATOM     90  C   UNL     1       6.298 -12.308  -1.224  1.00  0.00     0.173 A 
ATOM     91  C   UNL     1       5.433 -14.461  -0.628  1.00  0.00     0.173 A 
ATOM     92  F   UNL     1       6.148 -11.042  -1.631  1.00  0.00    -0.203 F 
ATOM     93  C   UNL     1       7.572 -12.708  -0.817  1.00  0.00     0.198 A 
ATOM     94  C   UNL     1       6.697 -14.846  -0.189  1.00  0.00     0.198 A 
ATOM     95  F   UNL     1       4.417 -15.328  -0.495  1.00  0.00    -0.203 F 
ATOM     96  F   UNL     1       8.605 -11.855  -0.901  1.00  0.00    -0.200 F 
ATOM     97  C   UNL     1       7.768 -13.975  -0.294  1.00  0.00     0.200 A 
ATOM     98  F   UNL     1       6.869 -16.056   0.359  1.00  0.00    -0.200 F 
ATOM     99  F   UNL     1       8.984 -14.350   0.130  1.00  0.00    -0.200 F 
ENDBRANCH  66  89
ENDBRANCH  40  41
ENDBRANCH  32  35
ENDBRANCH  30  31
ENDBRANCH   1  30
TORSDOF 12
