REMARK SMILES C[C@@H](C(=O)NCCCNC(=O)c1ccc(-c2c3nc(c(-c4c(F)c(F)c(F)c(F)c4F)c4ccc([nH]4)c(-c4c(F)c(F)c(F)c(F)c4F)c4nc(c(-c5c(F)c(F)c(F)c(F)c5F)c5ccc2[nH]5)C=C4)C=C3)cc1)c1ccc(C[C@@H]2CCC[C@@H]2O)cc1
REMARK SMILES IDX 6 1 5 2 3 3 4 4 2 6 1 7 75 8 76 9 87 10 77 11 86 12 78 13
REMARK SMILES IDX 79 14 80 15 81 16 84 17 82 18 83 19 85 20 7 22 8 23 9 24
REMARK SMILES IDX 10 25 11 27 12 28 13 29 74 30 14 31 73 32 15 33 16 34 17 35
REMARK SMILES IDX 67 36 18 37 72 38 66 39 68 40 19 41 71 42 65 43 64 44 20 46
REMARK SMILES IDX 52 47 32 48 51 49 33 50 36 51 50 52 69 53 34 54 35 55 49 57
REMARK SMILES IDX 70 58 37 59 21 60 22 61 30 62 23 63 24 64 28 65 31 66 25 67
REMARK SMILES IDX 26 68 29 69 27 70 53 71 54 72 62 73 55 74 56 75 60 76 63 77
REMARK SMILES IDX 57 78 58 79 61 80 59 81 38 82 39 83 47 84 40 85 41 86 45 87
REMARK SMILES IDX 48 88 42 89 43 90 46 91 44 92
REMARK H PARENT 5 5 85 21 9 26 68 45 36 56
REMARK Flexibility Score: inf
ROOT
ATOM      1  C   UNL     1     -11.204   3.104   7.821  1.00  0.00     0.117 C 
ENDROOT
BRANCH   1   2
ATOM      2  N   UNL     1     -10.362   3.510   6.711  1.00  0.00    -0.356 N 
ATOM      3  C   UNL     1      -9.537   2.776   5.907  1.00  0.00     0.227 C 
ATOM      4  O   UNL     1      -8.750   3.419   5.210  1.00  0.00    -0.274 OA
ATOM      5  H   UNL     1     -10.391   4.472   6.503  1.00  0.00     0.163 HD
BRANCH   3   6
ATOM      6  C   UNL     1      -9.613   1.235   5.916  1.00  0.00     0.105 C 
ATOM      7  C   UNL     1      -8.813   0.743   7.132  1.00  0.00     0.023 C 
BRANCH   6   8
ATOM      8  C   UNL     1      -9.152   0.573   4.611  1.00  0.00    -0.036 A 
ATOM      9  C   UNL     1      -8.552  -0.697   4.601  1.00  0.00     0.005 A 
ATOM     10  C   UNL     1      -9.331   1.205   3.371  1.00  0.00     0.005 A 
ATOM     11  C   UNL     1      -8.020  -1.241   3.430  1.00  0.00     0.004 A 
ATOM     12  C   UNL     1      -8.777   0.673   2.202  1.00  0.00     0.004 A 
ATOM     13  C   UNL     1      -8.065  -0.529   2.232  1.00  0.00    -0.048 A 
BRANCH  13  14
ATOM     14  C   UNL     1      -7.324  -1.013   1.012  1.00  0.00     0.041 C 
BRANCH  14  15
ATOM     15  C   UNL     1      -5.799  -0.748   0.946  1.00  0.00     0.022 C 
ATOM     16  C   UNL     1      -4.970  -1.425   2.044  1.00  0.00     0.007 C 
ATOM     17  C   UNL     1      -5.326   0.708   1.031  1.00  0.00     0.117 C 
ATOM     18  C   UNL     1      -4.683  -0.357   3.104  1.00  0.00     0.003 C 
ATOM     19  C   UNL     1      -5.139   0.976   2.518  1.00  0.00     0.032 C 
BRANCH  17  20
ATOM     20  O   UNL     1      -6.200   1.636   0.425  1.00  0.00    -0.393 OA
ATOM     21  H   UNL     1      -7.066   1.596   0.861  1.00  0.00     0.210 HD
ENDBRANCH  17  20
ENDBRANCH  14  15
ENDBRANCH  13  14
ENDBRANCH   6   8
ENDBRANCH   3   6
ENDBRANCH   1   2
BRANCH   1  22
ATOM     22  C   UNL     1     -10.545   3.408   9.168  1.00  0.00     0.042 C 
BRANCH  22  23
ATOM     23  C   UNL     1     -10.261   4.884   9.423  1.00  0.00     0.118 C 
BRANCH  23  24
ATOM     24  N   UNL     1     -11.472   5.661   9.615  1.00  0.00    -0.352 N 
ATOM     25  C   UNL     1     -11.825   6.501  10.638  1.00  0.00     0.251 C 
ATOM     26  H   UNL     1     -12.142   5.571   8.899  1.00  0.00     0.163 HD
ATOM     27  O   UNL     1     -12.980   6.927  10.691  1.00  0.00    -0.269 OA
BRANCH  25  28
ATOM     28  C   UNL     1     -10.856   6.897  11.687  1.00  0.00     0.039 A 
ATOM     29  C   UNL     1     -11.321   7.038  12.999  1.00  0.00     0.014 A 
ATOM     30  C   UNL     1      -9.524   7.205  11.390  1.00  0.00     0.014 A 
ATOM     31  C   UNL     1     -10.455   7.464  14.009  1.00  0.00     0.010 A 
ATOM     32  C   UNL     1      -8.643   7.564  12.411  1.00  0.00     0.010 A 
ATOM     33  C   UNL     1      -9.105   7.722  13.726  1.00  0.00    -0.014 A 
BRANCH  33  34
ATOM     34  C   UNL     1      -8.188   8.215  14.785  1.00  0.00     0.031 A 
ATOM     35  C   UNL     1      -7.630   9.610  14.710  1.00  0.00     0.074 A 
ATOM     36  C   UNL     1      -7.835   7.404  15.800  1.00  0.00     0.049 A 
ATOM     37  N   UNL     1      -6.800  10.217  15.521  1.00  0.00    -0.248 NA
ATOM     38  C   UNL     1      -8.041  10.424  13.556  1.00  0.00     0.031 C 
ATOM     39  C   UNL     1      -8.266   6.016  15.963  1.00  0.00     0.029 A 
ATOM     40  N   UNL     1      -7.025   7.632  16.886  1.00  0.00    -0.354 N 
ATOM     41  C   UNL     1      -6.579  11.471  14.968  1.00  0.00     0.074 A 
ATOM     42  C   UNL     1      -7.321  11.522  13.727  1.00  0.00     0.031 C 
ATOM     43  C   UNL     1      -7.731   5.521  17.091  1.00  0.00     0.029 A 
ATOM     44  C   UNL     1      -6.906   6.548  17.719  1.00  0.00     0.049 A 
ATOM     45  H   UNL     1      -6.574   8.492  17.050  1.00  0.00     0.167 HD
ATOM     46  C   UNL     1      -5.844  12.498  15.459  1.00  0.00     0.037 A 
ATOM     47  C   UNL     1      -6.212   6.403  18.864  1.00  0.00     0.037 A 
ATOM     48  C   UNL     1      -5.130  12.461  16.708  1.00  0.00     0.049 A 
ATOM     49  C   UNL     1      -5.441   7.571  19.414  1.00  0.00     0.074 A 
ATOM     50  C   UNL     1      -4.387  13.461  17.310  1.00  0.00     0.029 A 
ATOM     51  N   UNL     1      -5.077  11.361  17.551  1.00  0.00    -0.354 N 
ATOM     52  N   UNL     1      -5.283   8.770  18.908  1.00  0.00    -0.248 NA
ATOM     53  C   UNL     1      -4.766   7.371  20.704  1.00  0.00     0.031 C 
ATOM     54  C   UNL     1      -3.864  12.958  18.507  1.00  0.00     0.029 A 
ATOM     55  C   UNL     1      -4.312  11.657  18.668  1.00  0.00     0.049 A 
ATOM     56  H   UNL     1      -5.517  10.497  17.380  1.00  0.00     0.167 HD
ATOM     57  C   UNL     1      -4.515   9.473  19.826  1.00  0.00     0.074 A 
ATOM     58  C   UNL     1      -4.250   8.572  20.927  1.00  0.00     0.031 C 
ATOM     59  C   UNL     1      -4.069  10.752  19.760  1.00  0.00     0.037 A 
BRANCH  46  60
ATOM     60  C   UNL     1      -5.787  13.755  14.642  1.00  0.00     0.064 A 
ATOM     61  C   UNL     1      -6.902  14.598  14.517  1.00  0.00     0.173 A 
ATOM     62  C   UNL     1      -4.604  14.132  13.990  1.00  0.00     0.173 A 
ATOM     63  F   UNL     1      -8.062  14.276  15.110  1.00  0.00    -0.203 F 
ATOM     64  C   UNL     1      -6.844  15.754  13.742  1.00  0.00     0.198 A 
ATOM     65  C   UNL     1      -4.541  15.303  13.239  1.00  0.00     0.198 A 
ATOM     66  F   UNL     1      -3.507  13.364  14.082  1.00  0.00    -0.203 F 
ATOM     67  F   UNL     1      -7.937  16.515  13.595  1.00  0.00    -0.200 F 
ATOM     68  C   UNL     1      -5.663  16.108  13.108  1.00  0.00     0.200 A 
ATOM     69  F   UNL     1      -3.396  15.650  12.636  1.00  0.00    -0.200 F 
ATOM     70  F   UNL     1      -5.608  17.221  12.364  1.00  0.00    -0.200 F 
ENDBRANCH  46  60
BRANCH  47  71
ATOM     71  C   UNL     1      -6.256   5.109  19.590  1.00  0.00     0.064 A 
ATOM     72  C   UNL     1      -6.976   4.978  20.786  1.00  0.00     0.173 A 
ATOM     73  C   UNL     1      -5.590   3.977  19.100  1.00  0.00     0.173 A 
ATOM     74  F   UNL     1      -7.612   6.040  21.302  1.00  0.00    -0.203 F 
ATOM     75  C   UNL     1      -7.015   3.767  21.473  1.00  0.00     0.198 A 
ATOM     76  C   UNL     1      -5.649   2.760  19.776  1.00  0.00     0.198 A 
ATOM     77  F   UNL     1      -4.893   4.051  17.957  1.00  0.00    -0.203 F 
ATOM     78  F   UNL     1      -7.680   3.679  22.633  1.00  0.00    -0.200 F 
ATOM     79  C   UNL     1      -6.356   2.658  20.964  1.00  0.00     0.200 A 
ATOM     80  F   UNL     1      -5.022   1.687  19.275  1.00  0.00    -0.200 F 
ATOM     81  F   UNL     1      -6.399   1.491  21.623  1.00  0.00    -0.200 F 
ENDBRANCH  47  71
BRANCH  59  82
ATOM     82  C   UNL     1      -3.279  11.262  20.928  1.00  0.00     0.064 A 
ATOM     83  C   UNL     1      -1.956  10.855  21.154  1.00  0.00     0.173 A 
ATOM     84  C   UNL     1      -3.842  12.195  21.811  1.00  0.00     0.173 A 
ATOM     85  F   UNL     1      -1.379   9.954  20.345  1.00  0.00    -0.203 F 
ATOM     86  C   UNL     1      -1.234  11.345  22.239  1.00  0.00     0.198 A 
ATOM     87  C   UNL     1      -3.109  12.701  22.880  1.00  0.00     0.198 A 
ATOM     88  F   UNL     1      -5.102  12.619  21.634  1.00  0.00    -0.203 F 
ATOM     89  F   UNL     1       0.014  10.910  22.462  1.00  0.00    -0.200 F 
ATOM     90  C   UNL     1      -1.808  12.271  23.097  1.00  0.00     0.200 A 
ATOM     91  F   UNL     1      -3.662  13.603  23.704  1.00  0.00    -0.200 F 
ATOM     92  F   UNL     1      -1.110  12.744  24.139  1.00  0.00    -0.200 F 
ENDBRANCH  59  82
ENDBRANCH  33  34
ENDBRANCH  25  28
ENDBRANCH  23  24
ENDBRANCH  22  23
ENDBRANCH   1  22
TORSDOF 14
