REMARK SMILES C[C@]12CCC[C@@](C)(C(=O)NCCCNC(=O)c3ccc(-c4c5nc(c(-c6c(F)c(F)c(F)c(F)c6F)c6ccc([nH]6)c(-c6c(F)c(F)c(F)c(F)c6F)c6nc(c(-c7c(F)c(F)c(F)c(F)c7F)c7ccc4[nH]7)C=C6)C=C5)cc3)[C@@H]1CC[C@]13C=C(CO)[C@H](CC[C@H]12)C3
REMARK SMILES IDX 12 1 11 2 10 3 8 4 9 5 6 7 1 8 2 9 3 10 80 11 91 12 4 13
REMARK SMILES IDX 81 14 83 15 90 16 5 17 7 18 82 19 84 20 92 21 89 22 85 23
REMARK SMILES IDX 88 24 86 25 87 26 13 28 14 29 15 30 16 32 17 33 18 34 79 35
REMARK SMILES IDX 19 36 78 37 20 38 21 39 22 40 72 41 23 42 77 43 71 44 73 45
REMARK SMILES IDX 24 46 76 47 70 48 69 49 25 51 57 52 37 53 56 54 38 55 41 56
REMARK SMILES IDX 55 57 74 58 39 59 40 60 54 62 75 63 42 64 26 65 27 66 35 67
REMARK SMILES IDX 28 68 29 69 33 70 36 71 30 72 31 73 34 74 32 75 58 76 59 77
REMARK SMILES IDX 67 78 60 79 61 80 65 81 68 82 62 83 63 84 66 85 64 86 43 87
REMARK SMILES IDX 44 88 52 89 45 90 46 91 50 92 53 93 47 94 48 95 51 96 49 97
REMARK H PARENT 10 6 87 27 14 31 73 50 41 61
REMARK Flexibility Score: inf
ROOT
ATOM      1  C   UNL     1      -1.325   1.707  -2.767  1.00  0.00     0.042 C 
ENDROOT
BRANCH   1   2
ATOM      2  C   UNL     1       0.053   1.944  -3.380  1.00  0.00     0.117 C 
BRANCH   2   3
ATOM      3  N   UNL     1       1.071   2.478  -2.510  1.00  0.00    -0.356 N 
ATOM      4  C   UNL     1       2.097   1.984  -1.789  1.00  0.00     0.226 C 
ATOM      5  O   UNL     1       2.861   2.881  -1.395  1.00  0.00    -0.274 OA
ATOM      6  H   UNL     1       0.999   3.456  -2.420  1.00  0.00     0.163 HD
BRANCH   4   7
ATOM      7  C   UNL     1       2.298   0.509  -1.312  1.00  0.00     0.050 C 
ATOM      8  C   UNL     1       2.433  -1.272   1.317  1.00  0.00     0.012 C 
ATOM      9  C   UNL     1       1.255  -1.335   0.271  1.00  0.00    -0.025 C 
ATOM     10  C   UNL     1       1.580  -2.400  -0.806  1.00  0.00     0.007 C 
ATOM     11  C   UNL     1       1.066   0.042  -0.448  1.00  0.00     0.010 C 
ATOM     12  C   UNL     1      -0.009  -1.746   1.110  1.00  0.00     0.005 C 
ATOM     13  C   UNL     1       2.648  -1.991  -1.833  1.00  0.00     0.002 C 
ATOM     14  C   UNL     1       0.482   1.113   0.488  1.00  0.00     0.006 C 
ATOM     15  C   UNL     1      -0.812  -0.571   1.810  1.00  0.00    -0.008 C 
ATOM     16  C   UNL     1      -0.981  -2.881   0.789  1.00  0.00     0.006 C 
ATOM     17  C   UNL     1       2.462  -0.567  -2.413  1.00  0.00     0.017 C 
ATOM     18  C   UNL     1       3.674   0.588  -0.576  1.00  0.00     0.022 C 
ATOM     19  C   UNL     1      -0.900   0.687   0.981  1.00  0.00     0.012 C 
ATOM     20  C   UNL     1      -0.138  -0.438   3.138  1.00  0.00    -0.018 C 
ATOM     21  C   UNL     1      -2.193  -1.021   2.352  1.00  0.00     0.019 C 
ATOM     22  C   UNL     1      -1.524  -3.367   2.192  1.00  0.00     0.008 C 
ATOM     23  C   UNL     1      -0.531  -1.492   3.877  1.00  0.00    -0.045 C 
ATOM     24  C   UNL     1      -1.744  -2.198   3.225  1.00  0.00     0.018 C 
BRANCH  23  25
ATOM     25  C   UNL     1       0.223  -1.922   5.079  1.00  0.00     0.187 C 
BRANCH  25  26
ATOM     26  O   UNL     1      -0.490  -1.537   6.235  1.00  0.00    -0.392 OA
ATOM     27  H   UNL     1      -0.597  -0.573   6.242  1.00  0.00     0.211 HD
ENDBRANCH  25  26
ENDBRANCH  23  25
ENDBRANCH   4   7
ENDBRANCH   2   3
ENDBRANCH   1   2
BRANCH   1  28
ATOM     28  C   UNL     1      -1.882   2.729  -1.776  1.00  0.00     0.118 C 
BRANCH  28  29
ATOM     29  N   UNL     1      -2.193   4.033  -2.323  1.00  0.00    -0.352 N 
ATOM     30  C   UNL     1      -3.374   4.730  -2.309  1.00  0.00     0.251 C 
ATOM     31  H   UNL     1      -1.444   4.488  -2.772  1.00  0.00     0.163 HD
ATOM     32  O   UNL     1      -3.418   5.863  -2.793  1.00  0.00    -0.269 OA
BRANCH  30  33
ATOM     33  C   UNL     1      -4.621   4.128  -1.784  1.00  0.00     0.039 A 
ATOM     34  C   UNL     1      -5.742   4.143  -2.619  1.00  0.00     0.014 A 
ATOM     35  C   UNL     1      -4.723   3.596  -0.494  1.00  0.00     0.014 A 
ATOM     36  C   UNL     1      -6.945   3.582  -2.187  1.00  0.00     0.010 A 
ATOM     37  C   UNL     1      -5.915   2.986  -0.082  1.00  0.00     0.010 A 
ATOM     38  C   UNL     1      -7.039   2.971  -0.925  1.00  0.00    -0.014 A 
BRANCH  38  39
ATOM     39  C   UNL     1      -8.308   2.306  -0.517  1.00  0.00     0.031 A 
ATOM     40  C   UNL     1      -9.157   2.866   0.590  1.00  0.00     0.074 A 
ATOM     41  C   UNL     1      -8.707   1.190  -1.159  1.00  0.00     0.049 A 
ATOM     42  N   UNL     1     -10.318   2.450   1.034  1.00  0.00    -0.248 NA
ATOM     43  C   UNL     1      -8.629   4.040   1.298  1.00  0.00     0.031 C 
ATOM     44  C   UNL     1      -7.970   0.533  -2.238  1.00  0.00     0.029 A 
ATOM     45  N   UNL     1      -9.834   0.419  -1.008  1.00  0.00    -0.354 N 
ATOM     46  C   UNL     1     -10.656   3.305   2.075  1.00  0.00     0.074 A 
ATOM     47  C   UNL     1      -9.556   4.235   2.225  1.00  0.00     0.031 C 
ATOM     48  C   UNL     1      -8.681  -0.516  -2.680  1.00  0.00     0.029 A 
ATOM     49  C   UNL     1      -9.904  -0.632  -1.889  1.00  0.00     0.049 A 
ATOM     50  H   UNL     1     -10.526   0.603  -0.332  1.00  0.00     0.167 HD
ATOM     51  C   UNL     1     -11.786   3.324   2.825  1.00  0.00     0.037 A 
ATOM     52  C   UNL     1     -10.845  -1.584  -2.046  1.00  0.00     0.037 A 
ATOM     53  C   UNL     1     -12.884   2.402   2.671  1.00  0.00     0.049 A 
ATOM     54  C   UNL     1     -12.066  -1.571  -1.167  1.00  0.00     0.074 A 
ATOM     55  C   UNL     1     -14.097   2.385   3.337  1.00  0.00     0.029 A 
ATOM     56  N   UNL     1     -12.894   1.320   1.802  1.00  0.00    -0.354 N 
ATOM     57  N   UNL     1     -12.412  -0.708  -0.243  1.00  0.00    -0.248 NA
ATOM     58  C   UNL     1     -13.027  -2.667  -1.354  1.00  0.00     0.031 C 
ATOM     59  C   UNL     1     -14.809   1.253   2.927  1.00  0.00     0.029 A 
ATOM     60  C   UNL     1     -14.072   0.602   1.952  1.00  0.00     0.049 A 
ATOM     61  H   UNL     1     -12.172   1.095   1.172  1.00  0.00     0.167 HD
ATOM     62  C   UNL     1     -13.641  -1.138   0.241  1.00  0.00     0.074 A 
ATOM     63  C   UNL     1     -13.987  -2.331  -0.503  1.00  0.00     0.031 C 
ATOM     64  C   UNL     1     -14.412  -0.590   1.212  1.00  0.00     0.037 A 
BRANCH  51  65
ATOM     65  C   UNL     1     -11.883   4.364   3.909  1.00  0.00     0.064 A 
ATOM     66  C   UNL     1     -11.995   5.733   3.618  1.00  0.00     0.173 A 
ATOM     67  C   UNL     1     -11.888   3.982   5.259  1.00  0.00     0.173 A 
ATOM     68  F   UNL     1     -11.992   6.155   2.345  1.00  0.00    -0.203 F 
ATOM     69  C   UNL     1     -12.063   6.680   4.637  1.00  0.00     0.198 A 
ATOM     70  C   UNL     1     -11.993   4.929   6.275  1.00  0.00     0.198 A 
ATOM     71  F   UNL     1     -11.797   2.687   5.597  1.00  0.00    -0.203 F 
ATOM     72  F   UNL     1     -12.107   7.985   4.335  1.00  0.00    -0.200 F 
ATOM     73  C   UNL     1     -12.068   6.277   5.964  1.00  0.00     0.200 A 
ATOM     74  F   UNL     1     -12.016   4.535   7.556  1.00  0.00    -0.200 F 
ATOM     75  F   UNL     1     -12.135   7.190   6.943  1.00  0.00    -0.200 F 
ENDBRANCH  51  65
BRANCH  52  76
ATOM     76  C   UNL     1     -10.682  -2.617  -3.103  1.00  0.00     0.064 A 
ATOM     77  C   UNL     1     -11.527  -2.642  -4.221  1.00  0.00     0.173 A 
ATOM     78  C   UNL     1      -9.678  -3.594  -3.022  1.00  0.00     0.173 A 
ATOM     79  F   UNL     1     -12.517  -1.744  -4.332  1.00  0.00    -0.203 F 
ATOM     80  C   UNL     1     -11.383  -3.611  -5.212  1.00  0.00     0.198 A 
ATOM     81  C   UNL     1      -9.516  -4.544  -4.028  1.00  0.00     0.198 A 
ATOM     82  F   UNL     1      -8.842  -3.614  -1.974  1.00  0.00    -0.203 F 
ATOM     83  F   UNL     1     -12.229  -3.636  -6.250  1.00  0.00    -0.200 F 
ATOM     84  C   UNL     1     -10.372  -4.556  -5.119  1.00  0.00     0.200 A 
ATOM     85  F   UNL     1      -8.527  -5.445  -3.943  1.00  0.00    -0.200 F 
ATOM     86  F   UNL     1     -10.226  -5.481  -6.077  1.00  0.00    -0.200 F 
ENDBRANCH  52  76
BRANCH  64  87
ATOM     87  C   UNL     1     -15.724  -1.258   1.515  1.00  0.00     0.064 A 
ATOM     88  C   UNL     1     -15.789  -2.510   2.144  1.00  0.00     0.173 A 
ATOM     89  C   UNL     1     -16.936  -0.619   1.204  1.00  0.00     0.173 A 
ATOM     90  F   UNL     1     -14.663  -3.173   2.448  1.00  0.00    -0.203 F 
ATOM     91  C   UNL     1     -17.015  -3.109   2.426  1.00  0.00     0.198 A 
ATOM     92  C   UNL     1     -18.159  -1.205   1.520  1.00  0.00     0.198 A 
ATOM     93  F   UNL     1     -16.933   0.582   0.607  1.00  0.00    -0.203 F 
ATOM     94  F   UNL     1     -17.051  -4.329   2.980  1.00  0.00    -0.200 F 
ATOM     95  C   UNL     1     -18.198  -2.452   2.123  1.00  0.00     0.200 A 
ATOM     96  F   UNL     1     -19.300  -0.561   1.239  1.00  0.00    -0.200 F 
ATOM     97  F   UNL     1     -19.376  -3.026   2.404  1.00  0.00    -0.200 F 
ENDBRANCH  64  87
ENDBRANCH  38  39
ENDBRANCH  30  33
ENDBRANCH  28  29
ENDBRANCH   1  28
TORSDOF 12
