REMARK SMILES O=C(NCCCNC(=O)[C@H]1CCCCC[C@@H]1NC(=O)c1cncc(Br)c1)c1ccc(-c2c3nc(c(-c4c(F)c(F)c(F)c(F)c4F)c4ccc([nH]4)c(-c4c(F)c(F)c(F)c(F)c4F)c4nc(c(-c5c(F)c(F)c(F)c(F)c5F)c5ccc2[nH]5)C=C4)C=C3)cc1
REMARK SMILES IDX 6 1 5 2 4 3 3 4 1 5 2 6 27 8 28 9 89 10 29 11 88 12 30 13
REMARK SMILES IDX 31 14 32 15 82 16 33 17 87 18 81 19 83 20 34 21 86 22 80 23
REMARK SMILES IDX 79 24 35 26 67 27 47 28 66 29 48 30 51 31 65 32 84 33 49 34
REMARK SMILES IDX 50 35 64 37 85 38 52 39 36 40 37 41 45 42 38 43 39 44 43 45
REMARK SMILES IDX 46 46 40 47 41 48 44 49 42 50 68 51 69 52 77 53 70 54 71 55
REMARK SMILES IDX 75 56 78 57 72 58 73 59 76 60 74 61 53 62 54 63 62 64 55 65
REMARK SMILES IDX 56 66 60 67 63 68 57 69 58 70 61 71 59 72 7 73 8 74 9 76
REMARK SMILES IDX 10 77 11 78 12 79 13 80 14 81 16 83 15 84 17 86 18 87 19 89
REMARK SMILES IDX 20 90 21 91 26 92 22 93 24 94 23 95 25 96
REMARK H PARENT 3 7 83 25 51 36 7 75 17 88
REMARK Flexibility Score: 90.00
ROOT
ATOM      1  C   UNL     1       3.394  -3.606  -6.551  1.00  0.00     0.117 C 
ENDROOT
BRANCH   1   2
ATOM      2  C   UNL     1       2.516  -2.684  -7.369  1.00  0.00     0.042 C 
BRANCH   2   3
ATOM      3  C   UNL     1       2.372  -3.124  -8.816  1.00  0.00     0.118 C 
BRANCH   3   4
ATOM      4  N   UNL     1       1.686  -4.405  -8.958  1.00  0.00    -0.352 N 
ATOM      5  O   UNL     1      -0.051  -5.808  -9.299  1.00  0.00    -0.269 OA
ATOM      6  C   UNL     1       0.421  -4.683  -9.422  1.00  0.00     0.251 C 
ATOM      7  H   UNL     1       2.209  -5.191  -8.678  1.00  0.00     0.163 HD
BRANCH   6   8
ATOM      8  C   UNL     1      -0.377  -3.606 -10.040  1.00  0.00     0.039 A 
ATOM      9  C   UNL     1       0.227  -2.713 -10.922  1.00  0.00     0.014 A 
ATOM     10  C   UNL     1      -1.727  -3.465  -9.711  1.00  0.00     0.014 A 
ATOM     11  C   UNL     1      -0.443  -1.558 -11.289  1.00  0.00     0.010 A 
ATOM     12  C   UNL     1      -2.446  -2.373 -10.205  1.00  0.00     0.010 A 
ATOM     13  C   UNL     1      -1.797  -1.386 -10.962  1.00  0.00    -0.014 A 
BRANCH  13  14
ATOM     14  C   UNL     1      -2.508  -0.195 -11.490  1.00  0.00     0.031 A 
ATOM     15  C   UNL     1      -3.120   0.825 -10.573  1.00  0.00     0.074 A 
ATOM     16  C   UNL     1      -2.544  -0.020 -12.826  1.00  0.00     0.049 A 
ATOM     17  N   UNL     1      -3.752   1.931 -10.879  1.00  0.00    -0.248 NA
ATOM     18  C   UNL     1      -3.025   0.572  -9.128  1.00  0.00     0.031 C 
ATOM     19  C   UNL     1      -1.984  -0.950 -13.811  1.00  0.00     0.029 A 
ATOM     20  N   UNL     1      -3.039   1.006 -13.587  1.00  0.00    -0.354 N 
ATOM     21  C   UNL     1      -4.150   2.491  -9.671  1.00  0.00     0.074 A 
ATOM     22  C   UNL     1      -3.711   1.591  -8.627  1.00  0.00     0.031 C 
ATOM     23  C   UNL     1      -2.102  -0.422 -15.035  1.00  0.00     0.029 A 
ATOM     24  C   UNL     1      -2.825   0.838 -14.933  1.00  0.00     0.049 A 
ATOM     25  H   UNL     1      -3.503   1.786 -13.207  1.00  0.00     0.167 HD
ATOM     26  C   UNL     1      -4.816   3.652  -9.460  1.00  0.00     0.037 A 
ATOM     27  C   UNL     1      -3.192   1.602 -15.977  1.00  0.00     0.037 A 
ATOM     28  C   UNL     1      -5.233   4.548 -10.511  1.00  0.00     0.049 A 
ATOM     29  C   UNL     1      -3.954   2.865 -15.712  1.00  0.00     0.074 A 
ATOM     30  C   UNL     1      -5.887   5.763 -10.401  1.00  0.00     0.029 A 
ATOM     31  N   UNL     1      -5.039   4.322 -11.867  1.00  0.00    -0.354 N 
ATOM     32  N   UNL     1      -4.306   3.393 -14.565  1.00  0.00    -0.248 NA
ATOM     33  C   UNL     1      -4.379   3.635 -16.887  1.00  0.00     0.031 C 
ATOM     34  C   UNL     1      -6.135   6.246 -11.691  1.00  0.00     0.029 A 
ATOM     35  C   UNL     1      -5.584   5.363 -12.604  1.00  0.00     0.049 A 
ATOM     36  H   UNL     1      -4.581   3.539 -12.249  1.00  0.00     0.167 HD
ATOM     37  C   UNL     1      -4.976   4.566 -14.876  1.00  0.00     0.074 A 
ATOM     38  C   UNL     1      -4.960   4.683 -16.321  1.00  0.00     0.031 C 
ATOM     39  C   UNL     1      -5.557   5.462 -14.042  1.00  0.00     0.037 A 
BRANCH  26  40
ATOM     40  C   UNL     1      -5.163   4.013  -8.043  1.00  0.00     0.064 A 
ATOM     41  C   UNL     1      -4.184   4.401  -7.115  1.00  0.00     0.173 A 
ATOM     42  C   UNL     1      -6.501   4.014  -7.619  1.00  0.00     0.173 A 
ATOM     43  F   UNL     1      -2.889   4.408  -7.462  1.00  0.00    -0.203 F 
ATOM     44  C   UNL     1      -4.530   4.749  -5.810  1.00  0.00     0.198 A 
ATOM     45  C   UNL     1      -6.846   4.391  -6.323  1.00  0.00     0.198 A 
ATOM     46  F   UNL     1      -7.479   3.658  -8.466  1.00  0.00    -0.203 F 
ATOM     47  F   UNL     1      -3.573   5.069  -4.928  1.00  0.00    -0.200 F 
ATOM     48  C   UNL     1      -5.860   4.751  -5.418  1.00  0.00     0.200 A 
ATOM     49  F   UNL     1      -8.133   4.406  -5.951  1.00  0.00    -0.200 F 
ATOM     50  F   UNL     1      -6.191   5.093  -4.165  1.00  0.00    -0.200 F 
ENDBRANCH  26  40
BRANCH  27  51
ATOM     51  C   UNL     1      -2.849   1.177 -17.359  1.00  0.00     0.064 A 
ATOM     52  C   UNL     1      -1.936   1.905 -18.133  1.00  0.00     0.173 A 
ATOM     53  C   UNL     1      -3.414   0.025 -17.927  1.00  0.00     0.173 A 
ATOM     54  F   UNL     1      -1.381   3.022 -17.639  1.00  0.00    -0.203 F 
ATOM     55  C   UNL     1      -1.614   1.506 -19.428  1.00  0.00     0.198 A 
ATOM     56  C   UNL     1      -3.065  -0.393 -19.208  1.00  0.00     0.198 A 
ATOM     57  F   UNL     1      -4.287  -0.713 -17.224  1.00  0.00    -0.203 F 
ATOM     58  F   UNL     1      -0.771   2.244 -20.163  1.00  0.00    -0.200 F 
ATOM     59  C   UNL     1      -2.172   0.353 -19.961  1.00  0.00     0.200 A 
ATOM     60  F   UNL     1      -3.590  -1.519 -19.709  1.00  0.00    -0.200 F 
ATOM     61  F   UNL     1      -1.853  -0.035 -21.203  1.00  0.00    -0.200 F 
ENDBRANCH  27  51
BRANCH  39  62
ATOM     62  C   UNL     1      -6.191   6.665 -14.677  1.00  0.00     0.064 A 
ATOM     63  C   UNL     1      -7.376   6.568 -15.422  1.00  0.00     0.173 A 
ATOM     64  C   UNL     1      -5.610   7.934 -14.528  1.00  0.00     0.173 A 
ATOM     65  F   UNL     1      -7.960   5.375 -15.609  1.00  0.00    -0.203 F 
ATOM     66  C   UNL     1      -7.937   7.692 -16.022  1.00  0.00     0.198 A 
ATOM     67  C   UNL     1      -6.192   9.060 -15.101  1.00  0.00     0.198 A 
ATOM     68  F   UNL     1      -4.479   8.081 -13.822  1.00  0.00    -0.203 F 
ATOM     69  F   UNL     1      -9.036   7.566 -16.779  1.00  0.00    -0.200 F 
ATOM     70  C   UNL     1      -7.349   8.937 -15.856  1.00  0.00     0.200 A 
ATOM     71  F   UNL     1      -5.630  10.264 -14.929  1.00  0.00    -0.200 F 
ATOM     72  F   UNL     1      -7.892  10.018 -16.433  1.00  0.00    -0.200 F 
ENDBRANCH  39  62
ENDBRANCH  13  14
ENDBRANCH   6   8
ENDBRANCH   3   4
ENDBRANCH   2   3
ENDBRANCH   1   2
BRANCH   1  73
ATOM     73  N   UNL     1       4.740  -3.712  -7.090  1.00  0.00    -0.356 N 
ATOM     74  C   UNL     1       5.919  -3.811  -6.416  1.00  0.00     0.225 C 
ATOM     75  H   UNL     1       4.808  -3.712  -8.072  1.00  0.00     0.163 HD
ATOM     76  O   UNL     1       6.909  -4.171  -7.049  1.00  0.00    -0.275 OA
BRANCH  74  77
ATOM     77  C   UNL     1       5.933  -3.577  -4.914  1.00  0.00     0.101 C 
BRANCH  77  78
ATOM     78  C   UNL     1       5.397  -4.872  -4.276  1.00  0.00     0.015 C 
BRANCH  78  79
ATOM     79  C   UNL     1       6.431  -5.990  -4.187  1.00  0.00     0.001 C 
BRANCH  79  80
ATOM     80  C   UNL     1       7.147  -5.980  -2.847  1.00  0.00     0.000 C 
BRANCH  80  81
ATOM     81  C   UNL     1       8.096  -4.806  -2.630  1.00  0.00     0.002 CG0
ATOM     82  G   UNL     1       7.544  -3.409  -2.920  1.00  0.00     0.000 G0
ENDBRANCH  80  81
ENDBRANCH  79  80
ENDBRANCH  78  79
ENDBRANCH  77  78
BRANCH  77  83
ATOM     83  C   UNL     1       7.326  -3.111  -4.421  1.00  0.00     0.094 C 
BRANCH  83  84
ATOM     84  C   UNL     1       7.544  -3.409  -2.920  1.00  0.00     0.026 CG0
ATOM     85  G   UNL     1       8.096  -4.806  -2.630  1.00  0.00     0.000 G0
ENDBRANCH  83  84
BRANCH  83  86
ATOM     86  N   UNL     1       7.464  -1.645  -4.593  1.00  0.00    -0.348 N 
ATOM     87  C   UNL     1       8.440  -0.928  -5.242  1.00  0.00     0.253 C 
ATOM     88  H   UNL     1       6.751  -1.105  -4.180  1.00  0.00     0.164 HD
ATOM     89  O   UNL     1       8.584   0.270  -5.022  1.00  0.00    -0.269 OA
BRANCH  87  90
ATOM     90  C   UNL     1       9.305  -1.580  -6.229  1.00  0.00     0.059 A 
ATOM     91  C   UNL     1      10.666  -1.699  -5.998  1.00  0.00     0.124 A 
ATOM     92  C   UNL     1       8.789  -2.011  -7.447  1.00  0.00     0.032 A 
ATOM     93  N   UNL     1      11.520  -2.298  -6.867  1.00  0.00    -0.263 NA
ATOM     94  C   UNL     1       9.638  -2.639  -8.351  1.00  0.00     0.037 A 
ATOM     95  C   UNL     1      10.979  -2.768  -8.020  1.00  0.00     0.126 A 
ATOM     96  Br  UNL     1       8.973  -3.307  -9.984  1.00  0.00    -0.049 Br
ENDBRANCH  87  90
ENDBRANCH  83  86
ENDBRANCH  77  83
ENDBRANCH  74  77
ENDBRANCH   1  73
TORSDOF 12
