REMARK SMILES O=C(NC1(C(=O)NCCCNC(=O)c2ccc(-c3c4nc(c(-c5c(F)c(F)c(F)c(F)c5F)c5ccc([nH]5)c(-c5c(F)c(F)c(F)c(F)c5F)c5nc(c(-c6c(F)c(F)c(F)c(F)c6F)c6ccc3[nH]6)C=C5)C=C4)cc2)Cc2ccccc2C1)OCC1c2ccccc2-c2ccccc21
REMARK SMILES IDX 8 1 7 2 5 3 6 4 4 6 77 7 84 8 78 9 83 10 79 11 82 12 80 13
REMARK SMILES IDX 81 14 3 15 1 16 2 17 85 19 86 20 87 21 88 22 99 23 89 24
REMARK SMILES IDX 93 25 94 26 98 27 90 28 92 29 95 30 97 31 91 32 96 33 9 34
REMARK SMILES IDX 10 35 11 36 12 37 13 39 14 40 15 41 76 42 16 43 75 44 17 45
REMARK SMILES IDX 18 46 19 47 69 48 20 49 74 50 68 51 70 52 21 53 73 54 67 55
REMARK SMILES IDX 66 56 22 58 54 59 34 60 53 61 35 62 38 63 52 64 71 65 36 66
REMARK SMILES IDX 37 67 51 69 72 70 39 71 23 72 24 73 32 74 25 75 26 76 30 77
REMARK SMILES IDX 33 78 27 79 28 80 31 81 29 82 55 83 56 84 64 85 57 86 58 87
REMARK SMILES IDX 62 88 65 89 59 90 60 91 63 92 61 93 40 94 41 95 49 96 42 97
REMARK SMILES IDX 43 98 47 99 50 100 44 101 45 102 48 103 46 104
REMARK H PARENT 7 5 3 18 11 38 70 57 38 68
REMARK Flexibility Score: inf
ROOT
ATOM      1  C   UNL     1       7.998   2.222  -0.014  1.00  0.00     0.117 C 
ENDROOT
BRANCH   1   2
ATOM      2  N   UNL     1       6.316   2.274  -0.022  1.00  0.00    -0.354 N 
ATOM      3  C   UNL     1       4.715   1.456  -0.777  1.00  0.00     0.246 C 
ATOM      4  O   UNL     1       3.547   2.012  -0.911  1.00  0.00    -0.272 OA
ATOM      5  H   UNL     1       6.030   2.993   0.587  1.00  0.00     0.163 HD
BRANCH   3   6
ATOM      6  C   UNL     1       4.341  -0.183  -1.554  1.00  0.00     0.130 C 
ATOM      7  C   UNL     1       4.745  -1.688  -1.443  1.00  0.00     0.075 C 
ATOM      8  C   UNL     1       4.459  -0.019  -3.143  1.00  0.00     0.075 C 
ATOM      9  C   UNL     1       5.839  -1.824  -2.444  1.00  0.00    -0.042 A 
ATOM     10  C   UNL     1       5.687  -0.864  -3.443  1.00  0.00    -0.042 A 
ATOM     11  C   UNL     1       6.963  -2.624  -2.336  1.00  0.00     0.004 A 
ATOM     12  C   UNL     1       6.710  -0.663  -4.357  1.00  0.00     0.004 A 
ATOM     13  C   UNL     1       8.029  -2.359  -3.187  1.00  0.00     0.000 A 
ATOM     14  C   UNL     1       7.904  -1.384  -4.189  1.00  0.00     0.000 A 
BRANCH   6  15
ATOM     15  N   UNL     1       2.840  -0.199  -1.150  1.00  0.00    -0.306 N 
ATOM     16  O   UNL     1       1.246   0.139   0.442  1.00  0.00    -0.225 OA
ATOM     17  C   UNL     1       2.285  -0.413   0.101  1.00  0.00     0.408 C 
ATOM     18  H   UNL     1       2.199  -0.035  -1.879  1.00  0.00     0.168 HD
BRANCH  17  19
ATOM     19  O   UNL     1       2.924  -1.300   0.913  1.00  0.00    -0.449 OA
BRANCH  19  20
ATOM     20  C   UNL     1       3.562  -0.754   2.142  1.00  0.00     0.248 C 
BRANCH  20  21
ATOM     21  C   UNL     1       5.030  -0.406   1.795  1.00  0.00     0.088 C 
ATOM     22  C   UNL     1       6.326  -1.249   1.619  1.00  0.00    -0.029 A 
ATOM     23  C   UNL     1       5.351   0.928   1.151  1.00  0.00    -0.029 A 
ATOM     24  C   UNL     1       6.739  -2.358   2.335  1.00  0.00     0.005 A 
ATOM     25  C   UNL     1       7.095  -0.809   0.466  1.00  0.00    -0.014 A 
ATOM     26  C   UNL     1       6.404   0.314  -0.196  1.00  0.00    -0.014 A 
ATOM     27  C   UNL     1       4.574   2.544   1.089  1.00  0.00     0.005 A 
ATOM     28  C   UNL     1       7.981  -2.925   2.014  1.00  0.00     0.000 A 
ATOM     29  C   UNL     1       8.349  -1.334   0.208  1.00  0.00     0.009 A 
ATOM     30  C   UNL     1       6.556   1.300  -1.732  1.00  0.00     0.009 A 
ATOM     31  C   UNL     1       4.817   3.610  -0.389  1.00  0.00     0.000 A 
ATOM     32  C   UNL     1       8.798  -2.388   1.002  1.00  0.00     0.001 A 
ATOM     33  C   UNL     1       5.748   2.954  -1.821  1.00  0.00     0.001 A 
ENDBRANCH  20  21
ENDBRANCH  19  20
ENDBRANCH  17  19
ENDBRANCH   6  15
ENDBRANCH   3   6
ENDBRANCH   1   2
BRANCH   1  34
ATOM     34  C   UNL     1       8.707   2.970  -1.165  1.00  0.00     0.042 C 
BRANCH  34  35
ATOM     35  C   UNL     1       9.201   4.320  -0.715  1.00  0.00     0.118 C 
BRANCH  35  36
ATOM     36  N   UNL     1      10.358   4.154   0.155  1.00  0.00    -0.352 N 
ATOM     37  C   UNL     1      11.639   3.770  -0.180  1.00  0.00     0.251 C 
ATOM     38  H   UNL     1      10.204   4.339   1.109  1.00  0.00     0.163 HD
ATOM     39  O   UNL     1      12.340   3.203   0.652  1.00  0.00    -0.269 OA
BRANCH  37  40
ATOM     40  C   UNL     1      12.164   4.028  -1.541  1.00  0.00     0.039 A 
ATOM     41  C   UNL     1      13.160   3.212  -2.090  1.00  0.00     0.014 A 
ATOM     42  C   UNL     1      11.708   5.127  -2.263  1.00  0.00     0.014 A 
ATOM     43  C   UNL     1      13.665   3.494  -3.365  1.00  0.00     0.010 A 
ATOM     44  C   UNL     1      12.070   5.294  -3.586  1.00  0.00     0.010 A 
ATOM     45  C   UNL     1      13.104   4.527  -4.132  1.00  0.00    -0.014 A 
BRANCH  45  46
ATOM     46  C   UNL     1      13.617   4.931  -5.465  1.00  0.00     0.031 A 
ATOM     47  C   UNL     1      14.039   6.364  -5.678  1.00  0.00     0.074 A 
ATOM     48  C   UNL     1      13.578   4.069  -6.497  1.00  0.00     0.049 A 
ATOM     49  N   UNL     1      14.293   7.003  -6.791  1.00  0.00    -0.248 NA
ATOM     50  C   UNL     1      14.111   7.216  -4.476  1.00  0.00     0.031 C 
ATOM     51  C   UNL     1      13.131   2.678  -6.423  1.00  0.00     0.029 A 
ATOM     52  N   UNL     1      13.890   4.250  -7.819  1.00  0.00    -0.354 N 
ATOM     53  C   UNL     1      14.504   8.327  -6.423  1.00  0.00     0.074 A 
ATOM     54  C   UNL     1      14.255   8.420  -5.004  1.00  0.00     0.031 C 
ATOM     55  C   UNL     1      13.213   2.126  -7.643  1.00  0.00     0.029 A 
ATOM     56  C   UNL     1      13.665   3.138  -8.593  1.00  0.00     0.049 A 
ATOM     57  H   UNL     1      14.242   5.096  -8.180  1.00  0.00     0.167 HD
ATOM     58  C   UNL     1      14.908   9.365  -7.191  1.00  0.00     0.037 A 
ATOM     59  C   UNL     1      13.789   2.966  -9.922  1.00  0.00     0.037 A 
ATOM     60  C   UNL     1      15.202   9.240  -8.592  1.00  0.00     0.049 A 
ATOM     61  C   UNL     1      14.261   4.124 -10.761  1.00  0.00     0.074 A 
ATOM     62  C   UNL     1      15.698  10.195  -9.460  1.00  0.00     0.029 A 
ATOM     63  N   UNL     1      15.027   8.076  -9.328  1.00  0.00    -0.354 N 
ATOM     64  N   UNL     1      14.530   5.354 -10.395  1.00  0.00    -0.248 NA
ATOM     65  C   UNL     1      14.453   3.870 -12.194  1.00  0.00     0.031 C 
ATOM     66  C   UNL     1      15.767   9.625 -10.735  1.00  0.00     0.029 A 
ATOM     67  C   UNL     1      15.380   8.295 -10.648  1.00  0.00     0.049 A 
ATOM     68  H   UNL     1      14.700   7.221  -8.965  1.00  0.00     0.167 HD
ATOM     69  C   UNL     1      14.950   6.013 -11.542  1.00  0.00     0.074 A 
ATOM     70  C   UNL     1      14.909   5.042 -12.616  1.00  0.00     0.031 C 
ATOM     71  C   UNL     1      15.340   7.303 -11.694  1.00  0.00     0.037 A 
BRANCH  58  72
ATOM     72  C   UNL     1      15.058  10.708  -6.528  1.00  0.00     0.064 A 
ATOM     73  C   UNL     1      16.011  10.938  -5.521  1.00  0.00     0.173 A 
ATOM     74  C   UNL     1      14.232  11.781  -6.897  1.00  0.00     0.173 A 
ATOM     75  F   UNL     1      16.823   9.948  -5.120  1.00  0.00    -0.203 F 
ATOM     76  C   UNL     1      16.090  12.167  -4.872  1.00  0.00     0.198 A 
ATOM     77  C   UNL     1      14.345  13.023  -6.276  1.00  0.00     0.198 A 
ATOM     78  F   UNL     1      13.309  11.626  -7.858  1.00  0.00    -0.203 F 
ATOM     79  F   UNL     1      16.950  12.332  -3.857  1.00  0.00    -0.200 F 
ATOM     80  C   UNL     1      15.262  13.210  -5.253  1.00  0.00     0.200 A 
ATOM     81  F   UNL     1      13.554  14.036  -6.658  1.00  0.00    -0.200 F 
ATOM     82  F   UNL     1      15.338  14.392  -4.626  1.00  0.00    -0.200 F 
ENDBRANCH  58  72
BRANCH  59  83
ATOM     83  C   UNL     1      13.482   1.642 -10.522  1.00  0.00     0.064 A 
ATOM     84  C   UNL     1      14.502   0.829 -11.036  1.00  0.00     0.173 A 
ATOM     85  C   UNL     1      12.171   1.143 -10.559  1.00  0.00     0.173 A 
ATOM     86  F   UNL     1      15.770   1.264 -11.033  1.00  0.00    -0.203 F 
ATOM     87  C   UNL     1      14.221  -0.425 -11.576  1.00  0.00     0.198 A 
ATOM     88  C   UNL     1      11.895  -0.123 -11.072  1.00  0.00     0.198 A 
ATOM     89  F   UNL     1      11.160   1.875 -10.067  1.00  0.00    -0.203 F 
ATOM     90  F   UNL     1      15.210  -1.166 -12.092  1.00  0.00    -0.200 F 
ATOM     91  C   UNL     1      12.919  -0.903 -11.586  1.00  0.00     0.200 A 
ATOM     92  F   UNL     1      10.639  -0.590 -11.057  1.00  0.00    -0.200 F 
ATOM     93  F   UNL     1      12.652  -2.115 -12.092  1.00  0.00    -0.200 F 
ENDBRANCH  59  83
BRANCH  71  94
ATOM     94  C   UNL     1      15.794   7.735 -13.057  1.00  0.00     0.064 A 
ATOM     95  C   UNL     1      14.890   7.916 -14.113  1.00  0.00     0.173 A 
ATOM     96  C   UNL     1      17.142   8.057 -13.279  1.00  0.00     0.173 A 
ATOM     97  F   UNL     1      13.594   7.611 -13.953  1.00  0.00    -0.203 F 
ATOM     98  C   UNL     1      15.323   8.393 -15.347  1.00  0.00     0.198 A 
ATOM     99  C   UNL     1      17.564   8.565 -14.503  1.00  0.00     0.198 A 
ATOM    100  F   UNL     1      18.044   7.909 -12.296  1.00  0.00    -0.203 F 
ATOM    101  F   UNL     1      14.449   8.526 -16.355  1.00  0.00    -0.200 F 
ATOM    102  C   UNL     1      16.656   8.728 -15.537  1.00  0.00     0.200 A 
ATOM    103  F   UNL     1      18.848   8.907 -14.677  1.00  0.00    -0.200 F 
ATOM    104  F   UNL     1      17.065   9.209 -16.719  1.00  0.00    -0.200 F 
ENDBRANCH  71  94
ENDBRANCH  45  46
ENDBRANCH  37  40
ENDBRANCH  35  36
ENDBRANCH  34  35
ENDBRANCH   1  34
TORSDOF 14
