REMARK SMILES O=C(NCCCNC(=O)[C@@H]1[C@@H](C(=O)Nc2ccc(F)c(F)c2)[C@H]2CC[C@@H]1O2)c1ccc(-c2c3nc(c(-c4c(F)c(F)c(F)c(F)c4F)c4ccc([nH]4)c(-c4c(F)c(F)c(F)c(F)c4F)c4nc(c(-c5c(F)c(F)c(F)c(F)c5F)c5ccc2[nH]5)C=C4)C=C3)cc1
REMARK SMILES IDX 5 1 4 2 3 3 1 4 2 5 28 7 29 8 90 9 30 10 89 11 31 12 32 13
REMARK SMILES IDX 33 14 83 15 34 16 88 17 82 18 84 19 35 20 87 21 81 22 80 23
REMARK SMILES IDX 36 25 68 26 48 27 67 28 49 29 52 30 66 31 85 32 50 33 51 34
REMARK SMILES IDX 65 36 86 37 53 38 37 39 38 40 46 41 39 42 40 43 44 44 47 45
REMARK SMILES IDX 41 46 42 47 45 48 43 49 69 50 70 51 78 52 71 53 72 54 76 55
REMARK SMILES IDX 79 56 73 57 74 58 77 59 75 60 54 61 55 62 63 63 56 64 57 65
REMARK SMILES IDX 61 66 64 67 58 68 59 69 62 70 60 71 6 72 7 73 8 74 9 76
REMARK SMILES IDX 10 77 11 78 26 79 23 80 25 81 27 82 24 83 12 84 13 85 14 86
REMARK SMILES IDX 15 88 16 89 22 90 17 91 20 92 18 93 21 94 19 95
REMARK H PARENT 3 6 84 24 52 35 7 75 14 87
REMARK Flexibility Score: inf
ROOT
ATOM      1  C   UNL     1       4.813  -2.525   0.667  1.00  0.00     0.042 C 
ENDROOT
BRANCH   1   2
ATOM      2  C   UNL     1       4.566  -1.350  -0.272  1.00  0.00     0.118 C 
BRANCH   2   3
ATOM      3  N   UNL     1       3.148  -1.068  -0.456  1.00  0.00    -0.352 N 
ATOM      4  O   UNL     1       1.197   0.020  -0.170  1.00  0.00    -0.269 OA
ATOM      5  C   UNL     1       2.417   0.045  -0.112  1.00  0.00     0.251 C 
ATOM      6  H   UNL     1       2.635  -1.784  -0.895  1.00  0.00     0.163 HD
BRANCH   5   7
ATOM      7  C   UNL     1       3.113   1.265   0.350  1.00  0.00     0.039 A 
ATOM      8  C   UNL     1       4.262   1.718  -0.299  1.00  0.00     0.014 A 
ATOM      9  C   UNL     1       2.599   1.971   1.442  1.00  0.00     0.014 A 
ATOM     10  C   UNL     1       4.989   2.771   0.241  1.00  0.00     0.010 A 
ATOM     11  C   UNL     1       3.279   3.092   1.925  1.00  0.00     0.010 A 
ATOM     12  C   UNL     1       4.500   3.479   1.351  1.00  0.00    -0.014 A 
BRANCH  12  13
ATOM     13  C   UNL     1       5.267   4.643   1.864  1.00  0.00     0.031 A 
ATOM     14  C   UNL     1       5.862   4.630   3.244  1.00  0.00     0.074 A 
ATOM     15  C   UNL     1       5.460   5.700   1.051  1.00  0.00     0.049 A 
ATOM     16  N   UNL     1       6.564   5.559   3.845  1.00  0.00    -0.248 NA
ATOM     17  C   UNL     1       5.640   3.428   4.063  1.00  0.00     0.031 C 
ATOM     18  C   UNL     1       4.928   5.821  -0.309  1.00  0.00     0.029 A 
ATOM     19  N   UNL     1       6.168   6.860   1.233  1.00  0.00    -0.354 N 
ATOM     20  C   UNL     1       6.854   5.061   5.108  1.00  0.00     0.074 A 
ATOM     21  C   UNL     1       6.229   3.760   5.205  1.00  0.00     0.031 C 
ATOM     22  C   UNL     1       5.370   6.963  -0.854  1.00  0.00     0.029 A 
ATOM     23  C   UNL     1       6.156   7.688   0.137  1.00  0.00     0.049 A 
ATOM     24  H   UNL     1       6.639   7.079   2.070  1.00  0.00     0.167 HD
ATOM     25  C   UNL     1       7.588   5.636   6.089  1.00  0.00     0.037 A 
ATOM     26  C   UNL     1       6.701   8.905  -0.046  1.00  0.00     0.037 A 
ATOM     27  C   UNL     1       8.235   6.917   5.974  1.00  0.00     0.049 A 
ATOM     28  C   UNL     1       7.477   9.532   1.077  1.00  0.00     0.074 A 
ATOM     29  C   UNL     1       9.034   7.563   6.902  1.00  0.00     0.029 A 
ATOM     30  N   UNL     1       8.159   7.746   4.865  1.00  0.00    -0.354 N 
ATOM     31  N   UNL     1       7.765   9.038   2.257  1.00  0.00    -0.248 NA
ATOM     32  C   UNL     1       7.996  10.888   0.851  1.00  0.00     0.031 C 
ATOM     33  C   UNL     1       9.404   8.802   6.373  1.00  0.00     0.029 A 
ATOM     34  C   UNL     1       8.876   8.909   5.098  1.00  0.00     0.049 A 
ATOM     35  H   UNL     1       7.670   7.539   4.036  1.00  0.00     0.167 HD
ATOM     36  C   UNL     1       8.502  10.015   2.909  1.00  0.00     0.074 A 
ATOM     37  C   UNL     1       8.642  11.121   1.986  1.00  0.00     0.031 C 
ATOM     38  C   UNL     1       9.006  10.000   4.166  1.00  0.00     0.037 A 
BRANCH  25  39
ATOM     39  C   UNL     1       7.754   4.895   7.384  1.00  0.00     0.064 A 
ATOM     40  C   UNL     1       7.146   5.372   8.556  1.00  0.00     0.173 A 
ATOM     41  C   UNL     1       8.609   3.789   7.490  1.00  0.00     0.173 A 
ATOM     42  F   UNL     1       6.327   6.432   8.510  1.00  0.00    -0.203 F 
ATOM     43  C   UNL     1       7.409   4.782   9.790  1.00  0.00     0.198 A 
ATOM     44  C   UNL     1       8.851   3.187   8.722  1.00  0.00     0.198 A 
ATOM     45  F   UNL     1       9.208   3.292   6.397  1.00  0.00    -0.203 F 
ATOM     46  F   UNL     1       6.852   5.281  10.902  1.00  0.00    -0.200 F 
ATOM     47  C   UNL     1       8.261   3.692   9.872  1.00  0.00     0.200 A 
ATOM     48  F   UNL     1       9.662   2.123   8.799  1.00  0.00    -0.200 F 
ATOM     49  F   UNL     1       8.519   3.128  11.061  1.00  0.00    -0.200 F 
ENDBRANCH  25  39
BRANCH  26  50
ATOM     50  C   UNL     1       6.516   9.609  -1.341  1.00  0.00     0.064 A 
ATOM     51  C   UNL     1       5.250  10.054  -1.754  1.00  0.00     0.173 A 
ATOM     52  C   UNL     1       7.598   9.834  -2.202  1.00  0.00     0.173 A 
ATOM     53  F   UNL     1       4.181   9.861  -0.968  1.00  0.00    -0.203 F 
ATOM     54  C   UNL     1       5.072  10.677  -2.986  1.00  0.00     0.198 A 
ATOM     55  C   UNL     1       7.423  10.487  -3.421  1.00  0.00     0.198 A 
ATOM     56  F   UNL     1       8.831   9.445  -1.844  1.00  0.00    -0.203 F 
ATOM     57  F   UNL     1       3.846  11.057  -3.371  1.00  0.00    -0.200 F 
ATOM     58  C   UNL     1       6.160  10.899  -3.816  1.00  0.00     0.200 A 
ATOM     59  F   UNL     1       8.481  10.724  -4.208  1.00  0.00    -0.200 F 
ATOM     60  F   UNL     1       5.991  11.516  -4.993  1.00  0.00    -0.200 F 
ENDBRANCH  26  50
BRANCH  38  61
ATOM     61  C   UNL     1       9.760  11.212   4.625  1.00  0.00     0.064 A 
ATOM     62  C   UNL     1      11.148  11.157   4.822  1.00  0.00     0.173 A 
ATOM     63  C   UNL     1       9.094  12.402   4.950  1.00  0.00     0.173 A 
ATOM     64  F   UNL     1      11.829  10.038   4.532  1.00  0.00    -0.203 F 
ATOM     65  C   UNL     1      11.838  12.245   5.347  1.00  0.00     0.198 A 
ATOM     66  C   UNL     1       9.792  13.497   5.449  1.00  0.00     0.198 A 
ATOM     67  F   UNL     1       7.769  12.505   4.765  1.00  0.00    -0.203 F 
ATOM     68  F   UNL     1      13.158  12.158   5.564  1.00  0.00    -0.200 F 
ATOM     69  C   UNL     1      11.160  13.414   5.658  1.00  0.00     0.200 A 
ATOM     70  F   UNL     1       9.139  14.634   5.728  1.00  0.00    -0.200 F 
ATOM     71  F   UNL     1      11.827  14.463   6.160  1.00  0.00    -0.200 F 
ENDBRANCH  38  61
ENDBRANCH  12  13
ENDBRANCH   5   7
ENDBRANCH   2   3
ENDBRANCH   1   2
BRANCH   1  72
ATOM     72  C   UNL     1       4.289  -3.849   0.125  1.00  0.00     0.117 C 
BRANCH  72  73
ATOM     73  N   UNL     1       4.972  -4.204  -1.109  1.00  0.00    -0.356 N 
ATOM     74  C   UNL     1       6.000  -5.076  -1.309  1.00  0.00     0.226 C 
ATOM     75  H   UNL     1       4.644  -3.748  -1.917  1.00  0.00     0.163 HD
ATOM     76  O   UNL     1       6.685  -4.934  -2.320  1.00  0.00    -0.275 OA
BRANCH  74  77
ATOM     77  C   UNL     1       6.172  -6.235  -0.355  1.00  0.00     0.122 C 
ATOM     78  C   UNL     1       7.648  -6.495   0.049  1.00  0.00     0.123 C 
ATOM     79  C   UNL     1       5.782  -7.516  -1.109  1.00  0.00     0.132 C 
ATOM     80  C   UNL     1       7.761  -7.967  -0.355  1.00  0.00     0.132 C 
ATOM     81  C   UNL     1       5.481  -8.638  -0.123  1.00  0.00     0.035 C 
ATOM     82  O   UNL     1       7.051  -7.968  -1.620  1.00  0.00    -0.373 OA
ATOM     83  C   UNL     1       6.867  -8.912   0.455  1.00  0.00     0.035 C 
BRANCH  78  84
ATOM     84  C   UNL     1       7.838  -6.025   1.493  1.00  0.00     0.231 C 
ATOM     85  O   UNL     1       7.272  -4.986   1.865  1.00  0.00    -0.274 OA
ATOM     86  N   UNL     1       8.560  -6.681   2.444  1.00  0.00    -0.326 N 
ATOM     87  H   UNL     1       8.530  -6.270   3.338  1.00  0.00     0.169 HD
BRANCH  86  88
ATOM     88  C   UNL     1       9.334  -7.838   2.361  1.00  0.00     0.044 A 
ATOM     89  C   UNL     1      10.295  -8.027   1.367  1.00  0.00     0.029 A 
ATOM     90  C   UNL     1       9.068  -8.852   3.285  1.00  0.00     0.068 A 
ATOM     91  C   UNL     1      10.889  -9.282   1.208  1.00  0.00     0.044 A 
ATOM     92  C   UNL     1       9.640 -10.106   3.099  1.00  0.00     0.160 A 
ATOM     93  C   UNL     1      10.529 -10.325   2.055  1.00  0.00     0.158 A 
ATOM     94  F   UNL     1       9.276 -11.114   3.903  1.00  0.00    -0.204 F 
ATOM     95  F   UNL     1      11.032 -11.549   1.844  1.00  0.00    -0.204 F 
ENDBRANCH  86  88
ENDBRANCH  78  84
ENDBRANCH  74  77
ENDBRANCH  72  73
ENDBRANCH   1  72
TORSDOF 12
