REMARK SMILES CSc1ccccc1[C@H](C(=O)NCCCNC(=O)c1ccc(-c2c3nc(c(-c4c(F)c(F)c(F)c(F)c4F)c4ccc([nH]4)c(-c4c(F)c(F)c(F)c(F)c4F)c4nc(c(-c5c(F)c(F)c(F)c(F)c5F)c5ccc2[nH]5)C=C4)C=C3)cc1)[N@@H+](C)CCc1cnn(C)c1
REMARK SMILES IDX 13 1 12 2 10 3 11 4 9 6 8 7 3 8 4 9 5 10 7 11 6 12 2 13 1 14
REMARK SMILES IDX 82 15 83 16 84 18 85 19 86 20 87 21 91 22 88 23 89 24 90 25
REMARK SMILES IDX 14 26 15 27 16 28 17 29 18 31 19 32 20 33 81 34 21 35 80 36
REMARK SMILES IDX 22 37 23 38 24 39 74 40 25 41 79 42 73 43 75 44 26 45 78 46
REMARK SMILES IDX 72 47 71 48 27 50 59 51 39 52 58 53 40 54 43 55 57 56 76 57
REMARK SMILES IDX 41 58 42 59 56 61 77 62 44 63 28 64 29 65 37 66 30 67 31 68
REMARK SMILES IDX 35 69 38 70 32 71 33 72 36 73 34 74 60 75 61 76 69 77 62 78
REMARK SMILES IDX 63 79 67 80 70 81 64 82 65 83 68 84 66 85 45 86 46 87 54 88
REMARK SMILES IDX 47 89 48 90 52 91 55 92 49 93 50 94 53 95 51 96
REMARK H PARENT 12 5 82 17 16 30 75 49 43 60
REMARK Flexibility Score: inf
ROOT
ATOM      1  C   UNL     1       1.550  -1.537   1.918  1.00  0.00     0.118 C 
ENDROOT
BRANCH   1   2
ATOM      2  N   UNL     1       0.988  -2.187   0.739  1.00  0.00    -0.351 N 
ATOM      3  C   UNL     1       1.542  -2.366  -0.504  1.00  0.00     0.283 C 
ATOM      4  O   UNL     1       0.868  -2.996  -1.324  1.00  0.00    -0.268 OA
ATOM      5  H   UNL     1       0.080  -2.551   0.851  1.00  0.00     0.163 HD
BRANCH   3   6
ATOM      6  C   UNL     1       2.869  -1.690  -0.835  1.00  0.00     0.306 C 
BRANCH   6   7
ATOM      7  C   UNL     1       4.012  -1.872   0.113  1.00  0.00     0.033 A 
ATOM      8  C   UNL     1       4.492  -3.313   1.110  1.00  0.00     0.017 A 
ATOM      9  C   UNL     1       6.542  -3.378   1.591  1.00  0.00     0.015 A 
ATOM     10  C   UNL     1       7.622  -2.128   1.004  1.00  0.00     0.001 A 
ATOM     11  C   UNL     1       5.285  -0.714  -0.302  1.00  0.00     0.011 A 
ATOM     12  C   UNL     1       6.959  -0.867   0.102  1.00  0.00     0.001 A 
BRANCH   8  13
ATOM     13  S   UNL     1       2.897  -4.487   1.514  1.00  0.00    -0.129 SA
ATOM     14  C   UNL     1       2.614  -5.437  -0.008  1.00  0.00     0.091 C 
ENDBRANCH   8  13
ENDBRANCH   6   7
BRANCH   6  15
ATOM     15  N   UNL     1       3.339  -1.982  -2.225  1.00  0.00    -0.323 N 
ATOM     16  C   UNL     1       3.694  -0.805  -3.013  1.00  0.00     0.333 C 
ATOM     17  H   UNL     1       2.497  -2.364  -2.656  1.00  0.00     0.348 HD
BRANCH  15  18
ATOM     18  C   UNL     1       4.360  -3.054  -2.333  1.00  0.00     0.267 C 
BRANCH  18  19
ATOM     19  C   UNL     1       5.784  -2.963  -1.643  1.00  0.00     0.100 C 
BRANCH  19  20
ATOM     20  C   UNL     1       5.845  -3.021  -0.059  1.00  0.00    -0.004 A 
ATOM     21  C   UNL     1       5.678  -4.845   0.684  1.00  0.00     0.139 A 
ATOM     22  C   UNL     1       5.532  -1.890   1.555  1.00  0.00     0.112 A 
ATOM     23  N   UNL     1       5.333  -4.806   2.353  1.00  0.00    -0.182 NA
ATOM     24  N   UNL     1       5.192  -3.077   2.934  1.00  0.00    -0.276 N 
ATOM     25  C   UNL     1       4.738  -2.622   4.224  1.00  0.00     0.173 C 
ENDBRANCH  19  20
ENDBRANCH  18  19
ENDBRANCH  15  18
ENDBRANCH   6  15
ENDBRANCH   3   6
ENDBRANCH   1   2
BRANCH   1  26
ATOM     26  C   UNL     1       0.487  -1.139   2.914  1.00  0.00     0.042 C 
BRANCH  26  27
ATOM     27  C   UNL     1      -0.321  -2.320   3.439  1.00  0.00     0.118 C 
BRANCH  27  28
ATOM     28  N   UNL     1       0.318  -3.054   4.523  1.00  0.00    -0.352 N 
ATOM     29  C   UNL     1      -0.096  -3.203   5.829  1.00  0.00     0.251 C 
ATOM     30  H   UNL     1       1.161  -3.506   4.291  1.00  0.00     0.163 HD
ATOM     31  O   UNL     1       0.626  -3.754   6.654  1.00  0.00    -0.269 OA
BRANCH  29  32
ATOM     32  C   UNL     1      -1.402  -2.644   6.250  1.00  0.00     0.039 A 
ATOM     33  C   UNL     1      -1.473  -1.916   7.438  1.00  0.00     0.014 A 
ATOM     34  C   UNL     1      -2.539  -2.788   5.452  1.00  0.00     0.014 A 
ATOM     35  C   UNL     1      -2.658  -1.257   7.771  1.00  0.00     0.010 A 
ATOM     36  C   UNL     1      -3.670  -2.021   5.714  1.00  0.00     0.010 A 
ATOM     37  C   UNL     1      -3.749  -1.256   6.885  1.00  0.00    -0.014 A 
BRANCH  37  38
ATOM     38  C   UNL     1      -4.973  -0.465   7.179  1.00  0.00     0.031 A 
ATOM     39  C   UNL     1      -6.308  -1.148   7.311  1.00  0.00     0.074 A 
ATOM     40  C   UNL     1      -4.889   0.875   7.302  1.00  0.00     0.049 A 
ATOM     41  N   UNL     1      -7.481  -0.627   7.574  1.00  0.00    -0.248 NA
ATOM     42  C   UNL     1      -6.336  -2.603   7.098  1.00  0.00     0.031 C 
ATOM     43  C   UNL     1      -3.666   1.664   7.143  1.00  0.00     0.029 A 
ATOM     44  N   UNL     1      -5.849   1.812   7.596  1.00  0.00    -0.354 N 
ATOM     45  C   UNL     1      -8.377  -1.688   7.555  1.00  0.00     0.074 A 
ATOM     46  C   UNL     1      -7.631  -2.867   7.181  1.00  0.00     0.031 C 
ATOM     47  C   UNL     1      -3.939   2.954   7.388  1.00  0.00     0.029 A 
ATOM     48  C   UNL     1      -5.364   3.096   7.666  1.00  0.00     0.049 A 
ATOM     49  H   UNL     1      -6.796   1.585   7.742  1.00  0.00     0.167 HD
ATOM     50  C   UNL     1      -9.699  -1.686   7.853  1.00  0.00     0.037 A 
ATOM     51  C   UNL     1      -5.997   4.257   7.918  1.00  0.00     0.037 A 
ATOM     52  C   UNL     1     -10.440  -0.509   8.227  1.00  0.00     0.049 A 
ATOM     53  C   UNL     1      -7.476   4.237   8.202  1.00  0.00     0.074 A 
ATOM     54  C   UNL     1     -11.770  -0.410   8.592  1.00  0.00     0.029 A 
ATOM     55  N   UNL     1      -9.918   0.776   8.266  1.00  0.00    -0.354 N 
ATOM     56  N   UNL     1      -8.296   3.215   8.265  1.00  0.00    -0.248 NA
ATOM     57  C   UNL     1      -8.116   5.534   8.459  1.00  0.00     0.031 C 
ATOM     58  C   UNL     1     -12.075   0.942   8.771  1.00  0.00     0.029 A 
ATOM     59  C   UNL     1     -10.913   1.679   8.608  1.00  0.00     0.049 A 
ATOM     60  H   UNL     1      -8.981   1.012   8.078  1.00  0.00     0.167 HD
ATOM     61  C   UNL     1      -9.538   3.741   8.596  1.00  0.00     0.074 A 
ATOM     62  C   UNL     1      -9.355   5.169   8.751  1.00  0.00     0.031 C 
ATOM     63  C   UNL     1     -10.723   3.101   8.755  1.00  0.00     0.037 A 
BRANCH  50  64
ATOM     64  C   UNL     1     -10.432  -2.996   7.775  1.00  0.00     0.064 A 
ATOM     65  C   UNL     1     -10.158  -4.054   8.657  1.00  0.00     0.173 A 
ATOM     66  C   UNL     1     -11.450  -3.185   6.827  1.00  0.00     0.173 A 
ATOM     67  F   UNL     1      -9.191  -3.933   9.579  1.00  0.00    -0.203 F 
ATOM     68  C   UNL     1     -10.846  -5.261   8.567  1.00  0.00     0.198 A 
ATOM     69  C   UNL     1     -12.165  -4.379   6.768  1.00  0.00     0.198 A 
ATOM     70  F   UNL     1     -11.761  -2.207   5.963  1.00  0.00    -0.203 F 
ATOM     71  F   UNL     1     -10.522  -6.277   9.379  1.00  0.00    -0.200 F 
ATOM     72  C   UNL     1     -11.855  -5.419   7.629  1.00  0.00     0.200 A 
ATOM     73  F   UNL     1     -13.153  -4.521   5.874  1.00  0.00    -0.200 F 
ATOM     74  F   UNL     1     -12.524  -6.578   7.551  1.00  0.00    -0.200 F 
ENDBRANCH  50  64
BRANCH  51  75
ATOM     75  C   UNL     1      -5.240   5.539   7.919  1.00  0.00     0.064 A 
ATOM     76  C   UNL     1      -5.101   6.301   9.088  1.00  0.00     0.173 A 
ATOM     77  C   UNL     1      -4.662   6.044   6.744  1.00  0.00     0.173 A 
ATOM     78  F   UNL     1      -5.650   5.874  10.235  1.00  0.00    -0.203 F 
ATOM     79  C   UNL     1      -4.447   7.531   9.075  1.00  0.00     0.198 A 
ATOM     80  C   UNL     1      -3.972   7.254   6.741  1.00  0.00     0.198 A 
ATOM     81  F   UNL     1      -4.759   5.355   5.597  1.00  0.00    -0.203 F 
ATOM     82  F   UNL     1      -4.388   8.269  10.192  1.00  0.00    -0.200 F 
ATOM     83  C   UNL     1      -3.877   8.004   7.902  1.00  0.00     0.200 A 
ATOM     84  F   UNL     1      -3.405   7.696   5.610  1.00  0.00    -0.200 F 
ATOM     85  F   UNL     1      -3.246   9.185   7.890  1.00  0.00    -0.200 F 
ENDBRANCH  51  75
BRANCH  63  86
ATOM     86  C   UNL     1     -11.910   3.936   9.152  1.00  0.00     0.064 A 
ATOM     87  C   UNL     1     -12.461   4.901   8.295  1.00  0.00     0.173 A 
ATOM     88  C   UNL     1     -12.516   3.756  10.406  1.00  0.00     0.173 A 
ATOM     89  F   UNL     1     -11.918   5.122   7.088  1.00  0.00    -0.203 F 
ATOM     90  C   UNL     1     -13.538   5.687   8.697  1.00  0.00     0.198 A 
ATOM     91  C   UNL     1     -13.623   4.511  10.786  1.00  0.00     0.198 A 
ATOM     92  F   UNL     1     -12.042   2.840  11.264  1.00  0.00    -0.203 F 
ATOM     93  F   UNL     1     -13.995   6.655   7.891  1.00  0.00    -0.200 F 
ATOM     94  C   UNL     1     -14.122   5.487   9.938  1.00  0.00     0.200 A 
ATOM     95  F   UNL     1     -14.201   4.298  11.976  1.00  0.00    -0.200 F 
ATOM     96  F   UNL     1     -15.161   6.242  10.321  1.00  0.00    -0.200 F 
ENDBRANCH  63  86
ENDBRANCH  37  38
ENDBRANCH  29  32
ENDBRANCH  27  28
ENDBRANCH  26  27
ENDBRANCH   1  26
TORSDOF 16
