REMARK SMILES CCC[NH2+][C@@]1(C(=O)NCCCNC(=O)c2ccc(-c3c4nc(c(-c5c(F)c(F)c(F)c(F)c5F)c5ccc([nH]5)c(-c5c(F)c(F)c(F)c(F)c5F)c5nc(c(-c6c(F)c(F)c(F)c(F)c6F)c6ccc3[nH]6)C=C5)C=C4)cc2)CC[C@H]([N@@H+]2CCC[C@@H]2C)C1
REMARK SMILES IDX 9 1 8 2 6 3 7 4 5 6 78 7 87 8 79 9 80 10 4 11 3 14 2 15 1 16
REMARK SMILES IDX 81 17 82 18 85 19 83 21 84 22 86 23 10 24 11 25 12 26 13 27
REMARK SMILES IDX 14 29 15 30 16 31 77 32 17 33 76 34 18 35 19 36 20 37 70 38
REMARK SMILES IDX 21 39 75 40 69 41 71 42 22 43 74 44 68 45 67 46 23 48 55 49
REMARK SMILES IDX 35 50 54 51 36 52 39 53 53 54 72 55 37 56 38 57 52 59 73 60
REMARK SMILES IDX 40 61 24 62 25 63 33 64 26 65 27 66 31 67 34 68 28 69 29 70
REMARK SMILES IDX 32 71 30 72 56 73 57 74 65 75 58 76 59 77 63 78 66 79 60 80
REMARK SMILES IDX 61 81 64 82 62 83 41 84 42 85 50 86 43 87 44 88 48 89 51 90
REMARK SMILES IDX 45 91 46 92 49 93 47 94
REMARK H PARENT 8 5 4 12 4 13 81 20 12 28 71 47 39 58
REMARK Flexibility Score: inf
ROOT
ATOM      1  C   UNL     1       2.557   4.454  -5.820  1.00  0.00     0.118 C 
ENDROOT
BRANCH   1   2
ATOM      2  N   UNL     1       2.606   2.720  -4.988  1.00  0.00    -0.351 N 
ATOM      3  C   UNL     1       2.005   2.178  -3.633  1.00  0.00     0.281 C 
ATOM      4  O   UNL     1       2.448   1.071  -3.279  1.00  0.00    -0.268 OA
ATOM      5  H   UNL     1       3.099   2.042  -5.506  1.00  0.00     0.163 HD
BRANCH   3   6
ATOM      6  C   UNL     1       0.724   3.036  -2.496  1.00  0.00     0.181 C 
ATOM      7  C   UNL     1      -0.817   3.292  -2.900  1.00  0.00     0.085 C 
ATOM      8  C   UNL     1       0.867   4.546  -1.893  1.00  0.00     0.144 C 
ATOM      9  C   UNL     1      -1.015   4.823  -3.260  1.00  0.00     0.072 C 
ATOM     10  C   UNL     1       0.334   5.569  -3.035  1.00  0.00     0.191 C 
BRANCH   6  11
ATOM     11  N   UNL     1       0.539   1.966  -1.474  1.00  0.00    -0.333 N 
ATOM     12  H   UNL     1      -0.463   1.874  -1.310  1.00  0.00     0.347 HD
ATOM     13  H   UNL     1       1.000   1.149  -1.875  1.00  0.00     0.347 HD
BRANCH  11  14
ATOM     14  C   UNL     1       1.173   2.141  -0.182  1.00  0.00     0.261 C 
BRANCH  14  15
ATOM     15  C   UNL     1       0.715   1.013   0.753  1.00  0.00     0.058 C 
ATOM     16  C   UNL     1       1.165  -0.374   0.312  1.00  0.00     0.010 C 
ENDBRANCH  14  15
ENDBRANCH  11  14
ENDBRANCH   6  11
BRANCH  10  17
ATOM     17  N   UNL     1       1.389   5.727  -4.072  1.00  0.00    -0.330 N 
ATOM     18  C   UNL     1       1.638   6.490  -5.638  1.00  0.00     0.262 C 
ATOM     19  C   UNL     1       2.252   4.455  -4.029  1.00  0.00     0.181 C 
ATOM     20  H   UNL     1       1.401   6.695  -3.751  1.00  0.00     0.348 HD
ATOM     21  C   UNL     1       3.447   6.005  -6.385  1.00  0.00     0.067 C 
ATOM     22  C   UNL     1       4.116   4.487  -5.039  1.00  0.00     0.070 C 
ATOM     23  C   UNL     1       0.700   3.720  -5.007  1.00  0.00     0.075 C 
ENDBRANCH  10  17
ENDBRANCH   3   6
ENDBRANCH   1   2
BRANCH   1  24
ATOM     24  C   UNL     1       3.432   6.051  -4.520  1.00  0.00     0.042 C 
BRANCH  24  25
ATOM     25  C   UNL     1       5.180   6.613  -4.728  1.00  0.00     0.118 C 
BRANCH  25  26
ATOM     26  N   UNL     1       5.925   6.106  -5.941  1.00  0.00    -0.352 N 
ATOM     27  C   UNL     1       6.434   6.884  -6.950  1.00  0.00     0.251 C 
ATOM     28  H   UNL     1       6.058   5.133  -6.012  1.00  0.00     0.163 HD
ATOM     29  O   UNL     1       6.415   6.560  -8.127  1.00  0.00    -0.269 OA
BRANCH  27  30
ATOM     30  C   UNL     1       7.087   8.093  -6.478  1.00  0.00     0.039 A 
ATOM     31  C   UNL     1       6.929   9.325  -7.102  1.00  0.00     0.014 A 
ATOM     32  C   UNL     1       7.820   7.924  -5.299  1.00  0.00     0.014 A 
ATOM     33  C   UNL     1       7.549  10.417  -6.519  1.00  0.00     0.010 A 
ATOM     34  C   UNL     1       8.286   9.022  -4.643  1.00  0.00     0.010 A 
ATOM     35  C   UNL     1       8.229  10.253  -5.298  1.00  0.00    -0.014 A 
BRANCH  35  36
ATOM     36  C   UNL     1       9.043  11.313  -4.709  1.00  0.00     0.031 A 
ATOM     37  C   UNL     1      10.520  11.071  -4.588  1.00  0.00     0.074 A 
ATOM     38  C   UNL     1       8.422  12.385  -4.200  1.00  0.00     0.049 A 
ATOM     39  N   UNL     1      11.424  11.782  -3.975  1.00  0.00    -0.248 NA
ATOM     40  C   UNL     1      11.043   9.817  -5.172  1.00  0.00     0.031 C 
ATOM     41  C   UNL     1       6.976  12.617  -4.218  1.00  0.00     0.029 A 
ATOM     42  N   UNL     1       8.934  13.473  -3.561  1.00  0.00    -0.354 N 
ATOM     43  C   UNL     1      12.598  11.050  -4.078  1.00  0.00     0.074 A 
ATOM     44  C   UNL     1      12.280   9.793  -4.706  1.00  0.00     0.031 C 
ATOM     45  C   UNL     1       6.721  13.810  -3.659  1.00  0.00     0.029 A 
ATOM     46  C   UNL     1       7.980  14.391  -3.209  1.00  0.00     0.049 A 
ATOM     47  H   UNL     1       9.893  13.589  -3.371  1.00  0.00     0.167 HD
ATOM     48  C   UNL     1      13.845  11.430  -3.722  1.00  0.00     0.037 A 
ATOM     49  C   UNL     1       8.137  15.574  -2.595  1.00  0.00     0.037 A 
ATOM     50  C   UNL     1      14.117  12.715  -3.146  1.00  0.00     0.049 A 
ATOM     51  C   UNL     1       9.539  15.991  -2.242  1.00  0.00     0.074 A 
ATOM     52  C   UNL     1      15.330  13.269  -2.794  1.00  0.00     0.029 A 
ATOM     53  N   UNL     1      13.136  13.655  -2.848  1.00  0.00    -0.354 N 
ATOM     54  N   UNL     1      10.666  15.335  -2.407  1.00  0.00    -0.248 NA
ATOM     55  C   UNL     1       9.695  17.315  -1.637  1.00  0.00     0.031 C 
ATOM     56  C   UNL     1      15.078  14.523  -2.229  1.00  0.00     0.029 A 
ATOM     57  C   UNL     1      13.716  14.782  -2.298  1.00  0.00     0.049 A 
ATOM     58  H   UNL     1      12.172  13.535  -3.005  1.00  0.00     0.167 HD
ATOM     59  C   UNL     1      11.670  16.180  -1.960  1.00  0.00     0.074 A 
ATOM     60  C   UNL     1      11.013  17.401  -1.533  1.00  0.00     0.031 C 
ATOM     61  C   UNL     1      13.011  15.976  -1.903  1.00  0.00     0.037 A 
BRANCH  48  62
ATOM     62  C   UNL     1      14.967  10.461  -3.963  1.00  0.00     0.064 A 
ATOM     63  C   UNL     1      15.342  10.063  -5.258  1.00  0.00     0.173 A 
ATOM     64  C   UNL     1      15.679   9.917  -2.884  1.00  0.00     0.173 A 
ATOM     65  F   UNL     1      14.683  10.534  -6.328  1.00  0.00    -0.203 F 
ATOM     66  C   UNL     1      16.356   9.130  -5.460  1.00  0.00     0.198 A 
ATOM     67  C   UNL     1      16.720   9.014  -3.092  1.00  0.00     0.198 A 
ATOM     68  F   UNL     1      15.362  10.254  -1.625  1.00  0.00    -0.203 F 
ATOM     69  F   UNL     1      16.644   8.714  -6.701  1.00  0.00    -0.200 F 
ATOM     70  C   UNL     1      17.050   8.614  -4.378  1.00  0.00     0.200 A 
ATOM     71  F   UNL     1      17.398   8.525  -2.045  1.00  0.00    -0.200 F 
ATOM     72  F   UNL     1      18.031   7.721  -4.572  1.00  0.00    -0.200 F 
ENDBRANCH  48  62
BRANCH  49  73
ATOM     73  C   UNL     1       6.961  16.443  -2.346  1.00  0.00     0.064 A 
ATOM     74  C   UNL     1       6.806  17.655  -3.032  1.00  0.00     0.173 A 
ATOM     75  C   UNL     1       5.954  16.072  -1.443  1.00  0.00     0.173 A 
ATOM     76  F   UNL     1       7.739  18.052  -3.910  1.00  0.00    -0.203 F 
ATOM     77  C   UNL     1       5.708  18.481  -2.797  1.00  0.00     0.198 A 
ATOM     78  C   UNL     1       4.840  16.882  -1.234  1.00  0.00     0.198 A 
ATOM     79  F   UNL     1       6.040  14.909  -0.781  1.00  0.00    -0.203 F 
ATOM     80  F   UNL     1       5.612  19.658  -3.430  1.00  0.00    -0.200 F 
ATOM     81  C   UNL     1       4.725  18.092  -1.901  1.00  0.00     0.200 A 
ATOM     82  F   UNL     1       3.879  16.488  -0.388  1.00  0.00    -0.200 F 
ATOM     83  F   UNL     1       3.667  18.884  -1.678  1.00  0.00    -0.200 F 
ENDBRANCH  49  73
BRANCH  61  84
ATOM     84  C   UNL     1      13.845  17.121  -1.414  1.00  0.00     0.064 A 
ATOM     85  C   UNL     1      13.823  17.534  -0.075  1.00  0.00     0.173 A 
ATOM     86  C   UNL     1      14.712  17.783  -2.298  1.00  0.00     0.173 A 
ATOM     87  F   UNL     1      13.003  16.937   0.803  1.00  0.00    -0.203 F 
ATOM     88  C   UNL     1      14.611  18.597   0.354  1.00  0.00     0.198 A 
ATOM     89  C   UNL     1      15.530  18.816  -1.855  1.00  0.00     0.198 A 
ATOM     90  F   UNL     1      14.779  17.414  -3.586  1.00  0.00    -0.203 F 
ATOM     91  F   UNL     1      14.526  19.019   1.623  1.00  0.00    -0.200 F 
ATOM     92  C   UNL     1      15.469  19.230  -0.533  1.00  0.00     0.200 A 
ATOM     93  F   UNL     1      16.375  19.410  -2.708  1.00  0.00    -0.200 F 
ATOM     94  F   UNL     1      16.234  20.247  -0.115  1.00  0.00    -0.200 F 
ENDBRANCH  61  84
ENDBRANCH  35  36
ENDBRANCH  27  30
ENDBRANCH  25  26
ENDBRANCH  24  25
ENDBRANCH   1  24
TORSDOF 14
