REMARK SMILES O=C(NCCCNC(=O)[C@H]1C[N@H+](Cc2cccc(Cl)c2)CC12CCCCC2)c1ccc(-c2c3nc(c(-c4c(F)c(F)c(F)c(F)c4F)c4ccc([nH]4)c(-c4c(F)c(F)c(F)c(F)c4F)c4nc(c(-c5c(F)c(F)c(F)c(F)c5F)c5ccc2[nH]5)C=C4)C=C3)cc1
REMARK SMILES IDX 5 1 4 2 3 3 1 4 2 5 28 7 29 8 90 9 30 10 89 11 31 12 32 13
REMARK SMILES IDX 33 14 83 15 34 16 88 17 82 18 84 19 35 20 87 21 81 22 80 23
REMARK SMILES IDX 36 25 68 26 48 27 67 28 49 29 52 30 66 31 85 32 50 33 51 34
REMARK SMILES IDX 65 36 86 37 53 38 37 39 38 40 46 41 39 42 40 43 44 44 47 45
REMARK SMILES IDX 41 46 42 47 45 48 43 49 69 50 70 51 78 52 71 53 72 54 76 55
REMARK SMILES IDX 79 56 73 57 74 58 77 59 75 60 54 61 55 62 63 63 56 64 57 65
REMARK SMILES IDX 61 66 64 67 58 68 59 69 62 70 60 71 6 72 7 73 8 74 9 76
REMARK SMILES IDX 10 77 11 78 22 79 12 80 21 81 23 82 27 83 24 85 26 86 25 87
REMARK SMILES IDX 13 88 14 89 15 90 20 91 16 92 18 93 17 94 19 95
REMARK H PARENT 3 6 84 24 52 35 7 75 12 84
REMARK Flexibility Score: inf
ROOT
ATOM      1  C   UNL     1       4.995  -0.190  -2.270  1.00  0.00     0.042 C 
ENDROOT
BRANCH   1   2
ATOM      2  C   UNL     1       4.543   0.637  -1.079  1.00  0.00     0.118 C 
BRANCH   2   3
ATOM      3  N   UNL     1       3.106   0.582  -0.842  1.00  0.00    -0.352 N 
ATOM      4  O   UNL     1       1.169  -0.024   0.141  1.00  0.00    -0.269 OA
ATOM      5  C   UNL     1       2.394   0.030   0.199  1.00  0.00     0.251 C 
ATOM      6  H   UNL     1       2.556   1.008  -1.538  1.00  0.00     0.163 HD
BRANCH   5   7
ATOM      7  C   UNL     1       3.100  -0.535   1.369  1.00  0.00     0.039 A 
ATOM      8  C   UNL     1       4.207   0.113   1.912  1.00  0.00     0.014 A 
ATOM      9  C   UNL     1       2.655  -1.736   1.931  1.00  0.00     0.014 A 
ATOM     10  C   UNL     1       4.991  -0.536   2.854  1.00  0.00     0.010 A 
ATOM     11  C   UNL     1       3.372  -2.325   2.979  1.00  0.00     0.010 A 
ATOM     12  C   UNL     1       4.573  -1.752   3.419  1.00  0.00    -0.014 A 
BRANCH  12  13
ATOM     13  C   UNL     1       5.396  -2.344   4.506  1.00  0.00     0.031 A 
ATOM     14  C   UNL     1       6.053  -3.688   4.357  1.00  0.00     0.074 A 
ATOM     15  C   UNL     1       5.611  -1.605   5.613  1.00  0.00     0.049 A 
ATOM     16  N   UNL     1       6.860  -4.304   5.186  1.00  0.00    -0.248 NA
ATOM     17  C   UNL     1       5.765  -4.447   3.131  1.00  0.00     0.031 C 
ATOM     18  C   UNL     1       5.005  -0.296   5.878  1.00  0.00     0.029 A 
ATOM     19  N   UNL     1       6.422  -1.817   6.697  1.00  0.00    -0.354 N 
ATOM     20  C   UNL     1       7.160  -5.523   4.593  1.00  0.00     0.074 A 
ATOM     21  C   UNL     1       6.430  -5.575   3.345  1.00  0.00     0.031 C 
ATOM     22  C   UNL     1       5.525   0.212   7.002  1.00  0.00     0.029 A 
ATOM     23  C   UNL     1       6.442  -0.763   7.578  1.00  0.00     0.049 A 
ATOM     24  H   UNL     1       6.941  -2.643   6.830  1.00  0.00     0.167 HD
ATOM     25  C   UNL     1       7.977  -6.504   5.048  1.00  0.00     0.037 A 
ATOM     26  C   UNL     1       7.115  -0.600   8.731  1.00  0.00     0.037 A 
ATOM     27  C   UNL     1       8.715  -6.440   6.285  1.00  0.00     0.049 A 
ATOM     28  C   UNL     1       8.027  -1.696   9.198  1.00  0.00     0.074 A 
ATOM     29  C   UNL     1       9.566  -7.383   6.835  1.00  0.00     0.029 A 
ATOM     30  N   UNL     1       8.692  -5.365   7.163  1.00  0.00    -0.354 N 
ATOM     31  N   UNL     1       8.300  -2.842   8.623  1.00  0.00    -0.248 NA
ATOM     32  C   UNL     1       8.718  -1.479  10.474  1.00  0.00     0.031 C 
ATOM     33  C   UNL     1      10.036  -6.892   8.058  1.00  0.00     0.029 A 
ATOM     34  C   UNL     1       9.510  -5.625   8.252  1.00  0.00     0.049 A 
ATOM     35  H   UNL     1       8.173  -4.540   7.031  1.00  0.00     0.167 HD
ATOM     36  C   UNL     1       9.191  -3.485   9.467  1.00  0.00     0.074 A 
ATOM     37  C   UNL     1       9.443  -2.584  10.574  1.00  0.00     0.031 C 
ATOM     38  C   UNL     1       9.739  -4.718   9.346  1.00  0.00     0.037 A 
BRANCH  25  39
ATOM     39  C   UNL     1       8.117  -7.742   4.210  1.00  0.00     0.064 A 
ATOM     40  C   UNL     1       8.852  -7.741   3.016  1.00  0.00     0.173 A 
ATOM     41  C   UNL     1       7.559  -8.958   4.636  1.00  0.00     0.173 A 
ATOM     42  F   UNL     1       9.394  -6.603   2.558  1.00  0.00    -0.203 F 
ATOM     43  C   UNL     1       9.012  -8.908   2.271  1.00  0.00     0.198 A 
ATOM     44  C   UNL     1       7.741 -10.127   3.901  1.00  0.00     0.198 A 
ATOM     45  F   UNL     1       6.851  -9.015   5.773  1.00  0.00    -0.203 F 
ATOM     46  F   UNL     1       9.691  -8.876   1.116  1.00  0.00    -0.200 F 
ATOM     47  C   UNL     1       8.463 -10.101   2.718  1.00  0.00     0.200 A 
ATOM     48  F   UNL     1       7.219 -11.281   4.340  1.00  0.00    -0.200 F 
ATOM     49  F   UNL     1       8.627 -11.224   2.006  1.00  0.00    -0.200 F 
ENDBRANCH  25  39
BRANCH  26  50
ATOM     50  C   UNL     1       6.936   0.646   9.517  1.00  0.00     0.064 A 
ATOM     51  C   UNL     1       7.974   1.579   9.647  1.00  0.00     0.173 A 
ATOM     52  C   UNL     1       5.712   0.941  10.137  1.00  0.00     0.173 A 
ATOM     53  F   UNL     1       9.167   1.334   9.086  1.00  0.00    -0.203 F 
ATOM     54  C   UNL     1       7.799   2.751  10.378  1.00  0.00     0.198 A 
ATOM     55  C   UNL     1       5.528   2.127  10.841  1.00  0.00     0.198 A 
ATOM     56  F   UNL     1       4.685   0.084  10.035  1.00  0.00    -0.203 F 
ATOM     57  F   UNL     1       8.819   3.608  10.520  1.00  0.00    -0.200 F 
ATOM     58  C   UNL     1       6.574   3.029  10.967  1.00  0.00     0.200 A 
ATOM     59  F   UNL     1       4.337   2.400  11.390  1.00  0.00    -0.200 F 
ATOM     60  F   UNL     1       6.402   4.162  11.661  1.00  0.00    -0.200 F 
ENDBRANCH  26  50
BRANCH  38  61
ATOM     61  C   UNL     1      10.666  -5.152  10.441  1.00  0.00     0.064 A 
ATOM     62  C   UNL     1      10.182  -5.505  11.709  1.00  0.00     0.173 A 
ATOM     63  C   UNL     1      12.049  -5.218  10.219  1.00  0.00     0.173 A 
ATOM     64  F   UNL     1       8.868  -5.439  11.972  1.00  0.00    -0.203 F 
ATOM     65  C   UNL     1      11.054  -5.878  12.727  1.00  0.00     0.198 A 
ATOM     66  C   UNL     1      12.916  -5.617  11.233  1.00  0.00     0.198 A 
ATOM     67  F   UNL     1      12.559  -4.893   9.022  1.00  0.00    -0.203 F 
ATOM     68  F   UNL     1      10.576  -6.159  13.947  1.00  0.00    -0.200 F 
ATOM     69  C   UNL     1      12.419  -5.937  12.487  1.00  0.00     0.200 A 
ATOM     70  F   UNL     1      14.234  -5.681  10.998  1.00  0.00    -0.200 F 
ATOM     71  F   UNL     1      13.258  -6.293  13.470  1.00  0.00    -0.200 F 
ENDBRANCH  38  61
ENDBRANCH  12  13
ENDBRANCH   5   7
ENDBRANCH   2   3
ENDBRANCH   1   2
BRANCH   1  72
ATOM     72  C   UNL     1       4.488   0.306  -3.611  1.00  0.00     0.117 C 
BRANCH  72  73
ATOM     73  N   UNL     1       4.807   1.700  -3.859  1.00  0.00    -0.356 N 
ATOM     74  C   UNL     1       5.460   2.305  -4.893  1.00  0.00     0.229 C 
ATOM     75  H   UNL     1       4.497   2.318  -3.158  1.00  0.00     0.163 HD
ATOM     76  O   UNL     1       5.589   3.523  -4.801  1.00  0.00    -0.275 OA
BRANCH  74  77
ATOM     77  C   UNL     1       5.998   1.459  -6.046  1.00  0.00     0.145 C 
ATOM     78  C   UNL     1       4.836   0.779  -6.773  1.00  0.00     0.276 C 
ATOM     79  C   UNL     1       6.826   2.125  -7.204  1.00  0.00     0.037 C 
ATOM     80  N   UNL     1       5.336   0.388  -8.078  1.00  0.00    -0.330 N 
ATOM     81  C   UNL     1       6.251   1.445  -8.488  1.00  0.00     0.270 C 
ATOM     82  C   UNL     1       6.705   3.665  -7.330  1.00  0.00     0.014 C 
ATOM     83  C   UNL     1       8.338   1.833  -7.015  1.00  0.00     0.014 C 
ATOM     84  H   UNL     1       4.566   0.325  -8.744  1.00  0.00     0.348 HD
ATOM     85  C   UNL     1       7.537   4.242  -8.481  1.00  0.00     0.001 C 
ATOM     86  C   UNL     1       9.207   2.363  -8.158  1.00  0.00     0.001 C 
ATOM     87  C   UNL     1       9.010   3.859  -8.366  1.00  0.00     0.000 C 
BRANCH  80  88
ATOM     88  C   UNL     1       5.770  -1.001  -8.248  1.00  0.00     0.299 C 
BRANCH  88  89
ATOM     89  C   UNL     1       7.099  -1.425  -7.662  1.00  0.00     0.008 A 
ATOM     90  C   UNL     1       7.227  -1.784  -6.311  1.00  0.00     0.009 A 
ATOM     91  C   UNL     1       8.245  -1.464  -8.475  1.00  0.00     0.030 A 
ATOM     92  C   UNL     1       8.477  -2.097  -5.767  1.00  0.00     0.002 A 
ATOM     93  C   UNL     1       9.489  -1.791  -7.932  1.00  0.00     0.041 A 
ATOM     94  C   UNL     1       9.612  -2.092  -6.578  1.00  0.00     0.020 A 
ATOM     95  Cl  UNL     1      10.886  -1.786  -8.936  1.00  0.00    -0.084 Cl
ENDBRANCH  88  89
ENDBRANCH  80  88
ENDBRANCH  74  77
ENDBRANCH  72  73
ENDBRANCH   1  72
TORSDOF 12
