REMARK SMILES Cc1csc(=O)n1CC(=O)N[C@@H](C(=O)NCCCNC(=O)c1ccc(-c2c3nc(c(-c4c(F)c(F)c(F)c(F)c4F)c4ccc([nH]4)c(-c4c(F)c(F)c(F)c(F)c4F)c4nc(c(-c5c(F)c(F)c(F)c(F)c5F)c5ccc2[nH]5)C=C4)C=C3)cc1)[C@@H](C)O
REMARK SMILES IDX 16 1 15 2 13 3 14 4 12 6 11 7 9 8 10 9 8 11 7 12 1 13 2 14
REMARK SMILES IDX 3 15 4 16 5 17 6 18 85 19 86 20 87 21 17 23 18 24 19 25
REMARK SMILES IDX 20 26 21 28 22 29 23 30 84 31 24 32 83 33 25 34 26 35 27 36
REMARK SMILES IDX 77 37 28 38 82 39 76 40 78 41 29 42 81 43 75 44 74 45 30 47
REMARK SMILES IDX 62 48 42 49 61 50 43 51 46 52 60 53 79 54 44 55 45 56 59 58
REMARK SMILES IDX 80 59 47 60 31 61 32 62 40 63 33 64 34 65 38 66 41 67 35 68
REMARK SMILES IDX 36 69 39 70 37 71 63 72 64 73 72 74 65 75 66 76 70 77 73 78
REMARK SMILES IDX 67 79 68 80 71 81 69 82 48 83 49 84 57 85 50 86 51 87 55 88
REMARK SMILES IDX 58 89 52 90 53 91 56 92 54 93
REMARK H PARENT 15 5 11 10 87 22 19 27 78 46 46 57
REMARK Flexibility Score: inf
ROOT
ATOM      1  C   UNL     1      -1.359   3.625  -0.855  1.00  0.00     0.117 C 
ENDROOT
BRANCH   1   2
ATOM      2  N   UNL     1      -2.026   3.123  -2.037  1.00  0.00    -0.354 N 
ATOM      3  C   UNL     1      -1.546   2.237  -2.969  1.00  0.00     0.245 C 
ATOM      4  O   UNL     1      -2.349   1.825  -3.806  1.00  0.00    -0.273 OA
ATOM      5  H   UNL     1      -2.938   3.459  -2.192  1.00  0.00     0.163 HD
BRANCH   3   6
ATOM      6  C   UNL     1      -0.073   1.731  -2.871  1.00  0.00     0.200 C 
BRANCH   6   7
ATOM      7  N   UNL     1       0.834   2.884  -2.894  1.00  0.00    -0.340 N 
ATOM      8  C   UNL     1       1.871   3.248  -2.088  1.00  0.00     0.240 C 
ATOM      9  O   UNL     1       2.400   4.334  -2.343  1.00  0.00    -0.273 OA
ATOM     10  H   UNL     1       0.661   3.513  -3.631  1.00  0.00     0.164 HD
BRANCH   8  11
ATOM     11  C   UNL     1       2.407   2.355  -0.944  1.00  0.00     0.226 C 
BRANCH  11  12
ATOM     12  N   UNL     1       1.593   2.292   0.264  1.00  0.00    -0.294 N 
ATOM     13  C   UNL     1       1.151  -0.205   0.194  1.00  0.00     0.065 C 
ATOM     14  C   UNL     1       0.958   1.159   0.765  1.00  0.00     0.029 A 
ATOM     15  C   UNL     1       0.217   1.407   1.857  1.00  0.00     0.091 A 
ATOM     16  S   UNL     1       0.344   3.053   2.378  1.00  0.00    -0.082 S 
ATOM     17  C   UNL     1       1.481   3.429   1.070  1.00  0.00     0.307 A 
ATOM     18  O   UNL     1       1.989   4.515   0.921  1.00  0.00    -0.257 OA
ENDBRANCH  11  12
ENDBRANCH   8  11
ENDBRANCH   6   7
BRANCH   6  19
ATOM     19  C   UNL     1       0.226   0.702  -3.995  1.00  0.00     0.143 C 
ATOM     20  C   UNL     1       1.712   0.405  -4.183  1.00  0.00     0.041 C 
BRANCH  19  21
ATOM     21  O   UNL     1      -0.412  -0.551  -3.712  1.00  0.00    -0.391 OA
ATOM     22  H   UNL     1      -0.043  -0.925  -2.897  1.00  0.00     0.211 HD
ENDBRANCH  19  21
ENDBRANCH   6  19
ENDBRANCH   3   6
ENDBRANCH   1   2
BRANCH   1  23
ATOM     23  C   UNL     1      -0.923   5.086  -0.959  1.00  0.00     0.042 C 
BRANCH  23  24
ATOM     24  C   UNL     1      -1.963   6.018  -0.371  1.00  0.00     0.118 C 
BRANCH  24  25
ATOM     25  N   UNL     1      -2.118   5.874   1.086  1.00  0.00    -0.352 N 
ATOM     26  C   UNL     1      -3.099   6.427   1.896  1.00  0.00     0.251 C 
ATOM     27  H   UNL     1      -1.445   5.318   1.540  1.00  0.00     0.163 HD
ATOM     28  O   UNL     1      -2.963   6.527   3.108  1.00  0.00    -0.269 OA
BRANCH  26  29
ATOM     29  C   UNL     1      -4.331   6.891   1.242  1.00  0.00     0.039 A 
ATOM     30  C   UNL     1      -4.878   8.153   1.483  1.00  0.00     0.014 A 
ATOM     31  C   UNL     1      -4.831   6.066   0.243  1.00  0.00     0.014 A 
ATOM     32  C   UNL     1      -5.866   8.616   0.618  1.00  0.00     0.010 A 
ATOM     33  C   UNL     1      -5.596   6.624  -0.740  1.00  0.00     0.010 A 
ATOM     34  C   UNL     1      -6.187   7.859  -0.523  1.00  0.00    -0.014 A 
BRANCH  34  35
ATOM     35  C   UNL     1      -7.050   8.375  -1.577  1.00  0.00     0.031 A 
ATOM     36  C   UNL     1      -6.667   9.725  -2.064  1.00  0.00     0.074 A 
ATOM     37  C   UNL     1      -7.989   7.624  -2.197  1.00  0.00     0.049 A 
ATOM     38  N   UNL     1      -7.292  10.832  -1.842  1.00  0.00    -0.248 NA
ATOM     39  C   UNL     1      -5.366   9.901  -2.729  1.00  0.00     0.031 C 
ATOM     40  C   UNL     1      -8.275   6.191  -2.050  1.00  0.00     0.029 A 
ATOM     41  N   UNL     1      -8.863   7.991  -3.173  1.00  0.00    -0.354 N 
ATOM     42  C   UNL     1      -6.582  11.820  -2.517  1.00  0.00     0.074 A 
ATOM     43  C   UNL     1      -5.320  11.228  -2.877  1.00  0.00     0.031 C 
ATOM     44  C   UNL     1      -9.081   5.774  -3.052  1.00  0.00     0.029 A 
ATOM     45  C   UNL     1      -9.524   6.935  -3.797  1.00  0.00     0.049 A 
ATOM     46  H   UNL     1      -9.017   8.932  -3.420  1.00  0.00     0.167 HD
ATOM     47  C   UNL     1      -7.213  12.953  -2.935  1.00  0.00     0.037 A 
ATOM     48  C   UNL     1     -10.377   7.024  -4.848  1.00  0.00     0.037 A 
ATOM     49  C   UNL     1      -8.491  13.092  -2.277  1.00  0.00     0.049 A 
ATOM     50  C   UNL     1     -10.855   8.427  -4.893  1.00  0.00     0.074 A 
ATOM     51  C   UNL     1      -8.900  13.227  -0.964  1.00  0.00     0.029 A 
ATOM     52  N   UNL     1      -9.604  12.689  -2.974  1.00  0.00    -0.354 N 
ATOM     53  N   UNL     1     -11.623   8.957  -3.983  1.00  0.00    -0.248 NA
ATOM     54  C   UNL     1     -10.089   9.367  -5.695  1.00  0.00     0.031 C 
ATOM     55  C   UNL     1     -10.086  12.438  -0.864  1.00  0.00     0.029 A 
ATOM     56  C   UNL     1     -10.383  11.939  -2.133  1.00  0.00     0.049 A 
ATOM     57  H   UNL     1      -9.806  12.902  -3.914  1.00  0.00     0.167 HD
ATOM     58  C   UNL     1     -11.108  10.229  -3.792  1.00  0.00     0.074 A 
ATOM     59  C   UNL     1     -10.217  10.454  -4.930  1.00  0.00     0.031 C 
ATOM     60  C   UNL     1     -11.223  10.853  -2.583  1.00  0.00     0.037 A 
BRANCH  47  61
ATOM     61  C   UNL     1      -6.893  13.703  -4.207  1.00  0.00     0.064 A 
ATOM     62  C   UNL     1      -7.590  14.900  -4.480  1.00  0.00     0.173 A 
ATOM     63  C   UNL     1      -6.186  13.154  -5.298  1.00  0.00     0.173 A 
ATOM     64  F   UNL     1      -8.305  15.509  -3.522  1.00  0.00    -0.203 F 
ATOM     65  C   UNL     1      -7.656  15.442  -5.766  1.00  0.00     0.198 A 
ATOM     66  C   UNL     1      -6.211  13.727  -6.568  1.00  0.00     0.198 A 
ATOM     67  F   UNL     1      -5.539  11.987  -5.219  1.00  0.00    -0.203 F 
ATOM     68  F   UNL     1      -8.445  16.498  -6.003  1.00  0.00    -0.200 F 
ATOM     69  C   UNL     1      -6.974  14.849  -6.812  1.00  0.00     0.200 A 
ATOM     70  F   UNL     1      -5.558  13.127  -7.573  1.00  0.00    -0.200 F 
ATOM     71  F   UNL     1      -7.089  15.325  -8.058  1.00  0.00    -0.200 F 
ENDBRANCH  47  61
BRANCH  48  72
ATOM     72  C   UNL     1     -10.570   6.100  -5.994  1.00  0.00     0.064 A 
ATOM     73  C   UNL     1     -11.667   6.254  -6.860  1.00  0.00     0.173 A 
ATOM     74  C   UNL     1      -9.526   5.274  -6.449  1.00  0.00     0.173 A 
ATOM     75  F   UNL     1     -12.690   7.052  -6.519  1.00  0.00    -0.203 F 
ATOM     76  C   UNL     1     -11.694   5.661  -8.127  1.00  0.00     0.198 A 
ATOM     77  C   UNL     1      -9.555   4.680  -7.714  1.00  0.00     0.198 A 
ATOM     78  F   UNL     1      -8.412   5.112  -5.721  1.00  0.00    -0.203 F 
ATOM     79  F   UNL     1     -12.721   5.898  -8.955  1.00  0.00    -0.200 F 
ATOM     80  C   UNL     1     -10.629   4.889  -8.560  1.00  0.00     0.200 A 
ATOM     81  F   UNL     1      -8.503   3.965  -8.137  1.00  0.00    -0.200 F 
ATOM     82  F   UNL     1     -10.617   4.386  -9.802  1.00  0.00    -0.200 F 
ENDBRANCH  48  72
BRANCH  60  83
ATOM     83  C   UNL     1     -12.154  10.246  -1.568  1.00  0.00     0.064 A 
ATOM     84  C   UNL     1     -11.990   8.973  -0.992  1.00  0.00     0.173 A 
ATOM     85  C   UNL     1     -13.184  11.050  -1.062  1.00  0.00     0.173 A 
ATOM     86  F   UNL     1     -10.976   8.177  -1.350  1.00  0.00    -0.203 F 
ATOM     87  C   UNL     1     -12.845   8.517   0.012  1.00  0.00     0.198 A 
ATOM     88  C   UNL     1     -14.012  10.607  -0.035  1.00  0.00     0.198 A 
ATOM     89  F   UNL     1     -13.359  12.293  -1.538  1.00  0.00    -0.203 F 
ATOM     90  F   UNL     1     -12.676   7.293   0.535  1.00  0.00    -0.200 F 
ATOM     91  C   UNL     1     -13.850   9.338   0.494  1.00  0.00     0.200 A 
ATOM     92  F   UNL     1     -14.952  11.424   0.459  1.00  0.00    -0.200 F 
ATOM     93  F   UNL     1     -14.648   8.916   1.485  1.00  0.00    -0.200 F 
ENDBRANCH  60  83
ENDBRANCH  34  35
ENDBRANCH  26  29
ENDBRANCH  24  25
ENDBRANCH  23  24
ENDBRANCH   1  23
TORSDOF 15
