REMARK SMILES Cc1ccc(-c2nc(C)c(C(=O)N3CCC(C(=O)NCCCNC(=O)c4ccc(-c5c6nc(c(-c7c(F)c(F)c(F)c(F)c7F)c7ccc([nH]7)c(-c7c(F)c(F)c(F)c(F)c7F)c7nc(c(-c8c(F)c(F)c(F)c(F)c8F)c8ccc5[nH]8)C=C7)C=C6)cc4)CC3)s2)o1
REMARK SMILES IDX 21 1 20 2 19 3 17 4 18 5 16 7 11 8 12 9 13 10 14 11 90 12
REMARK SMILES IDX 15 13 89 14 10 15 6 16 7 17 91 18 8 19 9 20 5 21 1 22 2 23
REMARK SMILES IDX 3 24 92 25 4 26 22 27 23 28 24 29 25 31 26 32 27 33 88 34
REMARK SMILES IDX 28 35 87 36 29 37 30 38 31 39 81 40 32 41 86 42 80 43 82 44
REMARK SMILES IDX 33 45 85 46 79 47 78 48 34 50 66 51 46 52 65 53 47 54 50 55
REMARK SMILES IDX 64 56 83 57 48 58 49 59 63 61 84 62 51 63 35 64 36 65 44 66
REMARK SMILES IDX 37 67 38 68 42 69 45 70 39 71 40 72 43 73 41 74 67 75 68 76
REMARK SMILES IDX 76 77 69 78 70 79 74 80 77 81 71 82 72 83 75 84 73 85 52 86
REMARK SMILES IDX 53 87 61 88 54 89 55 90 59 91 62 92 56 93 57 94 60 95 58 96
REMARK H PARENT 19 6 23 30 82 49 50 60
REMARK Flexibility Score: inf
ROOT
ATOM      1  C   UNL     1     -10.356   4.846   2.536  1.00  0.00     0.042 C 
ENDROOT
BRANCH   1   2
ATOM      2  C   UNL     1     -10.132   4.599   1.052  1.00  0.00     0.117 C 
BRANCH   2   3
ATOM      3  N   UNL     1     -10.566   5.722   0.234  1.00  0.00    -0.356 N 
ATOM      4  C   UNL     1      -9.859   6.587  -0.542  1.00  0.00     0.223 C 
ATOM      5  O   UNL     1     -10.478   7.481  -1.123  1.00  0.00    -0.275 OA
ATOM      6  H   UNL     1     -11.537   5.882   0.244  1.00  0.00     0.163 HD
BRANCH   4   7
ATOM      7  C   UNL     1      -8.353   6.462  -0.699  1.00  0.00     0.082 C 
ATOM      8  C   UNL     1      -5.376   4.057   0.782  1.00  0.00     0.265 C 
ATOM      9  O   UNL     1      -5.699   3.955   1.966  1.00  0.00    -0.268 OA
ATOM     10  N   UNL     1      -5.959   5.055   0.003  1.00  0.00    -0.338 N 
ATOM     11  C   UNL     1      -6.172   6.366   0.588  1.00  0.00     0.120 C 
ATOM     12  C   UNL     1      -6.483   4.849  -1.339  1.00  0.00     0.120 C 
ATOM     13  C   UNL     1      -7.640   6.735   0.631  1.00  0.00     0.035 C 
ATOM     14  C   UNL     1      -7.975   5.147  -1.404  1.00  0.00     0.035 C 
BRANCH   8  15
ATOM     15  C   UNL     1      -4.313   3.262   0.180  1.00  0.00     0.115 A 
ATOM     16  C   UNL     1      -2.510   1.652  -0.120  1.00  0.00     0.159 A 
ATOM     17  N   UNL     1      -2.424   2.596  -1.027  1.00  0.00    -0.237 NA
ATOM     18  S   UNL     1      -3.866   1.760   0.916  1.00  0.00    -0.105 S 
ATOM     19  C   UNL     1      -3.429   3.532  -0.858  1.00  0.00     0.062 A 
ATOM     20  C   UNL     1      -3.358   4.710  -1.761  1.00  0.00     0.068 C 
BRANCH  16  21
ATOM     21  C   UNL     1      -1.494   0.648   0.001  1.00  0.00     0.162 A 
ATOM     22  C   UNL     1       2.027  -0.039  -0.005  1.00  0.00     0.087 C 
ATOM     23  C   UNL     1       0.558  -0.185   0.044  1.00  0.00     0.101 A 
ATOM     24  C   UNL     1      -0.293  -1.257   0.184  1.00  0.00     0.046 A 
ATOM     25  O   UNL     1      -0.158   0.962  -0.078  1.00  0.00    -0.459 OA
ATOM     26  C   UNL     1      -1.607  -0.723   0.174  1.00  0.00     0.054 A 
ENDBRANCH  16  21
ENDBRANCH   8  15
ENDBRANCH   4   7
ENDBRANCH   2   3
ENDBRANCH   1   2
BRANCH   1  27
ATOM     27  C   UNL     1     -11.820   4.981   2.917  1.00  0.00     0.118 C 
BRANCH  27  28
ATOM     28  N   UNL     1     -12.580   3.767   2.654  1.00  0.00    -0.352 N 
ATOM     29  C   UNL     1     -13.241   2.936   3.521  1.00  0.00     0.251 C 
ATOM     30  H   UNL     1     -12.625   3.501   1.707  1.00  0.00     0.163 HD
ATOM     31  O   UNL     1     -13.651   1.846   3.127  1.00  0.00    -0.269 OA
BRANCH  29  32
ATOM     32  C   UNL     1     -13.450   3.337   4.928  1.00  0.00     0.039 A 
ATOM     33  C   UNL     1     -13.323   2.373   5.931  1.00  0.00     0.014 A 
ATOM     34  C   UNL     1     -13.790   4.651   5.260  1.00  0.00     0.014 A 
ATOM     35  C   UNL     1     -13.479   2.742   7.267  1.00  0.00     0.010 A 
ATOM     36  C   UNL     1     -13.841   5.039   6.594  1.00  0.00     0.010 A 
ATOM     37  C   UNL     1     -13.705   4.085   7.612  1.00  0.00    -0.014 A 
BRANCH  37  38
ATOM     38  C   UNL     1     -13.823   4.503   9.031  1.00  0.00     0.031 A 
ATOM     39  C   UNL     1     -15.104   5.108   9.538  1.00  0.00     0.074 A 
ATOM     40  C   UNL     1     -12.760   4.383   9.850  1.00  0.00     0.049 A 
ATOM     41  N   UNL     1     -15.390   5.561  10.733  1.00  0.00    -0.248 NA
ATOM     42  C   UNL     1     -16.200   5.254   8.566  1.00  0.00     0.031 C 
ATOM     43  C   UNL     1     -11.445   3.871   9.460  1.00  0.00     0.029 A 
ATOM     44  N   UNL     1     -12.616   4.687  11.180  1.00  0.00    -0.354 N 
ATOM     45  C   UNL     1     -16.686   6.054  10.650  1.00  0.00     0.074 A 
ATOM     46  C   UNL     1     -17.108   5.907   9.274  1.00  0.00     0.031 C 
ATOM     47  C   UNL     1     -10.640   3.862  10.534  1.00  0.00     0.029 A 
ATOM     48  C   UNL     1     -11.369   4.401  11.678  1.00  0.00     0.049 A 
ATOM     49  H   UNL     1     -13.339   5.073  11.726  1.00  0.00     0.167 HD
ATOM     50  C   UNL     1     -17.466   6.555  11.637  1.00  0.00     0.037 A 
ATOM     51  C   UNL     1     -10.871   4.555  12.919  1.00  0.00     0.037 A 
ATOM     52  C   UNL     1     -17.051   6.675  13.010  1.00  0.00     0.049 A 
ATOM     53  C   UNL     1     -11.762   5.103  14.001  1.00  0.00     0.074 A 
ATOM     54  C   UNL     1     -17.783   7.115  14.098  1.00  0.00     0.029 A 
ATOM     55  N   UNL     1     -15.787   6.351  13.482  1.00  0.00    -0.354 N 
ATOM     56  N   UNL     1     -13.011   5.494  13.927  1.00  0.00    -0.248 NA
ATOM     57  C   UNL     1     -11.175   5.219  15.342  1.00  0.00     0.031 C 
ATOM     58  C   UNL     1     -16.947   7.103  15.220  1.00  0.00     0.029 A 
ATOM     59  C   UNL     1     -15.712   6.601  14.843  1.00  0.00     0.049 A 
ATOM     60  H   UNL     1     -15.052   5.997  12.931  1.00  0.00     0.167 HD
ATOM     61  C   UNL     1     -13.370   5.871  15.214  1.00  0.00     0.074 A 
ATOM     62  C   UNL     1     -12.210   5.644  16.052  1.00  0.00     0.031 C 
ATOM     63  C   UNL     1     -14.552   6.361  15.663  1.00  0.00     0.037 A 
BRANCH  50  64
ATOM     64  C   UNL     1     -18.851   7.005  11.267  1.00  0.00     0.064 A 
ATOM     65  C   UNL     1     -19.845   6.091  10.882  1.00  0.00     0.173 A 
ATOM     66  C   UNL     1     -19.200   8.363  11.327  1.00  0.00     0.173 A 
ATOM     67  F   UNL     1     -19.562   4.782  10.796  1.00  0.00    -0.203 F 
ATOM     68  C   UNL     1     -21.124   6.522  10.540  1.00  0.00     0.198 A 
ATOM     69  C   UNL     1     -20.490   8.787  11.017  1.00  0.00     0.198 A 
ATOM     70  F   UNL     1     -18.292   9.280  11.693  1.00  0.00    -0.203 F 
ATOM     71  F   UNL     1     -22.038   5.636  10.123  1.00  0.00    -0.200 F 
ATOM     72  C   UNL     1     -21.448   7.868  10.616  1.00  0.00     0.200 A 
ATOM     73  F   UNL     1     -20.806  10.086  11.104  1.00  0.00    -0.200 F 
ATOM     74  F   UNL     1     -22.682   8.280  10.294  1.00  0.00    -0.200 F 
ENDBRANCH  50  64
BRANCH  51  75
ATOM     75  C   UNL     1      -9.472   4.148  13.215  1.00  0.00     0.064 A 
ATOM     76  C   UNL     1      -9.202   3.044  14.037  1.00  0.00     0.173 A 
ATOM     77  C   UNL     1      -8.379   4.855  12.693  1.00  0.00     0.173 A 
ATOM     78  F   UNL     1     -10.214   2.348  14.575  1.00  0.00    -0.203 F 
ATOM     79  C   UNL     1      -7.894   2.678  14.345  1.00  0.00     0.198 A 
ATOM     80  C   UNL     1      -7.071   4.469  12.977  1.00  0.00     0.198 A 
ATOM     81  F   UNL     1      -8.583   5.914  11.897  1.00  0.00    -0.203 F 
ATOM     82  F   UNL     1      -7.665   1.651  15.175  1.00  0.00    -0.200 F 
ATOM     83  C   UNL     1      -6.829   3.388  13.811  1.00  0.00     0.200 A 
ATOM     84  F   UNL     1      -6.044   5.148  12.447  1.00  0.00    -0.200 F 
ATOM     85  F   UNL     1      -5.570   3.035  14.107  1.00  0.00    -0.200 F 
ENDBRANCH  51  75
BRANCH  63  86
ATOM     86  C   UNL     1     -14.662   6.644  17.134  1.00  0.00     0.064 A 
ATOM     87  C   UNL     1     -13.971   7.705  17.737  1.00  0.00     0.173 A 
ATOM     88  C   UNL     1     -15.490   5.854  17.946  1.00  0.00     0.173 A 
ATOM     89  F   UNL     1     -13.156   8.482  17.007  1.00  0.00    -0.203 F 
ATOM     90  C   UNL     1     -14.076   7.942  19.105  1.00  0.00     0.198 A 
ATOM     91  C   UNL     1     -15.620   6.114  19.307  1.00  0.00     0.198 A 
ATOM     92  F   UNL     1     -16.180   4.832  17.418  1.00  0.00    -0.203 F 
ATOM     93  F   UNL     1     -13.359   8.923  19.670  1.00  0.00    -0.200 F 
ATOM     94  C   UNL     1     -14.904   7.151  19.887  1.00  0.00     0.200 A 
ATOM     95  F   UNL     1     -16.433   5.359  20.058  1.00  0.00    -0.200 F 
ATOM     96  F   UNL     1     -15.006   7.381  21.203  1.00  0.00    -0.200 F 
ENDBRANCH  63  86
ENDBRANCH  37  38
ENDBRANCH  29  32
ENDBRANCH  27  28
ENDBRANCH   1  27
TORSDOF 12
