REMARK SMILES CC(C)C[C@H](NC(=O)[C@H](Cc1ccccc1)NC(=O)CNC(=O)C[NH3+])C(=O)NCCCNC(=O)c1ccc(-c2c3nc(c(-c4c(F)c(F)c(F)c(F)c4F)c4ccc([nH]4)c(-c4c(F)c(F)c(F)c(F)c4F)c4nc(c(-c5c(F)c(F)c(F)c(F)c5F)c5ccc2[nH]5)C=C4)C=C3)cc1
REMARK SMILES IDX 26 1 27 2 28 3 5 5 4 6 2 7 1 8 3 9 6 10 7 11 8 13 9 14 17 15
REMARK SMILES IDX 18 16 19 18 20 19 21 20 22 21 23 23 24 24 25 25 10 29 11 30
REMARK SMILES IDX 12 31 16 32 13 33 15 34 14 35 29 36 30 37 31 38 32 39 33 40
REMARK SMILES IDX 34 42 35 43 36 44 97 45 37 46 96 47 38 48 39 49 40 50 90 51
REMARK SMILES IDX 41 52 95 53 89 54 91 55 42 56 94 57 88 58 87 59 43 61 75 62
REMARK SMILES IDX 55 63 74 64 56 65 59 66 73 67 92 68 57 69 58 70 72 72 93 73
REMARK SMILES IDX 60 74 44 75 45 76 53 77 46 78 47 79 51 80 54 81 48 82 49 83
REMARK SMILES IDX 52 84 50 85 76 86 77 87 85 88 78 89 79 90 83 91 86 92 80 93
REMARK SMILES IDX 81 94 84 95 82 96 61 97 62 98 70 99 63 100 64 101 68 102
REMARK SMILES IDX 71 103 65 104 66 105 69 106 67 107
REMARK H PARENT 28 4 6 12 17 17 21 22 25 26 25 27 25 28 32 41 91 60 59 71
REMARK Flexibility Score: inf
ROOT
ATOM      1  C   UNL     1      -0.407   2.924   3.067  1.00  0.00     0.242 C 
ATOM      2  O   UNL     1      -0.126   4.104   2.848  1.00  0.00    -0.273 OA
ATOM      3  N   UNL     1      -0.713   2.564   4.355  1.00  0.00    -0.354 N 
ATOM      4  H   UNL     1      -0.500   3.244   5.035  1.00  0.00     0.163 HD
ENDROOT
BRANCH   1   5
ATOM      5  C   UNL     1      -0.492   1.890   1.923  1.00  0.00     0.171 C 
BRANCH   5   6
ATOM      6  C   UNL     1      -1.976   1.511   1.736  1.00  0.00     0.038 C 
BRANCH   6   7
ATOM      7  C   UNL     1      -2.863   2.495   0.948  1.00  0.00    -0.015 C 
ATOM      8  C   UNL     1      -2.335   2.856  -0.438  1.00  0.00     0.007 C 
ATOM      9  C   UNL     1      -4.262   1.875   0.806  1.00  0.00     0.007 C 
ENDBRANCH   6   7
ENDBRANCH   5   6
BRANCH   5  10
ATOM     10  N   UNL     1       0.387   0.768   2.320  1.00  0.00    -0.343 N 
ATOM     11  C   UNL     1       1.033  -0.249   1.701  1.00  0.00     0.243 C 
ATOM     12  H   UNL     1       0.544   0.758   3.291  1.00  0.00     0.164 HD
ATOM     13  O   UNL     1       1.714  -0.947   2.469  1.00  0.00    -0.273 OA
BRANCH  11  14
ATOM     14  C   UNL     1       1.022  -0.551   0.175  1.00  0.00     0.175 C 
BRANCH  14  15
ATOM     15  N   UNL     1       1.476  -1.943  -0.023  1.00  0.00    -0.342 N 
ATOM     16  C   UNL     1       1.847  -2.607  -1.145  1.00  0.00     0.240 C 
ATOM     17  H   UNL     1       1.517  -2.480   0.801  1.00  0.00     0.164 HD
ATOM     18  O   UNL     1       1.593  -3.817  -1.192  1.00  0.00    -0.273 OA
BRANCH  16  19
ATOM     19  C   UNL     1       2.744  -1.993  -2.223  1.00  0.00     0.216 C 
BRANCH  19  20
ATOM     20  N   UNL     1       2.763  -0.563  -2.453  1.00  0.00    -0.342 N 
ATOM     21  C   UNL     1       3.705   0.339  -2.046  1.00  0.00     0.275 C 
ATOM     22  H   UNL     1       2.005  -0.197  -2.963  1.00  0.00     0.164 HD
ATOM     23  O   UNL     1       3.539   1.527  -2.328  1.00  0.00    -0.268 OA
BRANCH  21  24
ATOM     24  C   UNL     1       4.906  -0.130  -1.219  1.00  0.00     0.360 C 
BRANCH  24  25
ATOM     25  N   UNL     1       4.486  -0.397   0.159  1.00  0.00    -0.350 N 
ATOM     26  H   UNL     1       4.109   0.457   0.570  1.00  0.00     0.344 HD
ATOM     27  H   UNL     1       5.289  -0.711   0.704  1.00  0.00     0.344 HD
ATOM     28  H   UNL     1       3.769  -1.122   0.161  1.00  0.00     0.344 HD
ENDBRANCH  24  25
ENDBRANCH  21  24
ENDBRANCH  19  20
ENDBRANCH  16  19
ENDBRANCH  14  15
BRANCH  14  29
ATOM     29  C   UNL     1      -0.323  -0.392  -0.535  1.00  0.00     0.070 C 
BRANCH  29  30
ATOM     30  C   UNL     1      -1.453  -1.344  -0.167  1.00  0.00    -0.045 A 
ATOM     31  C   UNL     1      -1.516  -2.062   1.040  1.00  0.00     0.004 A 
ATOM     32  C   UNL     1      -2.537  -1.450  -1.051  1.00  0.00     0.004 A 
ATOM     33  C   UNL     1      -2.610  -2.873   1.343  1.00  0.00     0.000 A 
ATOM     34  C   UNL     1      -3.631  -2.264  -0.749  1.00  0.00     0.000 A 
ATOM     35  C   UNL     1      -3.665  -2.978   0.446  1.00  0.00     0.000 A 
ENDBRANCH  29  30
ENDBRANCH  14  29
ENDBRANCH  11  14
ENDBRANCH   5  10
ENDBRANCH   1   5
BRANCH   3  36
ATOM     36  C   UNL     1      -1.305   1.337   4.882  1.00  0.00     0.117 C 
BRANCH  36  37
ATOM     37  C   UNL     1      -0.634   0.858   6.156  1.00  0.00     0.042 C 
BRANCH  37  38
ATOM     38  C   UNL     1      -0.745   1.836   7.312  1.00  0.00     0.118 C 
BRANCH  38  39
ATOM     39  N   UNL     1      -2.120   2.084   7.727  1.00  0.00    -0.352 N 
ATOM     40  C   UNL     1      -2.694   1.940   8.972  1.00  0.00     0.251 C 
ATOM     41  H   UNL     1      -2.725   2.400   7.018  1.00  0.00     0.163 HD
ATOM     42  O   UNL     1      -3.896   2.058   9.123  1.00  0.00    -0.269 OA
BRANCH  40  43
ATOM     43  C   UNL     1      -1.824   1.600  10.117  1.00  0.00     0.039 A 
ATOM     44  C   UNL     1      -2.178   0.531  10.943  1.00  0.00     0.014 A 
ATOM     45  C   UNL     1      -0.627   2.290  10.319  1.00  0.00     0.014 A 
ATOM     46  C   UNL     1      -1.278   0.091  11.914  1.00  0.00     0.010 A 
ATOM     47  C   UNL     1       0.305   1.790  11.218  1.00  0.00     0.010 A 
ATOM     48  C   UNL     1      -0.009   0.682  12.020  1.00  0.00    -0.014 A 
BRANCH  48  49
ATOM     49  C   UNL     1       1.018   0.156  12.953  1.00  0.00     0.031 A 
ATOM     50  C   UNL     1       1.546   1.032  14.053  1.00  0.00     0.074 A 
ATOM     51  C   UNL     1       1.536  -1.071  12.751  1.00  0.00     0.049 A 
ATOM     52  N   UNL     1       2.516   0.802  14.900  1.00  0.00    -0.248 NA
ATOM     53  C   UNL     1       0.924   2.358  14.197  1.00  0.00     0.031 C 
ATOM     54  C   UNL     1       1.145  -1.992  11.682  1.00  0.00     0.029 A 
ATOM     55  N   UNL     1       2.517  -1.750  13.429  1.00  0.00    -0.354 N 
ATOM     56  C   UNL     1       2.632   1.958  15.661  1.00  0.00     0.074 A 
ATOM     57  C   UNL     1       1.675   2.909  15.138  1.00  0.00     0.031 C 
ATOM     58  C   UNL     1       1.861  -3.122  11.790  1.00  0.00     0.029 A 
ATOM     59  C   UNL     1       2.791  -2.991  12.907  1.00  0.00     0.049 A 
ATOM     60  H   UNL     1       2.982  -1.383  14.216  1.00  0.00     0.167 HD
ATOM     61  C   UNL     1       3.444   2.194  16.718  1.00  0.00     0.037 A 
ATOM     62  C   UNL     1       3.699  -3.913  13.281  1.00  0.00     0.037 A 
ATOM     63  C   UNL     1       4.371   1.233  17.252  1.00  0.00     0.049 A 
ATOM     64  C   UNL     1       4.593  -3.622  14.456  1.00  0.00     0.074 A 
ATOM     65  C   UNL     1       5.187   1.347  18.363  1.00  0.00     0.029 A 
ATOM     66  N   UNL     1       4.606  -0.021  16.709  1.00  0.00    -0.354 N 
ATOM     67  N   UNL     1       4.642  -2.555  15.215  1.00  0.00    -0.248 NA
ATOM     68  C   UNL     1       5.558  -4.667  14.827  1.00  0.00     0.031 C 
ATOM     69  C   UNL     1       5.950   0.180  18.465  1.00  0.00     0.029 A 
ATOM     70  C   UNL     1       5.575  -0.682  17.447  1.00  0.00     0.049 A 
ATOM     71  H   UNL     1       4.152  -0.388  15.916  1.00  0.00     0.167 HD
ATOM     72  C   UNL     1       5.622  -2.806  16.165  1.00  0.00     0.074 A 
ATOM     73  C   UNL     1       6.130  -4.136  15.898  1.00  0.00     0.031 C 
ATOM     74  C   UNL     1       6.065  -2.007  17.166  1.00  0.00     0.037 A 
BRANCH  61  75
ATOM     75  C   UNL     1       3.358   3.544  17.368  1.00  0.00     0.064 A 
ATOM     76  C   UNL     1       2.229   3.936  18.105  1.00  0.00     0.173 A 
ATOM     77  C   UNL     1       4.428   4.447  17.279  1.00  0.00     0.173 A 
ATOM     78  F   UNL     1       1.173   3.115  18.209  1.00  0.00    -0.203 F 
ATOM     79  C   UNL     1       2.163   5.192  18.701  1.00  0.00     0.198 A 
ATOM     80  C   UNL     1       4.371   5.690  17.904  1.00  0.00     0.198 A 
ATOM     81  F   UNL     1       5.533   4.122  16.590  1.00  0.00    -0.203 F 
ATOM     82  F   UNL     1       1.053   5.563  19.354  1.00  0.00    -0.200 F 
ATOM     83  C   UNL     1       3.236   6.065  18.607  1.00  0.00     0.200 A 
ATOM     84  F   UNL     1       5.414   6.528  17.822  1.00  0.00    -0.200 F 
ATOM     85  F   UNL     1       3.173   7.271  19.187  1.00  0.00    -0.200 F 
ENDBRANCH  61  75
BRANCH  62  86
ATOM     86  C   UNL     1       3.795  -5.203  12.550  1.00  0.00     0.064 A 
ATOM     87  C   UNL     1       3.403  -6.404  13.158  1.00  0.00     0.173 A 
ATOM     88  C   UNL     1       4.285  -5.267  11.237  1.00  0.00     0.173 A 
ATOM     89  F   UNL     1       2.948  -6.398  14.419  1.00  0.00    -0.203 F 
ATOM     90  C   UNL     1       3.517  -7.621  12.489  1.00  0.00     0.198 A 
ATOM     91  C   UNL     1       4.372  -6.481  10.559  1.00  0.00     0.198 A 
ATOM     92  F   UNL     1       4.670  -4.146  10.609  1.00  0.00    -0.203 F 
ATOM     93  F   UNL     1       3.178  -8.759  13.111  1.00  0.00    -0.200 F 
ATOM     94  C   UNL     1       3.996  -7.658  11.188  1.00  0.00     0.200 A 
ATOM     95  F   UNL     1       4.822  -6.511   9.297  1.00  0.00    -0.200 F 
ATOM     96  F   UNL     1       4.102  -8.828  10.544  1.00  0.00    -0.200 F 
ENDBRANCH  62  86
BRANCH  74  97
ATOM     97  C   UNL     1       7.136  -2.558  18.061  1.00  0.00     0.064 A 
ATOM     98  C   UNL     1       8.457  -2.712  17.616  1.00  0.00     0.173 A 
ATOM     99  C   UNL     1       6.846  -2.895  19.392  1.00  0.00     0.173 A 
ATOM    100  F   UNL     1       8.781  -2.419  16.348  1.00  0.00    -0.203 F 
ATOM    101  C   UNL     1       9.444  -3.206  18.465  1.00  0.00     0.198 A 
ATOM    102  C   UNL     1       7.842  -3.359  20.246  1.00  0.00     0.198 A 
ATOM    103  F   UNL     1       5.599  -2.759  19.868  1.00  0.00    -0.203 F 
ATOM    104  F   UNL     1      10.690  -3.389  18.005  1.00  0.00    -0.200 F 
ATOM    105  C   UNL     1       9.138  -3.521  19.780  1.00  0.00     0.200 A 
ATOM    106  F   UNL     1       7.547  -3.650  21.521  1.00  0.00    -0.200 F 
ATOM    107  F   UNL     1      10.091  -3.988  20.598  1.00  0.00    -0.200 F 
ENDBRANCH  74  97
ENDBRANCH  48  49
ENDBRANCH  40  43
ENDBRANCH  38  39
ENDBRANCH  37  38
ENDBRANCH  36  37
ENDBRANCH   3  36
TORSDOF 21
