REMARK SMILES C[C@@H](C(=O)NCCCNC(=O)c1ccc(-c2c3nc(c(-c4c(F)c(F)c(F)c(F)c4F)c4ccc([nH]4)c(-c4c(F)c(F)c(F)c(F)c4F)c4nc(c(-c5c(F)c(F)c(F)c(F)c5F)c5ccc2[nH]5)C=C4)C=C3)cc1)c1ccc(NC2CCCC2)cc1F
REMARK SMILES IDX 6 1 5 2 3 3 4 4 2 6 1 7 75 8 76 9 86 10 77 11 85 12 87 13
REMARK SMILES IDX 78 14 79 15 80 17 81 18 84 19 82 20 83 21 7 22 8 23 9 24
REMARK SMILES IDX 10 25 11 27 12 28 13 29 74 30 14 31 73 32 15 33 16 34 17 35
REMARK SMILES IDX 67 36 18 37 72 38 66 39 68 40 19 41 71 42 65 43 64 44 20 46
REMARK SMILES IDX 52 47 32 48 51 49 33 50 36 51 50 52 69 53 34 54 35 55 49 57
REMARK SMILES IDX 70 58 37 59 21 60 22 61 30 62 23 63 24 64 28 65 31 66 25 67
REMARK SMILES IDX 26 68 29 69 27 70 53 71 54 72 62 73 55 74 56 75 60 76 63 77
REMARK SMILES IDX 57 78 58 79 61 80 59 81 38 82 39 83 47 84 40 85 41 86 45 87
REMARK SMILES IDX 48 88 42 89 43 90 46 91 44 92
REMARK H PARENT 5 5 79 16 9 26 68 45 36 56
REMARK Flexibility Score: inf
ROOT
ATOM      1  C   UNL     1       3.399   0.651  -1.999  1.00  0.00     0.117 C 
ENDROOT
BRANCH   1   2
ATOM      2  N   UNL     1       2.331  -0.013  -2.720  1.00  0.00    -0.356 N 
ATOM      3  C   UNL     1       1.003  -0.140  -2.427  1.00  0.00     0.227 C 
ATOM      4  O   UNL     1       0.319  -0.749  -3.251  1.00  0.00    -0.274 OA
ATOM      5  H   UNL     1       2.610  -0.443  -3.561  1.00  0.00     0.163 HD
BRANCH   3   6
ATOM      6  C   UNL     1       0.433   0.496  -1.150  1.00  0.00     0.108 C 
ATOM      7  C   UNL     1       0.898  -0.227   0.117  1.00  0.00     0.023 C 
BRANCH   6   8
ATOM      8  C   UNL     1      -1.084   0.594  -1.176  1.00  0.00     0.000 A 
ATOM      9  C   UNL     1      -1.710   1.840  -1.266  1.00  0.00     0.009 A 
ATOM     10  C   UNL     1      -1.900  -0.536  -1.096  1.00  0.00     0.129 A 
ATOM     11  C   UNL     1      -3.108   1.940  -1.253  1.00  0.00     0.026 A 
ATOM     12  C   UNL     1      -3.291  -0.431  -1.083  1.00  0.00     0.065 A 
ATOM     13  F   UNL     1      -1.355  -1.758  -1.003  1.00  0.00    -0.207 F 
ATOM     14  C   UNL     1      -3.929   0.814  -1.152  1.00  0.00     0.037 A 
BRANCH  14  15
ATOM     15  N   UNL     1      -5.306   0.850  -1.102  1.00  0.00    -0.382 N 
ATOM     16  H   UNL     1      -5.743  -0.029  -1.027  1.00  0.00     0.160 HD
BRANCH  15  17
ATOM     17  C   UNL     1      -6.210   1.985  -1.144  1.00  0.00     0.079 C 
ATOM     18  C   UNL     1      -6.059   2.963   0.016  1.00  0.00     0.025 C 
ATOM     19  C   UNL     1      -6.133   2.812  -2.428  1.00  0.00     0.025 C 
ATOM     20  C   UNL     1      -6.698   4.233  -0.524  1.00  0.00     0.002 C 
ATOM     21  C   UNL     1      -6.292   4.269  -1.993  1.00  0.00     0.002 C 
ENDBRANCH  15  17
ENDBRANCH  14  15
ENDBRANCH   6   8
ENDBRANCH   3   6
ENDBRANCH   1   2
BRANCH   1  22
ATOM     22  C   UNL     1       4.321  -0.338  -1.289  1.00  0.00     0.042 C 
BRANCH  22  23
ATOM     23  C   UNL     1       5.036  -1.321  -2.212  1.00  0.00     0.118 C 
BRANCH  23  24
ATOM     24  N   UNL     1       5.948  -0.669  -3.137  1.00  0.00    -0.352 N 
ATOM     25  C   UNL     1       7.286  -0.868  -3.360  1.00  0.00     0.251 C 
ATOM     26  H   UNL     1       5.538   0.031  -3.695  1.00  0.00     0.163 HD
ATOM     27  O   UNL     1       7.894  -0.084  -4.089  1.00  0.00    -0.269 OA
BRANCH  25  28
ATOM     28  C   UNL     1       8.020  -1.988  -2.728  1.00  0.00     0.039 A 
ATOM     29  C   UNL     1       9.325  -1.754  -2.281  1.00  0.00     0.014 A 
ATOM     30  C   UNL     1       7.473  -3.271  -2.621  1.00  0.00     0.014 A 
ATOM     31  C   UNL     1      10.056  -2.781  -1.681  1.00  0.00     0.010 A 
ATOM     32  C   UNL     1       8.179  -4.281  -1.964  1.00  0.00     0.010 A 
ATOM     33  C   UNL     1       9.479  -4.046  -1.491  1.00  0.00    -0.014 A 
BRANCH  33  34
ATOM     34  C   UNL     1      10.228  -5.118  -0.787  1.00  0.00     0.031 A 
ATOM     35  C   UNL     1      10.675  -6.352  -1.520  1.00  0.00     0.074 A 
ATOM     36  C   UNL     1      10.480  -4.991   0.530  1.00  0.00     0.049 A 
ATOM     37  N   UNL     1      11.336  -7.389  -1.067  1.00  0.00    -0.248 NA
ATOM     38  C   UNL     1      10.315  -6.445  -2.943  1.00  0.00     0.031 C 
ATOM     39  C   UNL     1      10.050  -3.870   1.366  1.00  0.00     0.029 A 
ATOM     40  N   UNL     1      11.155  -5.814   1.397  1.00  0.00    -0.354 N 
ATOM     41  C   UNL     1      11.466  -8.255  -2.144  1.00  0.00     0.074 A 
ATOM     42  C   UNL     1      10.774  -7.647  -3.261  1.00  0.00     0.031 C 
ATOM     43  C   UNL     1      10.490  -4.063   2.620  1.00  0.00     0.029 A 
ATOM     44  C   UNL     1      11.212  -5.331   2.680  1.00  0.00     0.049 A 
ATOM     45  H   UNL     1      11.559  -6.669   1.124  1.00  0.00     0.167 HD
ATOM     46  C   UNL     1      12.121  -9.440  -2.203  1.00  0.00     0.037 A 
ATOM     47  C   UNL     1      11.785  -5.849   3.783  1.00  0.00     0.037 A 
ATOM     48  C   UNL     1      12.826 -10.037  -1.098  1.00  0.00     0.049 A 
ATOM     49  C   UNL     1      12.528  -7.152   3.684  1.00  0.00     0.074 A 
ATOM     50  C   UNL     1      13.561 -11.210  -1.074  1.00  0.00     0.029 A 
ATOM     51  N   UNL     1      12.884  -9.505   0.181  1.00  0.00    -0.354 N 
ATOM     52  N   UNL     1      12.697  -7.930   2.644  1.00  0.00    -0.248 NA
ATOM     53  C   UNL     1      13.170  -7.642   4.912  1.00  0.00     0.031 C 
ATOM     54  C   UNL     1      14.038 -11.404   0.227  1.00  0.00     0.029 A 
ATOM     55  C   UNL     1      13.631 -10.332   1.005  1.00  0.00     0.049 A 
ATOM     56  H   UNL     1      12.457  -8.663   0.462  1.00  0.00     0.167 HD
ATOM     57  C   UNL     1      13.474  -8.992   3.085  1.00  0.00     0.074 A 
ATOM     58  C   UNL     1      13.764  -8.746   4.482  1.00  0.00     0.031 C 
ATOM     59  C   UNL     1      13.904 -10.076   2.395  1.00  0.00     0.037 A 
BRANCH  46  60
ATOM     60  C   UNL     1      12.118 -10.167  -3.515  1.00  0.00     0.064 A 
ATOM     61  C   UNL     1      12.873  -9.709  -4.605  1.00  0.00     0.173 A 
ATOM     62  C   UNL     1      11.388 -11.354  -3.673  1.00  0.00     0.173 A 
ATOM     63  F   UNL     1      13.579  -8.573  -4.507  1.00  0.00    -0.203 F 
ATOM     64  C   UNL     1      12.879 -10.401  -5.813  1.00  0.00     0.198 A 
ATOM     65  C   UNL     1      11.416 -12.057  -4.875  1.00  0.00     0.198 A 
ATOM     66  F   UNL     1      10.654 -11.838  -2.659  1.00  0.00    -0.203 F 
ATOM     67  F   UNL     1      13.576  -9.923  -6.854  1.00  0.00    -0.200 F 
ATOM     68  C   UNL     1      12.156 -11.577  -5.945  1.00  0.00     0.200 A 
ATOM     69  F   UNL     1      10.726 -13.200  -4.998  1.00  0.00    -0.200 F 
ATOM     70  F   UNL     1      12.169 -12.246  -7.107  1.00  0.00    -0.200 F 
ENDBRANCH  46  60
BRANCH  47  71
ATOM     71  C   UNL     1      11.704  -5.115   5.070  1.00  0.00     0.064 A 
ATOM     72  C   UNL     1      12.831  -4.478   5.607  1.00  0.00     0.173 A 
ATOM     73  C   UNL     1      10.501  -5.030   5.784  1.00  0.00     0.173 A 
ATOM     74  F   UNL     1      14.008  -4.550   4.968  1.00  0.00    -0.203 F 
ATOM     75  C   UNL     1      12.762  -3.797   6.820  1.00  0.00     0.198 A 
ATOM     76  C   UNL     1      10.427  -4.328   6.985  1.00  0.00     0.198 A 
ATOM     77  F   UNL     1       9.394  -5.618   5.308  1.00  0.00    -0.203 F 
ATOM     78  F   UNL     1      13.863  -3.230   7.331  1.00  0.00    -0.200 F 
ATOM     79  C   UNL     1      11.559  -3.718   7.505  1.00  0.00     0.200 A 
ATOM     80  F   UNL     1       9.260  -4.243   7.639  1.00  0.00    -0.200 F 
ATOM     81  F   UNL     1      11.491  -3.059   8.670  1.00  0.00    -0.200 F 
ENDBRANCH  47  71
BRANCH  59  82
ATOM     82  C   UNL     1      14.740 -11.071   3.144  1.00  0.00     0.064 A 
ATOM     83  C   UNL     1      14.174 -11.931   4.097  1.00  0.00     0.173 A 
ATOM     84  C   UNL     1      16.117 -11.176   2.896  1.00  0.00     0.173 A 
ATOM     85  F   UNL     1      12.865 -11.855   4.380  1.00  0.00    -0.203 F 
ATOM     86  C   UNL     1      14.962 -12.842   4.794  1.00  0.00     0.198 A 
ATOM     87  C   UNL     1      16.897 -12.106   3.578  1.00  0.00     0.198 A 
ATOM     88  F   UNL     1      16.704 -10.379   1.992  1.00  0.00    -0.203 F 
ATOM     89  F   UNL     1      14.409 -13.621   5.735  1.00  0.00    -0.200 F 
ATOM     90  C   UNL     1      16.320 -12.933   4.531  1.00  0.00     0.200 A 
ATOM     91  F   UNL     1      18.208 -12.198   3.317  1.00  0.00    -0.200 F 
ATOM     92  F   UNL     1      17.077 -13.810   5.205  1.00  0.00    -0.200 F 
ENDBRANCH  59  82
ENDBRANCH  33  34
ENDBRANCH  25  28
ENDBRANCH  23  24
ENDBRANCH  22  23
ENDBRANCH   1  22
TORSDOF 13
