REMARK SMILES CCC[C@H](C)C[N@H+]1[C@@H]2CC[C@H]1C[C@H](CC(=O)NCCCNC(=O)c1ccc(-c3c4nc(c(-c5c(F)c(F)c(F)c(F)c5F)c5ccc([nH]5)c(-c5c(F)c(F)c(F)c(F)c5F)c5nc(c(-c6c(F)c(F)c(F)c(F)c6F)c6ccc3[nH]6)C=C5)C=C4)cc1)C2
REMARK SMILES IDX 15 1 16 2 17 3 14 5 13 6 7 7 8 8 11 9 9 11 87 12 10 13 12 14
REMARK SMILES IDX 6 15 4 16 5 17 3 18 2 19 1 20 18 21 19 22 20 23 21 24 22 25
REMARK SMILES IDX 23 27 24 28 25 29 86 30 26 31 85 32 27 33 28 34 29 35 79 36
REMARK SMILES IDX 30 37 84 38 78 39 80 40 31 41 83 42 77 43 76 44 32 46 64 47
REMARK SMILES IDX 44 48 63 49 45 50 48 51 62 52 81 53 46 54 47 55 61 57 82 58
REMARK SMILES IDX 49 59 33 60 34 61 42 62 35 63 36 64 40 65 43 66 37 67 38 68
REMARK SMILES IDX 41 69 39 70 65 71 66 72 74 73 67 74 68 75 72 76 75 77 69 78
REMARK SMILES IDX 70 79 73 80 71 81 50 82 51 83 59 84 52 85 53 86 57 87 60 88
REMARK SMILES IDX 54 89 55 90 58 91 56 92
REMARK H PARENT 17 4 7 10 21 26 80 45 48 56
REMARK Flexibility Score: inf
ROOT
ATOM      1  C   UNL     1       2.201   5.121  -3.917  1.00  0.00     0.220 C 
ATOM      2  O   UNL     1       2.998   5.013  -4.851  1.00  0.00    -0.275 OA
ATOM      3  N   UNL     1       1.583   6.323  -3.747  1.00  0.00    -0.356 N 
ATOM      4  H   UNL     1       1.838   7.000  -4.415  1.00  0.00     0.163 HD
ENDROOT
BRANCH   1   5
ATOM      5  C   UNL     1       1.920   3.947  -3.003  1.00  0.00     0.104 C 
BRANCH   5   6
ATOM      6  C   UNL     1       2.926   3.782  -1.845  1.00  0.00     0.010 C 
ATOM      7  N   UNL     1       2.579   3.534   1.125  1.00  0.00    -0.330 N 
ATOM      8  C   UNL     1       3.123   2.423   0.346  1.00  0.00     0.184 C 
ATOM      9  C   UNL     1       3.291   4.697   0.571  1.00  0.00     0.184 C 
ATOM     10  H   UNL     1       2.739   3.335   2.113  1.00  0.00     0.348 HD
ATOM     11  C   UNL     1       4.631   2.705   0.483  1.00  0.00     0.071 C 
ATOM     12  C   UNL     1       2.678   2.442  -1.125  1.00  0.00     0.069 C 
ATOM     13  C   UNL     1       4.739   4.223   0.621  1.00  0.00     0.071 C 
ATOM     14  C   UNL     1       2.869   4.974  -0.881  1.00  0.00     0.069 C 
BRANCH   7  15
ATOM     15  C   UNL     1       1.134   3.728   1.278  1.00  0.00     0.265 C 
BRANCH  15  16
ATOM     16  C   UNL     1       0.187   2.505   1.319  1.00  0.00     0.041 C 
ATOM     17  C   UNL     1       0.574   1.503   2.413  1.00  0.00     0.013 C 
BRANCH  16  18
ATOM     18  C   UNL     1      -1.295   2.925   1.511  1.00  0.00     0.009 C 
BRANCH  18  19
ATOM     19  C   UNL     1      -1.866   3.972   0.544  1.00  0.00    -0.003 C 
ATOM     20  C   UNL     1      -1.669   3.643  -0.926  1.00  0.00     0.004 C 
ENDBRANCH  18  19
ENDBRANCH  16  18
ENDBRANCH  15  16
ENDBRANCH   7  15
ENDBRANCH   5   6
ENDBRANCH   1   5
BRANCH   3  21
ATOM     21  C   UNL     1       0.616   6.801  -2.766  1.00  0.00     0.117 C 
BRANCH  21  22
ATOM     22  C   UNL     1       1.220   7.794  -1.766  1.00  0.00     0.042 C 
BRANCH  22  23
ATOM     23  C   UNL     1       1.786   9.063  -2.388  1.00  0.00     0.118 C 
BRANCH  23  24
ATOM     24  N   UNL     1       0.854  10.169  -2.288  1.00  0.00    -0.352 N 
ATOM     25  C   UNL     1       0.981  11.361  -1.621  1.00  0.00     0.251 C 
ATOM     26  H   UNL     1       0.004  10.046  -2.770  1.00  0.00     0.163 HD
ATOM     27  O   UNL     1      -0.021  12.059  -1.454  1.00  0.00    -0.269 OA
BRANCH  25  28
ATOM     28  C   UNL     1       2.288  11.828  -1.093  1.00  0.00     0.039 A 
ATOM     29  C   UNL     1       2.303  12.556   0.102  1.00  0.00     0.014 A 
ATOM     30  C   UNL     1       3.484  11.639  -1.793  1.00  0.00     0.014 A 
ATOM     31  C   UNL     1       3.503  13.074   0.600  1.00  0.00     0.010 A 
ATOM     32  C   UNL     1       4.693  12.090  -1.258  1.00  0.00     0.010 A 
ATOM     33  C   UNL     1       4.713  12.838  -0.071  1.00  0.00    -0.014 A 
BRANCH  33  34
ATOM     34  C   UNL     1       5.993  13.415   0.423  1.00  0.00     0.031 A 
ATOM     35  C   UNL     1       6.723  14.445  -0.399  1.00  0.00     0.074 A 
ATOM     36  C   UNL     1       6.521  12.994   1.589  1.00  0.00     0.049 A 
ATOM     37  N   UNL     1       7.876  15.026  -0.171  1.00  0.00    -0.248 NA
ATOM     38  C   UNL     1       6.086  14.860  -1.659  1.00  0.00     0.031 C 
ATOM     39  C   UNL     1       5.935  11.981   2.466  1.00  0.00     0.029 A 
ATOM     40  N   UNL     1       7.677  13.363   2.233  1.00  0.00    -0.354 N 
ATOM     41  C   UNL     1       8.110  15.848  -1.266  1.00  0.00     0.074 A 
ATOM     42  C   UNL     1       7.003  15.662  -2.179  1.00  0.00     0.031 C 
ATOM     43  C   UNL     1       6.721  11.826   3.545  1.00  0.00     0.029 A 
ATOM     44  C   UNL     1       7.883  12.702   3.420  1.00  0.00     0.049 A 
ATOM     45  H   UNL     1       8.299  14.038   1.878  1.00  0.00     0.167 HD
ATOM     46  C   UNL     1       9.143  16.698  -1.484  1.00  0.00     0.037 A 
ATOM     47  C   UNL     1       8.895  12.791   4.304  1.00  0.00     0.037 A 
ATOM     48  C   UNL     1      10.220  16.922  -0.556  1.00  0.00     0.049 A 
ATOM     49  C   UNL     1      10.024  13.751   4.043  1.00  0.00     0.074 A 
ATOM     50  C   UNL     1      11.271  17.817  -0.655  1.00  0.00     0.029 A 
ATOM     51  N   UNL     1      10.381  16.246   0.643  1.00  0.00    -0.354 N 
ATOM     52  N   UNL     1      10.199  14.570   3.035  1.00  0.00    -0.248 NA
ATOM     53  C   UNL     1      11.095  13.803   5.049  1.00  0.00     0.031 C 
ATOM     54  C   UNL     1      12.091  17.655   0.467  1.00  0.00     0.029 A 
ATOM     55  C   UNL     1      11.525  16.691   1.286  1.00  0.00     0.049 A 
ATOM     56  H   UNL     1       9.773  15.552   0.988  1.00  0.00     0.167 HD
ATOM     57  C   UNL     1      11.377  15.255   3.300  1.00  0.00     0.074 A 
ATOM     58  C   UNL     1      11.871  14.765   4.569  1.00  0.00     0.031 C 
ATOM     59  C   UNL     1      11.994  16.207   2.558  1.00  0.00     0.037 A 
BRANCH  46  60
ATOM     60  C   UNL     1       9.159  17.458  -2.778  1.00  0.00     0.064 A 
ATOM     61  C   UNL     1       8.255  18.500  -3.033  1.00  0.00     0.173 A 
ATOM     62  C   UNL     1      10.123  17.172  -3.758  1.00  0.00     0.173 A 
ATOM     63  F   UNL     1       7.308  18.807  -2.133  1.00  0.00    -0.203 F 
ATOM     64  C   UNL     1       8.297  19.210  -4.230  1.00  0.00     0.198 A 
ATOM     65  C   UNL     1      10.180  17.903  -4.942  1.00  0.00     0.198 A 
ATOM     66  F   UNL     1      11.016  16.191  -3.562  1.00  0.00    -0.203 F 
ATOM     67  F   UNL     1       7.395  20.171  -4.470  1.00  0.00    -0.200 F 
ATOM     68  C   UNL     1       9.264  18.916  -5.180  1.00  0.00     0.200 A 
ATOM     69  F   UNL     1      11.123  17.626  -5.854  1.00  0.00    -0.200 F 
ATOM     70  F   UNL     1       9.308  19.605  -6.329  1.00  0.00    -0.200 F 
ENDBRANCH  46  60
BRANCH  47  71
ATOM     71  C   UNL     1       8.876  11.968   5.542  1.00  0.00     0.064 A 
ATOM     72  C   UNL     1       8.679  12.564   6.796  1.00  0.00     0.173 A 
ATOM     73  C   UNL     1       9.069  10.580   5.501  1.00  0.00     0.173 A 
ATOM     74  F   UNL     1       8.514  13.892   6.887  1.00  0.00    -0.203 F 
ATOM     75  C   UNL     1       8.699  11.805   7.964  1.00  0.00     0.198 A 
ATOM     76  C   UNL     1       9.061   9.819   6.668  1.00  0.00     0.198 A 
ATOM     77  F   UNL     1       9.260   9.963   4.326  1.00  0.00    -0.203 F 
ATOM     78  F   UNL     1       8.556  12.407   9.153  1.00  0.00    -0.200 F 
ATOM     79  C   UNL     1       8.885  10.433   7.899  1.00  0.00     0.200 A 
ATOM     80  F   UNL     1       9.231   8.491   6.601  1.00  0.00    -0.200 F 
ATOM     81  F   UNL     1       8.903   9.703   9.023  1.00  0.00    -0.200 F 
ENDBRANCH  47  71
BRANCH  59  82
ATOM     82  C   UNL     1      13.247  16.814   3.118  1.00  0.00     0.064 A 
ATOM     83  C   UNL     1      14.456  16.105   3.155  1.00  0.00     0.173 A 
ATOM     84  C   UNL     1      13.244  18.137   3.586  1.00  0.00     0.173 A 
ATOM     85  F   UNL     1      14.506  14.833   2.734  1.00  0.00    -0.203 F 
ATOM     86  C   UNL     1      15.612  16.692   3.663  1.00  0.00     0.198 A 
ATOM     87  C   UNL     1      14.408  18.729   4.066  1.00  0.00     0.198 A 
ATOM     88  F   UNL     1      12.114  18.860   3.565  1.00  0.00    -0.203 F 
ATOM     89  F   UNL     1      16.747  15.982   3.730  1.00  0.00    -0.200 F 
ATOM     90  C   UNL     1      15.589  18.005   4.111  1.00  0.00     0.200 A 
ATOM     91  F   UNL     1      14.387  20.002   4.487  1.00  0.00    -0.200 F 
ATOM     92  F   UNL     1      16.705  18.569   4.593  1.00  0.00    -0.200 F 
ENDBRANCH  59  82
ENDBRANCH  33  34
ENDBRANCH  25  28
ENDBRANCH  23  24
ENDBRANCH  22  23
ENDBRANCH  21  22
ENDBRANCH   3  21
TORSDOF 15
