REMARK SMILES CCCC#C[C@](C)(O)C[NH2+][C@H](C)C(=O)NCCCNC(=O)c1ccc(-c2c3nc(c(-c4c(F)c(F)c(F)c(F)c4F)c4ccc([nH]4)c(-c4c(F)c(F)c(F)c(F)c4F)c4nc(c(-c5c(F)c(F)c(F)c(F)c5F)c5ccc2[nH]5)C=C4)C=C3)cc1
REMARK SMILES IDX 13 1 14 2 15 3 11 5 12 6 10 7 9 10 6 11 7 12 5 13 4 14 3 15
REMARK SMILES IDX 2 16 1 17 8 18 16 20 17 21 18 22 19 23 20 24 21 26 22 27
REMARK SMILES IDX 23 28 84 29 24 30 83 31 25 32 26 33 27 34 77 35 28 36 82 37
REMARK SMILES IDX 76 38 78 39 29 40 81 41 75 42 74 43 30 45 62 46 42 47 61 48
REMARK SMILES IDX 43 49 46 50 60 51 79 52 44 53 45 54 59 56 80 57 47 58 31 59
REMARK SMILES IDX 32 60 40 61 33 62 34 63 38 64 41 65 35 66 36 67 39 68 37 69
REMARK SMILES IDX 63 70 64 71 72 72 65 73 66 74 70 75 73 76 67 77 68 78 71 79
REMARK SMILES IDX 69 80 48 81 49 82 57 83 50 84 51 85 55 86 58 87 52 88 53 89
REMARK SMILES IDX 56 90 54 91
REMARK H PARENT 15 4 10 8 10 9 8 19 19 25 78 44 46 55
REMARK Flexibility Score: inf
ROOT
ATOM      1  C   UNL     1      -4.944   0.968  -3.885  1.00  0.00     0.277 C 
ATOM      2  O   UNL     1      -5.413   2.058  -3.544  1.00  0.00    -0.268 OA
ATOM      3  N   UNL     1      -5.474  -0.157  -3.307  1.00  0.00    -0.351 N 
ATOM      4  H   UNL     1      -6.147   0.013  -2.608  1.00  0.00     0.163 HD
ENDROOT
BRANCH   1   5
ATOM      5  C   UNL     1      -3.754   0.888  -4.874  1.00  0.00     0.269 C 
ATOM      6  C   UNL     1      -2.469   0.635  -4.077  1.00  0.00     0.086 C 
BRANCH   5   7
ATOM      7  N   UNL     1      -4.120  -0.013  -5.981  1.00  0.00    -0.333 N 
ATOM      8  H   UNL     1      -4.935  -0.549  -5.683  1.00  0.00     0.347 HD
ATOM      9  H   UNL     1      -4.276   0.601  -6.780  1.00  0.00     0.347 HD
BRANCH   7  10
ATOM     10  C   UNL     1      -3.105  -0.966  -6.427  1.00  0.00     0.310 C 
BRANCH  10  11
ATOM     11  C   UNL     1      -3.639  -1.990  -7.469  1.00  0.00     0.171 C 
ATOM     12  C   UNL     1      -4.984  -2.623  -7.101  1.00  0.00     0.063 C 
BRANCH  11  13
ATOM     13  C   UNL     1      -2.632  -3.054  -7.612  1.00  0.00    -0.063 C 
ATOM     14  C   UNL     1      -1.705  -3.954  -7.786  1.00  0.00    -0.100 C 
BRANCH  14  15
ATOM     15  C   UNL     1      -0.623  -5.003  -7.988  1.00  0.00     0.089 C 
BRANCH  15  16
ATOM     16  C   UNL     1      -1.220  -6.328  -8.461  1.00  0.00     0.010 C 
ATOM     17  C   UNL     1      -1.889  -6.231  -9.826  1.00  0.00     0.005 C 
ENDBRANCH  15  16
ENDBRANCH  14  15
ENDBRANCH  11  13
BRANCH  11  18
ATOM     18  O   UNL     1      -3.792  -1.314  -8.721  1.00  0.00    -0.372 OA
ATOM     19  H   UNL     1      -4.455  -0.612  -8.631  1.00  0.00     0.212 HD
ENDBRANCH  11  18
ENDBRANCH  10  11
ENDBRANCH   7  10
ENDBRANCH   5   7
ENDBRANCH   1   5
BRANCH   3  20
ATOM     20  C   UNL     1      -5.197  -1.559  -3.564  1.00  0.00     0.118 C 
BRANCH  20  21
ATOM     21  C   UNL     1      -4.502  -2.265  -2.411  1.00  0.00     0.042 C 
BRANCH  21  22
ATOM     22  C   UNL     1      -5.387  -2.457  -1.192  1.00  0.00     0.118 C 
BRANCH  22  23
ATOM     23  N   UNL     1      -6.509  -3.349  -1.452  1.00  0.00    -0.352 N 
ATOM     24  C   UNL     1      -6.856  -4.538  -0.867  1.00  0.00     0.251 C 
ATOM     25  H   UNL     1      -7.118  -3.049  -2.166  1.00  0.00     0.163 HD
ATOM     26  O   UNL     1      -7.746  -5.223  -1.372  1.00  0.00    -0.269 OA
BRANCH  24  27
ATOM     27  C   UNL     1      -6.166  -5.019   0.349  1.00  0.00     0.039 A 
ATOM     28  C   UNL     1      -5.921  -6.389   0.484  1.00  0.00     0.014 A 
ATOM     29  C   UNL     1      -5.789  -4.143   1.370  1.00  0.00     0.014 A 
ATOM     30  C   UNL     1      -5.248  -6.868   1.610  1.00  0.00     0.010 A 
ATOM     31  C   UNL     1      -5.036  -4.607   2.444  1.00  0.00     0.010 A 
ATOM     32  C   UNL     1      -4.769  -5.976   2.582  1.00  0.00    -0.014 A 
BRANCH  32  33
ATOM     33  C   UNL     1      -3.998  -6.461   3.754  1.00  0.00     0.031 A 
ATOM     34  C   UNL     1      -4.538  -6.279   5.146  1.00  0.00     0.074 A 
ATOM     35  C   UNL     1      -2.785  -7.015   3.567  1.00  0.00     0.049 A 
ATOM     36  N   UNL     1      -3.995  -6.600   6.294  1.00  0.00    -0.248 NA
ATOM     37  C   UNL     1      -5.849  -5.624   5.267  1.00  0.00     0.031 C 
ATOM     38  C   UNL     1      -2.127  -7.193   2.272  1.00  0.00     0.029 A 
ATOM     39  N   UNL     1      -1.886  -7.527   4.469  1.00  0.00    -0.354 N 
ATOM     40  C   UNL     1      -4.889  -6.173   7.267  1.00  0.00     0.074 A 
ATOM     41  C   UNL     1      -5.980  -5.517   6.580  1.00  0.00     0.031 C 
ATOM     42  C   UNL     1      -0.947  -7.804   2.458  1.00  0.00     0.029 A 
ATOM     43  C   UNL     1      -0.749  -8.029   3.886  1.00  0.00     0.049 A 
ATOM     44  H   UNL     1      -2.043  -7.535   5.441  1.00  0.00     0.167 HD
ATOM     45  C   UNL     1      -4.820  -6.337   8.610  1.00  0.00     0.037 A 
ATOM     46  C   UNL     1       0.332  -8.608   4.443  1.00  0.00     0.037 A 
ATOM     47  C   UNL     1      -3.745  -7.013   9.288  1.00  0.00     0.049 A 
ATOM     48  C   UNL     1       0.379  -8.788   5.936  1.00  0.00     0.074 A 
ATOM     49  C   UNL     1      -3.609  -7.283  10.638  1.00  0.00     0.029 A 
ATOM     50  N   UNL     1      -2.618  -7.525   8.662  1.00  0.00    -0.354 N 
ATOM     51  N   UNL     1      -0.505  -8.443   6.840  1.00  0.00    -0.248 NA
ATOM     52  C   UNL     1       1.572  -9.448   6.482  1.00  0.00     0.031 C 
ATOM     53  C   UNL     1      -2.380  -7.922  10.835  1.00  0.00     0.029 A 
ATOM     54  C   UNL     1      -1.772  -8.094   9.602  1.00  0.00     0.049 A 
ATOM     55  H   UNL     1      -2.444  -7.489   7.694  1.00  0.00     0.167 HD
ATOM     56  C   UNL     1       0.010  -8.866   8.058  1.00  0.00     0.074 A 
ATOM     57  C   UNL     1       1.276  -9.510   7.772  1.00  0.00     0.031 C 
ATOM     58  C   UNL     1      -0.516  -8.732   9.300  1.00  0.00     0.037 A 
BRANCH  45  59
ATOM     59  C   UNL     1      -5.946  -5.778   9.432  1.00  0.00     0.064 A 
ATOM     60  C   UNL     1      -7.234  -6.335   9.390  1.00  0.00     0.173 A 
ATOM     61  C   UNL     1      -5.733  -4.687  10.287  1.00  0.00     0.173 A 
ATOM     62  F   UNL     1      -7.496  -7.372   8.580  1.00  0.00    -0.203 F 
ATOM     63  C   UNL     1      -8.274  -5.798  10.146  1.00  0.00     0.198 A 
ATOM     64  C   UNL     1      -6.767  -4.173  11.066  1.00  0.00     0.198 A 
ATOM     65  F   UNL     1      -4.520  -4.119  10.370  1.00  0.00    -0.203 F 
ATOM     66  F   UNL     1      -9.507  -6.312  10.046  1.00  0.00    -0.200 F 
ATOM     67  C   UNL     1      -8.038  -4.722  10.988  1.00  0.00     0.200 A 
ATOM     68  F   UNL     1      -6.535  -3.140  11.888  1.00  0.00    -0.200 F 
ATOM     69  F   UNL     1      -9.038  -4.209  11.717  1.00  0.00    -0.200 F 
ENDBRANCH  45  59
BRANCH  46  70
ATOM     70  C   UNL     1       1.436  -9.098   3.580  1.00  0.00     0.064 A 
ATOM     71  C   UNL     1       1.658 -10.472   3.412  1.00  0.00     0.173 A 
ATOM     72  C   UNL     1       2.285  -8.211   2.903  1.00  0.00     0.173 A 
ATOM     73  F   UNL     1       0.883 -11.358   4.054  1.00  0.00    -0.203 F 
ATOM     74  C   UNL     1       2.699 -10.941   2.614  1.00  0.00     0.198 A 
ATOM     75  C   UNL     1       3.310  -8.682   2.084  1.00  0.00     0.198 A 
ATOM     76  F   UNL     1       2.111  -6.888   3.026  1.00  0.00    -0.203 F 
ATOM     77  F   UNL     1       2.915 -12.259   2.504  1.00  0.00    -0.200 F 
ATOM     78  C   UNL     1       3.521 -10.045   1.946  1.00  0.00     0.200 A 
ATOM     79  F   UNL     1       4.092  -7.814   1.428  1.00  0.00    -0.200 F 
ATOM     80  F   UNL     1       4.519 -10.497   1.174  1.00  0.00    -0.200 F 
ENDBRANCH  46  70
BRANCH  58  81
ATOM     81  C   UNL     1       0.266  -9.320  10.439  1.00  0.00     0.064 A 
ATOM     82  C   UNL     1       1.468  -8.748  10.880  1.00  0.00     0.173 A 
ATOM     83  C   UNL     1      -0.204 -10.460  11.108  1.00  0.00     0.173 A 
ATOM     84  F   UNL     1       1.968  -7.667  10.262  1.00  0.00    -0.203 F 
ATOM     85  C   UNL     1       2.189  -9.316  11.927  1.00  0.00     0.198 A 
ATOM     86  C   UNL     1       0.503 -11.007  12.175  1.00  0.00     0.198 A 
ATOM     87  F   UNL     1      -1.353 -11.041  10.730  1.00  0.00    -0.203 F 
ATOM     88  F   UNL     1       3.364  -8.787  12.293  1.00  0.00    -0.200 F 
ATOM     89  C   UNL     1       1.703 -10.441  12.577  1.00  0.00     0.200 A 
ATOM     90  F   UNL     1       0.026 -12.086  12.810  1.00  0.00    -0.200 F 
ATOM     91  F   UNL     1       2.398 -10.986  13.584  1.00  0.00    -0.200 F 
ENDBRANCH  58  81
ENDBRANCH  32  33
ENDBRANCH  24  27
ENDBRANCH  22  23
ENDBRANCH  21  22
ENDBRANCH  20  21
ENDBRANCH   3  20
TORSDOF 17
