REMARK SMILES CC(C)(O)CCOc1ccc(C(=O)NCCCNC(=O)c2ccc(-c3c4nc(c(-c5c(F)c(F)c(F)c(F)c5F)c5ccc([nH]5)c(-c5c(F)c(F)c(F)c(F)c5F)c5nc(c(-c6c(F)c(F)c(F)c(F)c6F)c6ccc3[nH]6)C=C5)C=C4)cc2)cc1
REMARK SMILES IDX 12 1 13 2 14 3 11 5 8 6 9 7 85 8 10 9 84 10 7 11 6 12 5 13
REMARK SMILES IDX 2 14 1 15 3 16 4 17 15 19 16 20 17 21 18 22 19 23 20 25
REMARK SMILES IDX 21 26 22 27 83 28 23 29 82 30 24 31 25 32 26 33 76 34 27 35
REMARK SMILES IDX 81 36 75 37 77 38 28 39 80 40 74 41 73 42 29 44 61 45 41 46
REMARK SMILES IDX 60 47 42 48 45 49 59 50 78 51 43 52 44 53 58 55 79 56 46 57
REMARK SMILES IDX 30 58 31 59 39 60 32 61 33 62 37 63 40 64 34 65 35 66 38 67
REMARK SMILES IDX 36 68 62 69 63 70 71 71 64 72 65 73 69 74 72 75 66 76 67 77
REMARK SMILES IDX 70 78 68 79 47 80 48 81 56 82 49 83 50 84 54 85 57 86 51 87
REMARK SMILES IDX 52 88 55 89 53 90
REMARK H PARENT 14 4 4 18 18 24 77 43 45 54
REMARK Flexibility Score: inf
ROOT
ATOM      1  C   UNL     1       0.148   3.447   2.246  1.00  0.00     0.251 C 
ATOM      2  O   UNL     1       0.235   4.669   2.341  1.00  0.00    -0.269 OA
ATOM      3  N   UNL     1       0.232   2.682   3.389  1.00  0.00    -0.352 N 
ATOM      4  H   UNL     1       0.263   3.201   4.225  1.00  0.00     0.163 HD
ENDROOT
BRANCH   1   5
ATOM      5  C   UNL     1       0.023   2.826   0.906  1.00  0.00     0.040 A 
ATOM      6  C   UNL     1       0.189   1.415  -1.499  1.00  0.00     0.119 A 
ATOM      7  C   UNL     1       0.909   2.601  -1.332  1.00  0.00     0.047 A 
ATOM      8  C   UNL     1      -0.783   1.082  -0.560  1.00  0.00     0.047 A 
ATOM      9  C   UNL     1       0.825   3.310  -0.131  1.00  0.00     0.017 A 
ATOM     10  C   UNL     1      -0.857   1.774   0.653  1.00  0.00     0.017 A 
BRANCH   6  11
ATOM     11  O   UNL     1       0.597   0.632  -2.541  1.00  0.00    -0.493 OA
BRANCH  11  12
ATOM     12  C   UNL     1       0.202  -0.743  -2.583  1.00  0.00     0.232 C 
BRANCH  12  13
ATOM     13  C   UNL     1       1.134  -1.747  -1.866  1.00  0.00     0.076 C 
BRANCH  13  14
ATOM     14  C   UNL     1       1.066  -1.853  -0.323  1.00  0.00     0.062 C 
ATOM     15  C   UNL     1       1.974  -0.830   0.369  1.00  0.00     0.042 C 
ATOM     16  C   UNL     1       1.495  -3.249   0.155  1.00  0.00     0.042 C 
BRANCH  14  17
ATOM     17  O   UNL     1      -0.287  -1.703   0.103  1.00  0.00    -0.390 OA
ATOM     18  H   UNL     1      -0.330  -1.769   1.070  1.00  0.00     0.211 HD
ENDBRANCH  14  17
ENDBRANCH  13  14
ENDBRANCH  12  13
ENDBRANCH  11  12
ENDBRANCH   6  11
ENDBRANCH   1   5
BRANCH   3  19
ATOM     19  C   UNL     1       0.282   1.238   3.574  1.00  0.00     0.118 C 
BRANCH  19  20
ATOM     20  C   UNL     1       1.522   0.766   4.330  1.00  0.00     0.042 C 
BRANCH  20  21
ATOM     21  C   UNL     1       1.564   1.142   5.808  1.00  0.00     0.118 C 
BRANCH  21  22
ATOM     22  N   UNL     1       0.536   0.476   6.599  1.00  0.00    -0.352 N 
ATOM     23  C   UNL     1       0.639  -0.314   7.718  1.00  0.00     0.251 C 
ATOM     24  H   UNL     1      -0.384   0.616   6.279  1.00  0.00     0.163 HD
ATOM     25  O   UNL     1      -0.360  -0.904   8.131  1.00  0.00    -0.269 OA
BRANCH  23  26
ATOM     26  C   UNL     1       1.929  -0.492   8.424  1.00  0.00     0.039 A 
ATOM     27  C   UNL     1       2.244  -1.751   8.947  1.00  0.00     0.014 A 
ATOM     28  C   UNL     1       2.814   0.572   8.609  1.00  0.00     0.014 A 
ATOM     29  C   UNL     1       3.470  -1.958   9.587  1.00  0.00     0.010 A 
ATOM     30  C   UNL     1       4.070   0.346   9.170  1.00  0.00     0.010 A 
ATOM     31  C   UNL     1       4.412  -0.920   9.668  1.00  0.00    -0.014 A 
BRANCH  31  32
ATOM     32  C   UNL     1       5.758  -1.140  10.260  1.00  0.00     0.031 A 
ATOM     33  C   UNL     1       6.183  -0.387  11.490  1.00  0.00     0.074 A 
ATOM     34  C   UNL     1       6.627  -1.966   9.647  1.00  0.00     0.049 A 
ATOM     35  N   UNL     1       7.333  -0.400  12.117  1.00  0.00    -0.248 NA
ATOM     36  C   UNL     1       5.191   0.526  12.077  1.00  0.00     0.031 C 
ATOM     37  C   UNL     1       6.353  -2.724   8.426  1.00  0.00     0.029 A 
ATOM     38  N   UNL     1       7.920  -2.302   9.963  1.00  0.00    -0.354 N 
ATOM     39  C   UNL     1       7.208   0.512  13.157  1.00  0.00     0.074 A 
ATOM     40  C   UNL     1       5.893   1.105  13.039  1.00  0.00     0.031 C 
ATOM     41  C   UNL     1       7.428  -3.464   8.117  1.00  0.00     0.029 A 
ATOM     42  C   UNL     1       8.484  -3.200   9.090  1.00  0.00     0.049 A 
ATOM     43  H   UNL     1       8.398  -1.935  10.742  1.00  0.00     0.167 HD
ATOM     44  C   UNL     1       8.099   0.814  14.133  1.00  0.00     0.037 A 
ATOM     45  C   UNL     1       9.715  -3.746   9.073  1.00  0.00     0.037 A 
ATOM     46  C   UNL     1       9.403   0.212  14.250  1.00  0.00     0.049 A 
ATOM     47  C   UNL     1      10.699  -3.373  10.147  1.00  0.00     0.074 A 
ATOM     48  C   UNL     1      10.354   0.396  15.238  1.00  0.00     0.029 A 
ATOM     49  N   UNL     1       9.945  -0.684  13.338  1.00  0.00    -0.354 N 
ATOM     50  N   UNL     1      10.544  -2.569  11.171  1.00  0.00    -0.248 NA
ATOM     51  C   UNL     1      12.031  -3.987  10.062  1.00  0.00     0.031 C 
ATOM     52  C   UNL     1      11.496  -0.335  14.889  1.00  0.00     0.029 A 
ATOM     53  C   UNL     1      11.232  -1.030  13.720  1.00  0.00     0.049 A 
ATOM     54  H   UNL     1       9.482  -1.023  12.538  1.00  0.00     0.167 HD
ATOM     55  C   UNL     1      11.743  -2.605  11.871  1.00  0.00     0.074 A 
ATOM     56  C   UNL     1      12.612  -3.520  11.159  1.00  0.00     0.031 C 
ATOM     57  C   UNL     1      12.089  -1.943  13.003  1.00  0.00     0.037 A 
BRANCH  44  58
ATOM     58  C   UNL     1       7.695   1.859  15.137  1.00  0.00     0.064 A 
ATOM     59  C   UNL     1       6.644   1.650  16.045  1.00  0.00     0.173 A 
ATOM     60  C   UNL     1       8.365   3.091  15.190  1.00  0.00     0.173 A 
ATOM     61  F   UNL     1       5.963   0.494  16.036  1.00  0.00    -0.203 F 
ATOM     62  C   UNL     1       6.245   2.652  16.927  1.00  0.00     0.198 A 
ATOM     63  C   UNL     1       7.989   4.076  16.101  1.00  0.00     0.198 A 
ATOM     64  F   UNL     1       9.385   3.344  14.356  1.00  0.00    -0.203 F 
ATOM     65  F   UNL     1       5.189   2.455  17.728  1.00  0.00    -0.200 F 
ATOM     66  C   UNL     1       6.920   3.862  16.956  1.00  0.00     0.200 A 
ATOM     67  F   UNL     1       8.655   5.239  16.140  1.00  0.00    -0.200 F 
ATOM     68  F   UNL     1       6.532   4.827  17.802  1.00  0.00    -0.200 F 
ENDBRANCH  44  58
BRANCH  45  69
ATOM     69  C   UNL     1      10.065  -4.744   8.028  1.00  0.00     0.064 A 
ATOM     70  C   UNL     1      10.239  -6.094   8.362  1.00  0.00     0.173 A 
ATOM     71  C   UNL     1      10.211  -4.380   6.682  1.00  0.00     0.173 A 
ATOM     72  F   UNL     1      10.129  -6.487   9.640  1.00  0.00    -0.203 F 
ATOM     73  C   UNL     1      10.556  -7.041   7.391  1.00  0.00     0.198 A 
ATOM     74  C   UNL     1      10.500  -5.333   5.707  1.00  0.00     0.198 A 
ATOM     75  F   UNL     1      10.049  -3.102   6.309  1.00  0.00    -0.203 F 
ATOM     76  F   UNL     1      10.750  -8.319   7.744  1.00  0.00    -0.200 F 
ATOM     77  C   UNL     1      10.678  -6.662   6.063  1.00  0.00     0.200 A 
ATOM     78  F   UNL     1      10.600  -4.966   4.422  1.00  0.00    -0.200 F 
ATOM     79  F   UNL     1      10.969  -7.575   5.127  1.00  0.00    -0.200 F 
ENDBRANCH  45  69
BRANCH  57  80
ATOM     80  C   UNL     1      13.456  -2.212  13.568  1.00  0.00     0.064 A 
ATOM     81  C   UNL     1      14.623  -1.766  12.929  1.00  0.00     0.173 A 
ATOM     82  C   UNL     1      13.597  -2.897  14.785  1.00  0.00     0.173 A 
ATOM     83  F   UNL     1      14.547  -1.121  11.755  1.00  0.00    -0.203 F 
ATOM     84  C   UNL     1      15.880  -2.022  13.473  1.00  0.00     0.198 A 
ATOM     85  C   UNL     1      14.852  -3.119  15.344  1.00  0.00     0.198 A 
ATOM     86  F   UNL     1      12.514  -3.340  15.441  1.00  0.00    -0.203 F 
ATOM     87  F   UNL     1      16.983  -1.635  12.817  1.00  0.00    -0.200 F 
ATOM     88  C   UNL     1      15.993  -2.689  14.683  1.00  0.00     0.200 A 
ATOM     89  F   UNL     1      14.958  -3.750  16.521  1.00  0.00    -0.200 F 
ATOM     90  F   UNL     1      17.203  -2.926  15.209  1.00  0.00    -0.200 F 
ENDBRANCH  57  80
ENDBRANCH  31  32
ENDBRANCH  23  26
ENDBRANCH  21  22
ENDBRANCH  20  21
ENDBRANCH  19  20
ENDBRANCH   3  19
TORSDOF 15
