REMARK SMILES Nc1ccc(O)c(C(=O)NCCCNC(=O)c2ccc(-c3c4nc(c(-c5c(F)c(F)c(F)c(F)c5F)c5ccc([nH]5)c(-c5c(F)c(F)c(F)c(F)c5F)c5nc(c(-c6c(F)c(F)c(F)c(F)c6F)c6ccc3[nH]6)C=C5)C=C4)cc2)c1
REMARK SMILES IDX 12 1 11 2 10 3 8 4 9 5 7 7 2 8 3 9 80 10 4 11 5 12 1 13 6 16
REMARK SMILES IDX 13 18 14 19 15 20 16 22 17 23 18 24 79 25 19 26 78 27 20 28
REMARK SMILES IDX 21 29 22 30 72 31 23 32 77 33 71 34 73 35 24 36 76 37 70 38
REMARK SMILES IDX 69 39 25 41 57 42 37 43 56 44 38 45 41 46 55 47 74 48 39 49
REMARK SMILES IDX 40 50 54 52 75 53 42 54 26 55 27 56 35 57 28 58 29 59 33 60
REMARK SMILES IDX 36 61 30 62 31 63 34 64 32 65 58 66 59 67 67 68 60 69 61 70
REMARK SMILES IDX 65 71 68 72 62 73 63 74 66 75 64 76 43 77 44 78 52 79 45 80
REMARK SMILES IDX 46 81 50 82 53 83 47 84 48 85 51 86 49 87
REMARK H PARENT 10 6 1 14 1 15 6 17 14 21 73 40 41 51
REMARK Flexibility Score: inf
ROOT
ATOM      1  C   UNL     1      -1.345  -4.548  -0.683  1.00  0.00     0.042 C 
ENDROOT
BRANCH   1   2
ATOM      2  C   UNL     1      -0.654  -3.964   0.548  1.00  0.00     0.118 C 
BRANCH   2   3
ATOM      3  N   UNL     1       0.700  -3.555   0.227  1.00  0.00    -0.352 N 
ATOM      4  C   UNL     1       1.276  -2.347  -0.062  1.00  0.00     0.255 C 
ATOM      5  O   UNL     1       2.494  -2.352  -0.271  1.00  0.00    -0.269 OA
ATOM      6  H   UNL     1       1.340  -4.304   0.214  1.00  0.00     0.163 HD
BRANCH   4   7
ATOM      7  C   UNL     1       0.565  -1.037  -0.076  1.00  0.00     0.083 A 
ATOM      8  C   UNL     1      -1.447   0.350  -0.144  1.00  0.00     0.032 A 
ATOM      9  C   UNL     1      -0.663   1.492   0.005  1.00  0.00     0.029 A 
ATOM     10  C   UNL     1      -0.817  -0.896  -0.260  1.00  0.00     0.043 A 
ATOM     11  C   UNL     1       0.722   1.389   0.113  1.00  0.00     0.049 A 
ATOM     12  C   UNL     1       1.327   0.135   0.083  1.00  0.00     0.128 A 
BRANCH   8  13
ATOM     13  N   UNL     1      -2.821   0.460  -0.308  1.00  0.00    -0.399 N 
ATOM     14  H   UNL     1      -3.257   1.338  -0.226  1.00  0.00     0.156 HD
ATOM     15  H   UNL     1      -3.358  -0.340  -0.508  1.00  0.00     0.156 HD
ENDBRANCH   8  13
BRANCH  12  16
ATOM     16  O   UNL     1       2.693   0.140   0.204  1.00  0.00    -0.507 OA
ATOM     17  H   UNL     1       3.152   0.951   0.308  1.00  0.00     0.293 HD
ENDBRANCH  12  16
ENDBRANCH   4   7
ENDBRANCH   2   3
ENDBRANCH   1   2
BRANCH   1  18
ATOM     18  C   UNL     1      -0.873  -5.965  -1.005  1.00  0.00     0.118 C 
BRANCH  18  19
ATOM     19  N   UNL     1      -1.318  -6.926  -0.001  1.00  0.00    -0.352 N 
ATOM     20  C   UNL     1      -2.135  -8.022  -0.133  1.00  0.00     0.251 C 
ATOM     21  H   UNL     1      -0.982  -6.764   0.909  1.00  0.00     0.163 HD
ATOM     22  O   UNL     1      -2.595  -8.568   0.863  1.00  0.00    -0.269 OA
BRANCH  20  23
ATOM     23  C   UNL     1      -2.466  -8.538  -1.476  1.00  0.00     0.039 A 
ATOM     24  C   UNL     1      -3.780  -8.923  -1.753  1.00  0.00     0.014 A 
ATOM     25  C   UNL     1      -1.476  -8.658  -2.454  1.00  0.00     0.014 A 
ATOM     26  C   UNL     1      -4.117  -9.361  -3.036  1.00  0.00     0.010 A 
ATOM     27  C   UNL     1      -1.827  -9.020  -3.749  1.00  0.00     0.010 A 
ATOM     28  C   UNL     1      -3.150  -9.373  -4.054  1.00  0.00    -0.014 A 
BRANCH  28  29
ATOM     29  C   UNL     1      -3.491  -9.742  -5.450  1.00  0.00     0.031 A 
ATOM     30  C   UNL     1      -2.844 -10.939  -6.088  1.00  0.00     0.074 A 
ATOM     31  C   UNL     1      -4.303  -8.944  -6.170  1.00  0.00     0.049 A 
ATOM     32  N   UNL     1      -2.896 -11.346  -7.331  1.00  0.00    -0.248 NA
ATOM     33  C   UNL     1      -2.001 -11.774  -5.218  1.00  0.00     0.031 C 
ATOM     34  C   UNL     1      -4.961  -7.736  -5.671  1.00  0.00     0.029 A 
ATOM     35  N   UNL     1      -4.696  -9.017  -7.484  1.00  0.00    -0.354 N 
ATOM     36  C   UNL     1      -2.078 -12.466  -7.395  1.00  0.00     0.074 A 
ATOM     37  C   UNL     1      -1.502 -12.646  -6.080  1.00  0.00     0.031 C 
ATOM     38  C   UNL     1      -5.683  -7.187  -6.660  1.00  0.00     0.029 A 
ATOM     39  C   UNL     1      -5.500  -7.974  -7.875  1.00  0.00     0.049 A 
ATOM     40  H   UNL     1      -4.427  -9.746  -8.087  1.00  0.00     0.167 HD
ATOM     41  C   UNL     1      -1.846 -13.281  -8.451  1.00  0.00     0.037 A 
ATOM     42  C   UNL     1      -6.013  -7.675  -9.084  1.00  0.00     0.037 A 
ATOM     43  C   UNL     1      -2.441 -13.105  -9.750  1.00  0.00     0.049 A 
ATOM     44  C   UNL     1      -5.718  -8.582 -10.249  1.00  0.00     0.074 A 
ATOM     45  C   UNL     1      -2.318 -13.908 -10.870  1.00  0.00     0.029 A 
ATOM     46  N   UNL     1      -3.267 -12.048 -10.103  1.00  0.00    -0.354 N 
ATOM     47  N   UNL     1      -4.996  -9.675 -10.284  1.00  0.00    -0.248 NA
ATOM     48  C   UNL     1      -6.311  -8.215 -11.542  1.00  0.00     0.031 C 
ATOM     49  C   UNL     1      -3.022 -13.305 -11.918  1.00  0.00     0.029 A 
ATOM     50  C   UNL     1      -3.638 -12.163 -11.433  1.00  0.00     0.049 A 
ATOM     51  H   UNL     1      -3.548 -11.323  -9.498  1.00  0.00     0.167 HD
ATOM     52  C   UNL     1      -5.075 -10.145 -11.588  1.00  0.00     0.074 A 
ATOM     53  C   UNL     1      -5.924  -9.223 -12.312  1.00  0.00     0.031 C 
ATOM     54  C   UNL     1      -4.499 -11.243 -12.134  1.00  0.00     0.037 A 
BRANCH  41  55
ATOM     55  C   UNL     1      -0.906 -14.436  -8.249  1.00  0.00     0.064 A 
ATOM     56  C   UNL     1      -1.238 -15.523  -7.427  1.00  0.00     0.173 A 
ATOM     57  C   UNL     1       0.327 -14.474  -8.918  1.00  0.00     0.173 A 
ATOM     58  F   UNL     1      -2.400 -15.534  -6.757  1.00  0.00    -0.203 F 
ATOM     59  C   UNL     1      -0.357 -16.588  -7.255  1.00  0.00     0.198 A 
ATOM     60  C   UNL     1       1.190 -15.557  -8.771  1.00  0.00     0.198 A 
ATOM     61  F   UNL     1       0.693 -13.465  -9.723  1.00  0.00    -0.203 F 
ATOM     62  F   UNL     1      -0.673 -17.589  -6.422  1.00  0.00    -0.200 F 
ATOM     63  C   UNL     1       0.852 -16.608  -7.934  1.00  0.00     0.200 A 
ATOM     64  F   UNL     1       2.351 -15.582  -9.441  1.00  0.00    -0.200 F 
ATOM     65  F   UNL     1       1.694 -17.639  -7.775  1.00  0.00    -0.200 F 
ENDBRANCH  41  55
BRANCH  42  66
ATOM     66  C   UNL     1      -6.866  -6.468  -9.253  1.00  0.00     0.064 A 
ATOM     67  C   UNL     1      -8.233  -6.588  -9.537  1.00  0.00     0.173 A 
ATOM     68  C   UNL     1      -6.335  -5.174  -9.140  1.00  0.00     0.173 A 
ATOM     69  F   UNL     1      -8.784  -7.803  -9.673  1.00  0.00    -0.203 F 
ATOM     70  C   UNL     1      -9.032  -5.462  -9.726  1.00  0.00     0.198 A 
ATOM     71  C   UNL     1      -7.142  -4.049  -9.297  1.00  0.00     0.198 A 
ATOM     72  F   UNL     1      -5.035  -5.003  -8.862  1.00  0.00    -0.203 F 
ATOM     73  F   UNL     1     -10.325  -5.607 -10.046  1.00  0.00    -0.200 F 
ATOM     74  C   UNL     1      -8.487  -4.193  -9.600  1.00  0.00     0.200 A 
ATOM     75  F   UNL     1      -6.615  -2.825  -9.156  1.00  0.00    -0.200 F 
ATOM     76  F   UNL     1      -9.257  -3.110  -9.776  1.00  0.00    -0.200 F 
ENDBRANCH  42  66
BRANCH  54  77
ATOM     77  C   UNL     1      -4.803 -11.543 -13.574  1.00  0.00     0.064 A 
ATOM     78  C   UNL     1      -4.276 -10.770 -14.618  1.00  0.00     0.173 A 
ATOM     79  C   UNL     1      -5.580 -12.663 -13.912  1.00  0.00     0.173 A 
ATOM     80  F   UNL     1      -3.540  -9.681 -14.348  1.00  0.00    -0.203 F 
ATOM     81  C   UNL     1      -4.529 -11.097 -15.948  1.00  0.00     0.198 A 
ATOM     82  C   UNL     1      -5.803 -13.005 -15.242  1.00  0.00     0.198 A 
ATOM     83  F   UNL     1      -6.102 -13.439 -12.951  1.00  0.00    -0.203 F 
ATOM     84  F   UNL     1      -4.049 -10.321 -16.930  1.00  0.00    -0.200 F 
ATOM     85  C   UNL     1      -5.282 -12.220 -16.259  1.00  0.00     0.200 A 
ATOM     86  F   UNL     1      -6.516 -14.100 -15.540  1.00  0.00    -0.200 F 
ATOM     87  F   UNL     1      -5.510 -12.542 -17.539  1.00  0.00    -0.200 F 
ENDBRANCH  54  77
ENDBRANCH  28  29
ENDBRANCH  20  23
ENDBRANCH  18  19
ENDBRANCH   1  18
TORSDOF 12
