REMARK SMILES O=C(NCCCNC(=O)[C@@H]1CCCC[C@@H]1C(=O)Nc1cccc(C(F)(F)F)c1)c1ccc(-c2c3nc(c(-c4c(F)c(F)c(F)c(F)c4F)c4ccc([nH]4)c(-c4c(F)c(F)c(F)c(F)c4F)c4nc(c(-c5c(F)c(F)c(F)c(F)c5F)c5ccc2[nH]5)C=C4)C=C3)cc1
REMARK SMILES IDX 5 1 4 2 3 3 1 4 2 5 29 7 30 8 91 9 31 10 90 11 32 12 33 13
REMARK SMILES IDX 34 14 84 15 35 16 89 17 83 18 85 19 36 20 88 21 82 22 81 23
REMARK SMILES IDX 37 25 69 26 49 27 68 28 50 29 53 30 67 31 86 32 51 33 52 34
REMARK SMILES IDX 66 36 87 37 54 38 38 39 39 40 47 41 40 42 41 43 45 44 48 45
REMARK SMILES IDX 42 46 43 47 46 48 44 49 70 50 71 51 79 52 72 53 73 54 77 55
REMARK SMILES IDX 80 56 74 57 75 58 78 59 76 60 55 61 56 62 64 63 57 64 58 65
REMARK SMILES IDX 62 66 65 67 59 68 60 69 63 70 61 71 6 72 7 73 8 74 9 76
REMARK SMILES IDX 10 77 11 78 15 79 12 80 14 81 13 82 16 83 17 84 18 85 19 87
REMARK SMILES IDX 20 88 28 89 21 90 23 91 22 92 24 93 25 94 26 95 27 96
REMARK H PARENT 3 6 85 24 53 35 7 75 18 86
REMARK Flexibility Score: inf
ROOT
ATOM      1  C   UNL     1       5.019   0.671   2.047  1.00  0.00     0.042 C 
ENDROOT
BRANCH   1   2
ATOM      2  C   UNL     1       4.578  -0.513   1.208  1.00  0.00     0.118 C 
BRANCH   2   3
ATOM      3  N   UNL     1       3.129  -0.526   0.983  1.00  0.00    -0.352 N 
ATOM      4  O   UNL     1       1.177  -0.122  -0.067  1.00  0.00    -0.269 OA
ATOM      5  C   UNL     1       2.393  -0.278  -0.149  1.00  0.00     0.251 C 
ATOM      6  H   UNL     1       2.594  -0.750   1.778  1.00  0.00     0.163 HD
BRANCH   5   7
ATOM      7  C   UNL     1       3.064  -0.199  -1.459  1.00  0.00     0.039 A 
ATOM      8  C   UNL     1       4.129  -1.051  -1.740  1.00  0.00     0.014 A 
ATOM      9  C   UNL     1       2.623   0.713  -2.422  1.00  0.00     0.014 A 
ATOM     10  C   UNL     1       4.885  -0.853  -2.878  1.00  0.00     0.010 A 
ATOM     11  C   UNL     1       3.294   0.804  -3.644  1.00  0.00     0.010 A 
ATOM     12  C   UNL     1       4.449   0.040  -3.867  1.00  0.00    -0.014 A 
BRANCH  12  13
ATOM     13  C   UNL     1       5.183   0.061  -5.154  1.00  0.00     0.031 A 
ATOM     14  C   UNL     1       5.874   1.299  -5.638  1.00  0.00     0.074 A 
ATOM     15  C   UNL     1       5.268  -1.094  -5.844  1.00  0.00     0.049 A 
ATOM     16  N   UNL     1       6.577   1.471  -6.729  1.00  0.00    -0.248 NA
ATOM     17  C   UNL     1       5.758   2.504  -4.804  1.00  0.00     0.031 C 
ATOM     18  C   UNL     1       4.627  -2.355  -5.453  1.00  0.00     0.029 A 
ATOM     19  N   UNL     1       5.955  -1.417  -6.983  1.00  0.00    -0.354 N 
ATOM     20  C   UNL     1       6.959   2.805  -6.729  1.00  0.00     0.074 A 
ATOM     21  C   UNL     1       6.400   3.405  -5.537  1.00  0.00     0.031 C 
ATOM     22  C   UNL     1       5.019  -3.328  -6.284  1.00  0.00     0.029 A 
ATOM     23  C   UNL     1       5.854  -2.744  -7.323  1.00  0.00     0.049 A 
ATOM     24  H   UNL     1       6.470  -0.762  -7.507  1.00  0.00     0.167 HD
ATOM     25  C   UNL     1       7.711   3.460  -7.646  1.00  0.00     0.037 A 
ATOM     26  C   UNL     1       6.357  -3.415  -8.374  1.00  0.00     0.037 A 
ATOM     27  C   UNL     1       8.278   2.836  -8.815  1.00  0.00     0.049 A 
ATOM     28  C   UNL     1       7.170  -2.656  -9.378  1.00  0.00     0.074 A 
ATOM     29  C   UNL     1       9.069   3.403  -9.799  1.00  0.00     0.029 A 
ATOM     30  N   UNL     1       8.114   1.500  -9.156  1.00  0.00    -0.354 N 
ATOM     31  N   UNL     1       7.522  -1.394  -9.369  1.00  0.00    -0.248 NA
ATOM     32  C   UNL     1       7.640  -3.408 -10.546  1.00  0.00     0.031 C 
ATOM     33  C   UNL     1       9.348   2.421 -10.756  1.00  0.00     0.029 A 
ATOM     34  C   UNL     1       8.773   1.229 -10.345  1.00  0.00     0.049 A 
ATOM     35  H   UNL     1       7.604   0.842  -8.631  1.00  0.00     0.167 HD
ATOM     36  C   UNL     1       8.260  -1.198 -10.524  1.00  0.00     0.074 A 
ATOM     37  C   UNL     1       8.329  -2.481 -11.196  1.00  0.00     0.031 C 
ATOM     38  C   UNL     1       8.823  -0.057 -10.993  1.00  0.00     0.037 A 
BRANCH  25  39
ATOM     39  C   UNL     1       7.941   4.929  -7.442  1.00  0.00     0.064 A 
ATOM     40  C   UNL     1       8.788   5.415  -6.435  1.00  0.00     0.173 A 
ATOM     41  C   UNL     1       7.338   5.865  -8.297  1.00  0.00     0.173 A 
ATOM     42  F   UNL     1       9.378   4.564  -5.582  1.00  0.00    -0.203 F 
ATOM     43  C   UNL     1       9.007   6.782  -6.279  1.00  0.00     0.198 A 
ATOM     44  C   UNL     1       7.580   7.229  -8.156  1.00  0.00     0.198 A 
ATOM     45  F   UNL     1       6.521   5.456  -9.279  1.00  0.00    -0.203 F 
ATOM     46  F   UNL     1       9.790   7.224  -5.285  1.00  0.00    -0.200 F 
ATOM     47  C   UNL     1       8.410   7.687  -7.144  1.00  0.00     0.200 A 
ATOM     48  F   UNL     1       7.011   8.101  -9.000  1.00  0.00    -0.200 F 
ATOM     49  F   UNL     1       8.630   9.001  -6.999  1.00  0.00    -0.200 F 
ENDBRANCH  25  39
BRANCH  26  50
ATOM     50  C   UNL     1       6.079  -4.866  -8.525  1.00  0.00     0.064 A 
ATOM     51  C   UNL     1       7.101  -5.814  -8.402  1.00  0.00     0.173 A 
ATOM     52  C   UNL     1       4.777  -5.335  -8.762  1.00  0.00     0.173 A 
ATOM     53  F   UNL     1       8.364  -5.415  -8.190  1.00  0.00    -0.203 F 
ATOM     54  C   UNL     1       6.835  -7.177  -8.520  1.00  0.00     0.198 A 
ATOM     55  C   UNL     1       4.507  -6.698  -8.845  1.00  0.00     0.198 A 
ATOM     56  F   UNL     1       3.760  -4.468  -8.878  1.00  0.00    -0.203 F 
ATOM     57  F   UNL     1       7.837  -8.063  -8.433  1.00  0.00    -0.200 F 
ATOM     58  C   UNL     1       5.537  -7.618  -8.732  1.00  0.00     0.200 A 
ATOM     59  F   UNL     1       3.248  -7.119  -9.026  1.00  0.00    -0.200 F 
ATOM     60  F   UNL     1       5.280  -8.930  -8.829  1.00  0.00    -0.200 F 
ENDBRANCH  26  50
BRANCH  38  61
ATOM     61  C   UNL     1       9.579  -0.163 -12.282  1.00  0.00     0.064 A 
ATOM     62  C   UNL     1       8.918  -0.328 -13.508  1.00  0.00     0.173 A 
ATOM     63  C   UNL     1      10.979  -0.082 -12.291  1.00  0.00     0.173 A 
ATOM     64  F   UNL     1       7.581  -0.431 -13.546  1.00  0.00    -0.203 F 
ATOM     65  C   UNL     1       9.635  -0.436 -14.696  1.00  0.00     0.198 A 
ATOM     66  C   UNL     1      11.691  -0.162 -13.484  1.00  0.00     0.198 A 
ATOM     67  F   UNL     1      11.655   0.078 -11.144  1.00  0.00    -0.203 F 
ATOM     68  F   UNL     1       8.988  -0.648 -15.850  1.00  0.00    -0.200 F 
ATOM     69  C   UNL     1      11.020  -0.347 -14.683  1.00  0.00     0.200 A 
ATOM     70  F   UNL     1      13.027  -0.065 -13.472  1.00  0.00    -0.200 F 
ATOM     71  F   UNL     1      11.708  -0.451 -15.828  1.00  0.00    -0.200 F 
ENDBRANCH  38  61
ENDBRANCH  12  13
ENDBRANCH   5   7
ENDBRANCH   2   3
ENDBRANCH   1   2
BRANCH   1  72
ATOM     72  C   UNL     1       4.437   0.599   3.439  1.00  0.00     0.117 C 
BRANCH  72  73
ATOM     73  N   UNL     1       5.333   0.051   4.423  1.00  0.00    -0.356 N 
ATOM     74  C   UNL     1       5.995   0.608   5.462  1.00  0.00     0.223 C 
ATOM     75  H   UNL     1       5.495  -0.915   4.319  1.00  0.00     0.163 HD
ATOM     76  O   UNL     1       6.395  -0.210   6.302  1.00  0.00    -0.275 OA
BRANCH  74  77
ATOM     77  C   UNL     1       6.433   2.082   5.557  1.00  0.00     0.091 C 
ATOM     78  C   UNL     1       6.813   2.400   7.021  1.00  0.00     0.014 C 
ATOM     79  C   UNL     1       5.734   3.234   4.821  1.00  0.00     0.091 C 
ATOM     80  C   UNL     1       7.178   3.845   7.361  1.00  0.00     0.001 C 
ATOM     81  C   UNL     1       6.543   4.528   5.025  1.00  0.00     0.014 C 
ATOM     82  C   UNL     1       6.553   4.923   6.489  1.00  0.00     0.001 C 
BRANCH  79  83
ATOM     83  C   UNL     1       4.225   3.589   4.840  1.00  0.00     0.228 C 
ATOM     84  O   UNL     1       3.813   4.454   4.055  1.00  0.00    -0.274 OA
ATOM     85  N   UNL     1       3.274   2.850   5.470  1.00  0.00    -0.326 N 
ATOM     86  H   UNL     1       2.435   2.741   4.965  1.00  0.00     0.169 HD
BRANCH  85  87
ATOM     87  C   UNL     1       3.293   2.225   6.709  1.00  0.00     0.041 A 
ATOM     88  C   UNL     1       2.761   0.944   6.827  1.00  0.00     0.026 A 
ATOM     89  C   UNL     1       3.704   2.920   7.840  1.00  0.00     0.039 A 
ATOM     90  C   UNL     1       2.766   0.305   8.066  1.00  0.00     0.003 A 
ATOM     91  C   UNL     1       3.698   2.298   9.096  1.00  0.00     0.058 A 
ATOM     92  C   UNL     1       3.246   0.974   9.194  1.00  0.00     0.013 A 
BRANCH  91  93
ATOM     93  C   UNL     1       4.235   3.023  10.303  1.00  0.00     0.416 C 
ATOM     94  F   UNL     1       3.460   2.855  11.409  1.00  0.00    -0.166 F 
ATOM     95  F   UNL     1       5.482   2.600  10.645  1.00  0.00    -0.166 F 
ATOM     96  F   UNL     1       4.337   4.370  10.119  1.00  0.00    -0.166 F 
ENDBRANCH  91  93
ENDBRANCH  85  87
ENDBRANCH  79  83
ENDBRANCH  74  77
ENDBRANCH  72  73
ENDBRANCH   1  72
TORSDOF 13
