REMARK SMILES Cc1cc(NC(=O)c2ccc3ncsc3c2)sc1C(=O)NCCCNC(=O)c1ccc(-c2c3nc(c(-c4c(F)c(F)c(F)c(F)c4F)c4ccc([nH]4)c(-c4c(F)c(F)c(F)c(F)c4F)c4nc(c(-c5c(F)c(F)c(F)c(F)c5F)c5ccc2[nH]5)C=C4)C=C3)cc1
REMARK SMILES IDX 23 1 22 2 21 3 19 4 20 5 18 7 1 8 2 9 3 10 4 11 17 12 5 13
REMARK SMILES IDX 6 14 7 16 8 17 9 18 16 19 10 20 15 21 11 22 14 23 12 24
REMARK SMILES IDX 13 25 24 26 25 27 26 28 27 30 28 31 29 32 90 33 30 34 89 35
REMARK SMILES IDX 31 36 32 37 33 38 83 39 34 40 88 41 82 42 84 43 35 44 87 45
REMARK SMILES IDX 81 46 80 47 36 49 68 50 48 51 67 52 49 53 52 54 66 55 85 56
REMARK SMILES IDX 50 57 51 58 65 60 86 61 53 62 37 63 38 64 46 65 39 66 40 67
REMARK SMILES IDX 44 68 47 69 41 70 42 71 45 72 43 73 69 74 70 75 78 76 71 77
REMARK SMILES IDX 72 78 76 79 79 80 73 81 74 82 77 83 75 84 54 85 55 86 63 87
REMARK SMILES IDX 56 88 57 89 61 90 64 91 58 92 59 93 62 94 60 95
REMARK H PARENT 21 6 5 15 25 29 84 48 52 59
REMARK Flexibility Score: inf
ROOT
ATOM      1  C   UNL     1       3.743  -2.720   0.641  1.00  0.00     0.042 C 
ENDROOT
BRANCH   1   2
ATOM      2  C   UNL     1       2.833  -2.688  -0.584  1.00  0.00     0.118 C 
BRANCH   2   3
ATOM      3  N   UNL     1       1.467  -2.995  -0.241  1.00  0.00    -0.351 N 
ATOM      4  C   UNL     1       0.356  -2.228   0.006  1.00  0.00     0.261 C 
ATOM      5  O   UNL     1      -0.673  -2.910   0.095  1.00  0.00    -0.268 OA
ATOM      6  H   UNL     1       1.293  -3.961  -0.169  1.00  0.00     0.163 HD
BRANCH   4   7
ATOM      7  C   UNL     1       0.343  -0.769   0.171  1.00  0.00     0.097 A 
ATOM      8  C   UNL     1       2.741   0.286   0.561  1.00  0.00     0.046 C 
ATOM      9  C   UNL     1       1.256   0.246   0.478  1.00  0.00    -0.025 A 
ATOM     10  C   UNL     1       0.567   1.456   0.813  1.00  0.00     0.042 A 
ATOM     11  C   UNL     1      -0.689   1.499   0.290  1.00  0.00     0.096 A 
ATOM     12  S   UNL     1      -1.256  -0.049  -0.042  1.00  0.00    -0.112 S 
BRANCH  11  13
ATOM     13  N   UNL     1      -1.528   2.551   0.013  1.00  0.00    -0.314 N 
ATOM     14  C   UNL     1      -1.146   3.876  -0.134  1.00  0.00     0.256 C 
ATOM     15  H   UNL     1      -2.486   2.347  -0.090  1.00  0.00     0.171 HD
ATOM     16  O   UNL     1      -1.971   4.781  -0.195  1.00  0.00    -0.269 OA
BRANCH  14  17
ATOM     17  C   UNL     1       0.294   4.218  -0.284  1.00  0.00     0.041 A 
ATOM     18  C   UNL     1       1.037   3.666  -1.333  1.00  0.00     0.016 A 
ATOM     19  C   UNL     1       0.905   4.989   0.714  1.00  0.00     0.035 A 
ATOM     20  C   UNL     1       2.431   3.790  -1.348  1.00  0.00     0.030 A 
ATOM     21  C   UNL     1       2.309   5.083   0.694  1.00  0.00     0.055 A 
ATOM     22  C   UNL     1       3.082   4.482  -0.306  1.00  0.00     0.081 A 
ATOM     23  S   UNL     1       3.362   5.852   1.823  1.00  0.00    -0.122 S 
ATOM     24  N   UNL     1       4.453   4.606  -0.155  1.00  0.00    -0.245 NA
ATOM     25  C   UNL     1       4.714   5.305   0.925  1.00  0.00     0.176 A 
ENDBRANCH  14  17
ENDBRANCH  11  13
ENDBRANCH   4   7
ENDBRANCH   2   3
ENDBRANCH   1   2
BRANCH   1  26
ATOM     26  C   UNL     1       4.344  -4.084   0.943  1.00  0.00     0.118 C 
BRANCH  26  27
ATOM     27  N   UNL     1       5.370  -4.446  -0.023  1.00  0.00    -0.352 N 
ATOM     28  C   UNL     1       6.725  -4.607   0.127  1.00  0.00     0.251 C 
ATOM     29  H   UNL     1       5.037  -4.600  -0.936  1.00  0.00     0.163 HD
ATOM     30  O   UNL     1       7.430  -4.659  -0.876  1.00  0.00    -0.269 OA
BRANCH  28  31
ATOM     31  C   UNL     1       7.351  -4.716   1.466  1.00  0.00     0.039 A 
ATOM     32  C   UNL     1       8.645  -4.211   1.643  1.00  0.00     0.014 A 
ATOM     33  C   UNL     1       6.719  -5.370   2.526  1.00  0.00     0.014 A 
ATOM     34  C   UNL     1       9.280  -4.325   2.883  1.00  0.00     0.010 A 
ATOM     35  C   UNL     1       7.313  -5.401   3.786  1.00  0.00     0.010 A 
ATOM     36  C   UNL     1       8.607  -4.897   3.974  1.00  0.00    -0.014 A 
BRANCH  36  37
ATOM     37  C   UNL     1       9.249  -5.007   5.309  1.00  0.00     0.031 A 
ATOM     38  C   UNL     1       9.510  -6.361   5.911  1.00  0.00     0.074 A 
ATOM     39  C   UNL     1       9.537  -3.890   6.004  1.00  0.00     0.049 A 
ATOM     40  N   UNL     1       9.981  -6.667   7.094  1.00  0.00    -0.248 NA
ATOM     41  C   UNL     1       9.167  -7.529   5.085  1.00  0.00     0.031 C 
ATOM     42  C   UNL     1       9.287  -2.523   5.548  1.00  0.00     0.029 A 
ATOM     43  N   UNL     1      10.091  -3.729   7.249  1.00  0.00    -0.354 N 
ATOM     44  C   UNL     1       9.971  -8.054   7.159  1.00  0.00     0.074 A 
ATOM     45  C   UNL     1       9.396  -8.531   5.920  1.00  0.00     0.031 C 
ATOM     46  C   UNL     1       9.706  -1.662   6.488  1.00  0.00     0.029 A 
ATOM     47  C   UNL     1      10.217  -2.415   7.629  1.00  0.00     0.049 A 
ATOM     48  H   UNL     1      10.372  -4.483   7.816  1.00  0.00     0.167 HD
ATOM     49  C   UNL     1      10.424  -8.858   8.151  1.00  0.00     0.037 A 
ATOM     50  C   UNL     1      10.685  -1.880   8.772  1.00  0.00     0.037 A 
ATOM     51  C   UNL     1      11.023  -8.378   9.368  1.00  0.00     0.049 A 
ATOM     52  C   UNL     1      11.189  -2.794   9.856  1.00  0.00     0.074 A 
ATOM     53  C   UNL     1      11.566  -9.108  10.410  1.00  0.00     0.029 A 
ATOM     54  N   UNL     1      11.159  -7.039   9.704  1.00  0.00    -0.354 N 
ATOM     55  N   UNL     1      11.231  -4.104   9.880  1.00  0.00    -0.248 NA
ATOM     56  C   UNL     1      11.720  -2.154  11.067  1.00  0.00     0.031 C 
ATOM     57  C   UNL     1      11.992  -8.212  11.396  1.00  0.00     0.029 A 
ATOM     58  C   UNL     1      11.761  -6.922  10.947  1.00  0.00     0.049 A 
ATOM     59  H   UNL     1      10.870  -6.283   9.143  1.00  0.00     0.167 HD
ATOM     60  C   UNL     1      11.814  -4.445  11.092  1.00  0.00     0.074 A 
ATOM     61  C   UNL     1      12.125  -3.203  11.769  1.00  0.00     0.031 C 
ATOM     62  C   UNL     1      12.069  -5.676  11.601  1.00  0.00     0.037 A 
BRANCH  49  63
ATOM     63  C   UNL     1      10.293 -10.342   7.957  1.00  0.00     0.064 A 
ATOM     64  C   UNL     1      11.060 -11.030   7.003  1.00  0.00     0.173 A 
ATOM     65  C   UNL     1       9.414 -11.092   8.753  1.00  0.00     0.173 A 
ATOM     66  F   UNL     1      11.907 -10.360   6.207  1.00  0.00    -0.203 F 
ATOM     67  C   UNL     1      10.928 -12.406   6.832  1.00  0.00     0.198 A 
ATOM     68  C   UNL     1       9.308 -12.473   8.601  1.00  0.00     0.198 A 
ATOM     69  F   UNL     1       8.661 -10.487   9.684  1.00  0.00    -0.203 F 
ATOM     70  F   UNL     1      11.631 -13.031   5.878  1.00  0.00    -0.200 F 
ATOM     71  C   UNL     1      10.057 -13.127   7.635  1.00  0.00     0.200 A 
ATOM     72  F   UNL     1       8.476 -13.170   9.387  1.00  0.00    -0.200 F 
ATOM     73  F   UNL     1       9.935 -14.452   7.474  1.00  0.00    -0.200 F 
ENDBRANCH  49  63
BRANCH  50  74
ATOM     74  C   UNL     1      10.725  -0.403   8.936  1.00  0.00     0.064 A 
ATOM     75  C   UNL     1      11.945   0.286   8.951  1.00  0.00     0.173 A 
ATOM     76  C   UNL     1       9.549   0.349   9.073  1.00  0.00     0.173 A 
ATOM     77  F   UNL     1      13.098  -0.392   8.842  1.00  0.00    -0.203 F 
ATOM     78  C   UNL     1      11.990   1.669   9.116  1.00  0.00     0.198 A 
ATOM     79  C   UNL     1       9.593   1.735   9.209  1.00  0.00     0.198 A 
ATOM     80  F   UNL     1       8.355  -0.261   9.057  1.00  0.00    -0.203 F 
ATOM     81  F   UNL     1      13.172   2.297   9.169  1.00  0.00    -0.200 F 
ATOM     82  C   UNL     1      10.814   2.393   9.238  1.00  0.00     0.200 A 
ATOM     83  F   UNL     1       8.454   2.433   9.309  1.00  0.00    -0.200 F 
ATOM     84  F   UNL     1      10.857   3.724   9.389  1.00  0.00    -0.200 F 
ENDBRANCH  50  74
BRANCH  62  85
ATOM     85  C   UNL     1      12.745  -5.739  12.939  1.00  0.00     0.064 A 
ATOM     86  C   UNL     1      12.072  -5.401  14.121  1.00  0.00     0.173 A 
ATOM     87  C   UNL     1      14.074  -6.178  13.040  1.00  0.00     0.173 A 
ATOM     88  F   UNL     1      10.805  -4.960  14.075  1.00  0.00    -0.203 F 
ATOM     89  C   UNL     1      12.712  -5.476  15.355  1.00  0.00     0.198 A 
ATOM     90  C   UNL     1      14.701  -6.282  14.279  1.00  0.00     0.198 A 
ATOM     91  F   UNL     1      14.760  -6.520  11.939  1.00  0.00    -0.203 F 
ATOM     92  F   UNL     1      12.065  -5.102  16.467  1.00  0.00    -0.200 F 
ATOM     93  C   UNL     1      14.023  -5.923  15.434  1.00  0.00     0.200 A 
ATOM     94  F   UNL     1      15.963  -6.727  14.354  1.00  0.00    -0.200 F 
ATOM     95  F   UNL     1      14.635  -6.001  16.623  1.00  0.00    -0.200 F 
ENDBRANCH  62  85
ENDBRANCH  36  37
ENDBRANCH  28  31
ENDBRANCH  26  27
ENDBRANCH   1  26
TORSDOF 12
