REMARK SMILES CCCCCCNC(=O)Oc1cccc(-c2ccc([C@@H](C)C(=O)NCCCNC(=O)c3ccc(-c4c5nc(c(-c6c(F)c(F)c(F)c(F)c6F)c6ccc([nH]6)c(-c6c(F)c(F)c(F)c(F)c6F)c6nc(c(-c7c(F)c(F)c(F)c(F)c7F)c7ccc4[nH]7)C=C6)C=C5)cc3)cc2N)c1
REMARK SMILES IDX 16 1 17 2 18 3 19 4 94 5 95 6 15 7 11 8 12 9 97 10 13 11
REMARK SMILES IDX 14 12 10 13 8 14 7 15 9 17 6 18 5 19 4 20 3 21 2 22 1 23
REMARK SMILES IDX 96 24 20 27 21 28 22 29 23 30 24 31 25 33 26 34 27 35 28 36
REMARK SMILES IDX 29 37 30 39 31 40 32 41 93 42 33 43 92 44 34 45 35 46 36 47
REMARK SMILES IDX 86 48 37 49 91 50 85 51 87 52 38 53 90 54 84 55 83 56 39 58
REMARK SMILES IDX 71 59 51 60 70 61 52 62 55 63 69 64 88 65 53 66 54 67 68 69
REMARK SMILES IDX 89 70 56 71 40 72 41 73 49 74 42 75 43 76 47 77 50 78 44 79
REMARK SMILES IDX 45 80 48 81 46 82 72 83 73 84 81 85 74 86 75 87 79 88 82 89
REMARK SMILES IDX 76 90 77 91 80 92 78 93 57 94 58 95 66 96 59 97 60 98 64 99
REMARK SMILES IDX 67 100 61 101 62 102 65 103 63 104
REMARK H PARENT 7 16 96 25 96 26 24 32 28 38 87 57 55 68
REMARK Flexibility Score: inf
ROOT
ATOM      1  C   UNL     1      -5.085  -5.904   7.658  1.00  0.00     0.005 A 
ATOM      2  C   UNL     1      -5.555  -6.997   8.411  1.00  0.00     0.011 A 
ATOM      3  C   UNL     1      -5.438  -7.043   9.803  1.00  0.00     0.005 A 
ATOM      4  C   UNL     1      -4.751  -6.047  10.492  1.00  0.00    -0.034 A 
ATOM      5  C   UNL     1      -4.309  -4.937   9.755  1.00  0.00     0.030 A 
ATOM      6  C   UNL     1      -4.538  -4.812   8.372  1.00  0.00     0.040 A 
ENDROOT
BRANCH   1   7
ATOM      7  C   UNL     1      -5.184  -5.956   6.176  1.00  0.00    -0.013 A 
ATOM      8  C   UNL     1      -4.238  -5.586   3.962  1.00  0.00     0.133 A 
ATOM      9  C   UNL     1      -5.396  -6.055   3.352  1.00  0.00     0.047 A 
ATOM     10  C   UNL     1      -4.118  -5.552   5.353  1.00  0.00     0.056 A 
ATOM     11  C   UNL     1      -6.449  -6.497   4.145  1.00  0.00     0.004 A 
ATOM     12  C   UNL     1      -6.348  -6.433   5.539  1.00  0.00     0.009 A 
BRANCH   8  13
ATOM     13  O   UNL     1      -3.280  -4.990   3.123  1.00  0.00    -0.410 OA
BRANCH  13  14
ATOM     14  C   UNL     1      -1.934  -5.271   3.299  1.00  0.00     0.412 C 
ATOM     15  N   UNL     1      -1.121  -4.452   2.562  1.00  0.00    -0.321 N 
ATOM     16  H   UNL     1      -0.154  -4.628   2.614  1.00  0.00     0.167 HD
ATOM     17  O   UNL     1      -1.469  -6.149   4.014  1.00  0.00    -0.224 OA
BRANCH  15  18
ATOM     18  C   UNL     1      -1.538  -3.352   1.714  1.00  0.00     0.119 C 
BRANCH  18  19
ATOM     19  C   UNL     1      -0.946  -2.018   2.171  1.00  0.00     0.021 C 
BRANCH  19  20
ATOM     20  C   UNL     1       0.583  -1.928   2.092  1.00  0.00     0.002 C 
BRANCH  20  21
ATOM     21  C   UNL     1       1.189  -2.177   0.706  1.00  0.00    -0.000 C 
BRANCH  21  22
ATOM     22  C   UNL     1       0.701  -1.241  -0.402  1.00  0.00    -0.003 C 
ATOM     23  C   UNL     1       1.064   0.217  -0.162  1.00  0.00     0.004 C 
ENDBRANCH  21  22
ENDBRANCH  20  21
ENDBRANCH  19  20
ENDBRANCH  18  19
ENDBRANCH  15  18
ENDBRANCH  13  14
ENDBRANCH   8  13
ENDBRANCH   1   7
BRANCH   6  24
ATOM     24  N   UNL     1      -4.107  -3.641   7.744  1.00  0.00    -0.398 N 
ATOM     25  H   UNL     1      -4.251  -3.520   6.777  1.00  0.00     0.156 HD
ATOM     26  H   UNL     1      -3.659  -2.938   8.267  1.00  0.00     0.156 HD
ENDBRANCH   6  24
BRANCH   4  27
ATOM     27  C   UNL     1      -4.451  -6.127  11.981  1.00  0.00     0.105 C 
ATOM     28  C   UNL     1      -5.649  -6.450  12.873  1.00  0.00     0.023 C 
BRANCH  27  29
ATOM     29  C   UNL     1      -3.170  -6.906  12.318  1.00  0.00     0.227 C 
ATOM     30  O   UNL     1      -2.136  -6.292  12.609  1.00  0.00    -0.274 OA
ATOM     31  N   UNL     1      -3.080  -8.263  12.336  1.00  0.00    -0.356 N 
ATOM     32  H   UNL     1      -2.207  -8.601  12.641  1.00  0.00     0.163 HD
BRANCH  31  33
ATOM     33  C   UNL     1      -4.025  -9.307  11.991  1.00  0.00     0.117 C 
BRANCH  33  34
ATOM     34  C   UNL     1      -3.797  -9.849  10.582  1.00  0.00     0.042 C 
BRANCH  34  35
ATOM     35  C   UNL     1      -2.675 -10.875  10.490  1.00  0.00     0.118 C 
BRANCH  35  36
ATOM     36  N   UNL     1      -3.037 -12.144  11.109  1.00  0.00    -0.352 N 
ATOM     37  C   UNL     1      -3.226 -13.388  10.558  1.00  0.00     0.251 C 
ATOM     38  H   UNL     1      -3.167 -12.103  12.084  1.00  0.00     0.163 HD
ATOM     39  O   UNL     1      -3.741 -14.272  11.238  1.00  0.00    -0.269 OA
BRANCH  37  40
ATOM     40  C   UNL     1      -2.834 -13.680   9.160  1.00  0.00     0.039 A 
ATOM     41  C   UNL     1      -3.644 -14.530   8.398  1.00  0.00     0.014 A 
ATOM     42  C   UNL     1      -1.654 -13.176   8.609  1.00  0.00     0.014 A 
ATOM     43  C   UNL     1      -3.305 -14.821   7.074  1.00  0.00     0.010 A 
ATOM     44  C   UNL     1      -1.357 -13.401   7.266  1.00  0.00     0.010 A 
ATOM     45  C   UNL     1      -2.176 -14.231   6.486  1.00  0.00    -0.014 A 
BRANCH  45  46
ATOM     46  C   UNL     1      -1.826 -14.471   5.062  1.00  0.00     0.031 A 
ATOM     47  C   UNL     1      -0.540 -15.165   4.706  1.00  0.00     0.074 A 
ATOM     48  C   UNL     1      -2.628 -13.998   4.090  1.00  0.00     0.049 A 
ATOM     49  N   UNL     1      -0.009 -15.376   3.528  1.00  0.00    -0.248 NA
ATOM     50  C   UNL     1       0.270 -15.668   5.827  1.00  0.00     0.031 C 
ATOM     51  C   UNL     1      -3.880 -13.271   4.305  1.00  0.00     0.029 A 
ATOM     52  N   UNL     1      -2.500 -14.040   2.723  1.00  0.00    -0.354 N 
ATOM     53  C   UNL     1       1.202 -16.013   3.767  1.00  0.00     0.074 A 
ATOM     54  C   UNL     1       1.350 -16.114   5.203  1.00  0.00     0.031 C 
ATOM     55  C   UNL     1      -4.413 -12.950   3.116  1.00  0.00     0.029 A 
ATOM     56  C   UNL     1      -3.521 -13.410   2.055  1.00  0.00     0.049 A 
ATOM     57  H   UNL     1      -1.748 -14.481   2.266  1.00  0.00     0.167 HD
ATOM     58  C   UNL     1       2.099 -16.487   2.870  1.00  0.00     0.037 A 
ATOM     59  C   UNL     1      -3.710 -13.213   0.737  1.00  0.00     0.037 A 
ATOM     60  C   UNL     1       1.936 -16.408   1.442  1.00  0.00     0.049 A 
ATOM     61  C   UNL     1      -2.695 -13.742  -0.238  1.00  0.00     0.074 A 
ATOM     62  C   UNL     1       2.758 -16.913   0.450  1.00  0.00     0.029 A 
ATOM     63  N   UNL     1       0.877 -15.779   0.803  1.00  0.00    -0.354 N 
ATOM     64  N   UNL     1      -1.585 -14.399  -0.003  1.00  0.00    -0.248 NA
ATOM     65  C   UNL     1      -2.960 -13.506  -1.665  1.00  0.00     0.031 C 
ATOM     66  C   UNL     1       2.218 -16.554  -0.790  1.00  0.00     0.029 A 
ATOM     67  C   UNL     1       1.036 -15.866  -0.571  1.00  0.00     0.049 A 
ATOM     68  H   UNL     1       0.125 -15.336   1.259  1.00  0.00     0.167 HD
ATOM     69  C   UNL     1      -1.033 -14.675  -1.247  1.00  0.00     0.074 A 
ATOM     70  C   UNL     1      -1.939 -14.128  -2.236  1.00  0.00     0.031 C 
ATOM     71  C   UNL     1       0.120 -15.323  -1.542  1.00  0.00     0.037 A 
BRANCH  58  72
ATOM     72  C   UNL     1       3.340 -17.140   3.409  1.00  0.00     0.064 A 
ATOM     73  C   UNL     1       3.295 -18.386   4.053  1.00  0.00     0.173 A 
ATOM     74  C   UNL     1       4.593 -16.529   3.250  1.00  0.00     0.173 A 
ATOM     75  F   UNL     1       2.120 -19.007   4.239  1.00  0.00    -0.203 F 
ATOM     76  C   UNL     1       4.453 -18.981   4.545  1.00  0.00     0.198 A 
ATOM     77  C   UNL     1       5.753 -17.142   3.717  1.00  0.00     0.198 A 
ATOM     78  F   UNL     1       4.695 -15.342   2.634  1.00  0.00    -0.203 F 
ATOM     79  F   UNL     1       4.378 -20.147   5.201  1.00  0.00    -0.200 F 
ATOM     80  C   UNL     1       5.681 -18.362   4.372  1.00  0.00     0.200 A 
ATOM     81  F   UNL     1       6.942 -16.549   3.536  1.00  0.00    -0.200 F 
ATOM     82  F   UNL     1       6.796 -18.939   4.841  1.00  0.00    -0.200 F 
ENDBRANCH  58  72
BRANCH  59  83
ATOM     83  C   UNL     1      -4.925 -12.501   0.262  1.00  0.00     0.064 A 
ATOM     84  C   UNL     1      -5.940 -13.191  -0.416  1.00  0.00     0.173 A 
ATOM     85  C   UNL     1      -5.099 -11.126   0.475  1.00  0.00     0.173 A 
ATOM     86  F   UNL     1      -5.808 -14.502  -0.663  1.00  0.00    -0.203 F 
ATOM     87  C   UNL     1      -7.077 -12.529  -0.875  1.00  0.00     0.198 A 
ATOM     88  C   UNL     1      -6.249 -10.471   0.040  1.00  0.00     0.198 A 
ATOM     89  F   UNL     1      -4.158 -10.421   1.119  1.00  0.00    -0.203 F 
ATOM     90  F   UNL     1      -8.012 -13.204  -1.556  1.00  0.00    -0.200 F 
ATOM     91  C   UNL     1      -7.233 -11.171  -0.642  1.00  0.00     0.200 A 
ATOM     92  F   UNL     1      -6.404  -9.161   0.279  1.00  0.00    -0.200 F 
ATOM     93  F   UNL     1      -8.329 -10.537  -1.079  1.00  0.00    -0.200 F 
ENDBRANCH  59  83
BRANCH  71  94
ATOM     94  C   UNL     1       0.453 -15.508  -2.993  1.00  0.00     0.064 A 
ATOM     95  C   UNL     1       0.885 -14.438  -3.790  1.00  0.00     0.173 A 
ATOM     96  C   UNL     1       0.381 -16.779  -3.581  1.00  0.00     0.173 A 
ATOM     97  F   UNL     1       0.955 -13.200  -3.278  1.00  0.00    -0.203 F 
ATOM     98  C   UNL     1       1.214 -14.631  -5.129  1.00  0.00     0.198 A 
ATOM     99  C   UNL     1       0.737 -16.974  -4.912  1.00  0.00     0.198 A 
ATOM    100  F   UNL     1      -0.022 -17.836  -2.860  1.00  0.00    -0.203 F 
ATOM    101  F   UNL     1       1.584 -13.587  -5.883  1.00  0.00    -0.200 F 
ATOM    102  C   UNL     1       1.148 -15.899  -5.686  1.00  0.00     0.200 A 
ATOM    103  F   UNL     1       0.684 -18.202  -5.446  1.00  0.00    -0.200 F 
ATOM    104  F   UNL     1       1.473 -16.085  -6.973  1.00  0.00    -0.200 F 
ENDBRANCH  71  94
ENDBRANCH  45  46
ENDBRANCH  37  40
ENDBRANCH  35  36
ENDBRANCH  34  35
ENDBRANCH  33  34
ENDBRANCH  31  33
ENDBRANCH  27  29
ENDBRANCH   4  27
TORSDOF 20
