REMARK SMILES Cc1cc(C)n(CC(=O)N[C@H]2C=C[C@@H](C(=O)NCCCNC(=O)c3ccc(-c4c5nc(c(-c6c(F)c(F)c(F)c(F)c6F)c6ccc([nH]6)c(-c6c(F)c(F)c(F)c(F)c6F)c6nc(c(-c7c(F)c(F)c(F)c(F)c7F)c7ccc4[nH]7)C=C6)C=C5)cc3)C2)n1
REMARK SMILES IDX 18 1 17 2 15 3 16 4 14 6 11 7 12 8 87 9 13 10 10 11 8 12
REMARK SMILES IDX 9 13 7 15 6 16 1 17 2 18 3 19 88 20 4 21 5 22 19 23 20 24
REMARK SMILES IDX 21 25 22 26 23 28 24 29 25 30 86 31 26 32 85 33 27 34 28 35
REMARK SMILES IDX 29 36 79 37 30 38 84 39 78 40 80 41 31 42 83 43 77 44 76 45
REMARK SMILES IDX 32 47 64 48 44 49 63 50 45 51 48 52 62 53 81 54 46 55 47 56
REMARK SMILES IDX 61 58 82 59 49 60 33 61 34 62 42 63 35 64 36 65 40 66 43 67
REMARK SMILES IDX 37 68 38 69 41 70 39 71 65 72 66 73 74 74 67 75 68 76 72 77
REMARK SMILES IDX 75 78 69 79 70 80 73 81 71 82 50 83 51 84 59 85 52 86 53 87
REMARK SMILES IDX 57 88 60 89 54 90 55 91 58 92 56 93
REMARK H PARENT 17 5 10 14 21 27 80 46 48 57
REMARK Flexibility Score: inf
ROOT
ATOM      1  C   UNL     1       1.111   0.837  -3.465  1.00  0.00     0.117 C 
ENDROOT
BRANCH   1   2
ATOM      2  N   UNL     1       1.889  -0.268  -2.949  1.00  0.00    -0.356 N 
ATOM      3  C   UNL     1       2.894  -0.249  -2.032  1.00  0.00     0.227 C 
ATOM      4  O   UNL     1       3.081  -1.304  -1.411  1.00  0.00    -0.274 OA
ATOM      5  H   UNL     1       1.660  -1.154  -3.310  1.00  0.00     0.163 HD
BRANCH   3   6
ATOM      6  C   UNL     1       3.774   0.976  -1.728  1.00  0.00     0.103 C 
ATOM      7  C   UNL     1       3.752   3.347  -2.476  1.00  0.00     0.106 C 
ATOM      8  C   UNL     1       3.241   3.175  -1.099  1.00  0.00    -0.006 C 
ATOM      9  C   UNL     1       4.188   1.911  -2.873  1.00  0.00     0.047 C 
ATOM     10  C   UNL     1       3.220   1.899  -0.700  1.00  0.00    -0.016 C 
BRANCH   7  11
ATOM     11  N   UNL     1       2.800   3.885  -3.445  1.00  0.00    -0.348 N 
ATOM     12  C   UNL     1       1.621   4.557  -3.421  1.00  0.00     0.242 C 
ATOM     13  O   UNL     1       1.192   4.906  -4.529  1.00  0.00    -0.273 OA
ATOM     14  H   UNL     1       3.095   3.712  -4.369  1.00  0.00     0.164 HD
BRANCH  12  15
ATOM     15  C   UNL     1       0.829   4.879  -2.175  1.00  0.00     0.244 C 
BRANCH  15  16
ATOM     16  N   UNL     1      -0.065   3.802  -1.784  1.00  0.00    -0.260 N 
ATOM     17  C   UNL     1      -0.569   0.982   0.297  1.00  0.00     0.069 C 
ATOM     18  C   UNL     1      -0.695   2.108  -0.662  1.00  0.00     0.060 A 
ATOM     19  C   UNL     1      -1.678   2.318  -1.653  1.00  0.00     0.048 A 
ATOM     20  N   UNL     1       0.231   3.068  -0.694  1.00  0.00    -0.178 NA
ATOM     21  C   UNL     1      -1.250   3.421  -2.368  1.00  0.00     0.036 A 
ATOM     22  C   UNL     1      -1.839   4.093  -3.553  1.00  0.00     0.066 C 
ENDBRANCH  15  16
ENDBRANCH  12  15
ENDBRANCH   7  11
ENDBRANCH   3   6
ENDBRANCH   1   2
BRANCH   1  23
ATOM     23  C   UNL     1       0.756   0.710  -4.946  1.00  0.00     0.042 C 
BRANCH  23  24
ATOM     24  C   UNL     1      -0.611   0.062  -5.137  1.00  0.00     0.118 C 
BRANCH  24  25
ATOM     25  N   UNL     1      -1.721   0.994  -4.906  1.00  0.00    -0.352 N 
ATOM     26  C   UNL     1      -3.069   0.855  -5.216  1.00  0.00     0.251 C 
ATOM     27  H   UNL     1      -1.476   1.841  -4.468  1.00  0.00     0.163 HD
ATOM     28  O   UNL     1      -3.857   1.768  -5.169  1.00  0.00    -0.269 OA
BRANCH  26  29
ATOM     29  C   UNL     1      -3.503  -0.494  -5.606  1.00  0.00     0.039 A 
ATOM     30  C   UNL     1      -4.100  -0.731  -6.843  1.00  0.00     0.014 A 
ATOM     31  C   UNL     1      -3.045  -1.523  -4.799  1.00  0.00     0.014 A 
ATOM     32  C   UNL     1      -4.082  -2.030  -7.342  1.00  0.00     0.010 A 
ATOM     33  C   UNL     1      -2.846  -2.744  -5.382  1.00  0.00     0.010 A 
ATOM     34  C   UNL     1      -3.388  -3.026  -6.636  1.00  0.00    -0.014 A 
BRANCH  34  35
ATOM     35  C   UNL     1      -3.100  -4.322  -7.251  1.00  0.00     0.031 A 
ATOM     36  C   UNL     1      -2.570  -4.296  -8.645  1.00  0.00     0.074 A 
ATOM     37  C   UNL     1      -3.065  -5.479  -6.558  1.00  0.00     0.049 A 
ATOM     38  N   UNL     1      -3.141  -4.755  -9.710  1.00  0.00    -0.248 NA
ATOM     39  C   UNL     1      -1.285  -3.631  -8.903  1.00  0.00     0.031 C 
ATOM     40  C   UNL     1      -3.238  -5.683  -5.112  1.00  0.00     0.029 A 
ATOM     41  N   UNL     1      -2.742  -6.727  -7.000  1.00  0.00    -0.354 N 
ATOM     42  C   UNL     1      -2.224  -4.598 -10.748  1.00  0.00     0.074 A 
ATOM     43  C   UNL     1      -1.163  -3.777 -10.226  1.00  0.00     0.031 C 
ATOM     44  C   UNL     1      -2.770  -6.897  -4.766  1.00  0.00     0.029 A 
ATOM     45  C   UNL     1      -2.494  -7.632  -5.983  1.00  0.00     0.049 A 
ATOM     46  H   UNL     1      -2.690  -6.963  -7.955  1.00  0.00     0.167 HD
ATOM     47  C   UNL     1      -2.313  -5.352 -11.881  1.00  0.00     0.037 A 
ATOM     48  C   UNL     1      -2.122  -8.922  -6.108  1.00  0.00     0.037 A 
ATOM     49  C   UNL     1      -3.571  -6.051 -11.936  1.00  0.00     0.049 A 
ATOM     50  C   UNL     1      -2.572  -9.382  -7.438  1.00  0.00     0.074 A 
ATOM     51  C   UNL     1      -4.892  -5.715 -12.129  1.00  0.00     0.029 A 
ATOM     52  N   UNL     1      -3.550  -7.314 -11.406  1.00  0.00    -0.354 N 
ATOM     53  N   UNL     1      -3.827  -9.470  -7.787  1.00  0.00    -0.248 NA
ATOM     54  C   UNL     1      -1.615  -9.451  -8.535  1.00  0.00     0.031 C 
ATOM     55  C   UNL     1      -5.647  -6.689 -11.407  1.00  0.00     0.029 A 
ATOM     56  C   UNL     1      -4.758  -7.595 -10.826  1.00  0.00     0.049 A 
ATOM     57  H   UNL     1      -2.782  -7.928 -11.438  1.00  0.00     0.167 HD
ATOM     58  C   UNL     1      -3.832  -9.169  -9.136  1.00  0.00     0.074 A 
ATOM     59  C   UNL     1      -2.455  -9.363  -9.569  1.00  0.00     0.031 C 
ATOM     60  C   UNL     1      -4.877  -8.495  -9.698  1.00  0.00     0.037 A 
BRANCH  47  61
ATOM     61  C   UNL     1      -1.150  -5.821 -12.733  1.00  0.00     0.064 A 
ATOM     62  C   UNL     1      -1.418  -6.495 -13.947  1.00  0.00     0.173 A 
ATOM     63  C   UNL     1       0.173  -5.933 -12.261  1.00  0.00     0.173 A 
ATOM     64  F   UNL     1      -2.647  -6.473 -14.485  1.00  0.00    -0.203 F 
ATOM     65  C   UNL     1      -0.458  -7.286 -14.586  1.00  0.00     0.198 A 
ATOM     66  C   UNL     1       1.144  -6.680 -12.931  1.00  0.00     0.198 A 
ATOM     67  F   UNL     1       0.549  -5.428 -11.080  1.00  0.00    -0.203 F 
ATOM     68  F   UNL     1      -0.797  -8.010 -15.661  1.00  0.00    -0.200 F 
ATOM     69  C   UNL     1       0.821  -7.383 -14.073  1.00  0.00     0.200 A 
ATOM     70  F   UNL     1       2.374  -6.780 -12.408  1.00  0.00    -0.200 F 
ATOM     71  F   UNL     1       1.726  -8.189 -14.645  1.00  0.00    -0.200 F 
ENDBRANCH  47  61
BRANCH  48  72
ATOM     72  C   UNL     1      -1.268  -9.708  -5.199  1.00  0.00     0.064 A 
ATOM     73  C   UNL     1      -1.294 -11.108  -5.210  1.00  0.00     0.173 A 
ATOM     74  C   UNL     1      -0.221  -9.096  -4.481  1.00  0.00     0.173 A 
ATOM     75  F   UNL     1      -2.245 -11.759  -5.894  1.00  0.00    -0.203 F 
ATOM     76  C   UNL     1      -0.302 -11.857  -4.572  1.00  0.00     0.198 A 
ATOM     77  C   UNL     1       0.764  -9.845  -3.839  1.00  0.00     0.198 A 
ATOM     78  F   UNL     1      -0.084  -7.761  -4.468  1.00  0.00    -0.203 F 
ATOM     79  F   UNL     1      -0.320 -13.194  -4.659  1.00  0.00    -0.200 F 
ATOM     80  C   UNL     1       0.732 -11.226  -3.900  1.00  0.00     0.200 A 
ATOM     81  F   UNL     1       1.775  -9.222  -3.218  1.00  0.00    -0.200 F 
ATOM     82  F   UNL     1       1.719 -11.945  -3.348  1.00  0.00    -0.200 F 
ENDBRANCH  48  72
BRANCH  60  83
ATOM     83  C   UNL     1      -6.191  -8.532  -8.974  1.00  0.00     0.064 A 
ATOM     84  C   UNL     1      -6.428  -7.946  -7.720  1.00  0.00     0.173 A 
ATOM     85  C   UNL     1      -7.284  -9.115  -9.630  1.00  0.00     0.173 A 
ATOM     86  F   UNL     1      -5.461  -7.292  -7.069  1.00  0.00    -0.203 F 
ATOM     87  C   UNL     1      -7.691  -7.988  -7.131  1.00  0.00     0.198 A 
ATOM     88  C   UNL     1      -8.552  -9.122  -9.056  1.00  0.00     0.198 A 
ATOM     89  F   UNL     1      -7.128  -9.646 -10.853  1.00  0.00    -0.203 F 
ATOM     90  F   UNL     1      -7.886  -7.441  -5.921  1.00  0.00    -0.200 F 
ATOM     91  C   UNL     1      -8.752  -8.571  -7.801  1.00  0.00     0.200 A 
ATOM     92  F   UNL     1      -9.584  -9.648  -9.730  1.00  0.00    -0.200 F 
ATOM     93  F   UNL     1      -9.973  -8.584  -7.249  1.00  0.00    -0.200 F 
ENDBRANCH  60  83
ENDBRANCH  34  35
ENDBRANCH  26  29
ENDBRANCH  24  25
ENDBRANCH  23  24
ENDBRANCH   1  23
TORSDOF 13
