REMARK SMILES COC(=O)c1ccc(Cl)c(-c2ccc(C(=O)NCCCNC(=O)c3ccc(-c4c5nc(c(-c6c(F)c(F)c(F)c(F)c6F)c6ccc([nH]6)c(-c6c(F)c(F)c(F)c(F)c6F)c6nc(c(-c7c(F)c(F)c(F)c(F)c7F)c7ccc4[nH]7)C=C6)C=C5)cc3)nc2)c1
REMARK SMILES IDX 18 1 17 2 15 3 16 4 14 6 11 7 12 8 88 9 13 10 87 11 10 12
REMARK SMILES IDX 5 13 6 14 89 15 7 16 8 17 9 18 3 19 4 20 2 21 1 22 19 23
REMARK SMILES IDX 20 24 21 25 22 26 23 28 24 29 25 30 86 31 26 32 85 33 27 34
REMARK SMILES IDX 28 35 29 36 79 37 30 38 84 39 78 40 80 41 31 42 83 43 77 44
REMARK SMILES IDX 76 45 32 47 64 48 44 49 63 50 45 51 48 52 62 53 81 54 46 55
REMARK SMILES IDX 47 56 61 58 82 59 49 60 33 61 34 62 42 63 35 64 36 65 40 66
REMARK SMILES IDX 43 67 37 68 38 69 41 70 39 71 65 72 66 73 74 74 67 75 68 76
REMARK SMILES IDX 72 77 75 78 69 79 70 80 73 81 71 82 50 83 51 84 59 85 52 86
REMARK SMILES IDX 53 87 57 88 60 89 54 90 55 91 58 92 56 93
REMARK H PARENT 17 5 21 27 80 46 48 57
REMARK Flexibility Score: inf
ROOT
ATOM      1  C   UNL     1       2.805   4.156  11.534  1.00  0.00     0.118 C 
ENDROOT
BRANCH   1   2
ATOM      2  N   UNL     1       3.975   4.458  10.733  1.00  0.00    -0.351 N 
ATOM      3  C   UNL     1       4.223   4.388   9.380  1.00  0.00     0.269 C 
ATOM      4  O   UNL     1       5.337   4.771   9.015  1.00  0.00    -0.268 OA
ATOM      5  H   UNL     1       4.743   4.777  11.260  1.00  0.00     0.163 HD
BRANCH   3   6
ATOM      6  C   UNL     1       3.221   3.900   8.367  1.00  0.00     0.128 A 
ATOM      7  C   UNL     1       1.480   3.125   6.347  1.00  0.00     0.002 A 
ATOM      8  C   UNL     1       1.308   2.644   7.645  1.00  0.00     0.013 A 
ATOM      9  C   UNL     1       2.567   3.967   6.136  1.00  0.00     0.120 A 
ATOM     10  C   UNL     1       2.196   3.011   8.655  1.00  0.00     0.035 A 
ATOM     11  N   UNL     1       3.422   4.368   7.106  1.00  0.00    -0.250 NA
BRANCH   7  12
ATOM     12  C   UNL     1       0.582   2.705   5.268  1.00  0.00     0.003 A 
ATOM     13  C   UNL     1       0.228   1.330   3.280  1.00  0.00     0.060 A 
ATOM     14  C   UNL     1      -1.110   1.730   3.226  1.00  0.00     0.017 A 
ATOM     15  C   UNL     1       1.062   1.805   4.300  1.00  0.00     0.026 A 
ATOM     16  C   UNL     1      -1.602   2.626   4.176  1.00  0.00     0.022 A 
ATOM     17  C   UNL     1      -0.762   3.117   5.182  1.00  0.00     0.048 A 
ATOM     18  Cl  UNL     1      -1.443   4.248   6.302  1.00  0.00    -0.084 Cl
BRANCH  13  19
ATOM     19  C   UNL     1       0.809   0.397   2.287  1.00  0.00     0.337 C 
ATOM     20  O   UNL     1       1.715  -0.373   2.536  1.00  0.00    -0.246 OA
BRANCH  19  21
ATOM     21  O   UNL     1       0.237   0.621   1.078  1.00  0.00    -0.465 OA
ATOM     22  C   UNL     1       0.846  -0.105   0.010  1.00  0.00     0.282 C 
ENDBRANCH  19  21
ENDBRANCH  13  19
ENDBRANCH   7  12
ENDBRANCH   3   6
ENDBRANCH   1   2
BRANCH   1  23
ATOM     23  C   UNL     1       2.929   2.780  12.190  1.00  0.00     0.042 C 
BRANCH  23  24
ATOM     24  C   UNL     1       3.882   2.760  13.384  1.00  0.00     0.118 C 
BRANCH  24  25
ATOM     25  N   UNL     1       3.385   3.577  14.482  1.00  0.00    -0.352 N 
ATOM     26  C   UNL     1       3.038   3.241  15.763  1.00  0.00     0.251 C 
ATOM     27  H   UNL     1       3.282   4.532  14.267  1.00  0.00     0.163 HD
ATOM     28  O   UNL     1       2.383   4.037  16.431  1.00  0.00    -0.269 OA
BRANCH  26  29
ATOM     29  C   UNL     1       3.438   1.946  16.356  1.00  0.00     0.039 A 
ATOM     30  C   UNL     1       2.569   1.338  17.267  1.00  0.00     0.014 A 
ATOM     31  C   UNL     1       4.681   1.365  16.089  1.00  0.00     0.014 A 
ATOM     32  C   UNL     1       2.928   0.136  17.876  1.00  0.00     0.010 A 
ATOM     33  C   UNL     1       5.004   0.123  16.634  1.00  0.00     0.010 A 
ATOM     34  C   UNL     1       4.136  -0.499  17.541  1.00  0.00    -0.014 A 
BRANCH  34  35
ATOM     35  C   UNL     1       4.475  -1.821  18.125  1.00  0.00     0.031 A 
ATOM     36  C   UNL     1       5.669  -1.987  19.024  1.00  0.00     0.074 A 
ATOM     37  C   UNL     1       3.710  -2.885  17.814  1.00  0.00     0.049 A 
ATOM     38  N   UNL     1       6.093  -3.059  19.645  1.00  0.00    -0.248 NA
ATOM     39  C   UNL     1       6.513  -0.801  19.233  1.00  0.00     0.031 C 
ATOM     40  C   UNL     1       2.568  -2.861  16.898  1.00  0.00     0.029 A 
ATOM     41  N   UNL     1       3.772  -4.190  18.233  1.00  0.00    -0.354 N 
ATOM     42  C   UNL     1       7.252  -2.680  20.310  1.00  0.00     0.074 A 
ATOM     43  C   UNL     1       7.499  -1.296  19.969  1.00  0.00     0.031 C 
ATOM     44  C   UNL     1       2.012  -4.081  16.856  1.00  0.00     0.029 A 
ATOM     45  C   UNL     1       2.778  -4.981  17.711  1.00  0.00     0.049 A 
ATOM     46  H   UNL     1       4.463  -4.527  18.849  1.00  0.00     0.167 HD
ATOM     47  C   UNL     1       8.026  -3.414  21.146  1.00  0.00     0.037 A 
ATOM     48  C   UNL     1       2.511  -6.286  17.904  1.00  0.00     0.037 A 
ATOM     49  C   UNL     1       7.765  -4.789  21.488  1.00  0.00     0.049 A 
ATOM     50  C   UNL     1       3.374  -7.072  18.852  1.00  0.00     0.074 A 
ATOM     51  C   UNL     1       8.450  -5.606  22.371  1.00  0.00     0.029 A 
ATOM     52  N   UNL     1       6.739  -5.556  20.953  1.00  0.00    -0.354 N 
ATOM     53  N   UNL     1       4.416  -6.680  19.543  1.00  0.00    -0.248 NA
ATOM     54  C   UNL     1       3.010  -8.480  19.059  1.00  0.00     0.031 C 
ATOM     55  C   UNL     1       7.875  -6.880  22.327  1.00  0.00     0.029 A 
ATOM     56  C   UNL     1       6.789  -6.843  21.468  1.00  0.00     0.049 A 
ATOM     57  H   UNL     1       6.074  -5.233  20.303  1.00  0.00     0.167 HD
ATOM     58  C   UNL     1       4.818  -7.781  20.286  1.00  0.00     0.074 A 
ATOM     59  C   UNL     1       3.889  -8.850  19.978  1.00  0.00     0.031 C 
ATOM     60  C   UNL     1       5.860  -7.898  21.147  1.00  0.00     0.037 A 
BRANCH  47  61
ATOM     61  C   UNL     1       9.232  -2.745  21.746  1.00  0.00     0.064 A 
ATOM     62  C   UNL     1       9.113  -1.706  22.683  1.00  0.00     0.173 A 
ATOM     63  C   UNL     1      10.526  -3.170  21.407  1.00  0.00     0.173 A 
ATOM     64  F   UNL     1       7.901  -1.253  23.038  1.00  0.00    -0.203 F 
ATOM     65  C   UNL     1      10.240  -1.096  23.228  1.00  0.00     0.198 A 
ATOM     66  C   UNL     1      11.650  -2.582  21.980  1.00  0.00     0.198 A 
ATOM     67  F   UNL     1      10.701  -4.164  20.523  1.00  0.00    -0.203 F 
ATOM     68  F   UNL     1      10.099  -0.068  24.077  1.00  0.00    -0.200 F 
ATOM     69  C   UNL     1      11.507  -1.539  22.882  1.00  0.00     0.200 A 
ATOM     70  F   UNL     1      12.874  -3.022  21.656  1.00  0.00    -0.200 F 
ATOM     71  F   UNL     1      12.591  -0.956  23.413  1.00  0.00    -0.200 F 
ENDBRANCH  47  61
BRANCH  48  72
ATOM     72  C   UNL     1       1.354  -6.913  17.214  1.00  0.00     0.064 A 
ATOM     73  C   UNL     1       0.223  -7.327  17.931  1.00  0.00     0.173 A 
ATOM     74  C   UNL     1       1.349  -7.099  15.824  1.00  0.00     0.173 A 
ATOM     75  F   UNL     1       0.185  -7.185  19.264  1.00  0.00    -0.203 F 
ATOM     76  C   UNL     1      -0.859  -7.924  17.287  1.00  0.00     0.198 A 
ATOM     77  C   UNL     1       0.253  -7.666  15.177  1.00  0.00     0.198 A 
ATOM     78  F   UNL     1       2.402  -6.710  15.090  1.00  0.00    -0.203 F 
ATOM     79  F   UNL     1      -1.908  -8.353  18.002  1.00  0.00    -0.200 F 
ATOM     80  C   UNL     1      -0.846  -8.087  15.910  1.00  0.00     0.200 A 
ATOM     81  F   UNL     1       0.261  -7.802  13.844  1.00  0.00    -0.200 F 
ATOM     82  F   UNL     1      -1.891  -8.652  15.290  1.00  0.00    -0.200 F 
ENDBRANCH  48  72
BRANCH  60  83
ATOM     83  C   UNL     1       6.026  -9.221  21.840  1.00  0.00     0.064 A 
ATOM     84  C   UNL     1       6.410 -10.379  21.147  1.00  0.00     0.173 A 
ATOM     85  C   UNL     1       5.802  -9.329  23.222  1.00  0.00     0.173 A 
ATOM     86  F   UNL     1       6.623 -10.333  19.823  1.00  0.00    -0.203 F 
ATOM     87  C   UNL     1       6.517 -11.603  21.801  1.00  0.00     0.198 A 
ATOM     88  C   UNL     1       5.948 -10.547  23.879  1.00  0.00     0.198 A 
ATOM     89  F   UNL     1       5.443  -8.252  23.936  1.00  0.00    -0.203 F 
ATOM     90  F   UNL     1       6.815 -12.709  21.104  1.00  0.00    -0.200 F 
ATOM     91  C   UNL     1       6.292 -11.685  23.167  1.00  0.00     0.200 A 
ATOM     92  F   UNL     1       5.746 -10.621  25.202  1.00  0.00    -0.200 F 
ATOM     93  F   UNL     1       6.394 -12.865  23.794  1.00  0.00    -0.200 F 
ENDBRANCH  60  83
ENDBRANCH  34  35
ENDBRANCH  26  29
ENDBRANCH  24  25
ENDBRANCH  23  24
ENDBRANCH   1  23
TORSDOF 13
