REMARK SMILES CCCOC(=O)c1c(NC(=O)[C@H]2[C@@H](C(=O)NCCCNC(=O)c3ccc(-c4c5nc(c(-c6c(F)c(F)c(F)c(F)c6F)c6ccc([nH]6)c(-c6c(F)c(F)c(F)c(F)c6F)c6nc(c(-c7c(F)c(F)c(F)c(F)c7F)c7ccc4[nH]7)C=C6)C=C5)cc3)[C@@H]3C=C[C@H]2C3)sc2c1CCCCC2
REMARK SMILES IDX 14 1 15 2 16 3 13 5 12 6 89 7 86 8 88 9 90 10 87 11 10 12
REMARK SMILES IDX 9 13 11 15 8 16 7 17 93 18 91 19 92 20 5 21 6 22 4 23 3 24
REMARK SMILES IDX 2 25 1 26 94 27 95 28 96 29 97 30 98 32 17 34 18 35 19 36
REMARK SMILES IDX 20 37 21 38 22 40 23 41 24 42 85 43 25 44 84 45 26 46 27 47
REMARK SMILES IDX 28 48 78 49 29 50 83 51 77 52 79 53 30 54 82 55 76 56 75 57
REMARK SMILES IDX 31 59 63 60 43 61 62 62 44 63 47 64 61 65 80 66 45 67 46 68
REMARK SMILES IDX 60 70 81 71 48 72 32 73 33 74 41 75 34 76 35 77 39 78 42 79
REMARK SMILES IDX 36 80 37 81 40 82 38 83 64 84 65 85 73 86 66 87 67 88 71 89
REMARK SMILES IDX 74 90 68 91 69 92 72 93 70 94 49 95 50 96 58 97 51 98 52 99
REMARK SMILES IDX 56 100 59 101 53 102 54 103 57 104 55 105
REMARK H PARENT 16 4 9 14 20 39 79 58 47 69
REMARK Flexibility Score: 100.00
ROOT
ATOM      1  C   UNL     1      -3.999   3.276   5.916  1.00  0.00     0.224 C 
ATOM      2  O   UNL     1      -4.494   2.344   5.269  1.00  0.00    -0.275 OA
ATOM      3  N   UNL     1      -4.582   3.559   7.105  1.00  0.00    -0.356 N 
ATOM      4  H   UNL     1      -5.285   2.919   7.360  1.00  0.00     0.163 HD
ENDROOT
BRANCH   1   5
ATOM      5  C   UNL     1      -2.843   4.054   5.309  1.00  0.00     0.098 C 
ATOM      6  C   UNL     1      -1.540   3.207   5.080  1.00  0.00     0.099 C 
ATOM      7  C   UNL     1      -0.435   4.104   5.729  1.00  0.00     0.025 C 
ATOM      8  C   UNL     1      -2.276   5.329   5.959  1.00  0.00     0.025 C 
ATOM      9  C   UNL     1      -0.253   5.326   4.863  1.00  0.00    -0.027 C 
ATOM     10  C   UNL     1      -1.197   4.754   6.876  1.00  0.00     0.017 C 
ATOM     11  C   UNL     1      -1.379   6.042   4.965  1.00  0.00    -0.027 C 
BRANCH   6  12
ATOM     12  C   UNL     1      -1.386   1.787   5.615  1.00  0.00     0.229 C 
ATOM     13  N   UNL     1      -0.428   0.923   5.120  1.00  0.00    -0.317 N 
ATOM     14  H   UNL     1      -0.503   0.006   5.471  1.00  0.00     0.170 HD
ATOM     15  O   UNL     1      -2.045   1.393   6.583  1.00  0.00    -0.274 OA
BRANCH  13  16
ATOM     16  C   UNL     1       0.623   1.096   4.223  1.00  0.00     0.110 A 
ATOM     17  C   UNL     1       1.653   0.216   3.910  1.00  0.00     0.098 A 
ATOM     18  C   UNL     1       2.686   0.859   3.096  1.00  0.00    -0.017 A 
ATOM     19  S   UNL     1       0.773   2.492   3.290  1.00  0.00    -0.122 S 
ATOM     20  C   UNL     1       2.362   2.180   2.841  1.00  0.00     0.011 A 
BRANCH  17  21
ATOM     21  C   UNL     1       1.667  -1.171   4.333  1.00  0.00     0.341 C 
ATOM     22  O   UNL     1       0.820  -1.984   3.950  1.00  0.00    -0.246 OA
BRANCH  21  23
ATOM     23  O   UNL     1       2.689  -1.459   5.180  1.00  0.00    -0.462 OA
BRANCH  23  24
ATOM     24  C   UNL     1       2.835  -2.838   5.558  1.00  0.00     0.233 C 
BRANCH  24  25
ATOM     25  C   UNL     1       2.083  -3.181   6.844  1.00  0.00     0.038 C 
ATOM     26  C   UNL     1       0.568  -3.142   6.706  1.00  0.00     0.007 C 
ENDBRANCH  24  25
ENDBRANCH  23  24
ENDBRANCH  21  23
ENDBRANCH  17  21
BRANCH  18  27
ATOM     27  C   UNL     1       3.915   0.184   2.551  1.00  0.00     0.037 C 
BRANCH  27  28
ATOM     28  C   UNL     1       4.202   0.616   1.107  1.00  0.00     0.005 C 
BRANCH  28  29
ATOM     29  C   UNL     1       4.927   1.960   0.967  1.00  0.00     0.001 C 
BRANCH  29  30
ATOM     30  C   UNL     1       4.590   3.032   2.002  1.00  0.00     0.006 CG0
ATOM     31  G   UNL     1       3.099   3.282   2.143  1.00  0.00     0.000 G0
ENDBRANCH  29  30
ENDBRANCH  28  29
ENDBRANCH  27  28
ENDBRANCH  18  27
BRANCH  20  32
ATOM     32  C   UNL     1       3.099   3.282   2.143  1.00  0.00     0.047 CG0
ATOM     33  G   UNL     1       4.590   3.032   2.002  1.00  0.00     0.000 G0
ENDBRANCH  20  32
ENDBRANCH  13  16
ENDBRANCH   6  12
ENDBRANCH   1   5
BRANCH   3  34
ATOM     34  C   UNL     1      -4.380   4.614   8.079  1.00  0.00     0.117 C 
BRANCH  34  35
ATOM     35  C   UNL     1      -5.061   5.926   7.678  1.00  0.00     0.042 C 
BRANCH  35  36
ATOM     36  C   UNL     1      -6.485   5.982   8.175  1.00  0.00     0.118 C 
BRANCH  36  37
ATOM     37  N   UNL     1      -6.549   6.034   9.637  1.00  0.00    -0.352 N 
ATOM     38  C   UNL     1      -7.660   5.928  10.447  1.00  0.00     0.251 C 
ATOM     39  H   UNL     1      -5.690   6.162  10.101  1.00  0.00     0.163 HD
ATOM     40  O   UNL     1      -7.635   6.290  11.616  1.00  0.00    -0.269 OA
BRANCH  38  41
ATOM     41  C   UNL     1      -8.889   5.389   9.850  1.00  0.00     0.039 A 
ATOM     42  C   UNL     1     -10.111   6.036  10.018  1.00  0.00     0.014 A 
ATOM     43  C   UNL     1      -8.761   4.299   8.996  1.00  0.00     0.014 A 
ATOM     44  C   UNL     1     -11.179   5.636   9.224  1.00  0.00     0.010 A 
ATOM     45  C   UNL     1      -9.742   4.062   8.070  1.00  0.00     0.010 A 
ATOM     46  C   UNL     1     -10.976   4.679   8.210  1.00  0.00    -0.014 A 
BRANCH  46  47
ATOM     47  C   UNL     1     -12.028   4.394   7.238  1.00  0.00     0.031 A 
ATOM     48  C   UNL     1     -12.724   5.599   6.724  1.00  0.00     0.074 A 
ATOM     49  C   UNL     1     -12.314   3.162   6.763  1.00  0.00     0.049 A 
ATOM     50  N   UNL     1     -13.897   6.005   7.079  1.00  0.00    -0.248 NA
ATOM     51  C   UNL     1     -12.004   6.549   5.863  1.00  0.00     0.031 C 
ATOM     52  C   UNL     1     -11.585   1.903   6.972  1.00  0.00     0.029 A 
ATOM     53  N   UNL     1     -13.326   2.782   5.928  1.00  0.00    -0.354 N 
ATOM     54  C   UNL     1     -14.155   7.153   6.340  1.00  0.00     0.074 A 
ATOM     55  C   UNL     1     -12.905   7.529   5.734  1.00  0.00     0.031 C 
ATOM     56  C   UNL     1     -12.039   0.959   6.120  1.00  0.00     0.029 A 
ATOM     57  C   UNL     1     -13.219   1.479   5.460  1.00  0.00     0.049 A 
ATOM     58  H   UNL     1     -14.067   3.380   5.681  1.00  0.00     0.167 HD
ATOM     59  C   UNL     1     -15.442   7.528   6.103  1.00  0.00     0.037 A 
ATOM     60  C   UNL     1     -14.070   0.833   4.631  1.00  0.00     0.037 A 
ATOM     61  C   UNL     1     -16.350   6.772   6.931  1.00  0.00     0.049 A 
ATOM     62  C   UNL     1     -15.391   1.476   4.784  1.00  0.00     0.074 A 
ATOM     63  C   UNL     1     -16.737   6.778   8.252  1.00  0.00     0.029 A 
ATOM     64  N   UNL     1     -16.682   5.548   6.412  1.00  0.00    -0.354 N 
ATOM     65  N   UNL     1     -16.090   1.413   5.884  1.00  0.00    -0.248 NA
ATOM     66  C   UNL     1     -15.793   2.516   3.846  1.00  0.00     0.031 C 
ATOM     67  C   UNL     1     -17.117   5.435   8.557  1.00  0.00     0.029 A 
ATOM     68  C   UNL     1     -16.992   4.660   7.405  1.00  0.00     0.049 A 
ATOM     69  H   UNL     1     -16.696   5.336   5.450  1.00  0.00     0.167 HD
ATOM     70  C   UNL     1     -16.699   2.649   5.970  1.00  0.00     0.074 A 
ATOM     71  C   UNL     1     -16.636   3.202   4.622  1.00  0.00     0.031 C 
ATOM     72  C   UNL     1     -16.915   3.234   7.183  1.00  0.00     0.037 A 
BRANCH  59  73
ATOM     73  C   UNL     1     -15.940   8.177   4.832  1.00  0.00     0.064 A 
ATOM     74  C   UNL     1     -17.284   8.606   4.767  1.00  0.00     0.173 A 
ATOM     75  C   UNL     1     -15.273   8.076   3.594  1.00  0.00     0.173 A 
ATOM     76  F   UNL     1     -18.018   8.723   5.884  1.00  0.00    -0.203 F 
ATOM     77  C   UNL     1     -17.928   8.835   3.548  1.00  0.00     0.198 A 
ATOM     78  C   UNL     1     -15.906   8.351   2.383  1.00  0.00     0.198 A 
ATOM     79  F   UNL     1     -14.029   7.595   3.495  1.00  0.00    -0.203 F 
ATOM     80  F   UNL     1     -19.237   9.120   3.528  1.00  0.00    -0.200 F 
ATOM     81  C   UNL     1     -17.241   8.698   2.356  1.00  0.00     0.200 A 
ATOM     82  F   UNL     1     -15.230   8.189   1.236  1.00  0.00    -0.200 F 
ATOM     83  F   UNL     1     -17.870   8.852   1.184  1.00  0.00    -0.200 F 
ENDBRANCH  59  73
BRANCH  60  84
ATOM     84  C   UNL     1     -13.771  -0.171   3.592  1.00  0.00     0.064 A 
ATOM     85  C   UNL     1     -14.760  -1.031   3.091  1.00  0.00     0.173 A 
ATOM     86  C   UNL     1     -12.569  -0.097   2.862  1.00  0.00     0.173 A 
ATOM     87  F   UNL     1     -15.946  -1.127   3.710  1.00  0.00    -0.203 F 
ATOM     88  C   UNL     1     -14.572  -1.747   1.905  1.00  0.00     0.198 A 
ATOM     89  C   UNL     1     -12.383  -0.811   1.678  1.00  0.00     0.198 A 
ATOM     90  F   UNL     1     -11.597   0.750   3.233  1.00  0.00    -0.203 F 
ATOM     91  F   UNL     1     -15.563  -2.508   1.420  1.00  0.00    -0.200 F 
ATOM     92  C   UNL     1     -13.390  -1.625   1.192  1.00  0.00     0.200 A 
ATOM     93  F   UNL     1     -11.253  -0.651   0.975  1.00  0.00    -0.200 F 
ATOM     94  F   UNL     1     -13.239  -2.253   0.018  1.00  0.00    -0.200 F 
ENDBRANCH  60  84
BRANCH  72  95
ATOM     95  C   UNL     1     -16.907   2.333   8.380  1.00  0.00     0.064 A 
ATOM     96  C   UNL     1     -15.764   1.692   8.883  1.00  0.00     0.173 A 
ATOM     97  C   UNL     1     -18.104   2.171   9.087  1.00  0.00     0.173 A 
ATOM     98  F   UNL     1     -14.569   1.860   8.306  1.00  0.00    -0.203 F 
ATOM     99  C   UNL     1     -15.829   0.889  10.021  1.00  0.00     0.198 A 
ATOM    100  C   UNL     1     -18.160   1.397  10.242  1.00  0.00     0.198 A 
ATOM    101  F   UNL     1     -19.217   2.796   8.674  1.00  0.00    -0.203 F 
ATOM    102  F   UNL     1     -14.728   0.271  10.473  1.00  0.00    -0.200 F 
ATOM    103  C   UNL     1     -17.026   0.748  10.702  1.00  0.00     0.200 A 
ATOM    104  F   UNL     1     -19.312   1.297  10.919  1.00  0.00    -0.200 F 
ATOM    105  F   UNL     1     -17.085   0.002  11.814  1.00  0.00    -0.200 F 
ENDBRANCH  72  95
ENDBRANCH  46  47
ENDBRANCH  38  41
ENDBRANCH  36  37
ENDBRANCH  35  36
ENDBRANCH  34  35
ENDBRANCH   3  34
TORSDOF 16
