REMARK SMILES O=C(CCN1C(=O)S/C(=C\c2ccc(F)cc2)C1=O)Nc1ccc(O)cc1C(=O)NCCCNC(=O)c1ccc(-c2c3nc(c(-c4c(F)c(F)c(F)c(F)c4F)c4ccc([nH]4)c(-c4c(F)c(F)c(F)c(F)c4F)c4nc(c(-c5c(F)c(F)c(F)c(F)c5F)c5ccc2[nH]5)C=C4)C=C3)cc1
REMARK SMILES IDX 28 1 29 2 30 3 27 5 21 6 22 7 23 8 26 9 24 10 20 11 1 12
REMARK SMILES IDX 2 13 3 15 4 16 5 17 6 18 18 19 7 20 8 21 9 22 19 23 10 24
REMARK SMILES IDX 11 25 12 26 17 27 13 28 16 29 14 30 15 31 25 32 31 34 32 35
REMARK SMILES IDX 33 36 34 37 35 38 36 40 37 41 38 42 99 43 39 44 98 45 40 46
REMARK SMILES IDX 41 47 42 48 92 49 43 50 97 51 91 52 93 53 44 54 96 55 90 56
REMARK SMILES IDX 89 57 45 59 77 60 57 61 76 62 58 63 61 64 75 65 94 66 59 67
REMARK SMILES IDX 60 68 74 70 95 71 62 72 46 73 47 74 55 75 48 76 49 77 53 78
REMARK SMILES IDX 56 79 50 80 51 81 54 82 52 83 78 84 79 85 87 86 80 87 81 88
REMARK SMILES IDX 85 89 88 90 82 91 83 92 86 93 84 94 63 95 64 96 72 97 65 98
REMARK SMILES IDX 66 99 70 100 73 101 67 102 68 103 71 104 69 105
REMARK H PARENT 30 4 20 14 25 33 34 39 93 58 61 69
REMARK Flexibility Score: inf
ROOT
ATOM      1  C   UNL     1       3.598   2.658   2.724  1.00  0.00     0.253 C 
ATOM      2  O   UNL     1       4.433   2.973   3.570  1.00  0.00    -0.269 OA
ATOM      3  N   UNL     1       3.726   3.125   1.431  1.00  0.00    -0.352 N 
ATOM      4  H   UNL     1       4.445   3.783   1.291  1.00  0.00     0.163 HD
ENDROOT
BRANCH   1   5
ATOM      5  C   UNL     1       2.469   1.790   3.141  1.00  0.00     0.067 A 
ATOM      6  C   UNL     1       2.125   0.581   2.511  1.00  0.00     0.054 A 
ATOM      7  C   UNL     1       0.992  -0.118   2.960  1.00  0.00     0.031 A 
ATOM      8  C   UNL     1       0.259   0.329   4.062  1.00  0.00     0.048 A 
ATOM      9  C   UNL     1       1.744   2.221   4.265  1.00  0.00     0.062 A 
ATOM     10  C   UNL     1       0.657   1.484   4.720  1.00  0.00     0.116 A 
BRANCH   6  11
ATOM     11  N   UNL     1       2.965   0.015   1.520  1.00  0.00    -0.325 N 
ATOM     12  O   UNL     1       1.347  -0.982   0.210  1.00  0.00    -0.275 OA
ATOM     13  C   UNL     1       2.531  -0.794   0.491  1.00  0.00     0.226 C 
ATOM     14  H   UNL     1       3.927   0.214   1.569  1.00  0.00     0.169 HD
BRANCH  13  15
ATOM     15  C   UNL     1       3.608  -1.504  -0.303  1.00  0.00     0.122 C 
BRANCH  15  16
ATOM     16  C   UNL     1       4.847  -0.703  -0.678  1.00  0.00     0.140 C 
BRANCH  16  17
ATOM     17  N   UNL     1       5.890  -0.557   0.333  1.00  0.00    -0.268 N 
ATOM     18  C   UNL     1       6.455   0.654   0.605  1.00  0.00     0.293 C 
ATOM     19  C   UNL     1       6.438  -1.599   1.054  1.00  0.00     0.268 C 
ATOM     20  O   UNL     1       5.896   1.748   0.590  1.00  0.00    -0.261 OA
ATOM     21  S   UNL     1       8.033   0.455   1.286  1.00  0.00    -0.022 SA
ATOM     22  C   UNL     1       7.474  -1.027   1.962  1.00  0.00     0.083 C 
ATOM     23  O   UNL     1       6.100  -2.766   1.037  1.00  0.00    -0.268 OA
ATOM     24  C   UNL     1       7.603  -1.389   3.246  1.00  0.00     0.029 C 
BRANCH  24  25
ATOM     25  C   UNL     1       8.247  -0.468   4.194  1.00  0.00    -0.024 A 
ATOM     26  C   UNL     1       7.453   0.486   4.856  1.00  0.00     0.011 A 
ATOM     27  C   UNL     1       9.642  -0.382   4.269  1.00  0.00     0.011 A 
ATOM     28  C   UNL     1       8.053   1.517   5.579  1.00  0.00     0.040 A 
ATOM     29  C   UNL     1      10.237   0.653   4.993  1.00  0.00     0.040 A 
ATOM     30  C   UNL     1       9.439   1.593   5.638  1.00  0.00     0.123 A 
ATOM     31  F   UNL     1      10.017   2.599   6.306  1.00  0.00    -0.207 F 
ENDBRANCH  24  25
ENDBRANCH  16  17
ENDBRANCH  15  16
ENDBRANCH  13  15
ENDBRANCH   6  11
BRANCH  10  32
ATOM     32  O   UNL     1       0.004   1.925   5.832  1.00  0.00    -0.508 OA
ATOM     33  H   UNL     1      -0.733   1.449   6.162  1.00  0.00     0.293 HD
ENDBRANCH  10  32
ENDBRANCH   1   5
BRANCH   3  34
ATOM     34  C   UNL     1       2.957   2.788   0.247  1.00  0.00     0.118 C 
BRANCH  34  35
ATOM     35  C   UNL     1       3.055   3.751  -0.931  1.00  0.00     0.042 C 
BRANCH  35  36
ATOM     36  C   UNL     1       4.354   3.881  -1.749  1.00  0.00     0.118 C 
BRANCH  36  37
ATOM     37  N   UNL     1       5.372   2.855  -1.595  1.00  0.00    -0.352 N 
ATOM     38  C   UNL     1       6.164   2.161  -2.485  1.00  0.00     0.251 C 
ATOM     39  H   UNL     1       5.529   2.602  -0.656  1.00  0.00     0.163 HD
ATOM     40  O   UNL     1       6.947   1.295  -2.101  1.00  0.00    -0.269 OA
BRANCH  38  41
ATOM     41  C   UNL     1       6.020   2.374  -3.927  1.00  0.00     0.039 A 
ATOM     42  C   UNL     1       5.971   1.264  -4.780  1.00  0.00     0.014 A 
ATOM     43  C   UNL     1       5.863   3.662  -4.420  1.00  0.00     0.014 A 
ATOM     44  C   UNL     1       5.593   1.438  -6.109  1.00  0.00     0.010 A 
ATOM     45  C   UNL     1       5.384   3.823  -5.704  1.00  0.00     0.010 A 
ATOM     46  C   UNL     1       5.207   2.711  -6.545  1.00  0.00    -0.014 A 
BRANCH  46  47
ATOM     47  C   UNL     1       4.547   2.959  -7.845  1.00  0.00     0.031 A 
ATOM     48  C   UNL     1       5.140   3.987  -8.758  1.00  0.00     0.074 A 
ATOM     49  C   UNL     1       3.319   2.451  -8.066  1.00  0.00     0.049 A 
ATOM     50  N   UNL     1       4.572   4.675  -9.710  1.00  0.00    -0.248 NA
ATOM     51  C   UNL     1       6.545   4.348  -8.501  1.00  0.00     0.031 C 
ATOM     52  C   UNL     1       2.627   1.487  -7.207  1.00  0.00     0.029 A 
ATOM     53  N   UNL     1       2.411   2.720  -9.058  1.00  0.00    -0.354 N 
ATOM     54  C   UNL     1       5.524   5.599 -10.116  1.00  0.00     0.074 A 
ATOM     55  C   UNL     1       6.693   5.405  -9.286  1.00  0.00     0.031 C 
ATOM     56  C   UNL     1       1.408   1.241  -7.711  1.00  0.00     0.029 A 
ATOM     57  C   UNL     1       1.210   2.075  -8.890  1.00  0.00     0.049 A 
ATOM     58  H   UNL     1       2.602   3.317  -9.817  1.00  0.00     0.167 HD
ATOM     59  C   UNL     1       5.423   6.517 -11.103  1.00  0.00     0.037 A 
ATOM     60  C   UNL     1       0.066   2.172  -9.594  1.00  0.00     0.037 A 
ATOM     61  C   UNL     1       4.276   6.630 -11.962  1.00  0.00     0.049 A 
ATOM     62  C   UNL     1       0.008   3.140 -10.741  1.00  0.00     0.074 A 
ATOM     63  C   UNL     1       4.101   7.446 -13.063  1.00  0.00     0.029 A 
ATOM     64  N   UNL     1       3.115   5.881 -11.823  1.00  0.00    -0.354 N 
ATOM     65  N   UNL     1       0.921   3.991 -11.145  1.00  0.00    -0.248 NA
ATOM     66  C   UNL     1      -1.233   3.171 -11.525  1.00  0.00     0.031 C 
ATOM     67  C   UNL     1       2.825   7.204 -13.582  1.00  0.00     0.029 A 
ATOM     68  C   UNL     1       2.219   6.215 -12.822  1.00  0.00     0.049 A 
ATOM     69  H   UNL     1       2.954   5.212 -11.119  1.00  0.00     0.167 HD
ATOM     70  C   UNL     1       0.375   4.646 -12.238  1.00  0.00     0.074 A 
ATOM     71  C   UNL     1      -0.946   4.086 -12.442  1.00  0.00     0.031 C 
ATOM     72  C   UNL     1       0.916   5.626 -13.002  1.00  0.00     0.037 A 
BRANCH  59  73
ATOM     73  C   UNL     1       6.582   7.444 -11.322  1.00  0.00     0.064 A 
ATOM     74  C   UNL     1       6.454   8.818 -11.063  1.00  0.00     0.173 A 
ATOM     75  C   UNL     1       7.808   6.983 -11.824  1.00  0.00     0.173 A 
ATOM     76  F   UNL     1       5.303   9.313 -10.584  1.00  0.00    -0.203 F 
ATOM     77  C   UNL     1       7.510   9.693 -11.304  1.00  0.00     0.198 A 
ATOM     78  C   UNL     1       8.871   7.856 -12.033  1.00  0.00     0.198 A 
ATOM     79  F   UNL     1       7.986   5.677 -12.074  1.00  0.00    -0.203 F 
ATOM     80  F   UNL     1       7.358  11.005 -11.072  1.00  0.00    -0.200 F 
ATOM     81  C   UNL     1       8.719   9.211 -11.782  1.00  0.00     0.200 A 
ATOM     82  F   UNL     1      10.048   7.383 -12.466  1.00  0.00    -0.200 F 
ATOM     83  F   UNL     1       9.741  10.052 -11.995  1.00  0.00    -0.200 F 
ENDBRANCH  59  73
BRANCH  60  84
ATOM     84  C   UNL     1      -1.085   1.301  -9.248  1.00  0.00     0.064 A 
ATOM     85  C   UNL     1      -1.844   1.497  -8.085  1.00  0.00     0.173 A 
ATOM     86  C   UNL     1      -1.409   0.206 -10.060  1.00  0.00     0.173 A 
ATOM     87  F   UNL     1      -1.567   2.523  -7.267  1.00  0.00    -0.203 F 
ATOM     88  C   UNL     1      -2.870   0.619  -7.739  1.00  0.00     0.198 A 
ATOM     89  C   UNL     1      -2.448  -0.659  -9.726  1.00  0.00     0.198 A 
ATOM     90  F   UNL     1      -0.720  -0.014 -11.190  1.00  0.00    -0.203 F 
ATOM     91  F   UNL     1      -3.558   0.806  -6.604  1.00  0.00    -0.200 F 
ATOM     92  C   UNL     1      -3.173  -0.457  -8.561  1.00  0.00     0.200 A 
ATOM     93  F   UNL     1      -2.747  -1.687 -10.532  1.00  0.00    -0.200 F 
ATOM     94  F   UNL     1      -4.161  -1.300  -8.231  1.00  0.00    -0.200 F 
ENDBRANCH  60  84
BRANCH  72  95
ATOM     95  C   UNL     1       0.096   6.143 -14.142  1.00  0.00     0.064 A 
ATOM     96  C   UNL     1       0.438   5.818 -15.463  1.00  0.00     0.173 A 
ATOM     97  C   UNL     1      -0.956   7.044 -13.929  1.00  0.00     0.173 A 
ATOM     98  F   UNL     1       1.443   4.966 -15.711  1.00  0.00    -0.203 F 
ATOM     99  C   UNL     1      -0.231   6.400 -16.534  1.00  0.00     0.198 A 
ATOM    100  C   UNL     1      -1.637   7.606 -15.004  1.00  0.00     0.198 A 
ATOM    101  F   UNL     1      -1.323   7.371 -12.681  1.00  0.00    -0.203 F 
ATOM    102  F   UNL     1       0.137   6.109 -17.790  1.00  0.00    -0.200 F 
ATOM    103  C   UNL     1      -1.267   7.294 -16.304  1.00  0.00     0.200 A 
ATOM    104  F   UNL     1      -2.649   8.456 -14.781  1.00  0.00    -0.200 F 
ATOM    105  F   UNL     1      -1.907   7.857 -17.337  1.00  0.00    -0.200 F 
ENDBRANCH  72  95
ENDBRANCH  46  47
ENDBRANCH  38  41
ENDBRANCH  36  37
ENDBRANCH  35  36
ENDBRANCH  34  35
ENDBRANCH   3  34
TORSDOF 16
