REMARK SMILES CC(C)(C)OC(=O)N1CCN(N[C@@H](C(=O)NCCCNC(=O)c2ccc(-c3c4nc(c(-c5c(F)c(F)c(F)c(F)c5F)c5ccc([nH]5)c(-c5c(F)c(F)c(F)c(F)c5F)c5nc(c(-c6c(F)c(F)c(F)c(F)c6F)c6ccc3[nH]6)C=C5)C=C4)cc2)c2ccccc2Cl)CC1
REMARK SMILES IDX 17 1 16 2 14 3 15 4 13 6 12 7 11 9 6 10 7 11 8 12 9 13 94 14
REMARK SMILES IDX 10 15 93 16 5 17 2 18 1 19 3 20 4 21 86 22 87 23 91 24 88 25
REMARK SMILES IDX 90 26 92 27 89 28 18 29 19 30 20 31 21 32 22 34 23 35 24 36
REMARK SMILES IDX 85 37 25 38 84 39 26 40 27 41 28 42 78 43 29 44 83 45 77 46
REMARK SMILES IDX 79 47 30 48 82 49 76 50 75 51 31 53 63 54 43 55 62 56 44 57
REMARK SMILES IDX 47 58 61 59 80 60 45 61 46 62 60 64 81 65 48 66 32 67 33 68
REMARK SMILES IDX 41 69 34 70 35 71 39 72 42 73 36 74 37 75 40 76 38 77 64 78
REMARK SMILES IDX 65 79 73 80 66 81 67 82 71 83 74 84 68 85 69 86 72 87 70 88
REMARK SMILES IDX 49 89 50 90 58 91 51 92 52 93 56 94 59 95 53 96 54 97 57 98
REMARK SMILES IDX 55 99
REMARK H PARENT 16 5 12 8 20 33 79 52 47 63
REMARK Flexibility Score: inf
ROOT
ATOM      1  C   UNL     1       0.251  -8.477   3.369  1.00  0.00     0.117 C 
ENDROOT
BRANCH   1   2
ATOM      2  N   UNL     1       1.321  -9.124   4.107  1.00  0.00    -0.354 N 
ATOM      3  C   UNL     1       2.238  -8.563   4.961  1.00  0.00     0.243 C 
ATOM      4  O   UNL     1       3.301  -9.183   5.088  1.00  0.00    -0.273 OA
ATOM      5  H   UNL     1       1.399 -10.097   3.978  1.00  0.00     0.163 HD
BRANCH   3   6
ATOM      6  C   UNL     1       1.939  -7.231   5.748  1.00  0.00     0.190 C 
BRANCH   6   7
ATOM      7  N   UNL     1       2.498  -6.092   4.959  1.00  0.00    -0.238 NA
ATOM      8  H   UNL     1       2.594  -5.289   5.580  1.00  0.00     0.143 HD
BRANCH   7   9
ATOM      9  N   UNL     1       1.679  -5.697   3.826  1.00  0.00    -0.240 NA
ATOM     10  C   UNL     1       0.533  -1.693   3.164  1.00  0.00     0.410 C 
ATOM     11  O   UNL     1      -0.430  -1.180   3.711  1.00  0.00    -0.224 OA
ATOM     12  N   UNL     1       1.153  -2.818   3.653  1.00  0.00    -0.306 N 
ATOM     13  C   UNL     1       0.475  -3.600   4.664  1.00  0.00     0.140 C 
ATOM     14  C   UNL     1       2.473  -3.314   3.278  1.00  0.00     0.140 C 
ATOM     15  C   UNL     1       0.398  -5.060   4.221  1.00  0.00     0.124 C 
ATOM     16  C   UNL     1       2.436  -4.808   2.905  1.00  0.00     0.124 C 
BRANCH  10  17
ATOM     17  O   UNL     1       1.072  -1.268   1.992  1.00  0.00    -0.444 OA
BRANCH  17  18
ATOM     18  C   UNL     1       0.528  -0.085   1.349  1.00  0.00     0.106 C 
ATOM     19  C   UNL     1       1.186  -0.044  -0.037  1.00  0.00     0.056 C 
ATOM     20  C   UNL     1       0.948   1.154   2.145  1.00  0.00     0.056 C 
ATOM     21  C   UNL     1      -0.994  -0.146   1.138  1.00  0.00     0.056 C 
ENDBRANCH  17  18
ENDBRANCH  10  17
ENDBRANCH   7   9
ENDBRANCH   6   7
BRANCH   6  22
ATOM     22  C   UNL     1       2.503  -7.253   7.198  1.00  0.00    -0.002 A 
ATOM     23  C   UNL     1       2.598  -8.491   7.879  1.00  0.00     0.007 A 
ATOM     24  C   UNL     1       2.854  -6.108   7.950  1.00  0.00     0.046 A 
ATOM     25  C   UNL     1       3.093  -8.592   9.185  1.00  0.00     0.000 A 
ATOM     26  C   UNL     1       3.345  -6.217   9.263  1.00  0.00     0.021 A 
ATOM     27  Cl  UNL     1       2.704  -4.477   7.407  1.00  0.00    -0.084 Cl
ATOM     28  C   UNL     1       3.477  -7.454   9.876  1.00  0.00     0.002 A 
ENDBRANCH   6  22
ENDBRANCH   3   6
ENDBRANCH   1   2
BRANCH   1  29
ATOM     29  C   UNL     1       0.766  -7.931   2.035  1.00  0.00     0.042 C 
BRANCH  29  30
ATOM     30  C   UNL     1       0.846  -8.964   0.923  1.00  0.00     0.118 C 
BRANCH  30  31
ATOM     31  N   UNL     1      -0.463  -9.300   0.391  1.00  0.00    -0.352 N 
ATOM     32  C   UNL     1      -0.938  -9.224  -0.896  1.00  0.00     0.251 C 
ATOM     33  H   UNL     1      -1.109  -9.635   1.054  1.00  0.00     0.163 HD
ATOM     34  O   UNL     1      -2.140  -9.361  -1.103  1.00  0.00    -0.269 OA
BRANCH  32  35
ATOM     35  C   UNL     1      -0.023  -8.961  -2.032  1.00  0.00     0.039 A 
ATOM     36  C   UNL     1      -0.477  -8.164  -3.088  1.00  0.00     0.014 A 
ATOM     37  C   UNL     1       1.255  -9.523  -2.091  1.00  0.00     0.014 A 
ATOM     38  C   UNL     1       0.363  -7.893  -4.171  1.00  0.00     0.010 A 
ATOM     39  C   UNL     1       2.123  -9.178  -3.123  1.00  0.00     0.010 A 
ATOM     40  C   UNL     1       1.683  -8.372  -4.183  1.00  0.00    -0.014 A 
BRANCH  40  41
ATOM     41  C   UNL     1       2.608  -8.062  -5.303  1.00  0.00     0.031 A 
ATOM     42  C   UNL     1       3.162  -9.174  -6.152  1.00  0.00     0.074 A 
ATOM     43  C   UNL     1       2.998  -6.790  -5.515  1.00  0.00     0.049 A 
ATOM     44  N   UNL     1       4.043  -9.120  -7.120  1.00  0.00    -0.248 NA
ATOM     45  C   UNL     1       2.683 -10.534  -5.856  1.00  0.00     0.031 C 
ATOM     46  C   UNL     1       2.565  -5.632  -4.732  1.00  0.00     0.029 A 
ATOM     47  N   UNL     1       3.856  -6.259  -6.446  1.00  0.00    -0.354 N 
ATOM     48  C   UNL     1       4.231 -10.432  -7.534  1.00  0.00     0.074 A 
ATOM     49  C   UNL     1       3.422 -11.267  -6.675  1.00  0.00     0.031 C 
ATOM     50  C   UNL     1       3.142  -4.526  -5.226  1.00  0.00     0.029 A 
ATOM     51  C   UNL     1       4.021  -4.900  -6.330  1.00  0.00     0.049 A 
ATOM     52  H   UNL     1       4.310  -6.800  -7.131  1.00  0.00     0.167 HD
ATOM     53  C   UNL     1       4.988 -10.896  -8.557  1.00  0.00     0.037 A 
ATOM     54  C   UNL     1       4.803  -4.054  -7.027  1.00  0.00     0.037 A 
ATOM     55  C   UNL     1       5.776 -10.057  -9.421  1.00  0.00     0.049 A 
ATOM     56  C   UNL     1       5.651  -4.597  -8.146  1.00  0.00     0.074 A 
ATOM     57  C   UNL     1       6.540 -10.420 -10.517  1.00  0.00     0.029 A 
ATOM     58  N   UNL     1       5.905  -8.682  -9.282  1.00  0.00    -0.354 N 
ATOM     59  N   UNL     1       5.770  -5.831  -8.571  1.00  0.00    -0.248 NA
ATOM     60  C   UNL     1       6.469  -3.627  -8.887  1.00  0.00     0.031 C 
ATOM     61  C   UNL     1       7.174  -9.274 -11.006  1.00  0.00     0.029 A 
ATOM     62  C   UNL     1       6.756  -8.186 -10.257  1.00  0.00     0.049 A 
ATOM     63  H   UNL     1       5.458  -8.139  -8.593  1.00  0.00     0.167 HD
ATOM     64  C   UNL     1       6.649  -5.783  -9.645  1.00  0.00     0.074 A 
ATOM     65  C   UNL     1       7.020  -4.394  -9.817  1.00  0.00     0.031 C 
ATOM     66  C   UNL     1       7.107  -6.798 -10.420  1.00  0.00     0.037 A 
BRANCH  53  67
ATOM     67  C   UNL     1       5.000 -12.380  -8.799  1.00  0.00     0.064 A 
ATOM     68  C   UNL     1       3.863 -13.060  -9.264  1.00  0.00     0.173 A 
ATOM     69  C   UNL     1       6.170 -13.127  -8.596  1.00  0.00     0.173 A 
ATOM     70  F   UNL     1       2.714 -12.397  -9.465  1.00  0.00    -0.203 F 
ATOM     71  C   UNL     1       3.888 -14.435  -9.483  1.00  0.00     0.198 A 
ATOM     72  C   UNL     1       6.202 -14.496  -8.850  1.00  0.00     0.198 A 
ATOM     73  F   UNL     1       7.288 -12.528  -8.159  1.00  0.00    -0.203 F 
ATOM     74  F   UNL     1       2.774 -15.070  -9.872  1.00  0.00    -0.200 F 
ATOM     75  C   UNL     1       5.059 -15.150  -9.283  1.00  0.00     0.200 A 
ATOM     76  F   UNL     1       7.338 -15.183  -8.672  1.00  0.00    -0.200 F 
ATOM     77  F   UNL     1       5.084 -16.472  -9.502  1.00  0.00    -0.200 F 
ENDBRANCH  53  67
BRANCH  54  78
ATOM     78  C   UNL     1       4.812  -2.604  -6.695  1.00  0.00     0.064 A 
ATOM     79  C   UNL     1       4.292  -1.655  -7.587  1.00  0.00     0.173 A 
ATOM     80  C   UNL     1       5.344  -2.136  -5.484  1.00  0.00     0.173 A 
ATOM     81  F   UNL     1       3.788  -2.050  -8.765  1.00  0.00    -0.203 F 
ATOM     82  C   UNL     1       4.328  -0.293  -7.293  1.00  0.00     0.198 A 
ATOM     83  C   UNL     1       5.349  -0.777  -5.177  1.00  0.00     0.198 A 
ATOM     84  F   UNL     1       5.848  -3.001  -4.592  1.00  0.00    -0.203 F 
ATOM     85  F   UNL     1       3.872   0.595  -8.186  1.00  0.00    -0.200 F 
ATOM     86  C   UNL     1       4.851   0.144  -6.085  1.00  0.00     0.200 A 
ATOM     87  F   UNL     1       5.838  -0.360  -4.001  1.00  0.00    -0.200 F 
ATOM     88  F   UNL     1       4.880   1.453  -5.800  1.00  0.00    -0.200 F 
ENDBRANCH  54  78
BRANCH  66  89
ATOM     89  C   UNL     1       8.029  -6.441 -11.550  1.00  0.00     0.064 A 
ATOM     90  C   UNL     1       9.345  -6.012 -11.325  1.00  0.00     0.173 A 
ATOM     91  C   UNL     1       7.601  -6.575 -12.881  1.00  0.00     0.173 A 
ATOM     92  F   UNL     1       9.798  -5.853 -10.072  1.00  0.00    -0.203 F 
ATOM     93  C   UNL     1      10.190  -5.705 -12.388  1.00  0.00     0.198 A 
ATOM     94  C   UNL     1       8.460  -6.302 -13.941  1.00  0.00     0.198 A 
ATOM     95  F   UNL     1       6.355  -6.990 -13.152  1.00  0.00    -0.203 F 
ATOM     96  F   UNL     1      11.427  -5.248 -12.148  1.00  0.00    -0.200 F 
ATOM     97  C   UNL     1       9.750  -5.859 -13.695  1.00  0.00     0.200 A 
ATOM     98  F   UNL     1       8.038  -6.468 -15.203  1.00  0.00    -0.200 F 
ATOM     99  F   UNL     1      10.569  -5.574 -14.717  1.00  0.00    -0.200 F 
ENDBRANCH  66  89
ENDBRANCH  40  41
ENDBRANCH  32  35
ENDBRANCH  30  31
ENDBRANCH  29  30
ENDBRANCH   1  29
TORSDOF 15
