REMARK SMILES CC(C)C[C@H](C)NS(=O)(=O)c1cc(C(=O)NCCCNC(=O)c2ccc(-c3c4nc(c(-c5c(F)c(F)c(F)c(F)c5F)c5ccc([nH]5)c(-c5c(F)c(F)c(F)c(F)c5F)c5nc(c(-c6c(F)c(F)c(F)c(F)c6F)c6ccc3[nH]6)C=C5)C=C4)cc2)ccc1Cl
REMARK SMILES IDX 14 1 15 2 16 3 13 5 11 6 12 7 88 8 87 9 89 10 86 11 8 12
REMARK SMILES IDX 9 13 10 14 7 15 5 17 6 18 4 19 2 20 1 21 3 22 17 23 18 24
REMARK SMILES IDX 19 25 20 26 21 27 22 29 23 30 24 31 85 32 25 33 84 34 26 35
REMARK SMILES IDX 27 36 28 37 78 38 29 39 83 40 77 41 79 42 30 43 82 44 76 45
REMARK SMILES IDX 75 46 31 48 63 49 43 50 62 51 44 52 47 53 61 54 80 55 45 56
REMARK SMILES IDX 46 57 60 59 81 60 48 61 32 62 33 63 41 64 34 65 35 66 39 67
REMARK SMILES IDX 42 68 36 69 37 70 40 71 38 72 64 73 65 74 73 75 66 76 67 77
REMARK SMILES IDX 71 78 74 79 68 80 69 81 72 82 70 83 49 84 50 85 58 86 51 87
REMARK SMILES IDX 52 88 56 89 59 90 53 91 54 92 57 93 55 94
REMARK H PARENT 16 4 7 16 20 28 79 47 47 58
REMARK Flexibility Score: inf
ROOT
ATOM      1  C   UNL     1      -1.635  -2.231  -6.090  1.00  0.00     0.251 C 
ATOM      2  O   UNL     1      -1.198  -3.344  -5.802  1.00  0.00    -0.269 OA
ATOM      3  N   UNL     1      -1.626  -1.870  -7.408  1.00  0.00    -0.352 N 
ATOM      4  H   UNL     1      -1.280  -2.571  -8.007  1.00  0.00     0.163 HD
ENDROOT
BRANCH   1   5
ATOM      5  C   UNL     1      -2.189  -1.379  -5.004  1.00  0.00     0.041 A 
ATOM      6  C   UNL     1      -3.293  -1.359  -2.823  1.00  0.00     0.101 A 
ATOM      7  C   UNL     1      -2.758  -2.057  -3.918  1.00  0.00     0.037 A 
ATOM      8  C   UNL     1      -3.282   0.033  -2.811  1.00  0.00     0.061 A 
ATOM      9  C   UNL     1      -2.692   0.714  -3.883  1.00  0.00     0.023 A 
ATOM     10  Cl  UNL     1      -3.912   0.994  -1.525  1.00  0.00    -0.083 Cl
ATOM     11  C   UNL     1      -2.130   0.014  -4.961  1.00  0.00     0.015 A 
BRANCH   6  12
ATOM     12  S   UNL     1      -3.968  -2.318  -1.501  1.00  0.00     0.242 S 
ATOM     13  O   UNL     1      -3.673  -3.702  -1.779  1.00  0.00    -0.207 OA
ATOM     14  O   UNL     1      -5.335  -1.883  -1.299  1.00  0.00    -0.207 OA
BRANCH  12  15
ATOM     15  N   UNL     1      -3.111  -1.869  -0.129  1.00  0.00    -0.208 NA
ATOM     16  H   UNL     1      -3.461  -0.947   0.129  1.00  0.00     0.141 HD
BRANCH  15  17
ATOM     17  C   UNL     1      -1.646  -1.770  -0.085  1.00  0.00     0.067 C 
ATOM     18  C   UNL     1      -1.265  -0.976   1.169  1.00  0.00     0.025 C 
BRANCH  17  19
ATOM     19  C   UNL     1      -0.907  -3.116  -0.161  1.00  0.00     0.022 C 
BRANCH  19  20
ATOM     20  C   UNL     1      -1.169  -4.152   0.955  1.00  0.00    -0.016 C 
ATOM     21  C   UNL     1      -2.394  -5.021   0.673  1.00  0.00     0.007 C 
ATOM     22  C   UNL     1       0.055  -5.067   1.103  1.00  0.00     0.007 C 
ENDBRANCH  19  20
ENDBRANCH  17  19
ENDBRANCH  15  17
ENDBRANCH  12  15
ENDBRANCH   6  12
ENDBRANCH   1   5
BRANCH   3  23
ATOM     23  C   UNL     1      -2.024  -0.659  -8.098  1.00  0.00     0.118 C 
BRANCH  23  24
ATOM     24  C   UNL     1      -0.802   0.202  -8.415  1.00  0.00     0.042 C 
BRANCH  24  25
ATOM     25  C   UNL     1       0.083  -0.392  -9.511  1.00  0.00     0.118 C 
BRANCH  25  26
ATOM     26  N   UNL     1      -0.550  -0.316 -10.819  1.00  0.00    -0.352 N 
ATOM     27  C   UNL     1      -0.162   0.357 -11.949  1.00  0.00     0.251 C 
ATOM     28  H   UNL     1      -1.387  -0.828 -10.906  1.00  0.00     0.163 HD
ATOM     29  O   UNL     1      -0.958   0.498 -12.873  1.00  0.00    -0.269 OA
BRANCH  27  30
ATOM     30  C   UNL     1       1.201   0.920 -12.066  1.00  0.00     0.039 A 
ATOM     31  C   UNL     1       1.361   2.172 -12.668  1.00  0.00     0.014 A 
ATOM     32  C   UNL     1       2.323   0.198 -11.649  1.00  0.00     0.014 A 
ATOM     33  C   UNL     1       2.639   2.720 -12.808  1.00  0.00     0.010 A 
ATOM     34  C   UNL     1       3.591   0.772 -11.731  1.00  0.00     0.010 A 
ATOM     35  C   UNL     1       3.762   2.035 -12.317  1.00  0.00    -0.014 A 
BRANCH  35  36
ATOM     36  C   UNL     1       5.125   2.616 -12.423  1.00  0.00     0.031 A 
ATOM     37  C   UNL     1       6.163   1.952 -13.284  1.00  0.00     0.074 A 
ATOM     38  C   UNL     1       5.441   3.710 -11.703  1.00  0.00     0.049 A 
ATOM     39  N   UNL     1       7.431   2.246 -13.431  1.00  0.00    -0.248 NA
ATOM     40  C   UNL     1       5.724   0.788 -14.070  1.00  0.00     0.031 C 
ATOM     41  C   UNL     1       4.531   4.426 -10.807  1.00  0.00     0.029 A 
ATOM     42  N   UNL     1       6.622   4.402 -11.598  1.00  0.00    -0.354 N 
ATOM     43  C   UNL     1       7.939   1.304 -14.315  1.00  0.00     0.074 A 
ATOM     44  C   UNL     1       6.858   0.396 -14.633  1.00  0.00     0.031 C 
ATOM     45  C   UNL     1       5.183   5.461 -10.254  1.00  0.00     0.029 A 
ATOM     46  C   UNL     1       6.564   5.461 -10.725  1.00  0.00     0.049 A 
ATOM     47  H   UNL     1       7.433   4.163 -12.102  1.00  0.00     0.167 HD
ATOM     48  C   UNL     1       9.187   1.218 -14.834  1.00  0.00     0.037 A 
ATOM     49  C   UNL     1       7.522   6.325 -10.338  1.00  0.00     0.037 A 
ATOM     50  C   UNL     1      10.256   2.132 -14.531  1.00  0.00     0.049 A 
ATOM     51  C   UNL     1       8.904   6.197 -10.922  1.00  0.00     0.074 A 
ATOM     52  C   UNL     1      11.552   2.139 -15.018  1.00  0.00     0.029 A 
ATOM     53  N   UNL     1      10.149   3.211 -13.666  1.00  0.00    -0.354 N 
ATOM     54  N   UNL     1       9.360   5.323 -11.786  1.00  0.00    -0.248 NA
ATOM     55  C   UNL     1       9.903   7.181 -10.483  1.00  0.00     0.031 C 
ATOM     56  C   UNL     1      12.237   3.206 -14.427  1.00  0.00     0.029 A 
ATOM     57  C   UNL     1      11.356   3.887 -13.603  1.00  0.00     0.049 A 
ATOM     58  H   UNL     1       9.335   3.459 -13.171  1.00  0.00     0.167 HD
ATOM     59  C   UNL     1      10.684   5.670 -12.016  1.00  0.00     0.074 A 
ATOM     60  C   UNL     1      10.955   6.844 -11.214  1.00  0.00     0.031 C 
ATOM     61  C   UNL     1      11.598   5.068 -12.816  1.00  0.00     0.037 A 
BRANCH  48  62
ATOM     62  C   UNL     1       9.462   0.106 -15.804  1.00  0.00     0.064 A 
ATOM     63  C   UNL     1       8.929   0.123 -17.101  1.00  0.00     0.173 A 
ATOM     64  C   UNL     1      10.311  -0.956 -15.457  1.00  0.00     0.173 A 
ATOM     65  F   UNL     1       8.103   1.111 -17.478  1.00  0.00    -0.203 F 
ATOM     66  C   UNL     1       9.219  -0.892 -18.009  1.00  0.00     0.198 A 
ATOM     67  C   UNL     1      10.621  -1.955 -16.376  1.00  0.00     0.198 A 
ATOM     68  F   UNL     1      10.852  -1.017 -14.230  1.00  0.00    -0.203 F 
ATOM     69  F   UNL     1       8.668  -0.873 -19.231  1.00  0.00    -0.200 F 
ATOM     70  C   UNL     1      10.071  -1.925 -17.649  1.00  0.00     0.200 A 
ATOM     71  F   UNL     1      11.454  -2.946 -16.031  1.00  0.00    -0.200 F 
ATOM     72  F   UNL     1      10.360  -2.894 -18.528  1.00  0.00    -0.200 F 
ENDBRANCH  48  62
BRANCH  49  73
ATOM     73  C   UNL     1       7.214   7.396  -9.355  1.00  0.00     0.064 A 
ATOM     74  C   UNL     1       7.206   8.745  -9.738  1.00  0.00     0.173 A 
ATOM     75  C   UNL     1       6.954   7.098  -8.010  1.00  0.00     0.173 A 
ATOM     76  F   UNL     1       7.469   9.081 -11.009  1.00  0.00    -0.203 F 
ATOM     77  C   UNL     1       6.982   9.756  -8.806  1.00  0.00     0.198 A 
ATOM     78  C   UNL     1       6.700   8.109  -7.085  1.00  0.00     0.198 A 
ATOM     79  F   UNL     1       6.943   5.823  -7.593  1.00  0.00    -0.203 F 
ATOM     80  F   UNL     1       7.038  11.039  -9.188  1.00  0.00    -0.200 F 
ATOM     81  C   UNL     1       6.726   9.437  -7.481  1.00  0.00     0.200 A 
ATOM     82  F   UNL     1       6.439   7.796  -5.808  1.00  0.00    -0.200 F 
ATOM     83  F   UNL     1       6.516  10.410  -6.584  1.00  0.00    -0.200 F 
ENDBRANCH  49  73
BRANCH  61  84
ATOM     84  C   UNL     1      12.957   5.696 -12.900  1.00  0.00     0.064 A 
ATOM     85  C   UNL     1      13.872   5.612 -11.841  1.00  0.00     0.173 A 
ATOM     86  C   UNL     1      13.359   6.361 -14.069  1.00  0.00     0.173 A 
ATOM     87  F   UNL     1      13.527   5.002 -10.697  1.00  0.00    -0.203 F 
ATOM     88  C   UNL     1      15.133   6.194 -11.940  1.00  0.00     0.198 A 
ATOM     89  C   UNL     1      14.630   6.916 -14.174  1.00  0.00     0.198 A 
ATOM     90  F   UNL     1      12.521   6.462 -15.111  1.00  0.00    -0.203 F 
ATOM     91  F   UNL     1      15.976   6.142 -10.899  1.00  0.00    -0.200 F 
ATOM     92  C   UNL     1      15.514   6.838 -13.108  1.00  0.00     0.200 A 
ATOM     93  F   UNL     1      15.001   7.529 -15.307  1.00  0.00    -0.200 F 
ATOM     94  F   UNL     1      16.730   7.393 -13.202  1.00  0.00    -0.200 F 
ENDBRANCH  61  84
ENDBRANCH  35  36
ENDBRANCH  27  30
ENDBRANCH  25  26
ENDBRANCH  24  25
ENDBRANCH  23  24
ENDBRANCH   3  23
TORSDOF 15
