REMARK SMILES Cc1c(I)c(C(=O)NCCCNC(=O)c2ccc(-c3c4nc(c(-c5c(F)c(F)c(F)c(F)c5F)c5ccc([nH]5)c(-c5c(F)c(F)c(F)c(F)c5F)c5nc(c(-c6c(F)c(F)c(F)c(F)c6F)c6ccc3[nH]6)C=C5)C=C4)cc2)nn1C(F)F
REMARK SMILES IDX 10 1 9 2 8 3 6 4 7 5 5 7 1 8 2 9 3 10 79 11 4 12 78 13 80 14
REMARK SMILES IDX 81 15 82 16 11 17 12 18 13 19 14 21 15 22 16 23 77 24 17 25
REMARK SMILES IDX 76 26 18 27 19 28 20 29 70 30 21 31 75 32 69 33 71 34 22 35
REMARK SMILES IDX 74 36 68 37 67 38 23 40 55 41 35 42 54 43 36 44 39 45 53 46
REMARK SMILES IDX 72 47 37 48 38 49 52 51 73 52 40 53 24 54 25 55 33 56 26 57
REMARK SMILES IDX 27 58 31 59 34 60 28 61 29 62 32 63 30 64 56 65 57 66 65 67
REMARK SMILES IDX 58 68 59 69 63 70 66 71 60 72 61 73 64 74 62 75 41 76 42 77
REMARK SMILES IDX 50 78 43 79 44 80 48 81 51 82 45 83 46 84 49 85 47 86
REMARK H PARENT 8 6 12 20 71 39 39 50
REMARK Flexibility Score: inf
ROOT
ATOM      1  C   UNL     1      -3.398  -5.589  -0.605  1.00  0.00     0.042 C 
ENDROOT
BRANCH   1   2
ATOM      2  C   UNL     1      -2.475  -5.564   0.617  1.00  0.00     0.118 C 
BRANCH   2   3
ATOM      3  N   UNL     1      -1.114  -5.970   0.295  1.00  0.00    -0.351 N 
ATOM      4  C   UNL     1       0.009  -5.218   0.011  1.00  0.00     0.272 C 
ATOM      5  O   UNL     1       1.052  -5.851  -0.172  1.00  0.00    -0.267 OA
ATOM      6  H   UNL     1      -0.970  -6.943   0.275  1.00  0.00     0.163 HD
BRANCH   4   7
ATOM      7  C   UNL     1      -0.048  -3.740  -0.046  1.00  0.00     0.163 A 
ATOM      8  C   UNL     1       1.062  -0.177  -0.041  1.00  0.00     0.068 C 
ATOM      9  C   UNL     1       0.469  -1.541  -0.056  1.00  0.00     0.056 A 
ATOM     10  C   UNL     1       1.027  -2.806  -0.058  1.00  0.00     0.067 A 
ATOM     11  N   UNL     1      -0.891  -1.761  -0.041  1.00  0.00    -0.207 N 
ATOM     12  I   UNL     1       3.028  -3.187  -0.027  1.00  0.00    -0.040 I 
ATOM     13  N   UNL     1      -1.214  -3.070  -0.113  1.00  0.00    -0.161 NA
BRANCH  11  14
ATOM     14  C   UNL     1      -1.961  -0.768   0.086  1.00  0.00     0.465 C 
ATOM     15  F   UNL     1      -2.874  -0.879  -0.916  1.00  0.00    -0.184 F 
ATOM     16  F   UNL     1      -2.637  -0.919   1.258  1.00  0.00    -0.184 F 
ENDBRANCH  11  14
ENDBRANCH   4   7
ENDBRANCH   2   3
ENDBRANCH   1   2
BRANCH   1  17
ATOM     17  C   UNL     1      -3.826  -7.007  -0.966  1.00  0.00     0.118 C 
BRANCH  17  18
ATOM     18  N   UNL     1      -4.729  -7.590   0.028  1.00  0.00    -0.352 N 
ATOM     19  C   UNL     1      -5.291  -8.850   0.068  1.00  0.00     0.251 C 
ATOM     20  H   UNL     1      -4.970  -6.997   0.776  1.00  0.00     0.163 HD
ATOM     21  O   UNL     1      -6.259  -9.076   0.775  1.00  0.00    -0.269 OA
BRANCH  19  22
ATOM     22  C   UNL     1      -4.725  -9.921  -0.774  1.00  0.00     0.039 A 
ATOM     23  C   UNL     1      -5.572 -10.825  -1.420  1.00  0.00     0.014 A 
ATOM     24  C   UNL     1      -3.344 -10.013  -0.929  1.00  0.00     0.014 A 
ATOM     25  C   UNL     1      -5.022 -11.752  -2.300  1.00  0.00     0.010 A 
ATOM     26  C   UNL     1      -2.812 -10.838  -1.896  1.00  0.00     0.010 A 
ATOM     27  C   UNL     1      -3.641 -11.728  -2.567  1.00  0.00    -0.014 A 
BRANCH  27  28
ATOM     28  C   UNL     1      -3.105 -12.527  -3.668  1.00  0.00     0.031 A 
ATOM     29  C   UNL     1      -3.832 -12.333  -4.951  1.00  0.00     0.074 A 
ATOM     30  C   UNL     1      -1.959 -13.240  -3.621  1.00  0.00     0.049 A 
ATOM     31  N   UNL     1      -4.598 -13.186  -5.543  1.00  0.00    -0.248 NA
ATOM     32  C   UNL     1      -3.835 -10.999  -5.573  1.00  0.00     0.031 C 
ATOM     33  C   UNL     1      -0.974 -13.278  -2.536  1.00  0.00     0.029 A 
ATOM     34  N   UNL     1      -1.376 -14.013  -4.586  1.00  0.00    -0.354 N 
ATOM     35  C   UNL     1      -5.006 -12.578  -6.727  1.00  0.00     0.074 A 
ATOM     36  C   UNL     1      -4.670 -11.186  -6.599  1.00  0.00     0.031 C 
ATOM     37  C   UNL     1       0.174 -13.829  -2.986  1.00  0.00     0.029 A 
ATOM     38  C   UNL     1      -0.049 -14.340  -4.326  1.00  0.00     0.049 A 
ATOM     39  H   UNL     1      -1.852 -14.311  -5.394  1.00  0.00     0.167 HD
ATOM     40  C   UNL     1      -5.303 -13.346  -7.812  1.00  0.00     0.037 A 
ATOM     41  C   UNL     1       0.814 -14.980  -5.151  1.00  0.00     0.037 A 
ATOM     42  C   UNL     1      -5.464 -14.726  -7.418  1.00  0.00     0.049 A 
ATOM     43  C   UNL     1       0.007 -15.747  -6.124  1.00  0.00     0.074 A 
ATOM     44  C   UNL     1      -6.354 -15.459  -6.663  1.00  0.00     0.029 A 
ATOM     45  N   UNL     1      -4.320 -15.470  -7.525  1.00  0.00    -0.354 N 
ATOM     46  N   UNL     1      -0.709 -16.789  -5.808  1.00  0.00    -0.248 NA
ATOM     47  C   UNL     1      -0.279 -15.166  -7.429  1.00  0.00     0.031 C 
ATOM     48  C   UNL     1      -5.600 -16.543  -6.115  1.00  0.00     0.029 A 
ATOM     49  C   UNL     1      -4.292 -16.466  -6.593  1.00  0.00     0.049 A 
ATOM     50  H   UNL     1      -3.611 -15.307  -8.188  1.00  0.00     0.167 HD
ATOM     51  C   UNL     1      -1.815 -16.698  -6.628  1.00  0.00     0.074 A 
ATOM     52  C   UNL     1      -1.402 -15.827  -7.721  1.00  0.00     0.031 C 
ATOM     53  C   UNL     1      -3.046 -17.062  -6.163  1.00  0.00     0.037 A 
BRANCH  40  54
ATOM     54  C   UNL     1      -4.918 -13.005  -9.246  1.00  0.00     0.064 A 
ATOM     55  C   UNL     1      -5.263 -13.920 -10.267  1.00  0.00     0.173 A 
ATOM     56  C   UNL     1      -3.941 -12.050  -9.603  1.00  0.00     0.173 A 
ATOM     57  F   UNL     1      -6.176 -14.879 -10.046  1.00  0.00    -0.203 F 
ATOM     58  C   UNL     1      -4.601 -13.945 -11.499  1.00  0.00     0.198 A 
ATOM     59  C   UNL     1      -3.318 -12.049 -10.852  1.00  0.00     0.198 A 
ATOM     60  F   UNL     1      -3.460 -11.154  -8.737  1.00  0.00    -0.203 F 
ATOM     61  F   UNL     1      -4.862 -14.924 -12.376  1.00  0.00    -0.200 F 
ATOM     62  C   UNL     1      -3.619 -13.017 -11.785  1.00  0.00     0.200 A 
ATOM     63  F   UNL     1      -2.353 -11.152 -11.102  1.00  0.00    -0.200 F 
ATOM     64  F   UNL     1      -2.930 -13.082 -12.931  1.00  0.00    -0.200 F 
ENDBRANCH  40  54
BRANCH  41  65
ATOM     65  C   UNL     1       2.285 -14.854  -5.280  1.00  0.00     0.064 A 
ATOM     66  C   UNL     1       3.031 -15.809  -5.993  1.00  0.00     0.173 A 
ATOM     67  C   UNL     1       2.942 -13.648  -4.974  1.00  0.00     0.173 A 
ATOM     68  F   UNL     1       2.474 -16.975  -6.351  1.00  0.00    -0.203 F 
ATOM     69  C   UNL     1       4.336 -15.549  -6.424  1.00  0.00     0.198 A 
ATOM     70  C   UNL     1       4.248 -13.394  -5.397  1.00  0.00     0.198 A 
ATOM     71  F   UNL     1       2.298 -12.654  -4.347  1.00  0.00    -0.203 F 
ATOM     72  F   UNL     1       4.983 -16.452  -7.174  1.00  0.00    -0.200 F 
ATOM     73  C   UNL     1       4.937 -14.335  -6.141  1.00  0.00     0.200 A 
ATOM     74  F   UNL     1       4.809 -12.203  -5.144  1.00  0.00    -0.200 F 
ATOM     75  F   UNL     1       6.157 -14.055  -6.619  1.00  0.00    -0.200 F 
ENDBRANCH  41  65
BRANCH  53  76
ATOM     76  C   UNL     1      -3.083 -18.035  -5.022  1.00  0.00     0.064 A 
ATOM     77  C   UNL     1      -2.551 -17.801  -3.743  1.00  0.00     0.173 A 
ATOM     78  C   UNL     1      -3.737 -19.257  -5.236  1.00  0.00     0.173 A 
ATOM     79  F   UNL     1      -1.994 -16.625  -3.427  1.00  0.00    -0.203 F 
ATOM     80  C   UNL     1      -2.615 -18.776  -2.749  1.00  0.00     0.198 A 
ATOM     81  C   UNL     1      -3.838 -20.210  -4.229  1.00  0.00     0.198 A 
ATOM     82  F   UNL     1      -4.302 -19.519  -6.425  1.00  0.00    -0.203 F 
ATOM     83  F   UNL     1      -2.063 -18.549  -1.548  1.00  0.00    -0.200 F 
ATOM     84  C   UNL     1      -3.261 -19.977  -2.992  1.00  0.00     0.200 A 
ATOM     85  F   UNL     1      -4.504 -21.350  -4.457  1.00  0.00    -0.200 F 
ATOM     86  F   UNL     1      -3.344 -20.906  -2.029  1.00  0.00    -0.200 F 
ENDBRANCH  53  76
ENDBRANCH  27  28
ENDBRANCH  19  22
ENDBRANCH  17  18
ENDBRANCH   1  17
TORSDOF 11
