REMARK SMILES CCC[N@@H+]1CC2(CCN(c3nccnc3C)CC2)C[C@H]1C(=O)NCCCNC(=O)c1ccc(-c2c3nc(c(-c4c(F)c(F)c(F)c(F)c4F)c4ccc([nH]4)c(-c4c(F)c(F)c(F)c(F)c4F)c4nc(c(-c5c(F)c(F)c(F)c(F)c5F)c5ccc2[nH]5)C=C4)C=C3)cc1
REMARK SMILES IDX 25 1 24 2 23 3 21 4 22 5 20 7 4 8 5 9 6 11 19 12 7 13 18 14
REMARK SMILES IDX 8 15 17 16 9 17 3 18 2 19 1 20 10 21 11 22 15 23 12 24 14 25
REMARK SMILES IDX 16 26 13 27 26 28 27 29 28 30 29 32 30 33 31 34 92 35 32 36
REMARK SMILES IDX 91 37 33 38 34 39 35 40 85 41 36 42 90 43 84 44 86 45 37 46
REMARK SMILES IDX 89 47 83 48 82 49 38 51 70 52 50 53 69 54 51 55 54 56 68 57
REMARK SMILES IDX 87 58 52 59 53 60 67 62 88 63 55 64 39 65 40 66 48 67 41 68
REMARK SMILES IDX 42 69 46 70 49 71 43 72 44 73 47 74 45 75 71 76 72 77 80 78
REMARK SMILES IDX 73 79 74 80 78 81 81 82 75 83 76 84 79 85 77 86 56 87 57 88
REMARK SMILES IDX 65 89 58 90 59 91 63 92 66 93 60 94 61 95 64 96 62 97
REMARK H PARENT 23 6 4 10 27 31 86 50 54 61
REMARK Flexibility Score: inf
ROOT
ATOM      1  C   UNL     1       0.983   4.267  -3.811  1.00  0.00     0.042 C 
ENDROOT
BRANCH   1   2
ATOM      2  C   UNL     1      -0.316   4.547  -3.081  1.00  0.00     0.118 C 
BRANCH   2   3
ATOM      3  N   UNL     1      -1.132   3.408  -2.786  1.00  0.00    -0.351 N 
ATOM      4  C   UNL     1      -1.441   2.855  -1.578  1.00  0.00     0.278 C 
ATOM      5  O   UNL     1      -2.333   1.994  -1.610  1.00  0.00    -0.268 OA
ATOM      6  H   UNL     1      -1.527   2.959  -3.568  1.00  0.00     0.163 HD
BRANCH   4   7
ATOM      7  C   UNL     1      -0.778   3.219  -0.208  1.00  0.00     0.274 C 
ATOM      8  N   UNL     1       0.679   2.940  -0.192  1.00  0.00    -0.324 N 
ATOM      9  C   UNL     1       1.362   4.254  -0.197  1.00  0.00     0.270 C 
ATOM     10  H   UNL     1       0.953   2.382  -1.001  1.00  0.00     0.348 HD
ATOM     11  C   UNL     1       0.396   5.327   0.365  1.00  0.00     0.029 C 
ATOM     12  C   UNL     1      -0.970   4.609   0.399  1.00  0.00     0.088 C 
ATOM     13  C   UNL     1       0.217   6.646  -0.444  1.00  0.00     0.034 C 
ATOM     14  C   UNL     1       0.932   5.774   1.764  1.00  0.00     0.034 C 
ATOM     15  C   UNL     1       1.533   7.380  -0.613  1.00  0.00     0.119 C 
ATOM     16  C   UNL     1       2.196   6.675   1.654  1.00  0.00     0.119 C 
ATOM     17  N   UNL     1       1.908   7.762   0.727  1.00  0.00    -0.355 N 
BRANCH   8  18
ATOM     18  C   UNL     1       1.049   2.165   1.015  1.00  0.00     0.262 C 
BRANCH  18  19
ATOM     19  C   UNL     1       0.536   0.714   1.056  1.00  0.00     0.058 C 
ATOM     20  C   UNL     1       1.064  -0.147  -0.079  1.00  0.00     0.010 C 
ENDBRANCH  18  19
ENDBRANCH   8  18
BRANCH  17  21
ATOM     21  C   UNL     1       2.328   9.045   0.987  1.00  0.00     0.150 A 
ATOM     22  N   UNL     1       3.558   9.186   1.536  1.00  0.00    -0.236 NA
ATOM     23  C   UNL     1       1.527  10.189   0.743  1.00  0.00     0.080 A 
ATOM     24  C   UNL     1       3.965  10.445   1.812  1.00  0.00     0.133 A 
ATOM     25  N   UNL     1       1.951  11.452   1.033  1.00  0.00    -0.256 NA
ATOM     26  C   UNL     1       0.093  10.113   0.303  1.00  0.00     0.071 C 
ATOM     27  C   UNL     1       3.180  11.552   1.569  1.00  0.00     0.131 A 
ENDBRANCH  17  21
ENDBRANCH   4   7
ENDBRANCH   2   3
ENDBRANCH   1   2
BRANCH   1  28
ATOM     28  C   UNL     1       0.879   4.485  -5.307  1.00  0.00     0.118 C 
BRANCH  28  29
ATOM     29  N   UNL     1       0.659   5.888  -5.658  1.00  0.00    -0.352 N 
ATOM     30  C   UNL     1       1.394   6.743  -6.448  1.00  0.00     0.251 C 
ATOM     31  H   UNL     1      -0.149   6.288  -5.263  1.00  0.00     0.163 HD
ATOM     32  O   UNL     1       1.119   7.934  -6.473  1.00  0.00    -0.269 OA
BRANCH  30  33
ATOM     33  C   UNL     1       2.532   6.229  -7.241  1.00  0.00     0.039 A 
ATOM     34  C   UNL     1       3.687   7.007  -7.361  1.00  0.00     0.014 A 
ATOM     35  C   UNL     1       2.469   4.978  -7.855  1.00  0.00     0.014 A 
ATOM     36  C   UNL     1       4.806   6.486  -8.015  1.00  0.00     0.010 A 
ATOM     37  C   UNL     1       3.615   4.415  -8.396  1.00  0.00     0.010 A 
ATOM     38  C   UNL     1       4.795   5.165  -8.488  1.00  0.00    -0.014 A 
BRANCH  38  39
ATOM     39  C   UNL     1       6.000   4.538  -9.087  1.00  0.00     0.031 A 
ATOM     40  C   UNL     1       5.956   4.027 -10.500  1.00  0.00     0.074 A 
ATOM     41  C   UNL     1       7.098   4.352  -8.329  1.00  0.00     0.049 A 
ATOM     42  N   UNL     1       6.862   3.361 -11.169  1.00  0.00    -0.248 NA
ATOM     43  C   UNL     1       4.711   4.261 -11.251  1.00  0.00     0.031 C 
ATOM     44  C   UNL     1       7.237   4.751  -6.926  1.00  0.00     0.029 A 
ATOM     45  N   UNL     1       8.303   3.766  -8.626  1.00  0.00    -0.354 N 
ATOM     46  C   UNL     1       6.291   3.085 -12.405  1.00  0.00     0.074 A 
ATOM     47  C   UNL     1       4.938   3.593 -12.371  1.00  0.00     0.031 C 
ATOM     48  C   UNL     1       8.466   4.426  -6.495  1.00  0.00     0.029 A 
ATOM     49  C   UNL     1       9.184   3.753  -7.572  1.00  0.00     0.049 A 
ATOM     50  H   UNL     1       8.516   3.391  -9.511  1.00  0.00     0.167 HD
ATOM     51  C   UNL     1       6.855   2.486 -13.480  1.00  0.00     0.037 A 
ATOM     52  C   UNL     1      10.427   3.243  -7.483  1.00  0.00     0.037 A 
ATOM     53  C   UNL     1       8.211   2.008 -13.513  1.00  0.00     0.049 A 
ATOM     54  C   UNL     1      11.027   2.574  -8.690  1.00  0.00     0.074 A 
ATOM     55  C   UNL     1       8.904   1.449 -14.572  1.00  0.00     0.029 A 
ATOM     56  N   UNL     1       9.081   2.030 -12.431  1.00  0.00    -0.354 N 
ATOM     57  N   UNL     1      10.506   2.390  -9.879  1.00  0.00    -0.248 NA
ATOM     58  C   UNL     1      12.390   2.045  -8.544  1.00  0.00     0.031 C 
ATOM     59  C   UNL     1      10.173   1.080 -14.116  1.00  0.00     0.029 A 
ATOM     60  C   UNL     1      10.294   1.465 -12.790  1.00  0.00     0.049 A 
ATOM     61  H   UNL     1       8.867   2.392 -11.541  1.00  0.00     0.167 HD
ATOM     62  C   UNL     1      11.484   1.751 -10.630  1.00  0.00     0.074 A 
ATOM     63  C   UNL     1      12.636   1.597  -9.767  1.00  0.00     0.031 C 
ATOM     64  C   UNL     1      11.432   1.327 -11.917  1.00  0.00     0.037 A 
BRANCH  51  65
ATOM     65  C   UNL     1       6.009   2.322 -14.710  1.00  0.00     0.064 A 
ATOM     66  C   UNL     1       5.597   3.424 -15.476  1.00  0.00     0.173 A 
ATOM     67  C   UNL     1       5.634   1.043 -15.151  1.00  0.00     0.173 A 
ATOM     68  F   UNL     1       5.916   4.670 -15.094  1.00  0.00    -0.203 F 
ATOM     69  C   UNL     1       4.817   3.255 -16.617  1.00  0.00     0.198 A 
ATOM     70  C   UNL     1       4.883   0.875 -16.312  1.00  0.00     0.198 A 
ATOM     71  F   UNL     1       6.003  -0.046 -14.461  1.00  0.00    -0.203 F 
ATOM     72  F   UNL     1       4.390   4.326 -17.300  1.00  0.00    -0.200 F 
ATOM     73  C   UNL     1       4.468   1.981 -17.039  1.00  0.00     0.200 A 
ATOM     74  F   UNL     1       4.560  -0.357 -16.726  1.00  0.00    -0.200 F 
ATOM     75  F   UNL     1       3.726   1.819 -18.143  1.00  0.00    -0.200 F 
ENDBRANCH  51  65
BRANCH  52  76
ATOM     76  C   UNL     1      11.193   3.360  -6.213  1.00  0.00     0.064 A 
ATOM     77  C   UNL     1      12.336   4.169  -6.134  1.00  0.00     0.173 A 
ATOM     78  C   UNL     1      10.808   2.664  -5.058  1.00  0.00     0.173 A 
ATOM     79  F   UNL     1      12.757   4.841  -7.216  1.00  0.00    -0.203 F 
ATOM     80  C   UNL     1      13.078   4.256  -4.958  1.00  0.00     0.198 A 
ATOM     81  C   UNL     1      11.532   2.778  -3.873  1.00  0.00     0.198 A 
ATOM     82  F   UNL     1       9.719   1.882  -5.076  1.00  0.00    -0.203 F 
ATOM     83  F   UNL     1      14.196   4.994  -4.927  1.00  0.00    -0.200 F 
ATOM     84  C   UNL     1      12.672   3.565  -3.826  1.00  0.00     0.200 A 
ATOM     85  F   UNL     1      11.126   2.122  -2.777  1.00  0.00    -0.200 F 
ATOM     86  F   UNL     1      13.385   3.651  -2.695  1.00  0.00    -0.200 F 
ENDBRANCH  52  76
BRANCH  64  87
ATOM     87  C   UNL     1      12.667   0.684 -12.479  1.00  0.00     0.064 A 
ATOM     88  C   UNL     1      13.089  -0.588 -12.067  1.00  0.00     0.173 A 
ATOM     89  C   UNL     1      13.412   1.333 -13.476  1.00  0.00     0.173 A 
ATOM     90  F   UNL     1      12.420  -1.243 -11.107  1.00  0.00    -0.203 F 
ATOM     91  C   UNL     1      14.227  -1.175 -12.613  1.00  0.00     0.198 A 
ATOM     92  C   UNL     1      14.528   0.728 -14.045  1.00  0.00     0.198 A 
ATOM     93  F   UNL     1      13.046   2.548 -13.912  1.00  0.00    -0.203 F 
ATOM     94  F   UNL     1      14.642  -2.369 -12.167  1.00  0.00    -0.200 F 
ATOM     95  C   UNL     1      14.940  -0.521 -13.607  1.00  0.00     0.200 A 
ATOM     96  F   UNL     1      15.205   1.354 -15.017  1.00  0.00    -0.200 F 
ATOM     97  F   UNL     1      16.029  -1.093 -14.139  1.00  0.00    -0.200 F 
ENDBRANCH  64  87
ENDBRANCH  38  39
ENDBRANCH  30  33
ENDBRANCH  28  29
ENDBRANCH   1  28
TORSDOF 13
