REMARK SMILES Cc1[nH]c2ccccc2c1/N=N\c1ccccc1C(=O)NCCCNC(=O)c1ccc(-c2c3nc(c(-c4c(F)c(F)c(F)c(F)c4F)c4ccc([nH]4)c(-c4c(F)c(F)c(F)c(F)c4F)c4nc(c(-c5c(F)c(F)c(F)c(F)c5F)c5ccc2[nH]5)C=C4)C=C3)cc1
REMARK SMILES IDX 23 1 22 2 21 3 19 4 20 5 18 7 13 8 14 9 15 10 17 11 16 12
REMARK SMILES IDX 12 13 11 14 10 15 1 16 2 17 3 18 4 19 9 21 5 22 8 23 6 24
REMARK SMILES IDX 7 25 24 26 25 27 26 28 27 30 28 31 29 32 90 33 30 34 89 35
REMARK SMILES IDX 31 36 32 37 33 38 83 39 34 40 88 41 82 42 84 43 35 44 87 45
REMARK SMILES IDX 81 46 80 47 36 49 68 50 48 51 67 52 49 53 52 54 66 55 85 56
REMARK SMILES IDX 50 57 51 58 65 60 86 61 53 62 37 63 38 64 46 65 39 66 40 67
REMARK SMILES IDX 44 68 47 69 41 70 42 71 45 72 43 73 69 74 70 75 78 76 71 77
REMARK SMILES IDX 72 78 76 79 79 80 73 81 74 82 77 83 75 84 54 85 55 86 63 87
REMARK SMILES IDX 56 88 57 89 61 90 64 91 58 92 59 93 62 94 60 95
REMARK H PARENT 21 6 3 20 25 29 84 48 52 59
REMARK Flexibility Score: inf
ROOT
ATOM      1  C   UNL     1      -1.497  -4.502  -2.053  1.00  0.00     0.042 C 
ENDROOT
BRANCH   1   2
ATOM      2  C   UNL     1      -1.953  -3.342  -1.195  1.00  0.00     0.118 C 
BRANCH   2   3
ATOM      3  N   UNL     1      -1.860  -2.054  -1.855  1.00  0.00    -0.352 N 
ATOM      4  C   UNL     1      -2.674  -0.958  -1.740  1.00  0.00     0.253 C 
ATOM      5  O   UNL     1      -2.424   0.041  -2.415  1.00  0.00    -0.269 OA
ATOM      6  H   UNL     1      -1.102  -1.953  -2.475  1.00  0.00     0.163 HD
BRANCH   4   7
ATOM      7  C   UNL     1      -3.888  -0.969  -0.893  1.00  0.00     0.067 A 
ATOM      8  C   UNL     1      -3.925  -1.431   0.436  1.00  0.00     0.098 A 
ATOM      9  C   UNL     1      -5.165  -1.426   1.100  1.00  0.00     0.031 A 
ATOM     10  C   UNL     1      -6.313  -0.902   0.498  1.00  0.00     0.002 A 
ATOM     11  C   UNL     1      -5.037  -0.406  -1.479  1.00  0.00     0.016 A 
ATOM     12  C   UNL     1      -6.245  -0.371  -0.786  1.00  0.00     0.001 A 
BRANCH   8  13
ATOM     13  N   UNL     1      -2.806  -1.976   1.111  1.00  0.00    -0.150 NA
ATOM     14  N   UNL     1      -2.170  -1.201   1.865  1.00  0.00    -0.148 NA
BRANCH  14  15
ATOM     15  C   UNL     1      -1.468  -0.153   1.246  1.00  0.00     0.114 A 
ATOM     16  C   UNL     1      -3.272   1.717   1.442  1.00  0.00     0.067 C 
ATOM     17  C   UNL     1      -1.969   1.118   1.077  1.00  0.00     0.041 A 
ATOM     18  N   UNL     1      -0.997   1.839   0.431  1.00  0.00    -0.357 N 
ATOM     19  C   UNL     1       0.161   1.101   0.319  1.00  0.00     0.048 A 
ATOM     20  H   UNL     1      -1.111   2.757   0.094  1.00  0.00     0.166 HD
ATOM     21  C   UNL     1      -0.109  -0.178   0.815  1.00  0.00     0.027 A 
ATOM     22  C   UNL     1       1.417   1.484  -0.170  1.00  0.00     0.027 A 
ATOM     23  C   UNL     1       0.939  -1.125   0.810  1.00  0.00     0.012 A 
ATOM     24  C   UNL     1       2.440   0.533  -0.145  1.00  0.00     0.002 A 
ATOM     25  C   UNL     1       2.206  -0.755   0.331  1.00  0.00     0.001 A 
ENDBRANCH  14  15
ENDBRANCH   8  13
ENDBRANCH   4   7
ENDBRANCH   2   3
ENDBRANCH   1   2
BRANCH   1  26
ATOM     26  C   UNL     1      -0.063  -4.390  -2.539  1.00  0.00     0.118 C 
BRANCH  26  27
ATOM     27  N   UNL     1       0.929  -4.315  -1.473  1.00  0.00    -0.352 N 
ATOM     28  C   UNL     1       1.931  -5.183  -1.098  1.00  0.00     0.251 C 
ATOM     29  H   UNL     1       0.873  -3.500  -0.924  1.00  0.00     0.163 HD
ATOM     30  O   UNL     1       2.594  -4.954  -0.096  1.00  0.00    -0.269 OA
BRANCH  28  31
ATOM     31  C   UNL     1       2.178  -6.418  -1.877  1.00  0.00     0.039 A 
ATOM     32  C   UNL     1       2.465  -7.605  -1.199  1.00  0.00     0.014 A 
ATOM     33  C   UNL     1       2.097  -6.421  -3.268  1.00  0.00     0.014 A 
ATOM     34  C   UNL     1       2.559  -8.803  -1.912  1.00  0.00     0.010 A 
ATOM     35  C   UNL     1       2.040  -7.627  -3.955  1.00  0.00     0.010 A 
ATOM     36  C   UNL     1       2.284  -8.834  -3.290  1.00  0.00    -0.014 A 
BRANCH  36  37
ATOM     37  C   UNL     1       2.249 -10.113  -4.046  1.00  0.00     0.031 A 
ATOM     38  C   UNL     1       3.152 -10.323  -5.233  1.00  0.00     0.074 A 
ATOM     39  C   UNL     1       1.353 -11.062  -3.705  1.00  0.00     0.049 A 
ATOM     40  N   UNL     1       3.249 -11.360  -6.028  1.00  0.00    -0.248 NA
ATOM     41  C   UNL     1       4.032  -9.205  -5.609  1.00  0.00     0.031 C 
ATOM     42  C   UNL     1       0.352 -10.941  -2.643  1.00  0.00     0.029 A 
ATOM     43  N   UNL     1       1.140 -12.318  -4.215  1.00  0.00    -0.354 N 
ATOM     44  C   UNL     1       4.174 -11.005  -7.001  1.00  0.00     0.074 A 
ATOM     45  C   UNL     1       4.553  -9.634  -6.747  1.00  0.00     0.031 C 
ATOM     46  C   UNL     1      -0.328 -12.094  -2.543  1.00  0.00     0.029 A 
ATOM     47  C   UNL     1       0.166 -13.024  -3.551  1.00  0.00     0.049 A 
ATOM     48  H   UNL     1       1.639 -12.679  -4.983  1.00  0.00     0.167 HD
ATOM     49  C   UNL     1       4.694 -11.765  -7.995  1.00  0.00     0.037 A 
ATOM     50  C   UNL     1      -0.265 -14.287  -3.726  1.00  0.00     0.037 A 
ATOM     51  C   UNL     1       4.352 -13.145  -8.213  1.00  0.00     0.049 A 
ATOM     52  C   UNL     1       0.380 -15.135  -4.788  1.00  0.00     0.074 A 
ATOM     53  C   UNL     1       4.873 -14.029  -9.141  1.00  0.00     0.029 A 
ATOM     54  N   UNL     1       3.402 -13.843  -7.483  1.00  0.00    -0.354 N 
ATOM     55  N   UNL     1       1.320 -14.817  -5.644  1.00  0.00    -0.248 NA
ATOM     56  C   UNL     1      -0.086 -16.524  -4.895  1.00  0.00     0.031 C 
ATOM     57  C   UNL     1       4.214 -15.255  -8.993  1.00  0.00     0.029 A 
ATOM     58  C   UNL     1       3.314 -15.146  -7.945  1.00  0.00     0.049 A 
ATOM     59  H   UNL     1       2.868 -13.468  -6.746  1.00  0.00     0.167 HD
ATOM     60  C   UNL     1       1.575 -15.968  -6.375  1.00  0.00     0.074 A 
ATOM     61  C   UNL     1       0.708 -17.000  -5.844  1.00  0.00     0.031 C 
ATOM     62  C   UNL     1       2.444 -16.155  -7.399  1.00  0.00     0.037 A 
BRANCH  49  63
ATOM     63  C   UNL     1       5.705 -11.121  -8.900  1.00  0.00     0.064 A 
ATOM     64  C   UNL     1       6.981 -10.759  -8.438  1.00  0.00     0.173 A 
ATOM     65  C   UNL     1       5.404 -10.875 -10.248  1.00  0.00     0.173 A 
ATOM     66  F   UNL     1       7.315 -10.958  -7.154  1.00  0.00    -0.203 F 
ATOM     67  C   UNL     1       7.901 -10.140  -9.280  1.00  0.00     0.198 A 
ATOM     68  C   UNL     1       6.340 -10.286 -11.096  1.00  0.00     0.198 A 
ATOM     69  F   UNL     1       4.203 -11.205 -10.745  1.00  0.00    -0.203 F 
ATOM     70  F   UNL     1       9.089  -9.749  -8.798  1.00  0.00    -0.200 F 
ATOM     71  C   UNL     1       7.583  -9.911 -10.609  1.00  0.00     0.200 A 
ATOM     72  F   UNL     1       6.036 -10.075 -12.384  1.00  0.00    -0.200 F 
ATOM     73  F   UNL     1       8.471  -9.318 -11.419  1.00  0.00    -0.200 F 
ENDBRANCH  49  63
BRANCH  50  74
ATOM     74  C   UNL     1      -1.312 -14.847  -2.831  1.00  0.00     0.064 A 
ATOM     75  C   UNL     1      -0.992 -15.826  -1.879  1.00  0.00     0.173 A 
ATOM     76  C   UNL     1      -2.645 -14.420  -2.904  1.00  0.00     0.173 A 
ATOM     77  F   UNL     1       0.267 -16.279  -1.783  1.00  0.00    -0.203 F 
ATOM     78  C   UNL     1      -1.969 -16.373  -1.050  1.00  0.00     0.198 A 
ATOM     79  C   UNL     1      -3.617 -14.948  -2.055  1.00  0.00     0.198 A 
ATOM     80  F   UNL     1      -3.002 -13.480  -3.790  1.00  0.00    -0.203 F 
ATOM     81  F   UNL     1      -1.643 -17.340  -0.182  1.00  0.00    -0.200 F 
ATOM     82  C   UNL     1      -3.280 -15.930  -1.135  1.00  0.00     0.200 A 
ATOM     83  F   UNL     1      -4.880 -14.508  -2.130  1.00  0.00    -0.200 F 
ATOM     84  F   UNL     1      -4.219 -16.454  -0.336  1.00  0.00    -0.200 F 
ENDBRANCH  50  74
BRANCH  62  85
ATOM     85  C   UNL     1       2.512 -17.533  -7.989  1.00  0.00     0.064 A 
ATOM     86  C   UNL     1       1.467 -18.049  -8.770  1.00  0.00     0.173 A 
ATOM     87  C   UNL     1       3.641 -18.340  -7.782  1.00  0.00     0.173 A 
ATOM     88  F   UNL     1       0.361 -17.320  -8.984  1.00  0.00    -0.203 F 
ATOM     89  C   UNL     1       1.535 -19.337  -9.292  1.00  0.00     0.198 A 
ATOM     90  C   UNL     1       3.718 -19.616  -8.332  1.00  0.00     0.198 A 
ATOM     91  F   UNL     1       4.670 -17.889  -7.050  1.00  0.00    -0.203 F 
ATOM     92  F   UNL     1       0.500 -19.832  -9.986  1.00  0.00    -0.200 F 
ATOM     93  C   UNL     1       2.661 -20.117  -9.077  1.00  0.00     0.200 A 
ATOM     94  F   UNL     1       4.812 -20.364  -8.134  1.00  0.00    -0.200 F 
ATOM     95  F   UNL     1       2.724 -21.358  -9.579  1.00  0.00    -0.200 F 
ENDBRANCH  62  85
ENDBRANCH  36  37
ENDBRANCH  28  31
ENDBRANCH  26  27
ENDBRANCH   1  26
TORSDOF 12
