REMARK SMILES COc1cc(C(=O)NCCCNC(=O)c2ccc(-c3c4nc(c(-c5c(F)c(F)c(F)c(F)c5F)c5ccc([nH]5)c(-c5c(F)c(F)c(F)c(F)c5F)c5nc(c(-c6c(F)c(F)c(F)c(F)c6F)c6ccc3[nH]6)C=C5)C=C4)cc2)ccc1OCC(=O)N[C@H]1CCCC[C@H]1C
REMARK SMILES IDX 9 1 8 2 6 3 7 4 5 6 3 7 4 8 80 9 79 10 78 11 2 12 1 13 81 14
REMARK SMILES IDX 82 15 83 16 84 17 85 18 86 20 87 21 91 22 88 23 90 24 92 25
REMARK SMILES IDX 89 26 10 27 11 28 12 29 13 30 14 32 15 33 16 34 77 35 17 36
REMARK SMILES IDX 76 37 18 38 19 39 20 40 70 41 21 42 75 43 69 44 71 45 22 46
REMARK SMILES IDX 74 47 68 48 67 49 23 51 55 52 35 53 54 54 36 55 39 56 53 57
REMARK SMILES IDX 72 58 37 59 38 60 52 62 73 63 40 64 24 65 25 66 33 67 26 68
REMARK SMILES IDX 27 69 31 70 34 71 28 72 29 73 32 74 30 75 56 76 57 77 65 78
REMARK SMILES IDX 58 79 59 80 63 81 66 82 60 83 61 84 64 85 62 86 41 87 42 88
REMARK SMILES IDX 50 89 43 90 44 91 48 92 51 93 45 94 46 95 49 96 47 97
REMARK H PARENT 8 5 85 19 12 31 71 50 39 61
REMARK Flexibility Score: inf
ROOT
ATOM      1  C   UNL     1       1.634   7.298   2.016  1.00  0.00     0.118 C 
ENDROOT
BRANCH   1   2
ATOM      2  N   UNL     1       0.296   6.822   1.675  1.00  0.00    -0.352 N 
ATOM      3  C   UNL     1      -0.198   5.599   1.276  1.00  0.00     0.251 C 
ATOM      4  O   UNL     1      -1.393   5.521   0.993  1.00  0.00    -0.269 OA
ATOM      5  H   UNL     1      -0.395   7.519   1.745  1.00  0.00     0.163 HD
BRANCH   3   6
ATOM      6  C   UNL     1       0.657   4.391   1.139  1.00  0.00     0.043 A 
ATOM      7  C   UNL     1       1.159   2.291  -0.007  1.00  0.00     0.161 A 
ATOM      8  C   UNL     1       0.333   3.416   0.180  1.00  0.00     0.064 A 
ATOM      9  C   UNL     1       2.354   2.181   0.709  1.00  0.00     0.161 A 
ATOM     10  C   UNL     1       2.671   3.174   1.634  1.00  0.00     0.051 A 
ATOM     11  C   UNL     1       1.773   4.188   1.938  1.00  0.00     0.018 A 
BRANCH   7  12
ATOM     12  O   UNL     1       0.859   1.388  -0.989  1.00  0.00    -0.493 OA
ATOM     13  C   UNL     1      -0.337   0.656  -0.708  1.00  0.00     0.278 C 
ENDBRANCH   7  12
BRANCH   9  14
ATOM     14  O   UNL     1       3.308   1.205   0.648  1.00  0.00    -0.480 OA
BRANCH  14  15
ATOM     15  C   UNL     1       2.916  -0.130   0.387  1.00  0.00     0.329 C 
BRANCH  15  16
ATOM     16  C   UNL     1       1.891  -0.822   1.305  1.00  0.00     0.258 C 
ATOM     17  O   UNL     1       0.967  -1.498   0.843  1.00  0.00    -0.271 OA
ATOM     18  N   UNL     1       1.998  -0.763   2.665  1.00  0.00    -0.350 N 
ATOM     19  H   UNL     1       1.175  -0.964   3.167  1.00  0.00     0.163 HD
BRANCH  18  20
ATOM     20  C   UNL     1       3.164  -0.442   3.472  1.00  0.00     0.085 C 
ATOM     21  C   UNL     1       3.042   0.901   4.193  1.00  0.00     0.025 C 
ATOM     22  C   UNL     1       3.454  -1.562   4.501  1.00  0.00     0.008 C 
ATOM     23  C   UNL     1       4.356   1.247   4.888  1.00  0.00     0.002 C 
ATOM     24  C   UNL     1       4.752  -1.229   5.260  1.00  0.00     0.005 C 
ATOM     25  C   UNL     1       2.292  -1.814   5.480  1.00  0.00     0.010 C 
ATOM     26  C   UNL     1       4.747   0.165   5.889  1.00  0.00     0.000 C 
ENDBRANCH  18  20
ENDBRANCH  15  16
ENDBRANCH  14  15
ENDBRANCH   9  14
ENDBRANCH   3   6
ENDBRANCH   1   2
BRANCH   1  27
ATOM     27  C   UNL     1       2.203   8.300   1.027  1.00  0.00     0.042 C 
BRANCH  27  28
ATOM     28  C   UNL     1       1.481   9.634   1.011  1.00  0.00     0.118 C 
BRANCH  28  29
ATOM     29  N   UNL     1       1.599  10.362   2.272  1.00  0.00    -0.352 N 
ATOM     30  C   UNL     1       2.335  11.473   2.605  1.00  0.00     0.251 C 
ATOM     31  H   UNL     1       1.060   9.993   3.009  1.00  0.00     0.163 HD
ATOM     32  O   UNL     1       2.428  11.814   3.783  1.00  0.00    -0.269 OA
BRANCH  30  33
ATOM     33  C   UNL     1       3.042  12.247   1.562  1.00  0.00     0.039 A 
ATOM     34  C   UNL     1       4.333  12.722   1.817  1.00  0.00     0.014 A 
ATOM     35  C   UNL     1       2.436  12.508   0.335  1.00  0.00     0.014 A 
ATOM     36  C   UNL     1       5.048  13.368   0.804  1.00  0.00     0.010 A 
ATOM     37  C   UNL     1       3.183  13.050  -0.703  1.00  0.00     0.010 A 
ATOM     38  C   UNL     1       4.498  13.488  -0.482  1.00  0.00    -0.014 A 
BRANCH  38  39
ATOM     39  C   UNL     1       5.253  14.075  -1.619  1.00  0.00     0.031 A 
ATOM     40  C   UNL     1       4.708  15.285  -2.327  1.00  0.00     0.074 A 
ATOM     41  C   UNL     1       6.357  13.459  -2.084  1.00  0.00     0.049 A 
ATOM     42  N   UNL     1       5.105  15.845  -3.441  1.00  0.00    -0.248 NA
ATOM     43  C   UNL     1       3.532  15.929  -1.718  1.00  0.00     0.031 C 
ATOM     44  C   UNL     1       6.964  12.257  -1.511  1.00  0.00     0.029 A 
ATOM     45  N   UNL     1       7.152  13.746  -3.167  1.00  0.00    -0.354 N 
ATOM     46  C   UNL     1       4.212  16.882  -3.680  1.00  0.00     0.074 A 
ATOM     47  C   UNL     1       3.222  16.840  -2.627  1.00  0.00     0.031 C 
ATOM     48  C   UNL     1       8.041  11.918  -2.237  1.00  0.00     0.029 A 
ATOM     49  C   UNL     1       8.171  12.844  -3.357  1.00  0.00     0.049 A 
ATOM     50  H   UNL     1       7.006  14.524  -3.752  1.00  0.00     0.167 HD
ATOM     51  C   UNL     1       4.230  17.799  -4.675  1.00  0.00     0.037 A 
ATOM     52  C   UNL     1       9.092  12.759  -4.338  1.00  0.00     0.037 A 
ATOM     53  C   UNL     1       5.239  17.855  -5.700  1.00  0.00     0.049 A 
ATOM     54  C   UNL     1       9.082  13.783  -5.443  1.00  0.00     0.074 A 
ATOM     55  C   UNL     1       5.385  18.783  -6.715  1.00  0.00     0.029 A 
ATOM     56  N   UNL     1       6.274  16.941  -5.838  1.00  0.00    -0.354 N 
ATOM     57  N   UNL     1       8.270  14.795  -5.625  1.00  0.00    -0.248 NA
ATOM     58  C   UNL     1      10.117  13.652  -6.478  1.00  0.00     0.031 C 
ATOM     59  C   UNL     1       6.476  18.401  -7.500  1.00  0.00     0.029 A 
ATOM     60  C   UNL     1       7.048  17.271  -6.938  1.00  0.00     0.049 A 
ATOM     61  H   UNL     1       6.434  16.173  -5.244  1.00  0.00     0.167 HD
ATOM     62  C   UNL     1       8.717  15.443  -6.770  1.00  0.00     0.074 A 
ATOM     63  C   UNL     1       9.875  14.711  -7.238  1.00  0.00     0.031 C 
ATOM     64  C   UNL     1       8.214  16.545  -7.376  1.00  0.00     0.037 A 
BRANCH  51  65
ATOM     65  C   UNL     1       3.127  18.818  -4.705  1.00  0.00     0.064 A 
ATOM     66  C   UNL     1       3.017  19.817  -3.725  1.00  0.00     0.173 A 
ATOM     67  C   UNL     1       2.188  18.818  -5.748  1.00  0.00     0.173 A 
ATOM     68  F   UNL     1       3.883  19.856  -2.701  1.00  0.00    -0.203 F 
ATOM     69  C   UNL     1       1.989  20.755  -3.769  1.00  0.00     0.198 A 
ATOM     70  C   UNL     1       1.182  19.779  -5.808  1.00  0.00     0.198 A 
ATOM     71  F   UNL     1       2.249  17.891  -6.715  1.00  0.00    -0.203 F 
ATOM     72  F   UNL     1       1.873  21.664  -2.791  1.00  0.00    -0.200 F 
ATOM     73  C   UNL     1       1.078  20.741  -4.814  1.00  0.00     0.200 A 
ATOM     74  F   UNL     1       0.312  19.774  -6.827  1.00  0.00    -0.200 F 
ATOM     75  F   UNL     1       0.095  21.650  -4.859  1.00  0.00    -0.200 F 
ENDBRANCH  51  65
BRANCH  52  76
ATOM     76  C   UNL     1      10.109  11.675  -4.314  1.00  0.00     0.064 A 
ATOM     77  C   UNL     1      11.462  11.964  -4.088  1.00  0.00     0.173 A 
ATOM     78  C   UNL     1       9.756  10.333  -4.522  1.00  0.00     0.173 A 
ATOM     79  F   UNL     1      11.853  13.233  -3.903  1.00  0.00    -0.203 F 
ATOM     80  C   UNL     1      12.426  10.957  -4.094  1.00  0.00     0.198 A 
ATOM     81  C   UNL     1      10.716   9.323  -4.497  1.00  0.00     0.198 A 
ATOM     82  F   UNL     1       8.475  10.000  -4.737  1.00  0.00    -0.203 F 
ATOM     83  F   UNL     1      13.718  11.269  -3.924  1.00  0.00    -0.200 F 
ATOM     84  C   UNL     1      12.052   9.637  -4.292  1.00  0.00     0.200 A 
ATOM     85  F   UNL     1      10.348   8.047  -4.673  1.00  0.00    -0.200 F 
ATOM     86  F   UNL     1      12.978   8.669  -4.294  1.00  0.00    -0.200 F 
ENDBRANCH  52  76
BRANCH  64  87
ATOM     87  C   UNL     1       8.939  17.072  -8.580  1.00  0.00     0.064 A 
ATOM     88  C   UNL     1       8.892  16.416  -9.818  1.00  0.00     0.173 A 
ATOM     89  C   UNL     1       9.626  18.294  -8.508  1.00  0.00     0.173 A 
ATOM     90  F   UNL     1       8.261  15.238  -9.934  1.00  0.00    -0.203 F 
ATOM     91  C   UNL     1       9.518  16.958 -10.938  1.00  0.00     0.198 A 
ATOM     92  C   UNL     1      10.223  18.848  -9.636  1.00  0.00     0.198 A 
ATOM     93  F   UNL     1       9.695  18.964  -7.348  1.00  0.00    -0.203 F 
ATOM     94  F   UNL     1       9.491  16.297 -12.103  1.00  0.00    -0.200 F 
ATOM     95  C   UNL     1      10.172  18.178 -10.849  1.00  0.00     0.200 A 
ATOM     96  F   UNL     1      10.839  20.035  -9.552  1.00  0.00    -0.200 F 
ATOM     97  F   UNL     1      10.756  18.707 -11.933  1.00  0.00    -0.200 F 
ENDBRANCH  64  87
ENDBRANCH  38  39
ENDBRANCH  30  33
ENDBRANCH  28  29
ENDBRANCH  27  28
ENDBRANCH   1  27
TORSDOF 15
