REMARK SMILES O=C(C[C@@H]1C(=O)O[C@H]2[C@@H]3OC(=O)c4cc(O)c(O)c(O)c4-c4ccccc4C(=O)OC[C@@H]2O[C@@H](OC(=O)c2cc(O)c(O)c(O)c2)[C@@H]3OC(=O)c2cc(O)c(O)c3c2[C@H]1[C@H](O)C(=O)O3)NCCCNC(=O)c1ccc(-c2c3nc(c(-c4c(F)c(F)c(F)c(F)c4F)c4ccc([nH]4)c(-c4c(F)c(F)c(F)c(F)c4F)c4nc(c(-c5c(F)c(F)c(F)c(F)c5F)c5ccc2[nH]5)C=C4)C=C3)cc1
REMARK SMILES IDX 51 1 52 2 53 3 55 4 57 5 58 6 59 7 60 8 62 9 63 10 64 11
REMARK SMILES IDX 4 12 3 14 2 15 1 16 65 17 66 19 67 20 68 21 69 22 70 23
REMARK SMILES IDX 71 25 72 26 73 27 134 28 74 29 133 30 75 31 76 32 77 33
REMARK SMILES IDX 127 34 78 35 132 36 126 37 128 38 79 39 131 40 125 41 124 42
REMARK SMILES IDX 80 44 112 45 92 46 111 47 93 48 96 49 110 50 129 51 94 52
REMARK SMILES IDX 95 53 109 55 130 56 97 57 81 58 82 59 90 60 83 61 84 62
REMARK SMILES IDX 88 63 91 64 85 65 86 66 89 67 87 68 113 69 114 70 122 71
REMARK SMILES IDX 115 72 116 73 120 74 123 75 117 76 118 77 121 78 119 79
REMARK SMILES IDX 98 80 99 81 107 82 100 83 101 84 105 85 108 86 102 87 103 88
REMARK SMILES IDX 106 89 104 90 61 91 49 93 50 94 48 95 47 96 9 97 34 98 8 99
REMARK SMILES IDX 33 100 32 101 10 103 11 104 12 105 13 106 14 107 21 108
REMARK SMILES IDX 15 109 19 110 17 111 22 112 23 113 27 114 24 115 26 116
REMARK SMILES IDX 25 117 28 118 29 119 30 120 31 121 16 123 20 125 18 127
REMARK SMILES IDX 35 129 36 130 37 131 38 132 39 133 46 134 40 135 44 136
REMARK SMILES IDX 42 137 41 138 45 140 43 142 7 144 5 145 6 146 56 148 54 150
REMARK H PARENT 65 18 69 24 128 43 96 54 61 92 16 124 20 126 18 128 41 139
REMARK H PARENT 45 141 43 143 56 149 54 151
REMARK Flexibility Score: 170.00
ROOT
ATOM      1  C   UNL     1       4.418  -1.740   5.216  1.00  0.00     0.071 A 
ATOM      2  C   UNL     1       3.373  -2.001   6.124  1.00  0.00     0.066 A 
ATOM      3  C   UNL     1       2.884  -3.293   6.260  1.00  0.00     0.162 A 
ATOM      4  C   UNL     1       3.528  -4.346   5.646  1.00  0.00     0.201 A 
ATOM      5  C   UNL     1       4.709  -4.115   4.942  1.00  0.00     0.180 A 
ATOM      6  C   UNL     1       5.097  -2.807   4.590  1.00  0.00     0.021 A 
ATOM      7  C   UNL     1       5.980  -2.605   3.349  1.00  0.00     0.079 C 
ATOM      8  C   UNL     1       6.963  -3.852   3.243  1.00  0.00     0.232 C 
ATOM      9  C   UNL     1       6.424  -5.244   3.590  1.00  0.00     0.341 C 
ATOM     10  O   UNL     1       6.904  -6.279   3.133  1.00  0.00    -0.249 OA
ATOM     11  O   UNL     1       5.359  -5.269   4.470  1.00  0.00    -0.420 OA
ENDROOT
BRANCH   7  12
ATOM     12  C   UNL     1       5.038  -2.292   1.810  1.00  0.00     0.119 CG0
ATOM     13  G   UNL     1       4.177  -3.538   2.155  1.00  0.00     0.000 G0
BRANCH  12  14
ATOM     14  C   UNL     1       4.529  -0.705   0.470  1.00  0.00     0.116 C 
BRANCH  14  15
ATOM     15  C   UNL     1       3.710   0.277  -0.665  1.00  0.00     0.220 C 
ATOM     16  O   UNL     1       3.260   1.377  -0.285  1.00  0.00    -0.275 OA
ATOM     17  N   UNL     1       3.736   0.082  -2.014  1.00  0.00    -0.356 N 
ATOM     18  H   UNL     1       4.450  -0.455  -2.426  1.00  0.00     0.163 HD
BRANCH  17  19
ATOM     19  C   UNL     1       2.683   0.684  -2.845  1.00  0.00     0.117 C 
BRANCH  19  20
ATOM     20  C   UNL     1       2.639   2.207  -2.993  1.00  0.00     0.042 C 
BRANCH  20  21
ATOM     21  C   UNL     1       3.946   2.818  -3.438  1.00  0.00     0.118 C 
BRANCH  21  22
ATOM     22  N   UNL     1       4.473   2.190  -4.644  1.00  0.00    -0.352 N 
ATOM     23  C   UNL     1       5.098   2.764  -5.721  1.00  0.00     0.251 C 
ATOM     24  H   UNL     1       4.364   1.213  -4.691  1.00  0.00     0.163 HD
ATOM     25  O   UNL     1       5.365   2.104  -6.718  1.00  0.00    -0.269 OA
BRANCH  23  26
ATOM     26  C   UNL     1       5.419   4.202  -5.664  1.00  0.00     0.039 A 
ATOM     27  C   UNL     1       5.964   4.729  -4.499  1.00  0.00     0.014 A 
ATOM     28  C   UNL     1       5.101   5.038  -6.734  1.00  0.00     0.014 A 
ATOM     29  C   UNL     1       5.984   6.100  -4.315  1.00  0.00     0.010 A 
ATOM     30  C   UNL     1       5.245   6.422  -6.590  1.00  0.00     0.010 A 
ATOM     31  C   UNL     1       5.630   6.968  -5.353  1.00  0.00    -0.014 A 
BRANCH  31  32
ATOM     32  C   UNL     1       5.606   8.429  -5.079  1.00  0.00     0.031 A 
ATOM     33  C   UNL     1       4.317   9.197  -5.197  1.00  0.00     0.074 A 
ATOM     34  C   UNL     1       6.711   9.046  -4.613  1.00  0.00     0.049 A 
ATOM     35  N   UNL     1       4.104  10.482  -5.054  1.00  0.00    -0.248 NA
ATOM     36  C   UNL     1       3.106   8.423  -5.511  1.00  0.00     0.031 C 
ATOM     37  C   UNL     1       7.998   8.395  -4.355  1.00  0.00     0.029 A 
ATOM     38  N   UNL     1       6.922  10.350  -4.238  1.00  0.00    -0.354 N 
ATOM     39  C   UNL     1       2.748  10.670  -5.290  1.00  0.00     0.074 A 
ATOM     40  C   UNL     1       2.190   9.376  -5.614  1.00  0.00     0.031 C 
ATOM     41  C   UNL     1       8.843   9.285  -3.816  1.00  0.00     0.029 A 
ATOM     42  C   UNL     1       8.197  10.592  -3.788  1.00  0.00     0.049 A 
ATOM     43  H   UNL     1       6.226  11.044  -4.286  1.00  0.00     0.167 HD
ATOM     44  C   UNL     1       2.034  11.818  -5.228  1.00  0.00     0.037 A 
ATOM     45  C   UNL     1       8.798  11.744  -3.430  1.00  0.00     0.037 A 
ATOM     46  C   UNL     1       2.588  13.097  -4.870  1.00  0.00     0.049 A 
ATOM     47  C   UNL     1       8.010  13.023  -3.488  1.00  0.00     0.074 A 
ATOM     48  C   UNL     1       1.946  14.321  -4.797  1.00  0.00     0.029 A 
ATOM     49  N   UNL     1       3.912  13.317  -4.519  1.00  0.00    -0.354 N 
ATOM     50  N   UNL     1       6.741  13.200  -3.759  1.00  0.00    -0.248 NA
ATOM     51  C   UNL     1       8.742  14.265  -3.204  1.00  0.00     0.031 C 
ATOM     52  C   UNL     1       2.894  15.291  -4.464  1.00  0.00     0.029 A 
ATOM     53  C   UNL     1       4.112  14.664  -4.259  1.00  0.00     0.049 A 
ATOM     54  H   UNL     1       4.605  12.621  -4.462  1.00  0.00     0.167 HD
ATOM     55  C   UNL     1       6.515  14.566  -3.657  1.00  0.00     0.074 A 
ATOM     56  C   UNL     1       7.775  15.170  -3.278  1.00  0.00     0.031 C 
ATOM     57  C   UNL     1       5.367  15.254  -3.865  1.00  0.00     0.037 A 
BRANCH  44  58
ATOM     58  C   UNL     1       0.576  11.759  -5.583  1.00  0.00     0.064 A 
ATOM     59  C   UNL     1      -0.367  11.140  -4.750  1.00  0.00     0.173 A 
ATOM     60  C   UNL     1       0.107  12.391  -6.746  1.00  0.00     0.173 A 
ATOM     61  F   UNL     1       0.028  10.510  -3.633  1.00  0.00    -0.203 F 
ATOM     62  C   UNL     1      -1.721  11.141  -5.076  1.00  0.00     0.198 A 
ATOM     63  C   UNL     1      -1.250  12.420  -7.051  1.00  0.00     0.198 A 
ATOM     64  F   UNL     1       0.966  13.004  -7.576  1.00  0.00    -0.203 F 
ATOM     65  F   UNL     1      -2.599  10.507  -4.286  1.00  0.00    -0.200 F 
ATOM     66  C   UNL     1      -2.163  11.790  -6.219  1.00  0.00     0.200 A 
ATOM     67  F   UNL     1      -1.676  13.065  -8.146  1.00  0.00    -0.200 F 
ATOM     68  F   UNL     1      -3.469  11.807  -6.521  1.00  0.00    -0.200 F 
ENDBRANCH  44  58
BRANCH  45  69
ATOM     69  C   UNL     1      10.229  11.739  -3.024  1.00  0.00     0.064 A 
ATOM     70  C   UNL     1      10.611  12.085  -1.721  1.00  0.00     0.173 A 
ATOM     71  C   UNL     1      11.244  11.381  -3.926  1.00  0.00     0.173 A 
ATOM     72  F   UNL     1       9.683  12.458  -0.827  1.00  0.00    -0.203 F 
ATOM     73  C   UNL     1      11.952  12.084  -1.340  1.00  0.00     0.198 A 
ATOM     74  C   UNL     1      12.580  11.343  -3.533  1.00  0.00     0.198 A 
ATOM     75  F   UNL     1      10.936  11.042  -5.186  1.00  0.00    -0.203 F 
ATOM     76  F   UNL     1      12.293  12.461  -0.100  1.00  0.00    -0.200 F 
ATOM     77  C   UNL     1      12.934  11.703  -2.242  1.00  0.00     0.200 A 
ATOM     78  F   UNL     1      13.521  10.954  -4.403  1.00  0.00    -0.200 F 
ATOM     79  F   UNL     1      14.220  11.687  -1.870  1.00  0.00    -0.200 F 
ENDBRANCH  45  69
BRANCH  57  80
ATOM     80  C   UNL     1       5.393  16.742  -3.664  1.00  0.00     0.064 A 
ATOM     81  C   UNL     1       6.054  17.594  -4.560  1.00  0.00     0.173 A 
ATOM     82  C   UNL     1       4.665  17.329  -2.617  1.00  0.00     0.173 A 
ATOM     83  F   UNL     1       6.776  17.083  -5.569  1.00  0.00    -0.203 F 
ATOM     84  C   UNL     1       5.992  18.977  -4.412  1.00  0.00     0.198 A 
ATOM     85  C   UNL     1       4.574  18.712  -2.493  1.00  0.00     0.198 A 
ATOM     86  F   UNL     1       4.007  16.560  -1.736  1.00  0.00    -0.203 F 
ATOM     87  F   UNL     1       6.658  19.770  -5.262  1.00  0.00    -0.200 F 
ATOM     88  C   UNL     1       5.240  19.535  -3.388  1.00  0.00     0.200 A 
ATOM     89  F   UNL     1       3.830  19.249  -1.516  1.00  0.00    -0.200 F 
ATOM     90  F   UNL     1       5.158  20.866  -3.265  1.00  0.00    -0.200 F 
ENDBRANCH  57  80
ENDBRANCH  31  32
ENDBRANCH  23  26
ENDBRANCH  21  22
ENDBRANCH  20  21
ENDBRANCH  19  20
ENDBRANCH  17  19
ENDBRANCH  14  15
ENDBRANCH  12  14
ENDBRANCH   7  12
BRANCH   8  91
ATOM     91  O   UNL     1       7.660  -3.840   1.993  1.00  0.00    -0.381 OA
ATOM     92  H   UNL     1       7.030  -3.989   1.270  1.00  0.00     0.211 HD
ENDBRANCH   8  91
BRANCH   1  93
ATOM     93  C   UNL     1       4.619  -0.320   4.815  1.00  0.00     0.339 C 
ATOM     94  O   UNL     1       4.008   0.626   5.274  1.00  0.00    -0.246 OA
BRANCH  93  95
ATOM     95  O   UNL     1       5.546  -0.229   3.842  1.00  0.00    -0.448 OA
BRANCH  95  96
ATOM     96  C   UNL     1       5.095  -0.189   2.460  1.00  0.00     0.290 C 
ATOM     97  C   UNL     1       3.215  -0.668   2.175  1.00  0.00     0.267 C 
ATOM     98  C   UNL     1       6.402  -0.974   1.146  1.00  0.00     0.357 C 
ATOM     99  C   UNL     1       3.006  -2.089   1.602  1.00  0.00     0.254 C 
ATOM    100  O   UNL     1       5.618  -2.204  -0.119  1.00  0.00    -0.329 OA
ATOM    101  C   UNL     1       3.792  -2.659   0.014  1.00  0.00     0.205 CG1
ATOM    102  G   UNL     1       2.501  -3.957  -0.003  1.00  0.00     0.000 G1
BRANCH  97 103
ATOM    103  O   UNL     1       2.009  -0.082   1.098  1.00  0.00    -0.450 OA
BRANCH 103 104
ATOM    104  C   UNL     1       1.372  -0.773  -0.081  1.00  0.00     0.339 C 
ATOM    105  O   UNL     1       2.021  -1.419  -0.906  1.00  0.00    -0.246 OA
BRANCH 104 106
ATOM    106  C   UNL     1      -0.097  -1.111  -0.241  1.00  0.00     0.075 A 
ATOM    107  C   UNL     1      -0.591  -1.966  -1.268  1.00  0.00     0.066 A 
ATOM    108  C   UNL     1      -0.934  -0.958   0.838  1.00  0.00     0.043 A 
ATOM    109  C   UNL     1      -1.914  -2.442  -1.226  1.00  0.00     0.162 A 
ATOM    110  C   UNL     1      -2.299  -1.244   0.786  1.00  0.00     0.170 A 
ATOM    111  C   UNL     1      -2.787  -2.006  -0.246  1.00  0.00     0.200 A 
BRANCH 108 112
ATOM    112  C   UNL     1      -0.322  -0.867   2.115  1.00  0.00     0.001 A 
ATOM    113  C   UNL     1      -0.167   0.457   2.610  1.00  0.00     0.010 A 
ATOM    114  C   UNL     1       0.162  -2.042   2.750  1.00  0.00     0.068 A 
ATOM    115  C   UNL     1       0.415   0.663   3.831  1.00  0.00     0.001 A 
ATOM    116  C   UNL     1       0.571  -1.791   4.066  1.00  0.00     0.016 A 
ATOM    117  C   UNL     1       0.696  -0.464   4.592  1.00  0.00     0.001 A 
BRANCH 114 118
ATOM    118  C   UNL     1       0.544  -3.509   2.039  1.00  0.00     0.338 C 
ATOM    119  O   UNL     1       0.665  -4.497   2.756  1.00  0.00    -0.246 OA
BRANCH 118 120
ATOM    120  O   UNL     1       1.032  -3.503   0.686  1.00  0.00    -0.459 OA
BRANCH 120 121
ATOM    121  C   UNL     1       2.501  -3.957  -0.003  1.00  0.00     0.269 CG1
ATOM    122  G   UNL     1       3.792  -2.659   0.014  1.00  0.00     0.000 G1
ENDBRANCH 120 121
ENDBRANCH 118 120
ENDBRANCH 114 118
ENDBRANCH 108 112
BRANCH 109 123
ATOM    123  O   UNL     1      -2.339  -3.399  -2.103  1.00  0.00    -0.504 OA
ATOM    124  H   UNL     1      -1.763  -3.708  -2.775  1.00  0.00     0.293 HD
ENDBRANCH 109 123
BRANCH 110 125
ATOM    125  O   UNL     1      -3.155  -0.921   1.806  1.00  0.00    -0.504 OA
ATOM    126  H   UNL     1      -4.066  -1.129   1.736  1.00  0.00     0.293 HD
ENDBRANCH 110 125
BRANCH 111 127
ATOM    127  O   UNL     1      -4.087  -2.418  -0.225  1.00  0.00    -0.502 OA
ATOM    128  H   UNL     1      -4.425  -2.939  -0.927  1.00  0.00     0.293 HD
ENDBRANCH 111 127
ENDBRANCH 104 106
ENDBRANCH 103 104
ENDBRANCH  97 103
BRANCH  98 129
ATOM    129  O   UNL     1       7.200   0.140   0.664  1.00  0.00    -0.428 OA
BRANCH 129 130
ATOM    130  C   UNL     1       7.407   0.354  -0.639  1.00  0.00     0.340 C 
ATOM    131  O   UNL     1       7.123  -0.327  -1.602  1.00  0.00    -0.246 OA
BRANCH 130 132
ATOM    132  C   UNL     1       7.851   1.738  -0.726  1.00  0.00     0.067 A 
ATOM    133  C   UNL     1       6.869   2.729  -0.823  1.00  0.00     0.066 A 
ATOM    134  C   UNL     1       9.215   2.030  -0.764  1.00  0.00     0.066 A 
ATOM    135  C   UNL     1       7.270   4.025  -1.069  1.00  0.00     0.162 A 
ATOM    136  C   UNL     1       9.586   3.340  -1.024  1.00  0.00     0.162 A 
ATOM    137  C   UNL     1       8.617   4.319  -1.229  1.00  0.00     0.200 A 
BRANCH 135 138
ATOM    138  O   UNL     1       6.327   5.000  -1.187  1.00  0.00    -0.504 OA
ATOM    139  H   UNL     1       5.420   4.791  -1.077  1.00  0.00     0.293 HD
ENDBRANCH 135 138
BRANCH 136 140
ATOM    140  O   UNL     1      10.897   3.713  -1.103  1.00  0.00    -0.504 OA
ATOM    141  H   UNL     1      11.120   4.606  -1.280  1.00  0.00     0.293 HD
ENDBRANCH 136 140
BRANCH 137 142
ATOM    142  O   UNL     1       8.976   5.579  -1.621  1.00  0.00    -0.502 OA
ATOM    143  H   UNL     1       8.319   6.233  -1.757  1.00  0.00     0.293 HD
ENDBRANCH 137 142
ENDBRANCH 130 132
ENDBRANCH 129 130
ENDBRANCH  98 129
BRANCH  99 144
ATOM    144  O   UNL     1       3.046  -3.046   2.593  1.00  0.00    -0.455 OA
BRANCH 144 145
ATOM    145  C   UNL     1       4.177  -3.538   2.155  1.00  0.00     0.310 CG0
ATOM    146  O   UNL     1       4.465  -4.700   2.056  1.00  0.00    -0.252 OA
ATOM    147  G   UNL     1       5.038  -2.292   1.810  1.00  0.00     0.000 G0
ENDBRANCH 144 145
ENDBRANCH  99 144
ENDBRANCH  95  96
ENDBRANCH  93  95
ENDBRANCH   1  93
BRANCH   4 148
ATOM    148  O   UNL     1       2.879  -5.551   5.611  1.00  0.00    -0.502 OA
ATOM    149  H   UNL     1       2.087  -5.671   6.098  1.00  0.00     0.293 HD
ENDBRANCH   4 148
BRANCH   3 150
ATOM    150  O   UNL     1       1.678  -3.495   6.871  1.00  0.00    -0.504 OA
ATOM    151  H   UNL     1       1.239  -2.780   7.289  1.00  0.00     0.293 HD
ENDBRANCH   3 150
TORSDOF 23
