REMARK SMILES NC(=O)c1cc(Cl)ccc1N1CCO[C@@H](CC(=O)NCCCNC(=O)c2ccc(-c3c4nc(c(-c5c(F)c(F)c(F)c(F)c5F)c5ccc([nH]5)c(-c5c(F)c(F)c(F)c(F)c5F)c5nc(c(-c6c(F)c(F)c(F)c(F)c6F)c6ccc3[nH]6)C=C5)C=C4)cc2)C1
REMARK SMILES IDX 20 1 19 2 17 3 18 4 16 6 15 7 11 8 12 9 89 10 13 11 14 12
REMARK SMILES IDX 10 13 4 14 5 15 6 16 9 17 7 18 8 19 2 20 1 21 3 24 21 25
REMARK SMILES IDX 22 26 23 27 24 28 25 30 26 31 27 32 88 33 28 34 87 35 29 36
REMARK SMILES IDX 30 37 31 38 81 39 32 40 86 41 80 42 82 43 33 44 85 45 79 46
REMARK SMILES IDX 78 47 34 49 66 50 46 51 65 52 47 53 50 54 64 55 83 56 48 57
REMARK SMILES IDX 49 58 63 60 84 61 51 62 35 63 36 64 44 65 37 66 38 67 42 68
REMARK SMILES IDX 45 69 39 70 40 71 43 72 41 73 67 74 68 75 76 76 69 77 70 78
REMARK SMILES IDX 74 79 77 80 71 81 72 82 75 83 73 84 52 85 53 86 61 87 54 88
REMARK SMILES IDX 55 89 59 90 62 91 56 92 57 93 60 94 58 95
REMARK H PARENT 19 5 1 22 1 23 23 29 82 48 50 59
REMARK Flexibility Score: inf
ROOT
ATOM      1  C   UNL     1      -2.263  -2.996   6.559  1.00  0.00     0.117 C 
ENDROOT
BRANCH   1   2
ATOM      2  N   UNL     1      -3.159  -1.944   6.092  1.00  0.00    -0.356 N 
ATOM      3  C   UNL     1      -3.884  -1.811   4.943  1.00  0.00     0.222 C 
ATOM      4  O   UNL     1      -4.568  -0.794   4.817  1.00  0.00    -0.275 OA
ATOM      5  H   UNL     1      -3.259  -1.193   6.721  1.00  0.00     0.163 HD
BRANCH   3   6
ATOM      6  C   UNL     1      -3.829  -2.851   3.841  1.00  0.00     0.133 C 
BRANCH   6   7
ATOM      7  C   UNL     1      -2.855  -2.460   2.723  1.00  0.00     0.147 C 
ATOM      8  N   UNL     1      -0.412  -2.247   2.259  1.00  0.00    -0.366 N 
ATOM      9  C   UNL     1      -0.540  -3.115   1.095  1.00  0.00     0.145 C 
ATOM     10  C   UNL     1      -1.435  -2.354   3.288  1.00  0.00     0.149 C 
ATOM     11  C   UNL     1      -2.003  -3.124   0.618  1.00  0.00     0.182 C 
ATOM     12  O   UNL     1      -2.909  -3.469   1.689  1.00  0.00    -0.374 OA
BRANCH   8  13
ATOM     13  C   UNL     1       0.712  -1.506   2.555  1.00  0.00     0.050 A 
ATOM     14  C   UNL     1       1.026  -0.315   1.877  1.00  0.00     0.064 A 
ATOM     15  C   UNL     1       2.034   0.542   2.339  1.00  0.00     0.036 A 
ATOM     16  C   UNL     1       2.753   0.204   3.478  1.00  0.00     0.041 A 
ATOM     17  C   UNL     1       1.511  -1.852   3.660  1.00  0.00     0.028 A 
ATOM     18  Cl  UNL     1       3.897   1.320   4.106  1.00  0.00    -0.084 Cl
ATOM     19  C   UNL     1       2.519  -1.003   4.128  1.00  0.00     0.023 A 
BRANCH  14  20
ATOM     20  C   UNL     1       0.234   0.134   0.713  1.00  0.00     0.250 C 
ATOM     21  N   UNL     1       0.952   0.311  -0.437  1.00  0.00    -0.366 N 
ATOM     22  H   UNL     1       0.500   0.610  -1.259  1.00  0.00     0.159 HD
ATOM     23  H   UNL     1       1.922   0.141  -0.444  1.00  0.00     0.159 HD
ATOM     24  O   UNL     1      -0.968   0.342   0.764  1.00  0.00    -0.269 OA
ENDBRANCH  14  20
ENDBRANCH   8  13
ENDBRANCH   6   7
ENDBRANCH   3   6
ENDBRANCH   1   2
BRANCH   1  25
ATOM     25  C   UNL     1      -0.797  -2.555   6.583  1.00  0.00     0.042 C 
BRANCH  25  26
ATOM     26  C   UNL     1      -0.435  -1.569   7.686  1.00  0.00     0.118 C 
BRANCH  26  27
ATOM     27  N   UNL     1       0.144  -2.246   8.832  1.00  0.00    -0.352 N 
ATOM     28  C   UNL     1       1.448  -2.380   9.241  1.00  0.00     0.251 C 
ATOM     29  H   UNL     1      -0.513  -2.686   9.419  1.00  0.00     0.163 HD
ATOM     30  O   UNL     1       1.707  -3.237  10.085  1.00  0.00    -0.269 OA
BRANCH  28  31
ATOM     31  C   UNL     1       2.555  -1.539   8.709  1.00  0.00     0.039 A 
ATOM     32  C   UNL     1       3.844  -2.091   8.669  1.00  0.00     0.014 A 
ATOM     33  C   UNL     1       2.391  -0.196   8.366  1.00  0.00     0.014 A 
ATOM     34  C   UNL     1       4.944  -1.316   8.280  1.00  0.00     0.010 A 
ATOM     35  C   UNL     1       3.474   0.554   7.895  1.00  0.00     0.010 A 
ATOM     36  C   UNL     1       4.770   0.015   7.875  1.00  0.00    -0.014 A 
BRANCH  36  37
ATOM     37  C   UNL     1       5.927   0.871   7.484  1.00  0.00     0.031 A 
ATOM     38  C   UNL     1       6.253   2.115   8.273  1.00  0.00     0.074 A 
ATOM     39  C   UNL     1       6.653   0.578   6.388  1.00  0.00     0.049 A 
ATOM     40  N   UNL     1       7.155   3.038   8.041  1.00  0.00    -0.248 NA
ATOM     41  C   UNL     1       5.445   2.362   9.477  1.00  0.00     0.031 C 
ATOM     42  C   UNL     1       6.446  -0.579   5.518  1.00  0.00     0.029 A 
ATOM     43  N   UNL     1       7.692   1.256   5.797  1.00  0.00    -0.354 N 
ATOM     44  C   UNL     1       7.008   3.978   9.054  1.00  0.00     0.074 A 
ATOM     45  C   UNL     1       5.896   3.544   9.871  1.00  0.00     0.031 C 
ATOM     46  C   UNL     1       7.314  -0.522   4.495  1.00  0.00     0.029 A 
ATOM     47  C   UNL     1       8.126   0.684   4.626  1.00  0.00     0.049 A 
ATOM     48  H   UNL     1       8.088   2.073   6.176  1.00  0.00     0.167 HD
ATOM     49  C   UNL     1       7.750   5.085   9.302  1.00  0.00     0.037 A 
ATOM     50  C   UNL     1       9.063   1.088   3.748  1.00  0.00     0.037 A 
ATOM     51  C   UNL     1       8.880   5.502   8.513  1.00  0.00     0.049 A 
ATOM     52  C   UNL     1       9.847   2.343   4.017  1.00  0.00     0.074 A 
ATOM     53  C   UNL     1       9.750   6.555   8.739  1.00  0.00     0.029 A 
ATOM     54  N   UNL     1       9.291   4.890   7.339  1.00  0.00    -0.354 N 
ATOM     55  N   UNL     1       9.755   3.176   5.024  1.00  0.00    -0.248 NA
ATOM     56  C   UNL     1      10.880   2.702   3.034  1.00  0.00     0.031 C 
ATOM     57  C   UNL     1      10.657   6.610   7.675  1.00  0.00     0.029 A 
ATOM     58  C   UNL     1      10.384   5.561   6.812  1.00  0.00     0.049 A 
ATOM     59  H   UNL     1       8.869   4.096   6.938  1.00  0.00     0.167 HD
ATOM     60  C   UNL     1      10.741   4.131   4.821  1.00  0.00     0.074 A 
ATOM     61  C   UNL     1      11.419   3.777   3.591  1.00  0.00     0.031 C 
ATOM     62  C   UNL     1      11.062   5.198   5.593  1.00  0.00     0.037 A 
BRANCH  49  63
ATOM     63  C   UNL     1       7.361   5.928  10.485  1.00  0.00     0.064 A 
ATOM     64  C   UNL     1       7.528   5.473  11.802  1.00  0.00     0.173 A 
ATOM     65  C   UNL     1       6.833   7.215  10.299  1.00  0.00     0.173 A 
ATOM     66  F   UNL     1       8.023   4.248  12.036  1.00  0.00    -0.203 F 
ATOM     67  C   UNL     1       7.141   6.257  12.887  1.00  0.00     0.198 A 
ATOM     68  C   UNL     1       6.477   8.009  11.387  1.00  0.00     0.198 A 
ATOM     69  F   UNL     1       6.663   7.706   9.062  1.00  0.00    -0.203 F 
ATOM     70  F   UNL     1       7.253   5.775  14.133  1.00  0.00    -0.200 F 
ATOM     71  C   UNL     1       6.620   7.525  12.679  1.00  0.00     0.200 A 
ATOM     72  F   UNL     1       5.989   9.240  11.186  1.00  0.00    -0.200 F 
ATOM     73  F   UNL     1       6.248   8.277  13.723  1.00  0.00    -0.200 F 
ENDBRANCH  49  63
BRANCH  50  74
ATOM     74  C   UNL     1       9.344   0.261   2.547  1.00  0.00     0.064 A 
ATOM     75  C   UNL     1      10.518  -0.500   2.466  1.00  0.00     0.173 A 
ATOM     76  C   UNL     1       8.444   0.195   1.474  1.00  0.00     0.173 A 
ATOM     77  F   UNL     1      11.417  -0.452   3.460  1.00  0.00    -0.203 F 
ATOM     78  C   UNL     1      10.786  -1.290   1.351  1.00  0.00     0.198 A 
ATOM     79  C   UNL     1       8.703  -0.613   0.369  1.00  0.00     0.198 A 
ATOM     80  F   UNL     1       7.305   0.902   1.507  1.00  0.00    -0.203 F 
ATOM     81  F   UNL     1      11.930  -1.986   1.285  1.00  0.00    -0.200 F 
ATOM     82  C   UNL     1       9.876  -1.351   0.306  1.00  0.00     0.200 A 
ATOM     83  F   UNL     1       7.815  -0.680  -0.632  1.00  0.00    -0.200 F 
ATOM     84  F   UNL     1      10.129  -2.120  -0.761  1.00  0.00    -0.200 F 
ENDBRANCH  50  74
BRANCH  62  85
ATOM     85  C   UNL     1      12.230   6.037   5.164  1.00  0.00     0.064 A 
ATOM     86  C   UNL     1      12.157   6.897   4.060  1.00  0.00     0.173 A 
ATOM     87  C   UNL     1      13.429   6.005   5.895  1.00  0.00     0.173 A 
ATOM     88  F   UNL     1      11.041   6.950   3.318  1.00  0.00    -0.203 F 
ATOM     89  C   UNL     1      13.248   7.680   3.690  1.00  0.00     0.198 A 
ATOM     90  C   UNL     1      14.507   6.811   5.539  1.00  0.00     0.198 A 
ATOM     91  F   UNL     1      13.549   5.202   6.962  1.00  0.00    -0.203 F 
ATOM     92  F   UNL     1      13.172   8.463   2.604  1.00  0.00    -0.200 F 
ATOM     93  C   UNL     1      14.418   7.642   4.434  1.00  0.00     0.200 A 
ATOM     94  F   UNL     1      15.633   6.781   6.266  1.00  0.00    -0.200 F 
ATOM     95  F   UNL     1      15.464   8.402   4.080  1.00  0.00    -0.200 F 
ENDBRANCH  62  85
ENDBRANCH  36  37
ENDBRANCH  28  31
ENDBRANCH  26  27
ENDBRANCH  25  26
ENDBRANCH   1  25
TORSDOF 13
