REMARK SMILES O=C(CCn1cc(/C=C\C(=O)c2ccc(F)cc2)c(-c2cccc(Cl)c2)n1)NCCCNC(=O)c1ccc(-c2c3nc(c(-c4c(F)c(F)c(F)c(F)c4F)c4ccc([nH]4)c(-c4c(F)c(F)c(F)c(F)c4F)c4nc(c(-c5c(F)c(F)c(F)c(F)c5F)c5ccc2[nH]5)C=C4)C=C3)cc1
REMARK SMILES IDX 1 1 2 2 28 3 3 5 4 6 5 7 6 8 27 9 7 10 19 11 8 12 9 13 10 14
REMARK SMILES IDX 11 15 12 16 13 17 18 18 14 19 17 20 15 21 16 22 20 23 21 24
REMARK SMILES IDX 26 25 22 26 24 27 23 28 25 29 29 30 30 31 31 32 32 33 33 34
REMARK SMILES IDX 34 36 35 37 36 38 97 39 37 40 96 41 38 42 39 43 40 44 90 45
REMARK SMILES IDX 41 46 95 47 89 48 91 49 42 50 94 51 88 52 87 53 43 55 75 56
REMARK SMILES IDX 55 57 74 58 56 59 59 60 73 61 92 62 57 63 58 64 72 66 93 67
REMARK SMILES IDX 60 68 44 69 45 70 53 71 46 72 47 73 51 74 54 75 48 76 49 77
REMARK SMILES IDX 52 78 50 79 76 80 77 81 85 82 78 83 79 84 83 85 86 86 80 87
REMARK SMILES IDX 81 88 84 89 82 90 61 91 62 92 70 93 63 94 64 95 68 96 71 97
REMARK SMILES IDX 65 98 66 99 69 100 67 101
REMARK H PARENT 28 4 32 35 91 54 59 65
REMARK Flexibility Score: inf
ROOT
ATOM      1  O   UNL     1       0.464   0.452  -0.193  1.00  0.00    -0.275 OA
ATOM      2  C   UNL     1       1.664   0.196  -0.125  1.00  0.00     0.221 C 
ATOM      3  N   UNL     1       2.295  -0.161   1.064  1.00  0.00    -0.356 N 
ATOM      4  H   UNL     1       3.146  -0.653   1.004  1.00  0.00     0.163 HD
ENDROOT
BRANCH   2   5
ATOM      5  C   UNL     1       2.556   0.295  -1.391  1.00  0.00     0.123 C 
BRANCH   5   6
ATOM      6  C   UNL     1       3.227   1.700  -1.629  1.00  0.00     0.154 C 
BRANCH   6   7
ATOM      7  N   UNL     1       4.085   2.113  -0.535  1.00  0.00    -0.271 N 
ATOM      8  C   UNL     1       4.858   3.216  -0.221  1.00  0.00     0.117 A 
ATOM      9  N   UNL     1       4.287   1.131   0.299  1.00  0.00    -0.172 NA
ATOM     10  C   UNL     1       5.728   2.819   0.794  1.00  0.00     0.021 A 
ATOM     11  C   UNL     1       5.382   1.465   0.902  1.00  0.00     0.100 A 
BRANCH  10  12
ATOM     12  C   UNL     1       6.743   3.554   1.542  1.00  0.00     0.016 C 
ATOM     13  C   UNL     1       7.875   3.178   2.205  1.00  0.00     0.053 C 
BRANCH  13  14
ATOM     14  C   UNL     1       8.614   1.869   2.431  1.00  0.00     0.185 C 
ATOM     15  O   UNL     1       9.779   1.839   2.805  1.00  0.00    -0.289 OA
BRANCH  14  16
ATOM     16  C   UNL     1       7.859   0.614   2.053  1.00  0.00     0.022 A 
ATOM     17  C   UNL     1       7.815   0.798   0.242  1.00  0.00     0.015 A 
ATOM     18  C   UNL     1       6.625  -0.784   2.865  1.00  0.00     0.015 A 
ATOM     19  C   UNL     1       6.660  -0.161  -0.686  1.00  0.00     0.040 A 
ATOM     20  C   UNL     1       5.535  -1.716   1.752  1.00  0.00     0.040 A 
ATOM     21  C   UNL     1       5.577  -1.346   0.050  1.00  0.00     0.123 A 
ATOM     22  F   UNL     1       4.906  -2.170  -0.772  1.00  0.00    -0.207 F 
ENDBRANCH  14  16
ENDBRANCH  13  14
ENDBRANCH  10  12
BRANCH  11  23
ATOM     23  C   UNL     1       6.047   0.449   1.627  1.00  0.00     0.004 A 
ATOM     24  C   UNL     1       7.394  -0.975   1.192  1.00  0.00     0.010 A 
ATOM     25  C   UNL     1       6.148   1.175   3.309  1.00  0.00     0.031 A 
ATOM     26  C   UNL     1       8.530  -1.339   2.450  1.00  0.00     0.002 A 
ATOM     27  C   UNL     1       7.448   0.693   4.369  1.00  0.00     0.041 A 
ATOM     28  C   UNL     1       8.602  -0.494   3.938  1.00  0.00     0.020 A 
ATOM     29  Cl  UNL     1       7.681   1.467   5.886  1.00  0.00    -0.084 Cl
ENDBRANCH  11  23
ENDBRANCH   6   7
ENDBRANCH   5   6
ENDBRANCH   2   5
BRANCH   3  30
ATOM     30  C   UNL     1       1.775   0.147   2.400  1.00  0.00     0.117 C 
BRANCH  30  31
ATOM     31  C   UNL     1       1.921  -0.954   3.470  1.00  0.00     0.042 C 
BRANCH  31  32
ATOM     32  C   UNL     1       3.319  -1.271   4.024  1.00  0.00     0.118 C 
BRANCH  32  33
ATOM     33  N   UNL     1       3.822  -0.653   5.249  1.00  0.00    -0.352 N 
ATOM     34  C   UNL     1       4.856  -1.018   6.134  1.00  0.00     0.251 C 
ATOM     35  H   UNL     1       3.350   0.173   5.503  1.00  0.00     0.163 HD
ATOM     36  O   UNL     1       5.066  -0.252   7.076  1.00  0.00    -0.269 OA
BRANCH  34  37
ATOM     37  C   UNL     1       5.842  -2.172   5.907  1.00  0.00     0.039 A 
ATOM     38  C   UNL     1       7.152  -2.113   6.436  1.00  0.00     0.014 A 
ATOM     39  C   UNL     1       5.651  -3.138   4.939  1.00  0.00     0.014 A 
ATOM     40  C   UNL     1       8.262  -2.752   5.776  1.00  0.00     0.010 A 
ATOM     41  C   UNL     1       6.749  -3.617   4.195  1.00  0.00     0.010 A 
ATOM     42  C   UNL     1       8.101  -3.337   4.503  1.00  0.00    -0.014 A 
BRANCH  42  43
ATOM     43  C   UNL     1       9.180  -4.037   3.547  1.00  0.00     0.031 A 
ATOM     44  C   UNL     1       9.184  -5.357   4.214  1.00  0.00     0.074 A 
ATOM     45  C   UNL     1       9.950  -3.750   2.375  1.00  0.00     0.049 A 
ATOM     46  N   UNL     1       9.948  -5.516   5.250  1.00  0.00    -0.248 NA
ATOM     47  C   UNL     1       8.031  -6.289   4.230  1.00  0.00     0.031 C 
ATOM     48  C   UNL     1      10.346  -2.500   1.575  1.00  0.00     0.029 A 
ATOM     49  N   UNL     1      10.515  -4.619   1.441  1.00  0.00    -0.354 N 
ATOM     50  C   UNL     1       9.677  -6.794   5.658  1.00  0.00     0.074 A 
ATOM     51  C   UNL     1       8.302  -7.013   5.325  1.00  0.00     0.031 C 
ATOM     52  C   UNL     1      10.536  -2.685   0.255  1.00  0.00     0.029 A 
ATOM     53  C   UNL     1      10.639  -4.107   0.073  1.00  0.00     0.049 A 
ATOM     54  H   UNL     1      10.814  -5.525   1.687  1.00  0.00     0.167 HD
ATOM     55  C   UNL     1      10.725  -7.656   5.637  1.00  0.00     0.037 A 
ATOM     56  C   UNL     1      11.457  -4.522  -0.955  1.00  0.00     0.037 A 
ATOM     57  C   UNL     1      11.976  -6.912   5.567  1.00  0.00     0.049 A 
ATOM     58  C   UNL     1      12.485  -5.389  -0.310  1.00  0.00     0.074 A 
ATOM     59  C   UNL     1      12.517  -5.898   6.339  1.00  0.00     0.029 A 
ATOM     60  N   UNL     1      12.522  -6.773   4.311  1.00  0.00    -0.354 N 
ATOM     61  N   UNL     1      13.413  -4.884   0.468  1.00  0.00    -0.248 NA
ATOM     62  C   UNL     1      12.003  -6.726   0.030  1.00  0.00     0.031 C 
ATOM     63  C   UNL     1      13.105  -4.978   5.423  1.00  0.00     0.029 A 
ATOM     64  C   UNL     1      13.109  -5.541   4.149  1.00  0.00     0.049 A 
ATOM     65  H   UNL     1      12.495  -7.470   3.616  1.00  0.00     0.167 HD
ATOM     66  C   UNL     1      13.299  -5.602   1.654  1.00  0.00     0.074 A 
ATOM     67  C   UNL     1      12.396  -6.728   1.313  1.00  0.00     0.031 C 
ATOM     68  C   UNL     1      13.565  -5.017   2.872  1.00  0.00     0.037 A 
BRANCH  55  69
ATOM     69  C   UNL     1      10.583  -9.082   5.205  1.00  0.00     0.064 A 
ATOM     70  C   UNL     1       9.622  -9.576   4.290  1.00  0.00     0.173 A 
ATOM     71  C   UNL     1      11.583  -9.982   5.586  1.00  0.00     0.173 A 
ATOM     72  F   UNL     1       8.719  -8.791   3.693  1.00  0.00    -0.203 F 
ATOM     73  C   UNL     1       9.614 -10.897   3.858  1.00  0.00     0.198 A 
ATOM     74  C   UNL     1      11.607 -11.291   5.106  1.00  0.00     0.198 A 
ATOM     75  F   UNL     1      12.580  -9.582   6.388  1.00  0.00    -0.203 F 
ATOM     76  F   UNL     1       8.663 -11.307   3.006  1.00  0.00    -0.200 F 
ATOM     77  C   UNL     1      10.613 -11.753   4.259  1.00  0.00     0.200 A 
ATOM     78  F   UNL     1      12.621 -12.097   5.440  1.00  0.00    -0.200 F 
ATOM     79  F   UNL     1      10.641 -13.008   3.795  1.00  0.00    -0.200 F 
ENDBRANCH  55  69
BRANCH  56  80
ATOM     80  C   UNL     1      10.990  -4.694  -2.376  1.00  0.00     0.064 A 
ATOM     81  C   UNL     1       9.652  -4.443  -2.735  1.00  0.00     0.173 A 
ATOM     82  C   UNL     1      11.786  -5.288  -3.379  1.00  0.00     0.173 A 
ATOM     83  F   UNL     1       8.831  -3.793  -1.899  1.00  0.00    -0.203 F 
ATOM     84  C   UNL     1       9.102  -4.905  -3.934  1.00  0.00     0.198 A 
ATOM     85  C   UNL     1      11.237  -5.732  -4.596  1.00  0.00     0.198 A 
ATOM     86  F   UNL     1      13.097  -5.486  -3.176  1.00  0.00    -0.203 F 
ATOM     87  F   UNL     1       7.792  -4.738  -4.168  1.00  0.00    -0.200 F 
ATOM     88  C   UNL     1       9.884  -5.582  -4.849  1.00  0.00     0.200 A 
ATOM     89  F   UNL     1      12.008  -6.357  -5.499  1.00  0.00    -0.200 F 
ATOM     90  F   UNL     1       9.332  -6.101  -5.955  1.00  0.00    -0.200 F 
ENDBRANCH  56  80
BRANCH  68  91
ATOM     91  C   UNL     1      14.307  -3.682   2.940  1.00  0.00     0.064 A 
ATOM     92  C   UNL     1      15.576  -3.661   3.514  1.00  0.00     0.173 A 
ATOM     93  C   UNL     1      13.743  -2.413   2.732  1.00  0.00     0.173 A 
ATOM     94  F   UNL     1      16.139  -4.815   3.896  1.00  0.00    -0.203 F 
ATOM     95  C   UNL     1      16.238  -2.461   3.810  1.00  0.00     0.198 A 
ATOM     96  C   UNL     1      14.418  -1.207   2.947  1.00  0.00     0.198 A 
ATOM     97  F   UNL     1      12.454  -2.305   2.481  1.00  0.00    -0.203 F 
ATOM     98  F   UNL     1      17.405  -2.501   4.464  1.00  0.00    -0.200 F 
ATOM     99  C   UNL     1      15.676  -1.234   3.496  1.00  0.00     0.200 A 
ATOM    100  F   UNL     1      13.809  -0.034   2.709  1.00  0.00    -0.200 F 
ATOM    101  F   UNL     1      16.314  -0.092   3.787  1.00  0.00    -0.200 F 
ENDBRANCH  68  91
ENDBRANCH  42  43
ENDBRANCH  34  37
ENDBRANCH  32  33
ENDBRANCH  31  32
ENDBRANCH  30  31
ENDBRANCH   3  30
TORSDOF 16
