REMARK SMILES C[C@H]([NH2+][C@@H]1CC[N@@H+](C)C1)[C@@H](C)C(=O)NCCCNC(=O)c1ccc(-c2c3nc(c(-c4c(F)c(F)c(F)c(F)c4F)c4ccc([nH]4)c(-c4c(F)c(F)c(F)c(F)c4F)c4nc(c(-c5c(F)c(F)c(F)c(F)c5F)c5ccc2[nH]5)C=C4)C=C3)cc1
REMARK SMILES IDX 15 1 14 2 12 3 13 4 10 6 11 7 2 8 1 9 3 10 4 13 5 14 9 15
REMARK SMILES IDX 6 16 7 17 8 18 16 20 17 21 18 22 19 23 20 25 21 26 22 27
REMARK SMILES IDX 83 28 23 29 82 30 24 31 25 32 26 33 76 34 27 35 81 36 75 37
REMARK SMILES IDX 77 38 28 39 80 40 74 41 73 42 29 44 61 45 41 46 60 47 42 48
REMARK SMILES IDX 45 49 59 50 78 51 43 52 44 53 58 55 79 56 46 57 30 58 31 59
REMARK SMILES IDX 39 60 32 61 33 62 37 63 40 64 34 65 35 66 38 67 36 68 62 69
REMARK SMILES IDX 63 70 71 71 64 72 65 73 69 74 72 75 66 76 67 77 70 78 68 79
REMARK SMILES IDX 47 80 48 81 56 82 49 83 50 84 54 85 57 86 51 87 52 88 55 89
REMARK SMILES IDX 53 90
REMARK H PARENT 14 5 3 11 3 12 7 19 18 24 77 43 45 54
REMARK Flexibility Score: inf
ROOT
ATOM      1  C   UNL     1      -0.400   2.329   3.511  1.00  0.00     0.117 C 
ENDROOT
BRANCH   1   2
ATOM      2  N   UNL     1      -1.233   2.961   2.505  1.00  0.00    -0.356 N 
ATOM      3  C   UNL     1      -1.544   2.608   1.232  1.00  0.00     0.228 C 
ATOM      4  O   UNL     1      -2.231   3.405   0.585  1.00  0.00    -0.275 OA
ATOM      5  H   UNL     1      -1.650   3.802   2.801  1.00  0.00     0.163 HD
BRANCH   3   6
ATOM      6  C   UNL     1      -1.097   1.291   0.608  1.00  0.00     0.133 C 
ATOM      7  C   UNL     1      -1.738   0.123   1.372  1.00  0.00     0.024 C 
BRANCH   6   8
ATOM      8  C   UNL     1       0.438   1.193   0.407  1.00  0.00     0.191 C 
ATOM      9  C   UNL     1       1.092   2.394  -0.297  1.00  0.00     0.076 C 
BRANCH   8  10
ATOM     10  N   UNL     1       0.918  -0.084  -0.132  1.00  0.00    -0.336 N 
ATOM     11  H   UNL     1       0.529  -0.809   0.471  1.00  0.00     0.346 HD
ATOM     12  H   UNL     1       1.927   0.067  -0.153  1.00  0.00     0.346 HD
BRANCH  10  13
ATOM     13  C   UNL     1       0.650  -0.516  -1.517  1.00  0.00     0.244 C 
ATOM     14  C   UNL     1      -0.299   0.242  -2.458  1.00  0.00     0.132 C 
ATOM     15  C   UNL     1       0.024  -1.935  -1.539  1.00  0.00     0.327 C 
ATOM     16  C   UNL     1      -1.582  -0.582  -2.545  1.00  0.00     0.268 C 
ATOM     17  N   UNL     1      -1.411  -1.647  -1.561  1.00  0.00    -0.332 N 
ATOM     18  C   UNL     1      -2.234  -2.811  -1.835  1.00  0.00     0.332 C 
ATOM     19  H   UNL     1      -1.732  -1.355  -0.638  1.00  0.00     0.348 HD
ENDBRANCH  10  13
ENDBRANCH   8  10
ENDBRANCH   6   8
ENDBRANCH   3   6
ENDBRANCH   1   2
BRANCH   1  20
ATOM     20  C   UNL     1       0.879   3.115   3.762  1.00  0.00     0.042 C 
BRANCH  20  21
ATOM     21  C   UNL     1       0.636   4.518   4.304  1.00  0.00     0.118 C 
BRANCH  21  22
ATOM     22  N   UNL     1      -0.052   4.508   5.588  1.00  0.00    -0.352 N 
ATOM     23  C   UNL     1       0.379   4.905   6.829  1.00  0.00     0.251 C 
ATOM     24  H   UNL     1      -0.973   4.161   5.562  1.00  0.00     0.163 HD
ATOM     25  O   UNL     1      -0.274   4.615   7.825  1.00  0.00    -0.269 OA
BRANCH  23  26
ATOM     26  C   UNL     1       1.635   5.671   6.970  1.00  0.00     0.039 A 
ATOM     27  C   UNL     1       2.496   5.369   8.029  1.00  0.00     0.014 A 
ATOM     28  C   UNL     1       1.954   6.698   6.079  1.00  0.00     0.014 A 
ATOM     29  C   UNL     1       3.706   6.054   8.154  1.00  0.00     0.010 A 
ATOM     30  C   UNL     1       3.196   7.317   6.151  1.00  0.00     0.010 A 
ATOM     31  C   UNL     1       4.081   7.008   7.194  1.00  0.00    -0.014 A 
BRANCH  31  32
ATOM     32  C   UNL     1       5.389   7.705   7.268  1.00  0.00     0.031 A 
ATOM     33  C   UNL     1       5.436   9.197   7.450  1.00  0.00     0.074 A 
ATOM     34  C   UNL     1       6.527   7.006   7.096  1.00  0.00     0.049 A 
ATOM     35  N   UNL     1       6.470  10.000   7.451  1.00  0.00    -0.248 NA
ATOM     36  C   UNL     1       4.145   9.883   7.624  1.00  0.00     0.031 C 
ATOM     37  C   UNL     1       6.606   5.564   6.860  1.00  0.00     0.029 A 
ATOM     38  N   UNL     1       7.836   7.418   7.080  1.00  0.00    -0.354 N 
ATOM     39  C   UNL     1       5.954  11.280   7.604  1.00  0.00     0.074 A 
ATOM     40  C   UNL     1       4.513  11.155   7.638  1.00  0.00     0.031 C 
ATOM     41  C   UNL     1       7.896   5.207   6.746  1.00  0.00     0.029 A 
ATOM     42  C   UNL     1       8.730   6.399   6.861  1.00  0.00     0.049 A 
ATOM     43  H   UNL     1       8.108   8.355   7.213  1.00  0.00     0.167 HD
ATOM     44  C   UNL     1       6.622  12.450   7.732  1.00  0.00     0.037 A 
ATOM     45  C   UNL     1      10.072   6.427   6.757  1.00  0.00     0.037 A 
ATOM     46  C   UNL     1       8.056  12.565   7.729  1.00  0.00     0.049 A 
ATOM     47  C   UNL     1      10.791   7.740   6.905  1.00  0.00     0.074 A 
ATOM     48  C   UNL     1       8.833  13.695   7.915  1.00  0.00     0.029 A 
ATOM     49  N   UNL     1       8.931  11.506   7.530  1.00  0.00    -0.354 N 
ATOM     50  N   UNL     1      10.296   8.935   7.119  1.00  0.00    -0.248 NA
ATOM     51  C   UNL     1      12.257   7.707   6.803  1.00  0.00     0.031 C 
ATOM     52  C   UNL     1      10.177  13.328   7.785  1.00  0.00     0.029 A 
ATOM     53  C   UNL     1      10.239  11.960   7.568  1.00  0.00     0.049 A 
ATOM     54  H   UNL     1       8.662  10.570   7.383  1.00  0.00     0.167 HD
ATOM     55  C   UNL     1      11.386   9.790   7.205  1.00  0.00     0.074 A 
ATOM     56  C   UNL     1      12.571   8.973   7.036  1.00  0.00     0.031 C 
ATOM     57  C   UNL     1      11.406  11.130   7.406  1.00  0.00     0.037 A 
BRANCH  44  58
ATOM     58  C   UNL     1       5.807  13.701   7.893  1.00  0.00     0.064 A 
ATOM     59  C   UNL     1       5.073  13.956   9.061  1.00  0.00     0.173 A 
ATOM     60  C   UNL     1       5.783  14.671   6.880  1.00  0.00     0.173 A 
ATOM     61  F   UNL     1       5.052  13.056  10.056  1.00  0.00    -0.203 F 
ATOM     62  C   UNL     1       4.321  15.120   9.197  1.00  0.00     0.198 A 
ATOM     63  C   UNL     1       5.055  15.849   7.031  1.00  0.00     0.198 A 
ATOM     64  F   UNL     1       6.471  14.481   5.744  1.00  0.00    -0.203 F 
ATOM     65  F   UNL     1       3.586  15.316  10.300  1.00  0.00    -0.200 F 
ATOM     66  C   UNL     1       4.318  16.068   8.185  1.00  0.00     0.200 A 
ATOM     67  F   UNL     1       5.064  16.771   6.058  1.00  0.00    -0.200 F 
ATOM     68  F   UNL     1       3.599  17.191   8.320  1.00  0.00    -0.200 F 
ENDBRANCH  44  58
BRANCH  45  69
ATOM     69  C   UNL     1      10.825   5.166   6.528  1.00  0.00     0.064 A 
ATOM     70  C   UNL     1      11.633   4.620   7.535  1.00  0.00     0.173 A 
ATOM     71  C   UNL     1      10.756   4.484   5.305  1.00  0.00     0.173 A 
ATOM     72  F   UNL     1      11.747   5.247   8.715  1.00  0.00    -0.203 F 
ATOM     73  C   UNL     1      12.360   3.451   7.320  1.00  0.00     0.198 A 
ATOM     74  C   UNL     1      11.461   3.299   5.101  1.00  0.00     0.198 A 
ATOM     75  F   UNL     1       9.992   4.962   4.311  1.00  0.00    -0.203 F 
ATOM     76  F   UNL     1      13.160   2.975   8.284  1.00  0.00    -0.200 F 
ATOM     77  C   UNL     1      12.269   2.788   6.105  1.00  0.00     0.200 A 
ATOM     78  F   UNL     1      11.358   2.654   3.931  1.00  0.00    -0.200 F 
ATOM     79  F   UNL     1      12.964   1.662   5.901  1.00  0.00    -0.200 F 
ENDBRANCH  45  69
BRANCH  57  80
ATOM     80  C   UNL     1      12.749  11.793   7.490  1.00  0.00     0.064 A 
ATOM     81  C   UNL     1      13.557  11.966   6.357  1.00  0.00     0.173 A 
ATOM     82  C   UNL     1      13.216  12.297   8.714  1.00  0.00     0.173 A 
ATOM     83  F   UNL     1      13.162  11.487   5.167  1.00  0.00    -0.203 F 
ATOM     84  C   UNL     1      14.795  12.597   6.450  1.00  0.00     0.198 A 
ATOM     85  C   UNL     1      14.440  12.954   8.798  1.00  0.00     0.198 A 
ATOM     86  F   UNL     1      12.478  12.163   9.826  1.00  0.00    -0.203 F 
ATOM     87  F   UNL     1      15.571  12.709   5.364  1.00  0.00    -0.200 F 
ATOM     88  C   UNL     1      15.231  13.097   7.668  1.00  0.00     0.200 A 
ATOM     89  F   UNL     1      14.854  13.449   9.973  1.00  0.00    -0.200 F 
ATOM     90  F   UNL     1      16.419  13.711   7.755  1.00  0.00    -0.200 F 
ENDBRANCH  57  80
ENDBRANCH  31  32
ENDBRANCH  23  26
ENDBRANCH  21  22
ENDBRANCH  20  21
ENDBRANCH   1  20
TORSDOF 13
