REMARK SMILES COCCOCC[C@@H]1CCC[C@]1([NH3+])C(=O)NCCCNC(=O)c1ccc(-c2c3nc(c(-c4c(F)c(F)c(F)c(F)c4F)c4ccc([nH]4)c(-c4c(F)c(F)c(F)c(F)c4F)c4nc(c(-c5c(F)c(F)c(F)c(F)c5F)c5ccc2[nH]5)C=C4)C=C3)cc1
REMARK SMILES IDX 14 1 15 2 16 3 12 5 8 6 9 7 10 8 11 9 7 10 6 11 5 12 4 13
REMARK SMILES IDX 3 14 2 15 1 16 13 17 17 21 18 22 19 23 20 24 21 25 22 27
REMARK SMILES IDX 23 28 24 29 85 30 25 31 84 32 26 33 27 34 28 35 78 36 29 37
REMARK SMILES IDX 83 38 77 39 79 40 30 41 82 42 76 43 75 44 31 46 63 47 43 48
REMARK SMILES IDX 62 49 44 50 47 51 61 52 80 53 45 54 46 55 60 57 81 58 48 59
REMARK SMILES IDX 32 60 33 61 41 62 34 63 35 64 39 65 42 66 36 67 37 68 40 69
REMARK SMILES IDX 38 70 64 71 65 72 73 73 66 74 67 75 71 76 74 77 68 78 69 79
REMARK SMILES IDX 72 80 70 81 49 82 50 83 58 84 51 85 52 86 56 87 59 88 53 89
REMARK SMILES IDX 54 90 57 91 55 92
REMARK H PARENT 16 4 13 18 13 19 13 20 20 26 79 45 47 56
REMARK Flexibility Score: inf
ROOT
ATOM      1  C   UNL     1      -3.732   1.562   2.239  1.00  0.00     0.281 C 
ATOM      2  O   UNL     1      -4.083   2.510   2.953  1.00  0.00    -0.268 OA
ATOM      3  N   UNL     1      -3.770   0.339   2.848  1.00  0.00    -0.351 N 
ATOM      4  H   UNL     1      -3.948   0.392   3.815  1.00  0.00     0.163 HD
ENDROOT
BRANCH   1   5
ATOM      5  C   UNL     1      -3.213   1.799   0.767  1.00  0.00     0.176 C 
ATOM      6  C   UNL     1      -1.659   1.981   0.669  1.00  0.00     0.063 C 
ATOM      7  C   UNL     1      -1.428   3.485   0.877  1.00  0.00     0.011 C 
ATOM      8  C   UNL     1      -2.775   4.187   0.784  1.00  0.00     0.008 C 
ATOM      9  C   UNL     1      -3.736   3.148   0.234  1.00  0.00     0.079 C 
BRANCH   6  10
ATOM     10  C   UNL     1      -0.889   1.067   1.626  1.00  0.00     0.039 C 
BRANCH  10  11
ATOM     11  C   UNL     1       0.633   0.923   1.675  1.00  0.00     0.161 C 
BRANCH  11  12
ATOM     12  O   UNL     1       1.414   2.096   1.774  1.00  0.00    -0.379 OA
BRANCH  12  13
ATOM     13  C   UNL     1       1.854   2.727   0.569  1.00  0.00     0.188 C 
BRANCH  13  14
ATOM     14  C   UNL     1       2.276   1.834  -0.603  1.00  0.00     0.188 C 
BRANCH  14  15
ATOM     15  O   UNL     1       1.142   1.140  -1.132  1.00  0.00    -0.382 OA
ATOM     16  C   UNL     1       1.473  -0.131  -1.678  1.00  0.00     0.195 C 
ENDBRANCH  14  15
ENDBRANCH  13  14
ENDBRANCH  12  13
ENDBRANCH  11  12
ENDBRANCH  10  11
ENDBRANCH   6  10
BRANCH   5  17
ATOM     17  N   UNL     1      -3.733   0.740  -0.124  1.00  0.00    -0.345 N 
ATOM     18  H   UNL     1      -3.394   0.898  -1.073  1.00  0.00     0.345 HD
ATOM     19  H   UNL     1      -4.752   0.762  -0.118  1.00  0.00     0.345 HD
ATOM     20  H   UNL     1      -3.410  -0.170   0.205  1.00  0.00     0.345 HD
ENDBRANCH   5  17
ENDBRANCH   1   5
BRANCH   3  21
ATOM     21  C   UNL     1      -3.601  -1.027   2.366  1.00  0.00     0.118 C 
BRANCH  21  22
ATOM     22  C   UNL     1      -2.434  -1.782   3.004  1.00  0.00     0.042 C 
BRANCH  22  23
ATOM     23  C   UNL     1      -2.457  -1.854   4.521  1.00  0.00     0.118 C 
BRANCH  23  24
ATOM     24  N   UNL     1      -3.354  -2.887   5.005  1.00  0.00    -0.352 N 
ATOM     25  C   UNL     1      -3.076  -4.127   5.528  1.00  0.00     0.251 C 
ATOM     26  H   UNL     1      -4.311  -2.664   4.950  1.00  0.00     0.163 HD
ATOM     27  O   UNL     1      -3.984  -4.944   5.646  1.00  0.00    -0.269 OA
BRANCH  25  28
ATOM     28  C   UNL     1      -1.700  -4.504   5.938  1.00  0.00     0.039 A 
ATOM     29  C   UNL     1      -1.276  -5.819   5.722  1.00  0.00     0.014 A 
ATOM     30  C   UNL     1      -0.852  -3.610   6.598  1.00  0.00     0.014 A 
ATOM     31  C   UNL     1       0.000  -6.223   6.127  1.00  0.00     0.010 A 
ATOM     32  C   UNL     1       0.451  -3.987   6.924  1.00  0.00     0.010 A 
ATOM     33  C   UNL     1       0.885  -5.304   6.713  1.00  0.00    -0.014 A 
BRANCH  33  34
ATOM     34  C   UNL     1       2.248  -5.715   7.145  1.00  0.00     0.031 A 
ATOM     35  C   UNL     1       2.626  -5.674   8.602  1.00  0.00     0.074 A 
ATOM     36  C   UNL     1       3.163  -6.081   6.228  1.00  0.00     0.049 A 
ATOM     37  N   UNL     1       3.776  -5.943   9.169  1.00  0.00    -0.248 NA
ATOM     38  C   UNL     1       1.580  -5.248   9.544  1.00  0.00     0.031 C 
ATOM     39  C   UNL     1       2.940  -6.125   4.782  1.00  0.00     0.029 A 
ATOM     40  N   UNL     1       4.468  -6.482   6.375  1.00  0.00    -0.354 N 
ATOM     41  C   UNL     1       3.595  -5.701  10.525  1.00  0.00     0.074 A 
ATOM     42  C   UNL     1       2.243  -5.214  10.691  1.00  0.00     0.031 C 
ATOM     43  C   UNL     1       4.060  -6.553   4.178  1.00  0.00     0.029 A 
ATOM     44  C   UNL     1       5.090  -6.781   5.188  1.00  0.00     0.049 A 
ATOM     45  H   UNL     1       4.916  -6.548   7.250  1.00  0.00     0.167 HD
ATOM     46  C   UNL     1       4.468  -5.889  11.544  1.00  0.00     0.037 A 
ATOM     47  C   UNL     1       6.349  -7.190   4.941  1.00  0.00     0.037 A 
ATOM     48  C   UNL     1       5.802  -6.405  11.386  1.00  0.00     0.049 A 
ATOM     49  C   UNL     1       7.299  -7.396   6.089  1.00  0.00     0.074 A 
ATOM     50  C   UNL     1       6.738  -6.696  12.364  1.00  0.00     0.029 A 
ATOM     51  N   UNL     1       6.391  -6.708  10.168  1.00  0.00    -0.354 N 
ATOM     52  N   UNL     1       7.095  -7.225   7.372  1.00  0.00    -0.248 NA
ATOM     53  C   UNL     1       8.654  -7.856   5.752  1.00  0.00     0.031 C 
ATOM     54  C   UNL     1       7.908  -7.135  11.735  1.00  0.00     0.029 A 
ATOM     55  C   UNL     1       7.686  -7.161  10.367  1.00  0.00     0.049 A 
ATOM     56  H   UNL     1       5.955  -6.614   9.290  1.00  0.00     0.167 HD
ATOM     57  C   UNL     1       8.283  -7.580   7.997  1.00  0.00     0.074 A 
ATOM     58  C   UNL     1       9.199  -7.989   6.953  1.00  0.00     0.031 C 
ATOM     59  C   UNL     1       8.586  -7.568   9.319  1.00  0.00     0.037 A 
BRANCH  46  60
ATOM     60  C   UNL     1       4.003  -5.535  12.928  1.00  0.00     0.064 A 
ATOM     61  C   UNL     1       3.029  -6.295  13.594  1.00  0.00     0.173 A 
ATOM     62  C   UNL     1       4.555  -4.438  13.606  1.00  0.00     0.173 A 
ATOM     63  F   UNL     1       2.462  -7.347  12.986  1.00  0.00    -0.203 F 
ATOM     64  C   UNL     1       2.600  -5.949  14.873  1.00  0.00     0.198 A 
ATOM     65  C   UNL     1       4.146  -4.114  14.898  1.00  0.00     0.198 A 
ATOM     66  F   UNL     1       5.495  -3.682  13.019  1.00  0.00    -0.203 F 
ATOM     67  F   UNL     1       1.631  -6.659  15.467  1.00  0.00    -0.200 F 
ATOM     68  C   UNL     1       3.163  -4.863  15.526  1.00  0.00     0.200 A 
ATOM     69  F   UNL     1       4.700  -3.071  15.533  1.00  0.00    -0.200 F 
ATOM     70  F   UNL     1       2.753  -4.534  16.759  1.00  0.00    -0.200 F 
ENDBRANCH  46  60
BRANCH  47  71
ATOM     71  C   UNL     1       6.773  -7.467   3.544  1.00  0.00     0.064 A 
ATOM     72  C   UNL     1       6.995  -8.781   3.109  1.00  0.00     0.173 A 
ATOM     73  C   UNL     1       6.954  -6.432   2.616  1.00  0.00     0.173 A 
ATOM     74  F   UNL     1       6.855  -9.802   3.967  1.00  0.00    -0.203 F 
ATOM     75  C   UNL     1       7.395  -9.048   1.802  1.00  0.00     0.198 A 
ATOM     76  C   UNL     1       7.329  -6.702   1.302  1.00  0.00     0.198 A 
ATOM     77  F   UNL     1       6.749  -5.158   2.982  1.00  0.00    -0.203 F 
ATOM     78  F   UNL     1       7.636 -10.310   1.422  1.00  0.00    -0.200 F 
ATOM     79  C   UNL     1       7.555  -8.009   0.897  1.00  0.00     0.200 A 
ATOM     80  F   UNL     1       7.469  -5.697   0.427  1.00  0.00    -0.200 F 
ATOM     81  F   UNL     1       7.932  -8.267  -0.362  1.00  0.00    -0.200 F 
ENDBRANCH  47  71
BRANCH  59  82
ATOM     82  C   UNL     1       9.955  -8.036   9.714  1.00  0.00     0.064 A 
ATOM     83  C   UNL     1      11.097  -7.258   9.471  1.00  0.00     0.173 A 
ATOM     84  C   UNL     1      10.123  -9.261  10.378  1.00  0.00     0.173 A 
ATOM     85  F   UNL     1      10.990  -6.087   8.826  1.00  0.00    -0.203 F 
ATOM     86  C   UNL     1      12.359  -7.701   9.857  1.00  0.00     0.198 A 
ATOM     87  C   UNL     1      11.383  -9.688  10.787  1.00  0.00     0.198 A 
ATOM     88  F   UNL     1       9.062 -10.040  10.639  1.00  0.00    -0.203 F 
ATOM     89  F   UNL     1      13.441  -6.963   9.575  1.00  0.00    -0.200 F 
ATOM     90  C   UNL     1      12.501  -8.911  10.520  1.00  0.00     0.200 A 
ATOM     91  F   UNL     1      11.517 -10.852  11.438  1.00  0.00    -0.200 F 
ATOM     92  F   UNL     1      13.716  -9.333  10.896  1.00  0.00    -0.200 F 
ENDBRANCH  59  82
ENDBRANCH  33  34
ENDBRANCH  25  28
ENDBRANCH  23  24
ENDBRANCH  22  23
ENDBRANCH  21  22
ENDBRANCH   3  21
TORSDOF 17
