REMARK SMILES C[C@@H](C(=O)NCCCNC(=O)c1ccc(-c2c3nc(c(-c4c(F)c(F)c(F)c(F)c4F)c4ccc([nH]4)c(-c4c(F)c(F)c(F)c(F)c4F)c4nc(c(-c5c(F)c(F)c(F)c(F)c5F)c5ccc2[nH]5)C=C4)C=C3)cc1)c1ccc(-c2cccc(OC(=O)NCCC3CCCCC3)c2)c(F)c1
REMARK SMILES IDX 1 1 2 2 3 3 4 4 5 5 6 7 7 8 8 9 9 10 10 11 11 13 12 14 13 15
REMARK SMILES IDX 74 16 14 17 73 18 15 19 16 20 17 21 67 22 18 23 72 24 66 25
REMARK SMILES IDX 68 26 19 27 71 28 65 29 64 30 20 32 52 33 32 34 51 35 33 36
REMARK SMILES IDX 36 37 50 38 69 39 34 40 35 41 49 43 70 44 37 45 21 46 22 47
REMARK SMILES IDX 30 48 23 49 24 50 28 51 31 52 25 53 26 54 29 55 27 56 53 57
REMARK SMILES IDX 54 58 62 59 55 60 56 61 60 62 63 63 57 64 58 65 61 66 59 67
REMARK SMILES IDX 38 68 39 69 47 70 40 71 41 72 45 73 48 74 42 75 43 76 46 77
REMARK SMILES IDX 44 78 75 79 76 80 99 81 77 82 97 83 78 84 98 85 79 86 80 87
REMARK SMILES IDX 96 88 81 89 83 90 82 91 84 92 85 93 86 94 87 95 88 97 89 98
REMARK SMILES IDX 90 99 91 100 95 101 92 102 94 103 93 104
REMARK H PARENT 5 6 9 12 68 31 36 42 87 96
REMARK Flexibility Score: inf
ROOT
ATOM      1  C   UNL     1       1.108   0.148  -0.098  1.00  0.00     0.023 C 
ATOM      2  C   UNL     1       0.580  -1.092   0.631  1.00  0.00     0.105 C 
ENDROOT
BRANCH   2   3
ATOM      3  C   UNL     1       1.137  -1.200   2.060  1.00  0.00     0.227 C 
ATOM      4  O   UNL     1       0.454  -1.014   3.069  1.00  0.00    -0.274 OA
ATOM      5  N   UNL     1       2.442  -1.545   2.259  1.00  0.00    -0.356 N 
ATOM      6  H   UNL     1       2.681  -1.747   3.193  1.00  0.00     0.163 HD
BRANCH   5   7
ATOM      7  C   UNL     1       3.529  -1.659   1.309  1.00  0.00     0.117 C 
BRANCH   7   8
ATOM      8  C   UNL     1       4.397  -0.403   1.317  1.00  0.00     0.042 C 
BRANCH   8   9
ATOM      9  C   UNL     1       5.131  -0.172   2.634  1.00  0.00     0.118 C 
BRANCH   9  10
ATOM     10  N   UNL     1       6.099  -1.220   2.920  1.00  0.00    -0.352 N 
ATOM     11  C   UNL     1       7.459  -1.146   3.081  1.00  0.00     0.251 C 
ATOM     12  H   UNL     1       5.718  -2.123   3.011  1.00  0.00     0.163 HD
ATOM     13  O   UNL     1       8.124  -2.178   3.101  1.00  0.00    -0.269 OA
BRANCH  11  14
ATOM     14  C   UNL     1       8.131   0.164   3.213  1.00  0.00     0.039 A 
ATOM     15  C   UNL     1       9.354   0.359   2.565  1.00  0.00     0.014 A 
ATOM     16  C   UNL     1       7.585   1.184   3.995  1.00  0.00     0.014 A 
ATOM     17  C   UNL     1       9.996   1.595   2.652  1.00  0.00     0.010 A 
ATOM     18  C   UNL     1       8.182   2.442   4.013  1.00  0.00     0.010 A 
ATOM     19  C   UNL     1       9.397   2.659   3.347  1.00  0.00    -0.014 A 
BRANCH  19  20
ATOM     20  C   UNL     1      10.027   4.004   3.381  1.00  0.00     0.031 A 
ATOM     21  C   UNL     1      10.480   4.599   4.685  1.00  0.00     0.074 A 
ATOM     22  C   UNL     1      10.138   4.713   2.241  1.00  0.00     0.049 A 
ATOM     23  N   UNL     1      10.999   5.777   4.923  1.00  0.00    -0.248 NA
ATOM     24  C   UNL     1      10.303   3.769   5.887  1.00  0.00     0.031 C 
ATOM     25  C   UNL     1       9.697   4.263   0.920  1.00  0.00     0.029 A 
ATOM     26  N   UNL     1      10.649   5.967   2.011  1.00  0.00    -0.354 N 
ATOM     27  C   UNL     1      11.199   5.833   6.295  1.00  0.00     0.074 A 
ATOM     28  C   UNL     1      10.692   4.596   6.847  1.00  0.00     0.031 C 
ATOM     29  C   UNL     1       9.979   5.213   0.015  1.00  0.00     0.029 A 
ATOM     30  C   UNL     1      10.578   6.357   0.696  1.00  0.00     0.049 A 
ATOM     31  H   UNL     1      11.030   6.532   2.722  1.00  0.00     0.167 HD
ATOM     32  C   UNL     1      11.775   6.818   7.027  1.00  0.00     0.037 A 
ATOM     33  C   UNL     1      10.944   7.511   0.107  1.00  0.00     0.037 A 
ATOM     34  C   UNL     1      12.290   8.043   6.471  1.00  0.00     0.049 A 
ATOM     35  C   UNL     1      11.555   8.601   0.947  1.00  0.00     0.074 A 
ATOM     36  C   UNL     1      12.941   9.077   7.118  1.00  0.00     0.029 A 
ATOM     37  N   UNL     1      12.200   8.403   5.133  1.00  0.00    -0.354 N 
ATOM     38  N   UNL     1      11.807   8.613   2.233  1.00  0.00    -0.248 NA
ATOM     39  C   UNL     1      11.937   9.836   0.250  1.00  0.00     0.031 C 
ATOM     40  C   UNL     1      13.189  10.090   6.186  1.00  0.00     0.029 A 
ATOM     41  C   UNL     1      12.755   9.659   4.943  1.00  0.00     0.049 A 
ATOM     42  H   UNL     1      11.800   7.849   4.425  1.00  0.00     0.167 HD
ATOM     43  C   UNL     1      12.403   9.840   2.494  1.00  0.00     0.074 A 
ATOM     44  C   UNL     1      12.491  10.537   1.228  1.00  0.00     0.031 C 
ATOM     45  C   UNL     1      12.839  10.342   3.676  1.00  0.00     0.037 A 
BRANCH  32  46
ATOM     46  C   UNL     1      11.873   6.613   8.513  1.00  0.00     0.064 A 
ATOM     47  C   UNL     1      12.709   5.633   9.071  1.00  0.00     0.173 A 
ATOM     48  C   UNL     1      11.146   7.429   9.394  1.00  0.00     0.173 A 
ATOM     49  F   UNL     1      13.421   4.820   8.276  1.00  0.00    -0.203 F 
ATOM     50  C   UNL     1      12.784   5.453  10.450  1.00  0.00     0.198 A 
ATOM     51  C   UNL     1      11.251   7.270  10.773  1.00  0.00     0.198 A 
ATOM     52  F   UNL     1      10.337   8.387   8.917  1.00  0.00    -0.203 F 
ATOM     53  F   UNL     1      13.544   4.471  10.956  1.00  0.00    -0.200 F 
ATOM     54  C   UNL     1      12.061   6.276  11.300  1.00  0.00     0.200 A 
ATOM     55  F   UNL     1      10.564   8.078  11.593  1.00  0.00    -0.200 F 
ATOM     56  F   UNL     1      12.139   6.106  12.627  1.00  0.00    -0.200 F 
ENDBRANCH  32  46
BRANCH  33  57
ATOM     57  C   UNL     1      10.758   7.689  -1.357  1.00  0.00     0.064 A 
ATOM     58  C   UNL     1      11.860   7.776  -2.218  1.00  0.00     0.173 A 
ATOM     59  C   UNL     1       9.478   7.779  -1.926  1.00  0.00     0.173 A 
ATOM     60  F   UNL     1      13.104   7.715  -1.721  1.00  0.00    -0.203 F 
ATOM     61  C   UNL     1      11.691   7.969  -3.588  1.00  0.00     0.198 A 
ATOM     62  C   UNL     1       9.310   7.939  -3.300  1.00  0.00     0.198 A 
ATOM     63  F   UNL     1       8.389   7.696  -1.148  1.00  0.00    -0.203 F 
ATOM     64  F   UNL     1      12.764   8.099  -4.381  1.00  0.00    -0.200 F 
ATOM     65  C   UNL     1      10.417   8.044  -4.128  1.00  0.00     0.200 A 
ATOM     66  F   UNL     1       8.076   7.992  -3.819  1.00  0.00    -0.200 F 
ATOM     67  F   UNL     1      10.255   8.223  -5.446  1.00  0.00    -0.200 F 
ENDBRANCH  33  57
BRANCH  45  68
ATOM     68  C   UNL     1      13.486  11.699   3.653  1.00  0.00     0.064 A 
ATOM     69  C   UNL     1      12.749  12.866   3.405  1.00  0.00     0.173 A 
ATOM     70  C   UNL     1      14.857  11.834   3.920  1.00  0.00     0.173 A 
ATOM     71  F   UNL     1      11.438  12.792   3.129  1.00  0.00    -0.203 F 
ATOM     72  C   UNL     1      13.366  14.115   3.396  1.00  0.00     0.198 A 
ATOM     73  C   UNL     1      15.464  13.087   3.946  1.00  0.00     0.198 A 
ATOM     74  F   UNL     1      15.608  10.751   4.171  1.00  0.00    -0.203 F 
ATOM     75  F   UNL     1      12.653  15.210   3.101  1.00  0.00    -0.200 F 
ATOM     76  C   UNL     1      14.720  14.225   3.675  1.00  0.00     0.200 A 
ATOM     77  F   UNL     1      16.768  13.192   4.234  1.00  0.00    -0.200 F 
ATOM     78  F   UNL     1      15.311  15.428   3.675  1.00  0.00    -0.200 F 
ENDBRANCH  45  68
ENDBRANCH  19  20
ENDBRANCH  11  14
ENDBRANCH   9  10
ENDBRANCH   8   9
ENDBRANCH   7   8
ENDBRANCH   5   7
ENDBRANCH   2   3
BRANCH   2  79
ATOM     79  C   UNL     1      -0.944  -1.140   0.626  1.00  0.00    -0.033 A 
ATOM     80  C   UNL     1      -1.724   0.022   0.717  1.00  0.00     0.005 A 
ATOM     81  C   UNL     1      -1.597  -2.380   0.590  1.00  0.00     0.044 A 
ATOM     82  C   UNL     1      -3.118  -0.049   0.742  1.00  0.00     0.012 A 
ATOM     83  C   UNL     1      -2.990  -2.442   0.627  1.00  0.00     0.131 A 
ATOM     84  C   UNL     1      -3.777  -1.285   0.702  1.00  0.00     0.018 A 
ATOM     85  F   UNL     1      -3.567  -3.654   0.603  1.00  0.00    -0.206 F 
BRANCH  84  86
ATOM     86  C   UNL     1      -5.237  -1.341   0.841  1.00  0.00    -0.012 A 
ATOM     87  C   UNL     1      -6.090  -0.652  -0.035  1.00  0.00     0.009 A 
ATOM     88  C   UNL     1      -5.803  -2.035   1.921  1.00  0.00     0.056 A 
ATOM     89  C   UNL     1      -7.472  -0.647   0.172  1.00  0.00     0.004 A 
ATOM     90  C   UNL     1      -7.175  -2.004   2.147  1.00  0.00     0.133 A 
ATOM     91  C   UNL     1      -8.015  -1.319   1.267  1.00  0.00     0.047 A 
BRANCH  90  92
ATOM     92  O   UNL     1      -7.812  -2.623   3.250  1.00  0.00    -0.410 OA
BRANCH  92  93
ATOM     93  C   UNL     1      -7.150  -3.091   4.383  1.00  0.00     0.412 C 
ATOM     94  O   UNL     1      -5.938  -3.118   4.570  1.00  0.00    -0.224 OA
ATOM     95  N   UNL     1      -7.984  -3.530   5.367  1.00  0.00    -0.321 N 
ATOM     96  H   UNL     1      -7.550  -3.846   6.192  1.00  0.00     0.167 HD
BRANCH  95  97
ATOM     97  C   UNL     1      -9.428  -3.588   5.349  1.00  0.00     0.119 C 
BRANCH  97  98
ATOM     98  C   UNL     1      -9.926  -5.034   5.368  1.00  0.00     0.025 C 
BRANCH  98  99
ATOM     99  C   UNL     1      -9.494  -5.843   6.611  1.00  0.00    -0.009 C 
ATOM    100  C   UNL     1     -10.141  -5.309   7.900  1.00  0.00     0.003 C 
ATOM    101  C   UNL     1      -9.831  -7.330   6.409  1.00  0.00     0.003 C 
ATOM    102  C   UNL     1      -9.789  -6.163   9.117  1.00  0.00     0.000 C 
ATOM    103  C   UNL     1      -9.457  -8.166   7.630  1.00  0.00     0.000 C 
ATOM    104  C   UNL     1     -10.123  -7.634   8.893  1.00  0.00     0.000 C 
ENDBRANCH  98  99
ENDBRANCH  97  98
ENDBRANCH  95  97
ENDBRANCH  92  93
ENDBRANCH  90  92
ENDBRANCH  84  86
ENDBRANCH   2  79
TORSDOF 17
