REMARK SMILES C[C@H](NC(=O)N(CC(=O)NCCCNC(=O)c1ccc(-c2c3nc(c(-c4c(F)c(F)c(F)c(F)c4F)c4ccc([nH]4)c(-c4c(F)c(F)c(F)c(F)c4F)c4nc(c(-c5c(F)c(F)c(F)c(F)c5F)c5ccc2[nH]5)C=C4)C=C3)cc1)CC(F)(F)F)[C@@H]1CCCO1
REMARK SMILES IDX 11 1 10 2 8 3 9 4 7 6 6 7 4 8 3 9 5 11 2 12 1 13 85 14 86 15
REMARK SMILES IDX 89 16 87 17 88 18 80 19 81 20 82 21 83 22 84 23 12 24 13 25
REMARK SMILES IDX 14 26 15 27 16 29 17 30 18 31 79 32 19 33 78 34 20 35 21 36
REMARK SMILES IDX 22 37 72 38 23 39 77 40 71 41 73 42 24 43 76 44 70 45 69 46
REMARK SMILES IDX 25 48 57 49 37 50 56 51 38 52 41 53 55 54 74 55 39 56 40 57
REMARK SMILES IDX 54 59 75 60 42 61 26 62 27 63 35 64 28 65 29 66 33 67 36 68
REMARK SMILES IDX 30 69 31 70 34 71 32 72 58 73 59 74 67 75 60 76 61 77 65 78
REMARK SMILES IDX 68 79 62 80 63 81 66 82 64 83 43 84 44 85 52 86 45 87 46 88
REMARK SMILES IDX 50 89 53 90 47 91 48 92 51 93 49 94
REMARK H PARENT 10 5 3 10 14 28 73 47 41 58
REMARK Flexibility Score: inf
ROOT
ATOM      1  C   UNL     1       2.708  -0.800  -2.838  1.00  0.00     0.117 C 
ENDROOT
BRANCH   1   2
ATOM      2  N   UNL     1       3.623  -1.921  -2.747  1.00  0.00    -0.354 N 
ATOM      3  C   UNL     1       3.973  -2.699  -1.688  1.00  0.00     0.239 C 
ATOM      4  O   UNL     1       4.804  -3.590  -1.882  1.00  0.00    -0.273 OA
ATOM      5  H   UNL     1       4.066  -2.158  -3.594  1.00  0.00     0.163 HD
BRANCH   3   6
ATOM      6  C   UNL     1       3.246  -2.602  -0.344  1.00  0.00     0.221 C 
BRANCH   6   7
ATOM      7  N   UNL     1       3.288  -1.337   0.396  1.00  0.00    -0.306 N 
BRANCH   7   8
ATOM      8  C   UNL     1       2.296  -0.421   0.618  1.00  0.00     0.318 C 
ATOM      9  N   UNL     1       0.994  -0.643   0.355  1.00  0.00    -0.333 N 
ATOM     10  H   UNL     1       0.444   0.152   0.539  1.00  0.00     0.165 HD
ATOM     11  O   UNL     1       2.563   0.679   1.110  1.00  0.00    -0.249 OA
BRANCH   9  12
ATOM     12  C   UNL     1       0.185  -1.764  -0.135  1.00  0.00     0.109 C 
ATOM     13  C   UNL     1       0.168  -2.924   0.867  1.00  0.00     0.034 C 
BRANCH  12  14
ATOM     14  C   UNL     1      -1.261  -1.342  -0.485  1.00  0.00     0.140 C 
ATOM     15  C   UNL     1      -1.951  -2.351  -1.391  1.00  0.00     0.036 C 
ATOM     16  O   UNL     1      -1.293  -0.115  -1.238  1.00  0.00    -0.376 OA
ATOM     17  C   UNL     1      -3.075  -1.528  -1.965  1.00  0.00     0.031 C 
ATOM     18  C   UNL     1      -2.460  -0.145  -2.080  1.00  0.00     0.160 C 
ENDBRANCH  12  14
ENDBRANCH   9  12
ENDBRANCH   7   8
BRANCH   7  19
ATOM     19  C   UNL     1       4.606  -1.024   1.011  1.00  0.00     0.237 C 
BRANCH  19  20
ATOM     20  C   UNL     1       5.567  -0.118   0.233  1.00  0.00     0.406 C 
ATOM     21  F   UNL     1       5.112   1.138   0.070  1.00  0.00    -0.169 F 
ATOM     22  F   UNL     1       6.752  -0.033   0.889  1.00  0.00    -0.169 F 
ATOM     23  F   UNL     1       5.838  -0.620  -0.994  1.00  0.00    -0.169 F 
ENDBRANCH  19  20
ENDBRANCH   7  19
ENDBRANCH   6   7
ENDBRANCH   3   6
ENDBRANCH   1   2
BRANCH   1  24
ATOM     24  C   UNL     1       3.434   0.535  -2.904  1.00  0.00     0.042 C 
BRANCH  24  25
ATOM     25  C   UNL     1       4.370   0.654  -4.096  1.00  0.00     0.118 C 
BRANCH  25  26
ATOM     26  N   UNL     1       3.646   0.684  -5.359  1.00  0.00    -0.352 N 
ATOM     27  C   UNL     1       3.710   1.613  -6.367  1.00  0.00     0.251 C 
ATOM     28  H   UNL     1       3.026  -0.065  -5.511  1.00  0.00     0.163 HD
ATOM     29  O   UNL     1       2.877   1.607  -7.266  1.00  0.00    -0.269 OA
BRANCH  27  30
ATOM     30  C   UNL     1       4.783   2.629  -6.354  1.00  0.00     0.039 A 
ATOM     31  C   UNL     1       4.463   3.953  -6.657  1.00  0.00     0.014 A 
ATOM     32  C   UNL     1       6.099   2.273  -6.046  1.00  0.00     0.014 A 
ATOM     33  C   UNL     1       5.457   4.931  -6.604  1.00  0.00     0.010 A 
ATOM     34  C   UNL     1       7.068   3.260  -5.909  1.00  0.00     0.010 A 
ATOM     35  C   UNL     1       6.761   4.596  -6.202  1.00  0.00    -0.014 A 
BRANCH  35  36
ATOM     36  C   UNL     1       7.819   5.632  -6.101  1.00  0.00     0.031 A 
ATOM     37  C   UNL     1       9.030   5.561  -6.990  1.00  0.00     0.074 A 
ATOM     38  C   UNL     1       7.712   6.607  -5.179  1.00  0.00     0.049 A 
ATOM     39  N   UNL     1      10.075   6.349  -7.032  1.00  0.00    -0.248 NA
ATOM     40  C   UNL     1       9.090   4.439  -7.942  1.00  0.00     0.031 C 
ATOM     41  C   UNL     1       6.612   6.749  -4.224  1.00  0.00     0.029 A 
ATOM     42  N   UNL     1       8.540   7.662  -4.889  1.00  0.00    -0.354 N 
ATOM     43  C   UNL     1      10.914   5.812  -8.000  1.00  0.00     0.074 A 
ATOM     44  C   UNL     1      10.290   4.599  -8.478  1.00  0.00     0.031 C 
ATOM     45  C   UNL     1       6.818   7.843  -3.474  1.00  0.00     0.029 A 
ATOM     46  C   UNL     1       8.082   8.458  -3.868  1.00  0.00     0.049 A 
ATOM     47  H   UNL     1       9.384   7.832  -5.368  1.00  0.00     0.167 HD
ATOM     48  C   UNL     1      12.087   6.303  -8.467  1.00  0.00     0.037 A 
ATOM     49  C   UNL     1       8.625   9.557  -3.311  1.00  0.00     0.037 A 
ATOM     50  C   UNL     1      12.692   7.523  -8.002  1.00  0.00     0.049 A 
ATOM     51  C   UNL     1       9.934  10.076  -3.843  1.00  0.00     0.074 A 
ATOM     52  C   UNL     1      13.846   8.139  -8.452  1.00  0.00     0.029 A 
ATOM     53  N   UNL     1      12.193   8.310  -6.974  1.00  0.00    -0.354 N 
ATOM     54  N   UNL     1      10.678   9.607  -4.815  1.00  0.00    -0.248 NA
ATOM     55  C   UNL     1      10.473  11.285  -3.206  1.00  0.00     0.031 C 
ATOM     56  C   UNL     1      14.075   9.269  -7.660  1.00  0.00     0.029 A 
ATOM     57  C   UNL     1      13.031   9.392  -6.757  1.00  0.00     0.049 A 
ATOM     58  H   UNL     1      11.365   8.126  -6.473  1.00  0.00     0.167 HD
ATOM     59  C   UNL     1      11.755  10.475  -4.925  1.00  0.00     0.074 A 
ATOM     60  C   UNL     1      11.557  11.512  -3.933  1.00  0.00     0.031 C 
ATOM     61  C   UNL     1      12.814  10.420  -5.771  1.00  0.00     0.037 A 
BRANCH  48  62
ATOM     62  C   UNL     1      12.790   5.522  -9.540  1.00  0.00     0.064 A 
ATOM     63  C   UNL     1      12.268   5.416 -10.838  1.00  0.00     0.173 A 
ATOM     64  C   UNL     1      14.022   4.903  -9.279  1.00  0.00     0.173 A 
ATOM     65  F   UNL     1      11.088   5.980 -11.140  1.00  0.00    -0.203 F 
ATOM     66  C   UNL     1      12.935   4.694 -11.825  1.00  0.00     0.198 A 
ATOM     67  C   UNL     1      14.704   4.211 -10.277  1.00  0.00     0.198 A 
ATOM     68  F   UNL     1      14.572   4.977  -8.057  1.00  0.00    -0.203 F 
ATOM     69  F   UNL     1      12.390   4.564 -13.042  1.00  0.00    -0.200 F 
ATOM     70  C   UNL     1      14.156   4.100 -11.546  1.00  0.00     0.200 A 
ATOM     71  F   UNL     1      15.891   3.650 -10.010  1.00  0.00    -0.200 F 
ATOM     72  F   UNL     1      14.803   3.415 -12.499  1.00  0.00    -0.200 F 
ENDBRANCH  48  62
BRANCH  49  73
ATOM     73  C   UNL     1       7.922  10.254  -2.201  1.00  0.00     0.064 A 
ATOM     74  C   UNL     1       7.377  11.533  -2.384  1.00  0.00     0.173 A 
ATOM     75  C   UNL     1       7.788   9.664  -0.936  1.00  0.00     0.173 A 
ATOM     76  F   UNL     1       7.496  12.148  -3.570  1.00  0.00    -0.203 F 
ATOM     77  C   UNL     1       6.751  12.206  -1.337  1.00  0.00     0.198 A 
ATOM     78  C   UNL     1       7.133  10.324   0.102  1.00  0.00     0.198 A 
ATOM     79  F   UNL     1       8.287   8.440  -0.709  1.00  0.00    -0.203 F 
ATOM     80  F   UNL     1       6.288  13.449  -1.524  1.00  0.00    -0.200 F 
ATOM     81  C   UNL     1       6.624  11.599  -0.097  1.00  0.00     0.200 A 
ATOM     82  F   UNL     1       7.000   9.729   1.294  1.00  0.00    -0.200 F 
ATOM     83  F   UNL     1       6.021  12.246   0.910  1.00  0.00    -0.200 F 
ENDBRANCH  49  73
BRANCH  61  84
ATOM     84  C   UNL     1      13.821  11.531  -5.688  1.00  0.00     0.064 A 
ATOM     85  C   UNL     1      14.689  11.661  -4.594  1.00  0.00     0.173 A 
ATOM     86  C   UNL     1      13.945  12.454  -6.739  1.00  0.00     0.173 A 
ATOM     87  F   UNL     1      14.602  10.814  -3.558  1.00  0.00    -0.203 F 
ATOM     88  C   UNL     1      15.624  12.692  -4.542  1.00  0.00     0.198 A 
ATOM     89  C   UNL     1      14.904  13.461  -6.699  1.00  0.00     0.198 A 
ATOM     90  F   UNL     1      13.145  12.369  -7.812  1.00  0.00    -0.203 F 
ATOM     91  F   UNL     1      16.407  12.829  -3.463  1.00  0.00    -0.200 F 
ATOM     92  C   UNL     1      15.737  13.585  -5.597  1.00  0.00     0.200 A 
ATOM     93  F   UNL     1      15.023  14.312  -7.727  1.00  0.00    -0.200 F 
ATOM     94  F   UNL     1      16.643  14.570  -5.549  1.00  0.00    -0.200 F 
ENDBRANCH  61  84
ENDBRANCH  35  36
ENDBRANCH  27  30
ENDBRANCH  25  26
ENDBRANCH  24  25
ENDBRANCH   1  24
TORSDOF 16
