REMARK SMILES O=C(NCCCNC(=O)c1sccc1S(=O)(=O)N1CCO[C@@H]2CCCC[C@@H]21)c1ccc(-c2c3nc(c(-c4c(F)c(F)c(F)c(F)c4F)c4ccc([nH]4)c(-c4c(F)c(F)c(F)c(F)c4F)c4nc(c(-c5c(F)c(F)c(F)c(F)c5F)c5ccc2[nH]5)C=C4)C=C3)cc1
REMARK SMILES IDX 5 1 4 2 3 3 1 4 2 5 28 7 29 8 90 9 30 10 89 11 31 12 32 13
REMARK SMILES IDX 33 14 83 15 34 16 88 17 82 18 84 19 35 20 87 21 81 22 80 23
REMARK SMILES IDX 36 25 68 26 48 27 67 28 49 29 52 30 66 31 85 32 50 33 51 34
REMARK SMILES IDX 65 36 86 37 53 38 37 39 38 40 46 41 39 42 40 43 44 44 47 45
REMARK SMILES IDX 41 46 42 47 45 48 43 49 69 50 70 51 78 52 71 53 72 54 76 55
REMARK SMILES IDX 79 56 73 57 74 58 77 59 75 60 54 61 55 62 63 63 56 64 57 65
REMARK SMILES IDX 61 66 64 67 58 68 59 69 62 70 60 71 6 72 7 73 8 74 9 76
REMARK SMILES IDX 10 77 11 78 14 79 12 80 13 81 15 82 16 83 17 84 18 85 19 86
REMARK SMILES IDX 27 87 20 88 22 89 26 90 21 91 23 92 25 93 24 94
REMARK H PARENT 3 6 84 24 52 35 7 75
REMARK Flexibility Score: inf
ROOT
ATOM      1  C   UNL     1       4.933   1.568   3.394  1.00  0.00     0.042 C 
ENDROOT
BRANCH   1   2
ATOM      2  C   UNL     1       4.618   1.036   1.996  1.00  0.00     0.118 C 
BRANCH   2   3
ATOM      3  N   UNL     1       3.320   0.397   1.846  1.00  0.00    -0.352 N 
ATOM      4  O   UNL     1       1.495  -0.257   0.654  1.00  0.00    -0.269 OA
ATOM      5  C   UNL     1       2.549   0.364   0.702  1.00  0.00     0.251 C 
ATOM      6  H   UNL     1       2.954  -0.057   2.639  1.00  0.00     0.163 HD
BRANCH   5   7
ATOM      7  C   UNL     1       3.003   1.132  -0.478  1.00  0.00     0.039 A 
ATOM      8  C   UNL     1       4.139   0.738  -1.193  1.00  0.00     0.014 A 
ATOM      9  C   UNL     1       2.322   2.303  -0.816  1.00  0.00     0.014 A 
ATOM     10  C   UNL     1       4.654   1.574  -2.190  1.00  0.00     0.010 A 
ATOM     11  C   UNL     1       2.828   3.126  -1.825  1.00  0.00     0.010 A 
ATOM     12  C   UNL     1       4.023   2.792  -2.488  1.00  0.00    -0.014 A 
BRANCH  12  13
ATOM     13  C   UNL     1       4.651   3.784  -3.401  1.00  0.00     0.031 A 
ATOM     14  C   UNL     1       5.278   5.024  -2.824  1.00  0.00     0.074 A 
ATOM     15  C   UNL     1       4.630   3.614  -4.735  1.00  0.00     0.049 A 
ATOM     16  N   UNL     1       5.760   6.077  -3.436  1.00  0.00    -0.248 NA
ATOM     17  C   UNL     1       5.363   5.090  -1.357  1.00  0.00     0.031 C 
ATOM     18  C   UNL     1       4.074   2.458  -5.431  1.00  0.00     0.029 A 
ATOM     19  N   UNL     1       5.071   4.438  -5.743  1.00  0.00    -0.354 N 
ATOM     20  C   UNL     1       6.179   6.940  -2.431  1.00  0.00     0.074 A 
ATOM     21  C   UNL     1       5.881   6.295  -1.170  1.00  0.00     0.031 C 
ATOM     22  C   UNL     1       4.185   2.655  -6.756  1.00  0.00     0.029 A 
ATOM     23  C   UNL     1       4.786   3.966  -6.999  1.00  0.00     0.049 A 
ATOM     24  H   UNL     1       5.545   5.285  -5.579  1.00  0.00     0.167 HD
ATOM     25  C   UNL     1       6.762   8.157  -2.547  1.00  0.00     0.037 A 
ATOM     26  C   UNL     1       4.958   4.537  -8.208  1.00  0.00     0.037 A 
ATOM     27  C   UNL     1       7.083   8.796  -3.796  1.00  0.00     0.049 A 
ATOM     28  C   UNL     1       5.576   5.905  -8.316  1.00  0.00     0.074 A 
ATOM     29  C   UNL     1       7.721  10.007  -4.006  1.00  0.00     0.029 A 
ATOM     30  N   UNL     1       6.784   8.280  -5.047  1.00  0.00    -0.354 N 
ATOM     31  N   UNL     1       5.994   6.701  -7.363  1.00  0.00    -0.248 NA
ATOM     32  C   UNL     1       5.743   6.456  -9.670  1.00  0.00     0.031 C 
ATOM     33  C   UNL     1       7.772  10.242  -5.384  1.00  0.00     0.029 A 
ATOM     34  C   UNL     1       7.203   9.159  -6.033  1.00  0.00     0.049 A 
ATOM     35  H   UNL     1       6.339   7.417  -5.210  1.00  0.00     0.167 HD
ATOM     36  C   UNL     1       6.494   7.831  -7.999  1.00  0.00     0.074 A 
ATOM     37  C   UNL     1       6.328   7.620  -9.421  1.00  0.00     0.031 C 
ATOM     38  C   UNL     1       7.045   8.939  -7.447  1.00  0.00     0.037 A 
BRANCH  25  39
ATOM     39  C   UNL     1       7.072   8.895  -1.279  1.00  0.00     0.064 A 
ATOM     40  C   UNL     1       8.124   8.508  -0.438  1.00  0.00     0.173 A 
ATOM     41  C   UNL     1       6.319  10.023  -0.916  1.00  0.00     0.173 A 
ATOM     42  F   UNL     1       8.864   7.428  -0.736  1.00  0.00    -0.203 F 
ATOM     43  C   UNL     1       8.394   9.205   0.736  1.00  0.00     0.198 A 
ATOM     44  C   UNL     1       6.608  10.732   0.245  1.00  0.00     0.198 A 
ATOM     45  F   UNL     1       5.305  10.437  -1.691  1.00  0.00    -0.203 F 
ATOM     46  F   UNL     1       9.374   8.789   1.550  1.00  0.00    -0.200 F 
ATOM     47  C   UNL     1       7.639  10.319   1.075  1.00  0.00     0.200 A 
ATOM     48  F   UNL     1       5.884  11.813   0.566  1.00  0.00    -0.200 F 
ATOM     49  F   UNL     1       7.901  10.988   2.205  1.00  0.00    -0.200 F 
ENDBRANCH  25  39
BRANCH  26  50
ATOM     50  C   UNL     1       4.516   3.807  -9.422  1.00  0.00     0.064 A 
ATOM     51  C   UNL     1       5.445   3.227 -10.295  1.00  0.00     0.173 A 
ATOM     52  C   UNL     1       3.153   3.657  -9.719  1.00  0.00     0.173 A 
ATOM     53  F   UNL     1       6.758   3.370 -10.065  1.00  0.00    -0.203 F 
ATOM     54  C   UNL     1       5.027   2.522 -11.421  1.00  0.00     0.198 A 
ATOM     55  C   UNL     1       2.736   2.933 -10.833  1.00  0.00     0.198 A 
ATOM     56  F   UNL     1       2.227   4.199  -8.914  1.00  0.00    -0.203 F 
ATOM     57  F   UNL     1       5.935   1.996 -12.255  1.00  0.00    -0.200 F 
ATOM     58  C   UNL     1       3.674   2.368 -11.684  1.00  0.00     0.200 A 
ATOM     59  F   UNL     1       1.428   2.779 -11.079  1.00  0.00    -0.200 F 
ATOM     60  F   UNL     1       3.273   1.678 -12.761  1.00  0.00    -0.200 F 
ENDBRANCH  26  50
BRANCH  38  61
ATOM     61  C   UNL     1       7.548  10.005  -8.375  1.00  0.00     0.064 A 
ATOM     62  C   UNL     1       6.673  10.887  -9.023  1.00  0.00     0.173 A 
ATOM     63  C   UNL     1       8.927  10.192  -8.557  1.00  0.00     0.173 A 
ATOM     64  F   UNL     1       5.346  10.742  -8.890  1.00  0.00    -0.203 F 
ATOM     65  C   UNL     1       7.160  11.915  -9.828  1.00  0.00     0.198 A 
ATOM     66  C   UNL     1       9.411  11.232  -9.346  1.00  0.00     0.198 A 
ATOM     67  F   UNL     1       9.804   9.377  -7.953  1.00  0.00    -0.203 F 
ATOM     68  F   UNL     1       6.307  12.733 -10.458  1.00  0.00    -0.200 F 
ATOM     69  C   UNL     1       8.528  12.091  -9.982  1.00  0.00     0.200 A 
ATOM     70  F   UNL     1      10.733  11.406  -9.485  1.00  0.00    -0.200 F 
ATOM     71  F   UNL     1       8.995  13.088 -10.746  1.00  0.00    -0.200 F 
ENDBRANCH  38  61
ENDBRANCH  12  13
ENDBRANCH   5   7
ENDBRANCH   2   3
ENDBRANCH   1   2
BRANCH   1  72
ATOM     72  C   UNL     1       5.039   0.536   4.504  1.00  0.00     0.118 C 
BRANCH  72  73
ATOM     73  N   UNL     1       5.618  -0.707   4.044  1.00  0.00    -0.351 N 
ATOM     74  C   UNL     1       6.494  -1.401   4.838  1.00  0.00     0.262 C 
ATOM     75  H   UNL     1       5.380  -1.058   3.156  1.00  0.00     0.163 HD
ATOM     76  O   UNL     1       7.704  -1.278   4.677  1.00  0.00    -0.268 OA
BRANCH  74  77
ATOM     77  C   UNL     1       5.875  -2.191   5.884  1.00  0.00     0.112 A 
ATOM     78  S   UNL     1       6.663  -2.121   7.417  1.00  0.00    -0.137 S 
ATOM     79  C   UNL     1       4.698  -2.931   5.947  1.00  0.00     0.106 A 
ATOM     80  C   UNL     1       5.349  -2.856   8.207  1.00  0.00     0.067 A 
ATOM     81  C   UNL     1       4.387  -3.272   7.313  1.00  0.00     0.034 A 
BRANCH  79  82
ATOM     82  S   UNL     1       3.574  -3.271   4.632  1.00  0.00     0.245 S 
ATOM     83  O   UNL     1       2.583  -4.104   5.246  1.00  0.00    -0.207 OA
ATOM     84  O   UNL     1       3.247  -1.946   4.145  1.00  0.00    -0.207 OA
BRANCH  82  85
ATOM     85  N   UNL     1       4.304  -4.129   3.353  1.00  0.00    -0.190 NA
ATOM     86  C   UNL     1       4.058  -5.600   3.287  1.00  0.00     0.131 C 
ATOM     87  C   UNL     1       4.579  -3.440   2.029  1.00  0.00     0.102 C 
ATOM     88  C   UNL     1       3.290  -5.983   2.025  1.00  0.00     0.177 C 
ATOM     89  C   UNL     1       4.072  -4.183   0.758  1.00  0.00     0.136 C 
ATOM     90  C   UNL     1       6.060  -3.050   1.928  1.00  0.00     0.023 C 
ATOM     91  O   UNL     1       4.058  -5.607   0.885  1.00  0.00    -0.375 OA
ATOM     92  C   UNL     1       4.923  -3.842  -0.470  1.00  0.00     0.034 C 
ATOM     93  C   UNL     1       6.917  -4.005   1.120  1.00  0.00     0.002 C 
ATOM     94  C   UNL     1       6.393  -4.227  -0.293  1.00  0.00     0.003 C 
ENDBRANCH  82  85
ENDBRANCH  79  82
ENDBRANCH  74  77
ENDBRANCH  72  73
ENDBRANCH   1  72
TORSDOF 12
