REMARK SMILES O=C(NCCCNC(=O)[C@H]1O[C@@H](Oc2c(-c3cc(O)c(O)c(O)c3)oc3cc(O)cc(O)c3c2=O)[C@H](O)[C@@H](O)[C@@H]1O)c1ccc(-c2c3nc(c(-c4c(F)c(F)c(F)c(F)c4F)c4ccc([nH]4)c(-c4c(F)c(F)c(F)c(F)c4F)c4nc(c(-c5c(F)c(F)c(F)c(F)c5F)c5ccc2[nH]5)C=C4)C=C3)cc1
REMARK SMILES IDX 6 1 5 2 4 3 3 4 1 5 2 6 42 8 43 9 104 10 44 11 103 12 45 13
REMARK SMILES IDX 46 14 47 15 97 16 48 17 102 18 96 19 98 20 49 21 101 22
REMARK SMILES IDX 95 23 94 24 50 26 82 27 62 28 81 29 63 30 66 31 80 32 99 33
REMARK SMILES IDX 64 34 65 35 79 37 100 38 67 39 51 40 52 41 60 42 53 43 54 44
REMARK SMILES IDX 58 45 61 46 55 47 56 48 59 49 57 50 83 51 84 52 92 53 85 54
REMARK SMILES IDX 86 55 90 56 93 57 87 58 88 59 91 60 89 61 68 62 69 63 77 64
REMARK SMILES IDX 70 65 71 66 75 67 78 68 72 69 73 70 76 71 74 72 7 73 8 74
REMARK SMILES IDX 9 76 10 77 11 78 40 79 12 80 38 81 36 82 41 83 13 85 14 86
REMARK SMILES IDX 15 87 34 88 25 89 33 90 35 91 26 92 31 93 27 94 30 95 28 96
REMARK SMILES IDX 16 97 17 98 24 99 18 100 22 101 20 102 19 103 23 105 21 107
REMARK SMILES IDX 32 109 29 111 39 113 37 115
REMARK H PARENT 3 7 98 25 66 36 7 75 41 84 19 104 23 106 21 108 32 110 29 112
REMARK H PARENT 39 114 37 116
REMARK Flexibility Score: inf
ROOT
ATOM      1  C   UNL     1       7.184   7.487   0.933  1.00  0.00     0.117 C 
ENDROOT
BRANCH   1   2
ATOM      2  C   UNL     1       8.049   6.983  -0.210  1.00  0.00     0.042 C 
BRANCH   2   3
ATOM      3  C   UNL     1       7.519   7.429  -1.562  1.00  0.00     0.118 C 
BRANCH   3   4
ATOM      4  N   UNL     1       7.523   8.881  -1.693  1.00  0.00    -0.352 N 
ATOM      5  O   UNL     1       8.286  10.870  -2.436  1.00  0.00    -0.269 OA
ATOM      6  C   UNL     1       8.190   9.662  -2.601  1.00  0.00     0.251 C 
ATOM      7  H   UNL     1       6.970   9.368  -1.040  1.00  0.00     0.163 HD
BRANCH   6   8
ATOM      8  C   UNL     1       8.784   9.019  -3.787  1.00  0.00     0.039 A 
ATOM      9  C   UNL     1       8.062   8.048  -4.485  1.00  0.00     0.014 A 
ATOM     10  C   UNL     1      10.055   9.407  -4.214  1.00  0.00     0.014 A 
ATOM     11  C   UNL     1       8.652   7.379  -5.543  1.00  0.00     0.010 A 
ATOM     12  C   UNL     1      10.608   8.806  -5.345  1.00  0.00     0.010 A 
ATOM     13  C   UNL     1       9.909   7.789  -6.014  1.00  0.00    -0.014 A 
BRANCH  13  14
ATOM     14  C   UNL     1      10.395   7.244  -7.300  1.00  0.00     0.031 A 
ATOM     15  C   UNL     1      11.633   6.405  -7.375  1.00  0.00     0.074 A 
ATOM     16  C   UNL     1       9.686   7.536  -8.408  1.00  0.00     0.049 A 
ATOM     17  N   UNL     1      12.210   5.891  -8.431  1.00  0.00    -0.248 NA
ATOM     18  C   UNL     1      12.322   6.109  -6.109  1.00  0.00     0.031 C 
ATOM     19  C   UNL     1       8.472   8.360  -8.436  1.00  0.00     0.029 A 
ATOM     20  N   UNL     1       9.871   7.181  -9.717  1.00  0.00    -0.354 N 
ATOM     21  C   UNL     1      13.337   5.231  -7.965  1.00  0.00     0.074 A 
ATOM     22  C   UNL     1      13.375   5.418  -6.530  1.00  0.00     0.031 C 
ATOM     23  C   UNL     1       8.009   8.424  -9.691  1.00  0.00     0.029 A 
ATOM     24  C   UNL     1       8.933   7.716 -10.566  1.00  0.00     0.049 A 
ATOM     25  H   UNL     1      10.605   6.598 -10.021  1.00  0.00     0.167 HD
ATOM     26  C   UNL     1      14.249   4.534  -8.684  1.00  0.00     0.037 A 
ATOM     27  C   UNL     1       8.850   7.681 -11.907  1.00  0.00     0.037 A 
ATOM     28  C   UNL     1      14.175   4.339 -10.110  1.00  0.00     0.049 A 
ATOM     29  C   UNL     1       9.904   6.931 -12.670  1.00  0.00     0.074 A 
ATOM     30  C   UNL     1      15.004   3.581 -10.918  1.00  0.00     0.029 A 
ATOM     31  N   UNL     1      13.226   4.917 -10.942  1.00  0.00    -0.354 N 
ATOM     32  N   UNL     1      10.926   6.249 -12.213  1.00  0.00    -0.248 NA
ATOM     33  C   UNL     1       9.800   6.952 -14.134  1.00  0.00     0.031 C 
ATOM     34  C   UNL     1      14.602   3.757 -12.245  1.00  0.00     0.029 A 
ATOM     35  C   UNL     1      13.484   4.574 -12.260  1.00  0.00     0.049 A 
ATOM     36  H   UNL     1      12.481   5.485 -10.641  1.00  0.00     0.167 HD
ATOM     37  C   UNL     1      11.580   5.753 -13.329  1.00  0.00     0.074 A 
ATOM     38  C   UNL     1      10.819   6.182 -14.484  1.00  0.00     0.031 C 
ATOM     39  C   UNL     1      12.716   5.017 -13.395  1.00  0.00     0.037 A 
BRANCH  26  40
ATOM     40  C   UNL     1      15.425   3.939  -7.967  1.00  0.00     0.064 A 
ATOM     41  C   UNL     1      15.299   2.813  -7.142  1.00  0.00     0.173 A 
ATOM     42  C   UNL     1      16.715   4.441  -8.201  1.00  0.00     0.173 A 
ATOM     43  F   UNL     1      14.087   2.304  -6.874  1.00  0.00    -0.203 F 
ATOM     44  C   UNL     1      16.421   2.211  -6.578  1.00  0.00     0.198 A 
ATOM     45  C   UNL     1      17.837   3.821  -7.656  1.00  0.00     0.198 A 
ATOM     46  F   UNL     1      16.890   5.517  -8.982  1.00  0.00    -0.203 F 
ATOM     47  F   UNL     1      16.276   1.149  -5.773  1.00  0.00    -0.200 F 
ATOM     48  C   UNL     1      17.689   2.707  -6.846  1.00  0.00     0.200 A 
ATOM     49  F   UNL     1      19.060   4.298  -7.924  1.00  0.00    -0.200 F 
ATOM     50  F   UNL     1      18.768   2.113  -6.318  1.00  0.00    -0.200 F 
ENDBRANCH  26  40
BRANCH  27  51
ATOM     51  C   UNL     1       7.770   8.421 -12.609  1.00  0.00     0.064 A 
ATOM     52  C   UNL     1       6.797   7.747 -13.359  1.00  0.00     0.173 A 
ATOM     53  C   UNL     1       7.704   9.822 -12.565  1.00  0.00     0.173 A 
ATOM     54  F   UNL     1       6.826   6.409 -13.446  1.00  0.00    -0.203 F 
ATOM     55  C   UNL     1       5.824   8.449 -14.068  1.00  0.00     0.198 A 
ATOM     56  C   UNL     1       6.707  10.520 -13.241  1.00  0.00     0.198 A 
ATOM     57  F   UNL     1       8.606  10.517 -11.855  1.00  0.00    -0.203 F 
ATOM     58  F   UNL     1       4.947   7.783 -14.832  1.00  0.00    -0.200 F 
ATOM     59  C   UNL     1       5.777   9.833 -14.005  1.00  0.00     0.200 A 
ATOM     60  F   UNL     1       6.654  11.856 -13.159  1.00  0.00    -0.200 F 
ATOM     61  F   UNL     1       4.843  10.506 -14.690  1.00  0.00    -0.200 F 
ENDBRANCH  27  51
BRANCH  39  62
ATOM     62  C   UNL     1      13.195   4.628 -14.762  1.00  0.00     0.064 A 
ATOM     63  C   UNL     1      13.741   5.575 -15.642  1.00  0.00     0.173 A 
ATOM     64  C   UNL     1      13.141   3.291 -15.184  1.00  0.00     0.173 A 
ATOM     65  F   UNL     1      13.796   6.869 -15.291  1.00  0.00    -0.203 F 
ATOM     66  C   UNL     1      14.192   5.201 -16.904  1.00  0.00     0.198 A 
ATOM     67  C   UNL     1      13.625   2.916 -16.433  1.00  0.00     0.198 A 
ATOM     68  F   UNL     1      12.633   2.347 -14.378  1.00  0.00    -0.203 F 
ATOM     69  F   UNL     1      14.661   6.131 -17.747  1.00  0.00    -0.200 F 
ATOM     70  C   UNL     1      14.142   3.871 -17.295  1.00  0.00     0.200 A 
ATOM     71  F   UNL     1      13.591   1.628 -16.804  1.00  0.00    -0.200 F 
ATOM     72  F   UNL     1      14.587   3.511 -18.506  1.00  0.00    -0.200 F 
ENDBRANCH  39  62
ENDBRANCH  13  14
ENDBRANCH   6   8
ENDBRANCH   3   4
ENDBRANCH   2   3
ENDBRANCH   1   2
BRANCH   1  73
ATOM     73  N   UNL     1       5.858   6.909   0.858  1.00  0.00    -0.354 N 
ATOM     74  C   UNL     1       5.394   5.793   1.486  1.00  0.00     0.252 C 
ATOM     75  H   UNL     1       5.213   7.379   0.281  1.00  0.00     0.163 HD
ATOM     76  O   UNL     1       4.321   5.310   1.119  1.00  0.00    -0.272 OA
BRANCH  74  77
ATOM     77  C   UNL     1       6.152   5.225   2.688  1.00  0.00     0.242 C 
ATOM     78  O   UNL     1       7.553   5.021   2.468  1.00  0.00    -0.324 OA
ATOM     79  C   UNL     1       5.973   6.175   3.882  1.00  0.00     0.184 C 
ATOM     80  C   UNL     1       8.159   4.263   3.517  1.00  0.00     0.340 C 
ATOM     81  C   UNL     1       6.460   5.441   5.127  1.00  0.00     0.181 C 
ATOM     82  C   UNL     1       7.842   4.832   4.922  1.00  0.00     0.214 C 
BRANCH  79  83
ATOM     83  O   UNL     1       4.638   6.634   4.091  1.00  0.00    -0.387 OA
ATOM     84  H   UNL     1       4.063   5.879   4.289  1.00  0.00     0.211 HD
ENDBRANCH  79  83
BRANCH  80  85
ATOM     85  O   UNL     1       9.600   4.104   3.404  1.00  0.00    -0.454 OA
BRANCH  85  86
ATOM     86  C   UNL     1      10.363   5.047   2.734  1.00  0.00     0.214 A 
ATOM     87  C   UNL     1      10.992   6.086   3.331  1.00  0.00     0.181 A 
ATOM     88  C   UNL     1      10.729   4.765   1.305  1.00  0.00     0.239 A 
ATOM     89  O   UNL     1      11.835   6.974   2.697  1.00  0.00    -0.452 OA
ATOM     90  C   UNL     1      11.844   5.565   0.723  1.00  0.00     0.111 A 
ATOM     91  O   UNL     1      10.130   3.907   0.668  1.00  0.00    -0.285 OA
ATOM     92  C   UNL     1      12.324   6.641   1.466  1.00  0.00     0.146 A 
ATOM     93  C   UNL     1      12.446   5.294  -0.517  1.00  0.00     0.134 A 
ATOM     94  C   UNL     1      13.357   7.451   0.988  1.00  0.00     0.094 A 
ATOM     95  C   UNL     1      13.493   6.095  -1.001  1.00  0.00     0.093 A 
ATOM     96  C   UNL     1      13.935   7.171  -0.241  1.00  0.00     0.123 A 
BRANCH  87  97
ATOM     97  C   UNL     1      10.775   6.466   4.735  1.00  0.00     0.029 A 
ATOM     98  C   UNL     1      10.106   7.678   4.996  1.00  0.00     0.062 A 
ATOM     99  C   UNL     1      11.079   5.593   5.794  1.00  0.00     0.062 A 
ATOM    100  C   UNL     1       9.627   7.936   6.273  1.00  0.00     0.162 A 
ATOM    101  C   UNL     1      10.600   5.878   7.069  1.00  0.00     0.162 A 
ATOM    102  C   UNL     1       9.838   7.019   7.296  1.00  0.00     0.200 A 
BRANCH 100 103
ATOM    103  O   UNL     1       8.871   9.051   6.479  1.00  0.00    -0.504 OA
ATOM    104  H   UNL     1       8.737   9.661   5.780  1.00  0.00     0.293 HD
ENDBRANCH 100 103
BRANCH 101 105
ATOM    105  O   UNL     1      10.779   4.965   8.067  1.00  0.00    -0.504 OA
ATOM    106  H   UNL     1      10.461   5.146   8.930  1.00  0.00     0.293 HD
ENDBRANCH 101 105
BRANCH 102 107
ATOM    107  O   UNL     1       9.192   7.155   8.494  1.00  0.00    -0.502 OA
ATOM    108  H   UNL     1       8.674   7.917   8.663  1.00  0.00     0.293 HD
ENDBRANCH 102 107
ENDBRANCH  87  97
BRANCH  93 109
ATOM    109  O   UNL     1      12.033   4.239  -1.279  1.00  0.00    -0.507 OA
ATOM    110  H   UNL     1      12.443   4.069  -2.105  1.00  0.00     0.293 HD
ENDBRANCH  93 109
BRANCH  96 111
ATOM    111  O   UNL     1      14.944   7.985  -0.661  1.00  0.00    -0.508 OA
ATOM    112  H   UNL     1      15.220   8.703  -0.126  1.00  0.00     0.293 HD
ENDBRANCH  96 111
ENDBRANCH  85  86
ENDBRANCH  80  85
BRANCH  81 113
ATOM    113  O   UNL     1       6.523   6.339   6.262  1.00  0.00    -0.387 OA
ATOM    114  H   UNL     1       7.165   7.044   6.080  1.00  0.00     0.211 HD
ENDBRANCH  81 113
BRANCH  82 115
ATOM    115  O   UNL     1       8.065   3.856   5.947  1.00  0.00    -0.384 OA
ATOM    116  H   UNL     1       7.426   3.132   5.849  1.00  0.00     0.211 HD
ENDBRANCH  82 115
ENDBRANCH  74  77
ENDBRANCH   1  73
TORSDOF 21
