REMARK SMILES Cc1nc(-c2ccccc2Cl)nc2sc(C(=O)NCCCNC(=O)c3ccc(-c4c5nc(c(-c6c(F)c(F)c(F)c(F)c6F)c6ccc([nH]6)c(-c6c(F)c(F)c(F)c(F)c6F)c6nc(c(-c7c(F)c(F)c(F)c(F)c7F)c7ccc4[nH]7)C=C6)C=C5)cc3)c(N)c12
REMARK SMILES IDX 20 1 19 2 18 3 16 4 17 5 15 7 1 8 2 9 3 10 90 11 4 12 13 13
REMARK SMILES IDX 88 14 12 15 14 16 5 17 6 18 10 19 7 20 9 21 11 22 8 23 89 24
REMARK SMILES IDX 21 27 22 28 23 29 24 31 25 32 26 33 87 34 27 35 86 36 28 37
REMARK SMILES IDX 29 38 30 39 80 40 31 41 85 42 79 43 81 44 32 45 84 46 78 47
REMARK SMILES IDX 77 48 33 50 65 51 45 52 64 53 46 54 49 55 63 56 82 57 47 58
REMARK SMILES IDX 48 59 62 61 83 62 50 63 34 64 35 65 43 66 36 67 37 68 41 69
REMARK SMILES IDX 44 70 38 71 39 72 42 73 40 74 66 75 67 76 75 77 68 78 69 79
REMARK SMILES IDX 73 80 76 81 70 82 71 83 74 84 72 85 51 86 52 87 60 88 53 89
REMARK SMILES IDX 54 90 58 91 61 92 55 93 56 94 59 95 57 96
REMARK H PARENT 18 6 89 25 89 26 22 30 81 49 49 60
REMARK Flexibility Score: inf
ROOT
ATOM      1  C   UNL     1      -0.460   4.274   6.714  1.00  0.00     0.042 C 
ENDROOT
BRANCH   1   2
ATOM      2  C   UNL     1      -1.306   4.603   5.472  1.00  0.00     0.118 C 
BRANCH   2   3
ATOM      3  N   UNL     1      -0.543   5.260   4.410  1.00  0.00    -0.351 N 
ATOM      4  C   UNL     1       0.111   4.749   3.300  1.00  0.00     0.263 C 
ATOM      5  O   UNL     1       0.482   5.587   2.471  1.00  0.00    -0.268 OA
ATOM      6  H   UNL     1      -0.483   6.239   4.501  1.00  0.00     0.163 HD
BRANCH   4   7
ATOM      7  C   UNL     1       0.299   3.318   3.095  1.00  0.00     0.118 A 
ATOM      8  C   UNL     1       0.954   0.040  -0.184  1.00  0.00     0.067 C 
ATOM      9  C   UNL     1       0.532   0.042   1.252  1.00  0.00     0.052 A 
ATOM     10  N   UNL     1       0.247  -1.185   1.797  1.00  0.00    -0.233 NA
ATOM     11  C   UNL     1       0.459   1.182   2.081  1.00  0.00     0.056 A 
ATOM     12  C   UNL     1      -0.038  -1.275   3.108  1.00  0.00     0.162 A 
ATOM     13  C   UNL     1       0.235   0.902   3.415  1.00  0.00     0.130 A 
ATOM     14  C   UNL     1       0.545   2.620   1.913  1.00  0.00     0.067 A 
ATOM     15  N   UNL     1      -0.030  -0.274   3.979  1.00  0.00    -0.217 NA
ATOM     16  S   UNL     1       0.408   2.238   4.406  1.00  0.00    -0.108 S 
BRANCH  12  17
ATOM     17  C   UNL     1      -0.409  -2.556   3.692  1.00  0.00     0.038 A 
ATOM     18  C   UNL     1      -1.746  -2.765   4.095  1.00  0.00     0.013 A 
ATOM     19  C   UNL     1       0.543  -3.530   4.024  1.00  0.00     0.052 A 
ATOM     20  C   UNL     1      -2.118  -3.907   4.807  1.00  0.00     0.001 A 
ATOM     21  C   UNL     1       0.169  -4.674   4.738  1.00  0.00     0.021 A 
ATOM     22  Cl  UNL     1       2.221  -3.335   3.647  1.00  0.00    -0.084 Cl
ATOM     23  C   UNL     1      -1.157  -4.860   5.131  1.00  0.00     0.002 A 
ENDBRANCH  12  17
BRANCH  14  24
ATOM     24  N   UNL     1       0.755   3.251   0.736  1.00  0.00    -0.397 N 
ATOM     25  H   UNL     1       0.801   4.234   0.705  1.00  0.00     0.156 HD
ATOM     26  H   UNL     1       0.863   2.727  -0.091  1.00  0.00     0.156 HD
ENDBRANCH  14  24
ENDBRANCH   4   7
ENDBRANCH   2   3
ENDBRANCH   1   2
BRANCH   1  27
ATOM     27  C   UNL     1      -0.421   5.417   7.701  1.00  0.00     0.118 C 
BRANCH  27  28
ATOM     28  N   UNL     1      -1.689   5.602   8.414  1.00  0.00    -0.352 N 
ATOM     29  C   UNL     1      -1.975   6.521   9.404  1.00  0.00     0.251 C 
ATOM     30  H   UNL     1      -2.423   4.999   8.157  1.00  0.00     0.163 HD
ATOM     31  O   UNL     1      -2.941   6.369  10.154  1.00  0.00    -0.269 OA
BRANCH  29  32
ATOM     32  C   UNL     1      -1.098   7.691   9.549  1.00  0.00     0.039 A 
ATOM     33  C   UNL     1      -0.732   8.206  10.793  1.00  0.00     0.014 A 
ATOM     34  C   UNL     1      -0.586   8.237   8.377  1.00  0.00     0.014 A 
ATOM     35  C   UNL     1       0.211   9.230  10.834  1.00  0.00     0.010 A 
ATOM     36  C   UNL     1       0.510   9.044   8.433  1.00  0.00     0.010 A 
ATOM     37  C   UNL     1       0.842   9.628   9.642  1.00  0.00    -0.014 A 
BRANCH  37  38
ATOM     38  C   UNL     1       1.919  10.605   9.625  1.00  0.00     0.031 A 
ATOM     39  C   UNL     1       3.042  10.273  10.536  1.00  0.00     0.074 A 
ATOM     40  C   UNL     1       1.980  11.604   8.716  1.00  0.00     0.049 A 
ATOM     41  N   UNL     1       3.380  10.898  11.612  1.00  0.00    -0.248 NA
ATOM     42  C   UNL     1       3.775   9.014  10.321  1.00  0.00     0.031 C 
ATOM     43  C   UNL     1       1.101  11.866   7.567  1.00  0.00     0.029 A 
ATOM     44  N   UNL     1       2.922  12.575   8.582  1.00  0.00    -0.354 N 
ATOM     45  C   UNL     1       4.497  10.234  12.107  1.00  0.00     0.074 A 
ATOM     46  C   UNL     1       4.580   8.991  11.386  1.00  0.00     0.031 C 
ATOM     47  C   UNL     1       1.678  12.764   6.739  1.00  0.00     0.029 A 
ATOM     48  C   UNL     1       2.869  13.280   7.382  1.00  0.00     0.049 A 
ATOM     49  H   UNL     1       3.590  12.766   9.280  1.00  0.00     0.167 HD
ATOM     50  C   UNL     1       5.395  10.887  12.894  1.00  0.00     0.037 A 
ATOM     51  C   UNL     1       3.758  14.212   6.957  1.00  0.00     0.037 A 
ATOM     52  C   UNL     1       4.831  12.112  13.406  1.00  0.00     0.049 A 
ATOM     53  C   UNL     1       4.481  14.693   8.161  1.00  0.00     0.074 A 
ATOM     54  C   UNL     1       3.758  12.417  14.220  1.00  0.00     0.029 A 
ATOM     55  N   UNL     1       5.146  13.277  12.750  1.00  0.00    -0.354 N 
ATOM     56  N   UNL     1       3.914  15.372   9.120  1.00  0.00    -0.248 NA
ATOM     57  C   UNL     1       5.707  13.998   8.522  1.00  0.00     0.031 C 
ATOM     58  C   UNL     1       3.188  13.595  13.652  1.00  0.00     0.029 A 
ATOM     59  C   UNL     1       3.988  13.990  12.579  1.00  0.00     0.049 A 
ATOM     60  H   UNL     1       6.044  13.550  12.454  1.00  0.00     0.167 HD
ATOM     61  C   UNL     1       4.451  14.847  10.286  1.00  0.00     0.074 A 
ATOM     62  C   UNL     1       5.601  14.054   9.852  1.00  0.00     0.031 C 
ATOM     63  C   UNL     1       3.741  14.860  11.452  1.00  0.00     0.037 A 
BRANCH  50  64
ATOM     64  C   UNL     1       6.881  10.634  12.887  1.00  0.00     0.064 A 
ATOM     65  C   UNL     1       7.690  11.291  13.836  1.00  0.00     0.173 A 
ATOM     66  C   UNL     1       7.572  10.027  11.816  1.00  0.00     0.173 A 
ATOM     67  F   UNL     1       7.139  11.922  14.884  1.00  0.00    -0.203 F 
ATOM     68  C   UNL     1       9.074  11.396  13.680  1.00  0.00     0.198 A 
ATOM     69  C   UNL     1       8.959  10.089  11.693  1.00  0.00     0.198 A 
ATOM     70  F   UNL     1       6.936   9.455  10.788  1.00  0.00    -0.203 F 
ATOM     71  F   UNL     1       9.785  12.140  14.539  1.00  0.00    -0.200 F 
ATOM     72  C   UNL     1       9.707  10.800  12.606  1.00  0.00     0.200 A 
ATOM     73  F   UNL     1       9.550   9.523  10.631  1.00  0.00    -0.200 F 
ATOM     74  F   UNL     1      11.024  10.951  12.420  1.00  0.00    -0.200 F 
ENDBRANCH  50  64
BRANCH  51  75
ATOM     75  C   UNL     1       4.273  14.446   5.584  1.00  0.00     0.064 A 
ATOM     76  C   UNL     1       5.007  15.606   5.278  1.00  0.00     0.173 A 
ATOM     77  C   UNL     1       4.329  13.405   4.637  1.00  0.00     0.173 A 
ATOM     78  F   UNL     1       5.041  16.629   6.144  1.00  0.00    -0.203 F 
ATOM     79  C   UNL     1       5.782  15.702   4.117  1.00  0.00     0.198 A 
ATOM     80  C   UNL     1       5.101  13.503   3.477  1.00  0.00     0.198 A 
ATOM     81  F   UNL     1       3.718  12.234   4.867  1.00  0.00    -0.203 F 
ATOM     82  F   UNL     1       6.525  16.796   3.896  1.00  0.00    -0.200 F 
ATOM     83  C   UNL     1       5.841  14.644   3.225  1.00  0.00     0.200 A 
ATOM     84  F   UNL     1       5.180  12.458   2.640  1.00  0.00    -0.200 F 
ATOM     85  F   UNL     1       6.640  14.706   2.150  1.00  0.00    -0.200 F 
ENDBRANCH  51  75
BRANCH  63  86
ATOM     86  C   UNL     1       2.479  15.680  11.503  1.00  0.00     0.064 A 
ATOM     87  C   UNL     1       1.326  15.411  10.745  1.00  0.00     0.173 A 
ATOM     88  C   UNL     1       2.381  16.669  12.490  1.00  0.00     0.173 A 
ATOM     89  F   UNL     1       1.308  14.425   9.840  1.00  0.00    -0.203 F 
ATOM     90  C   UNL     1       0.140  16.115  10.955  1.00  0.00     0.198 A 
ATOM     91  C   UNL     1       1.187  17.346  12.722  1.00  0.00     0.198 A 
ATOM     92  F   UNL     1       3.436  16.938  13.276  1.00  0.00    -0.203 F 
ATOM     93  F   UNL     1      -0.948  15.837  10.220  1.00  0.00    -0.200 F 
ATOM     94  C   UNL     1       0.069  17.073  11.952  1.00  0.00     0.200 A 
ATOM     95  F   UNL     1       1.112  18.238  13.719  1.00  0.00    -0.200 F 
ATOM     96  F   UNL     1      -1.084  17.713  12.191  1.00  0.00    -0.200 F 
ENDBRANCH  63  86
ENDBRANCH  37  38
ENDBRANCH  29  32
ENDBRANCH  27  28
ENDBRANCH   1  27
TORSDOF 12
