REMARK SMILES COc1cc(NS(=O)(=O)c2cc(C)c(C(=O)NCCCNC(=O)c3ccc(-c4c5nc(c(-c6c(F)c(F)c(F)c(F)c6F)c6ccc([nH]6)c(-c6c(F)c(F)c(F)c(F)c6F)c6nc(c(-c7c(F)c(F)c(F)c(F)c7F)c7ccc4[nH]7)C=C6)C=C5)cc3)s2)cc(OC)c1
REMARK SMILES IDX 18 1 17 2 15 3 16 4 14 6 10 7 11 8 87 9 12 10 13 11 7 12
REMARK SMILES IDX 8 13 9 14 6 15 5 17 3 18 4 19 92 20 89 21 88 22 2 23 1 24
REMARK SMILES IDX 90 25 91 26 19 27 20 28 21 29 22 30 23 32 24 33 25 34 86 35
REMARK SMILES IDX 26 36 85 37 27 38 28 39 29 40 79 41 30 42 84 43 78 44 80 45
REMARK SMILES IDX 31 46 83 47 77 48 76 49 32 51 64 52 44 53 63 54 45 55 48 56
REMARK SMILES IDX 62 57 81 58 46 59 47 60 61 62 82 63 49 64 33 65 34 66 42 67
REMARK SMILES IDX 35 68 36 69 40 70 43 71 37 72 38 73 41 74 39 75 65 76 66 77
REMARK SMILES IDX 74 78 67 79 68 80 72 81 75 82 69 83 70 84 73 85 71 86 50 87
REMARK SMILES IDX 51 88 59 89 52 90 53 91 57 92 60 93 54 94 55 95 58 96 56 97
REMARK H PARENT 17 5 6 16 21 31 80 50 48 61
REMARK Flexibility Score: inf
ROOT
ATOM      1  C   UNL     1      -3.522  -0.391   2.742  1.00  0.00     0.118 C 
ENDROOT
BRANCH   1   2
ATOM      2  N   UNL     1      -2.932   0.105   1.521  1.00  0.00    -0.351 N 
ATOM      3  C   UNL     1      -2.735  -0.427   0.274  1.00  0.00     0.261 C 
ATOM      4  O   UNL     1      -2.242   0.391  -0.515  1.00  0.00    -0.268 OA
ATOM      5  H   UNL     1      -2.598   1.028   1.602  1.00  0.00     0.163 HD
BRANCH   3   6
ATOM      6  C   UNL     1      -3.030  -1.808  -0.123  1.00  0.00     0.096 A 
ATOM      7  C   UNL     1      -2.909  -3.673  -1.756  1.00  0.00     0.141 A 
ATOM      8  C   UNL     1      -3.128  -4.128  -0.478  1.00  0.00     0.038 A 
ATOM      9  S   UNL     1      -3.258  -2.014  -1.855  1.00  0.00    -0.116 S 
ATOM     10  C   UNL     1      -3.065  -3.063   0.496  1.00  0.00    -0.026 A 
ATOM     11  C   UNL     1      -2.864  -3.433   1.926  1.00  0.00     0.046 C 
BRANCH   7  12
ATOM     12  S   UNL     1      -2.241  -4.476  -3.182  1.00  0.00     0.271 S 
ATOM     13  O   UNL     1      -3.278  -4.420  -4.192  1.00  0.00    -0.200 OA
ATOM     14  O   UNL     1      -1.764  -5.761  -2.685  1.00  0.00    -0.200 OA
BRANCH  12  15
ATOM     15  N   UNL     1      -0.903  -3.641  -3.790  1.00  0.00    -0.279 N 
ATOM     16  H   UNL     1      -0.935  -3.312  -4.717  1.00  0.00     0.180 HD
BRANCH  15  17
ATOM     17  C   UNL     1       0.283  -3.391  -3.010  1.00  0.00     0.056 A 
ATOM     18  C   UNL     1       1.385  -2.333  -1.126  1.00  0.00     0.124 A 
ATOM     19  C   UNL     1       0.243  -2.862  -1.724  1.00  0.00     0.073 A 
ATOM     20  C   UNL     1       2.617  -2.395  -1.759  1.00  0.00     0.093 A 
ATOM     21  C   UNL     1       2.691  -2.949  -3.035  1.00  0.00     0.124 A 
ATOM     22  C   UNL     1       1.522  -3.417  -3.662  1.00  0.00     0.073 A 
BRANCH  18  23
ATOM     23  O   UNL     1       1.252  -1.738   0.102  1.00  0.00    -0.497 OA
ATOM     24  C   UNL     1       1.225  -0.314  -0.049  1.00  0.00     0.278 C 
ENDBRANCH  18  23
BRANCH  21  25
ATOM     25  O   UNL     1       3.832  -3.058  -3.783  1.00  0.00    -0.497 OA
ATOM     26  C   UNL     1       5.032  -2.575  -3.187  1.00  0.00     0.278 C 
ENDBRANCH  21  25
ENDBRANCH  15  17
ENDBRANCH  12  15
ENDBRANCH   7  12
ENDBRANCH   3   6
ENDBRANCH   1   2
BRANCH   1  27
ATOM     27  C   UNL     1      -2.448  -0.683   3.792  1.00  0.00     0.042 C 
BRANCH  27  28
ATOM     28  C   UNL     1      -2.005   0.538   4.595  1.00  0.00     0.118 C 
BRANCH  28  29
ATOM     29  N   UNL     1      -2.997   0.925   5.585  1.00  0.00    -0.352 N 
ATOM     30  C   UNL     1      -2.949   0.906   6.956  1.00  0.00     0.251 C 
ATOM     31  H   UNL     1      -3.844   1.258   5.208  1.00  0.00     0.163 HD
ATOM     32  O   UNL     1      -3.994   1.054   7.587  1.00  0.00    -0.269 OA
BRANCH  30  33
ATOM     33  C   UNL     1      -1.679   0.712   7.698  1.00  0.00     0.039 A 
ATOM     34  C   UNL     1      -1.715  -0.006   8.901  1.00  0.00     0.014 A 
ATOM     35  C   UNL     1      -0.481   1.302   7.288  1.00  0.00     0.014 A 
ATOM     36  C   UNL     1      -0.554  -0.161   9.666  1.00  0.00     0.010 A 
ATOM     37  C   UNL     1       0.691   1.096   8.020  1.00  0.00     0.010 A 
ATOM     38  C   UNL     1       0.664   0.375   9.223  1.00  0.00    -0.014 A 
BRANCH  38  39
ATOM     39  C   UNL     1       1.909   0.219  10.020  1.00  0.00     0.031 A 
ATOM     40  C   UNL     1       2.565   1.421  10.643  1.00  0.00     0.074 A 
ATOM     41  C   UNL     1       2.484  -0.993  10.138  1.00  0.00     0.049 A 
ATOM     42  N   UNL     1       3.701   1.505  11.289  1.00  0.00    -0.248 NA
ATOM     43  C   UNL     1       1.860   2.704  10.501  1.00  0.00     0.031 C 
ATOM     44  C   UNL     1       1.969  -2.233   9.557  1.00  0.00     0.029 A 
ATOM     45  N   UNL     1       3.637  -1.378  10.776  1.00  0.00    -0.354 N 
ATOM     46  C   UNL     1       3.860   2.849  11.603  1.00  0.00     0.074 A 
ATOM     47  C   UNL     1       2.719   3.549  11.052  1.00  0.00     0.031 C 
ATOM     48  C   UNL     1       2.795  -3.243   9.874  1.00  0.00     0.029 A 
ATOM     49  C   UNL     1       3.913  -2.718  10.653  1.00  0.00     0.049 A 
ATOM     50  H   UNL     1       4.212  -0.753  11.274  1.00  0.00     0.167 HD
ATOM     51  C   UNL     1       4.859   3.443  12.299  1.00  0.00     0.037 A 
ATOM     52  C   UNL     1       4.954  -3.440  11.109  1.00  0.00     0.037 A 
ATOM     53  C   UNL     1       5.972   2.744  12.886  1.00  0.00     0.049 A 
ATOM     54  C   UNL     1       6.035  -2.761  11.903  1.00  0.00     0.074 A 
ATOM     55  C   UNL     1       7.000   3.252  13.661  1.00  0.00     0.029 A 
ATOM     56  N   UNL     1       6.196   1.381  12.769  1.00  0.00    -0.354 N 
ATOM     57  N   UNL     1       6.153  -1.497  12.227  1.00  0.00    -0.248 NA
ATOM     58  C   UNL     1       7.127  -3.612  12.399  1.00  0.00     0.031 C 
ATOM     59  C   UNL     1       7.862   2.200  13.991  1.00  0.00     0.029 A 
ATOM     60  C   UNL     1       7.352   1.032  13.448  1.00  0.00     0.049 A 
ATOM     61  H   UNL     1       5.619   0.753  12.276  1.00  0.00     0.167 HD
ATOM     62  C   UNL     1       7.315  -1.403  12.979  1.00  0.00     0.074 A 
ATOM     63  C   UNL     1       7.863  -2.740  13.074  1.00  0.00     0.031 C 
ATOM     64  C   UNL     1       7.878  -0.305  13.540  1.00  0.00     0.037 A 
BRANCH  51  65
ATOM     65  C   UNL     1       4.794   4.932  12.467  1.00  0.00     0.064 A 
ATOM     66  C   UNL     1       3.874   5.533  13.338  1.00  0.00     0.173 A 
ATOM     67  C   UNL     1       5.686   5.765  11.775  1.00  0.00     0.173 A 
ATOM     68  F   UNL     1       2.992   4.780  14.012  1.00  0.00    -0.203 F 
ATOM     69  C   UNL     1       3.832   6.917  13.491  1.00  0.00     0.198 A 
ATOM     70  C   UNL     1       5.658   7.146  11.949  1.00  0.00     0.198 A 
ATOM     71  F   UNL     1       6.589   5.239  10.934  1.00  0.00    -0.203 F 
ATOM     72  F   UNL     1       2.916   7.473  14.296  1.00  0.00    -0.200 F 
ATOM     73  C   UNL     1       4.727   7.721  12.801  1.00  0.00     0.200 A 
ATOM     74  F   UNL     1       6.529   7.922  11.289  1.00  0.00    -0.200 F 
ATOM     75  F   UNL     1       4.688   9.052  12.952  1.00  0.00    -0.200 F 
ENDBRANCH  51  65
BRANCH  52  76
ATOM     76  C   UNL     1       5.009  -4.899  10.845  1.00  0.00     0.064 A 
ATOM     77  C   UNL     1       4.767  -5.822  11.872  1.00  0.00     0.173 A 
ATOM     78  C   UNL     1       5.295  -5.399   9.568  1.00  0.00     0.173 A 
ATOM     79  F   UNL     1       4.511  -5.388  13.115  1.00  0.00    -0.203 F 
ATOM     80  C   UNL     1       4.821  -7.193  11.633  1.00  0.00     0.198 A 
ATOM     81  C   UNL     1       5.327  -6.771   9.325  1.00  0.00     0.198 A 
ATOM     82  F   UNL     1       5.531  -4.554   8.553  1.00  0.00    -0.203 F 
ATOM     83  F   UNL     1       4.619  -8.055  12.638  1.00  0.00    -0.200 F 
ATOM     84  C   UNL     1       5.095  -7.666  10.358  1.00  0.00     0.200 A 
ATOM     85  F   UNL     1       5.583  -7.224   8.090  1.00  0.00    -0.200 F 
ATOM     86  F   UNL     1       5.141  -8.985  10.127  1.00  0.00    -0.200 F 
ENDBRANCH  52  76
BRANCH  64  87
ATOM     87  C   UNL     1       9.136  -0.508  14.328  1.00  0.00     0.064 A 
ATOM     88  C   UNL     1      10.368  -0.726  13.696  1.00  0.00     0.173 A 
ATOM     89  C   UNL     1       9.114  -0.445  15.729  1.00  0.00     0.173 A 
ATOM     90  F   UNL     1      10.435  -0.809  12.359  1.00  0.00    -0.203 F 
ATOM     91  C   UNL     1      11.533  -0.891  14.440  1.00  0.00     0.198 A 
ATOM     92  C   UNL     1      10.284  -0.590  16.470  1.00  0.00     0.198 A 
ATOM     93  F   UNL     1       7.959  -0.235  16.378  1.00  0.00    -0.203 F 
ATOM     94  F   UNL     1      12.695  -1.134  13.818  1.00  0.00    -0.200 F 
ATOM     95  C   UNL     1      11.491  -0.817  15.825  1.00  0.00     0.200 A 
ATOM     96  F   UNL     1      10.243  -0.511  17.807  1.00  0.00    -0.200 F 
ATOM     97  F   UNL     1      12.614  -0.973  16.540  1.00  0.00    -0.200 F 
ENDBRANCH  64  87
ENDBRANCH  38  39
ENDBRANCH  30  33
ENDBRANCH  28  29
ENDBRANCH  27  28
ENDBRANCH   1  27
TORSDOF 15
