REMARK SMILES N#Cc1cccnc1N1CC[NH+]([C@@H](C(=O)NCCCNC(=O)c2ccc(-c3c4nc(c(-c5c(F)c(F)c(F)c(F)c5F)c5ccc([nH]5)c(-c5c(F)c(F)c(F)c(F)c5F)c5nc(c(-c6c(F)c(F)c(F)c(F)c6F)c6ccc3[nH]6)C=C5)C=C4)cc2)c2c[nH]c3cc(CO)ccc23)CC1
REMARK SMILES IDX 17 1 16 2 14 3 15 4 13 6 12 7 9 8 10 9 98 10 11 11 97 12
REMARK SMILES IDX 8 14 3 15 4 16 5 17 7 18 6 19 2 20 1 21 86 22 87 23 96 24
REMARK SMILES IDX 88 25 89 26 95 27 90 29 94 30 91 31 92 32 93 33 18 35 19 36
REMARK SMILES IDX 20 37 21 38 22 40 23 41 24 42 85 43 25 44 84 45 26 46 27 47
REMARK SMILES IDX 28 48 78 49 29 50 83 51 77 52 79 53 30 54 82 55 76 56 75 57
REMARK SMILES IDX 31 59 63 60 43 61 62 62 44 63 47 64 61 65 80 66 45 67 46 68
REMARK SMILES IDX 60 70 81 71 48 72 32 73 33 74 41 75 34 76 35 77 39 78 42 79
REMARK SMILES IDX 36 80 37 81 40 82 38 83 64 84 65 85 73 86 66 87 67 88 71 89
REMARK SMILES IDX 74 90 68 91 69 92 72 93 70 94 49 95 50 96 58 97 51 98 52 99
REMARK SMILES IDX 56 100 59 101 53 102 54 103 57 104 55 105
REMARK H PARENT 16 5 12 13 88 28 93 34 20 39 79 58 47 69
REMARK Flexibility Score: inf
ROOT
ATOM      1  C   UNL     1       1.238  -4.462   2.983  1.00  0.00     0.118 C 
ENDROOT
BRANCH   1   2
ATOM      2  N   UNL     1       0.003  -4.389   2.197  1.00  0.00    -0.351 N 
ATOM      3  C   UNL     1      -0.442  -4.757   0.945  1.00  0.00     0.283 C 
ATOM      4  O   UNL     1      -1.661  -4.583   0.812  1.00  0.00    -0.268 OA
ATOM      5  H   UNL     1      -0.715  -3.951   2.710  1.00  0.00     0.163 HD
BRANCH   3   6
ATOM      6  C   UNL     1       0.442  -5.390  -0.186  1.00  0.00     0.307 C 
BRANCH   6   7
ATOM      7  N   UNL     1       1.475  -4.491  -0.858  1.00  0.00    -0.318 N 
ATOM      8  N   UNL     1       0.714  -1.622  -0.919  1.00  0.00    -0.344 N 
ATOM      9  C   UNL     1       0.088  -2.603  -1.812  1.00  0.00     0.179 C 
ATOM     10  C   UNL     1       1.357  -2.195   0.271  1.00  0.00     0.179 C 
ATOM     11  C   UNL     1       1.101  -3.724  -2.067  1.00  0.00     0.284 C 
ATOM     12  C   UNL     1       2.154  -3.502  -0.018  1.00  0.00     0.284 C 
ATOM     13  H   UNL     1       2.080  -5.272  -1.113  1.00  0.00     0.349 HD
BRANCH   8  14
ATOM     14  C   UNL     1      -0.068  -0.491  -0.663  1.00  0.00     0.146 A 
ATOM     15  C   UNL     1       0.514   0.762  -0.457  1.00  0.00     0.095 A 
ATOM     16  C   UNL     1      -0.312   1.865  -0.225  1.00  0.00     0.025 A 
ATOM     17  C   UNL     1      -1.689   1.692  -0.150  1.00  0.00     0.022 A 
ATOM     18  N   UNL     1      -1.415  -0.651  -0.609  1.00  0.00    -0.238 NA
ATOM     19  C   UNL     1      -2.191   0.421  -0.344  1.00  0.00     0.113 A 
BRANCH  15  20
ATOM     20  C   UNL     1       1.942   0.938  -0.469  1.00  0.00     0.103 C 
ATOM     21  N   UNL     1       3.083   1.077  -0.411  1.00  0.00    -0.192 NA
ENDBRANCH  15  20
ENDBRANCH   8  14
ENDBRANCH   6   7
BRANCH   6  22
ATOM     22  C   UNL     1      -0.348  -6.143  -1.316  1.00  0.00     0.044 A 
ATOM     23  C   UNL     1       0.092  -7.257  -2.025  1.00  0.00     0.094 A 
ATOM     24  C   UNL     1      -1.418  -5.680  -2.166  1.00  0.00     0.009 A 
ATOM     25  N   UNL     1       0.049  -6.829  -3.341  1.00  0.00    -0.361 N 
ATOM     26  C   UNL     1      -0.903  -5.842  -3.457  1.00  0.00     0.046 A 
ATOM     27  C   UNL     1      -2.607  -4.947  -2.032  1.00  0.00     0.011 A 
ATOM     28  H   UNL     1       0.608  -7.174  -4.074  1.00  0.00     0.166 HD
ATOM     29  C   UNL     1      -1.258  -4.995  -4.517  1.00  0.00     0.032 A 
ATOM     30  C   UNL     1      -3.084  -4.217  -3.125  1.00  0.00     0.007 A 
ATOM     31  C   UNL     1      -2.322  -4.105  -4.294  1.00  0.00    -0.021 A 
BRANCH  31  32
ATOM     32  C   UNL     1      -2.609  -2.989  -5.268  1.00  0.00     0.191 C 
BRANCH  32  33
ATOM     33  O   UNL     1      -2.626  -1.722  -4.609  1.00  0.00    -0.392 OA
ATOM     34  H   UNL     1      -3.323  -1.717  -3.934  1.00  0.00     0.211 HD
ENDBRANCH  32  33
ENDBRANCH  31  32
ENDBRANCH   6  22
ENDBRANCH   3   6
ENDBRANCH   1   2
BRANCH   1  35
ATOM     35  C   UNL     1       1.932  -3.111   3.339  1.00  0.00     0.042 C 
BRANCH  35  36
ATOM     36  C   UNL     1       1.054  -1.863   3.571  1.00  0.00     0.118 C 
BRANCH  36  37
ATOM     37  N   UNL     1       1.114  -1.395   4.944  1.00  0.00    -0.352 N 
ATOM     38  C   UNL     1       1.401  -0.154   5.462  1.00  0.00     0.251 C 
ATOM     39  H   UNL     1       0.917  -2.083   5.619  1.00  0.00     0.163 HD
ATOM     40  O   UNL     1       1.594  -0.055   6.673  1.00  0.00    -0.269 OA
BRANCH  38  41
ATOM     41  C   UNL     1       1.475   1.078   4.630  1.00  0.00     0.039 A 
ATOM     42  C   UNL     1       2.469   2.022   4.929  1.00  0.00     0.014 A 
ATOM     43  C   UNL     1       0.497   1.405   3.689  1.00  0.00     0.014 A 
ATOM     44  C   UNL     1       2.502   3.264   4.277  1.00  0.00     0.010 A 
ATOM     45  C   UNL     1       0.542   2.647   3.031  1.00  0.00     0.010 A 
ATOM     46  C   UNL     1       1.546   3.592   3.305  1.00  0.00    -0.014 A 
BRANCH  46  47
ATOM     47  C   UNL     1       1.589   4.909   2.590  1.00  0.00     0.031 A 
ATOM     48  C   UNL     1       0.476   5.918   2.740  1.00  0.00     0.074 A 
ATOM     49  C   UNL     1       2.620   5.203   1.771  1.00  0.00     0.049 A 
ATOM     50  N   UNL     1       0.328   7.087   2.163  1.00  0.00    -0.248 NA
ATOM     51  C   UNL     1      -0.628   5.555   3.639  1.00  0.00     0.031 C 
ATOM     52  C   UNL     1       3.752   4.322   1.493  1.00  0.00     0.029 A 
ATOM     53  N   UNL     1       2.882   6.324   1.015  1.00  0.00    -0.354 N 
ATOM     54  C   UNL     1      -0.883   7.593   2.619  1.00  0.00     0.074 A 
ATOM     55  C   UNL     1      -1.456   6.579   3.481  1.00  0.00     0.031 C 
ATOM     56  C   UNL     1       4.598   4.940   0.654  1.00  0.00     0.029 A 
ATOM     57  C   UNL     1       4.053   6.248   0.297  1.00  0.00     0.049 A 
ATOM     58  H   UNL     1       2.286   7.108   0.990  1.00  0.00     0.167 HD
ATOM     59  C   UNL     1      -1.460   8.796   2.366  1.00  0.00     0.037 A 
ATOM     60  C   UNL     1       4.623   7.120  -0.558  1.00  0.00     0.037 A 
ATOM     61  C   UNL     1      -0.888   9.823   1.531  1.00  0.00     0.049 A 
ATOM     62  C   UNL     1       3.954   8.440  -0.841  1.00  0.00     0.074 A 
ATOM     63  C   UNL     1      -1.380  11.091   1.263  1.00  0.00     0.029 A 
ATOM     64  N   UNL     1       0.301   9.704   0.826  1.00  0.00    -0.354 N 
ATOM     65  N   UNL     1       2.837   8.923  -0.356  1.00  0.00    -0.248 NA
ATOM     66  C   UNL     1       4.629   9.338  -1.791  1.00  0.00     0.031 C 
ATOM     67  C   UNL     1      -0.520  11.717   0.354  1.00  0.00     0.029 A 
ATOM     68  C   UNL     1       0.542  10.864   0.103  1.00  0.00     0.049 A 
ATOM     69  H   UNL     1       0.887   8.914   0.837  1.00  0.00     0.167 HD
ATOM     70  C   UNL     1       2.692  10.188  -0.914  1.00  0.00     0.074 A 
ATOM     71  C   UNL     1       3.843  10.405  -1.764  1.00  0.00     0.031 C 
ATOM     72  C   UNL     1       1.693  11.086  -0.735  1.00  0.00     0.037 A 
BRANCH  59  73
ATOM     73  C   UNL     1      -2.795   9.076   3.000  1.00  0.00     0.064 A 
ATOM     74  C   UNL     1      -2.928   9.276   4.383  1.00  0.00     0.173 A 
ATOM     75  C   UNL     1      -3.949   9.197   2.209  1.00  0.00     0.173 A 
ATOM     76  F   UNL     1      -1.859   9.169   5.186  1.00  0.00    -0.203 F 
ATOM     77  C   UNL     1      -4.169   9.548   4.953  1.00  0.00     0.198 A 
ATOM     78  C   UNL     1      -5.183   9.504   2.779  1.00  0.00     0.198 A 
ATOM     79  F   UNL     1      -3.879   9.030   0.880  1.00  0.00    -0.203 F 
ATOM     80  F   UNL     1      -4.279   9.681   6.282  1.00  0.00    -0.200 F 
ATOM     81  C   UNL     1      -5.294   9.669   4.151  1.00  0.00     0.200 A 
ATOM     82  F   UNL     1      -6.265   9.637   2.000  1.00  0.00    -0.200 F 
ATOM     83  F   UNL     1      -6.486   9.937   4.701  1.00  0.00    -0.200 F 
ENDBRANCH  59  73
BRANCH  60  84
ATOM     84  C   UNL     1       5.919   6.783  -1.210  1.00  0.00     0.064 A 
ATOM     85  C   UNL     1       7.091   7.484  -0.890  1.00  0.00     0.173 A 
ATOM     86  C   UNL     1       6.008   5.772  -2.177  1.00  0.00     0.173 A 
ATOM     87  F   UNL     1       7.051   8.482   0.004  1.00  0.00    -0.203 F 
ATOM     88  C   UNL     1       8.298   7.198  -1.526  1.00  0.00     0.198 A 
ATOM     89  C   UNL     1       7.223   5.465  -2.788  1.00  0.00     0.198 A 
ATOM     90  F   UNL     1       4.915   5.079  -2.527  1.00  0.00    -0.203 F 
ATOM     91  F   UNL     1       9.390   7.920  -1.241  1.00  0.00    -0.200 F 
ATOM     92  C   UNL     1       8.364   6.183  -2.469  1.00  0.00     0.200 A 
ATOM     93  F   UNL     1       7.285   4.479  -3.694  1.00  0.00    -0.200 F 
ATOM     94  F   UNL     1       9.526   5.908  -3.078  1.00  0.00    -0.200 F 
ENDBRANCH  60  84
BRANCH  72  95
ATOM     95  C   UNL     1       1.812  12.411  -1.436  1.00  0.00     0.064 A 
ATOM     96  C   UNL     1       1.669  12.529  -2.827  1.00  0.00     0.173 A 
ATOM     97  C   UNL     1       2.034  13.585  -0.700  1.00  0.00     0.173 A 
ATOM     98  F   UNL     1       1.470  11.437  -3.580  1.00  0.00    -0.203 F 
ATOM     99  C   UNL     1       1.770  13.768  -3.456  1.00  0.00     0.198 A 
ATOM    100  C   UNL     1       2.103  14.826  -1.329  1.00  0.00     0.198 A 
ATOM    101  F   UNL     1       2.172  13.532   0.633  1.00  0.00    -0.203 F 
ATOM    102  F   UNL     1       1.678  13.849  -4.791  1.00  0.00    -0.200 F 
ATOM    103  C   UNL     1       1.979  14.916  -2.706  1.00  0.00     0.200 A 
ATOM    104  F   UNL     1       2.289  15.936  -0.600  1.00  0.00    -0.200 F 
ATOM    105  F   UNL     1       2.067  16.108  -3.313  1.00  0.00    -0.200 F 
ENDBRANCH  72  95
ENDBRANCH  46  47
ENDBRANCH  38  41
ENDBRANCH  36  37
ENDBRANCH  35  36
ENDBRANCH   1  35
TORSDOF 16
