REMARK SMILES CCCCCCNC(=O)Oc1cccc(-c2ccc(CC(=O)NCCCNC(=O)c3ccc(-c4c5nc(c(-c6c(F)c(F)c(F)c(F)c6F)c6ccc([nH]6)c(-c6c(F)c(F)c(F)c(F)c6F)c6nc(c(-c7c(F)c(F)c(F)c(F)c7F)c7ccc4[nH]7)C=C6)C=C5)cc3)cc2F)c1
REMARK SMILES IDX 16 1 17 2 18 3 19 4 93 5 94 6 95 7 15 8 11 9 12 10 96 11
REMARK SMILES IDX 13 12 14 13 10 14 8 15 7 16 9 18 6 19 5 20 4 21 3 22 2 23
REMARK SMILES IDX 1 24 20 25 21 26 22 27 23 28 24 30 25 31 26 32 27 33 28 34
REMARK SMILES IDX 29 36 30 37 31 38 92 39 32 40 91 41 33 42 34 43 35 44 85 45
REMARK SMILES IDX 36 46 90 47 84 48 86 49 37 50 89 51 83 52 82 53 38 55 70 56
REMARK SMILES IDX 50 57 69 58 51 59 54 60 68 61 87 62 52 63 53 64 67 66 88 67
REMARK SMILES IDX 55 68 39 69 40 70 48 71 41 72 42 73 46 74 49 75 43 76 44 77
REMARK SMILES IDX 47 78 45 79 71 80 72 81 80 82 73 83 74 84 78 85 81 86 75 87
REMARK SMILES IDX 76 88 79 89 77 90 56 91 57 92 65 93 58 94 59 95 63 96 66 97
REMARK SMILES IDX 60 98 61 99 64 100 62 101
REMARK H PARENT 7 17 23 29 27 35 86 54 54 65
REMARK Flexibility Score: inf
ROOT
ATOM      1  C   UNL     1      -4.997   3.193   9.521  1.00  0.00     0.018 A 
ATOM      2  C   UNL     1      -5.198   3.146  10.911  1.00  0.00     0.012 A 
ATOM      3  C   UNL     1      -5.116   4.302  11.696  1.00  0.00     0.005 A 
ATOM      4  C   UNL     1      -4.832   5.541  11.110  1.00  0.00    -0.036 A 
ATOM      5  C   UNL     1      -4.572   5.591   9.737  1.00  0.00     0.044 A 
ATOM      6  C   UNL     1      -4.668   4.437   8.962  1.00  0.00     0.131 A 
ATOM      7  F   UNL     1      -4.473   4.559   7.639  1.00  0.00    -0.206 F 
ENDROOT
BRANCH   1   8
ATOM      8  C   UNL     1      -5.142   1.988   8.687  1.00  0.00    -0.012 A 
ATOM      9  C   UNL     1      -4.326   0.511   6.939  1.00  0.00     0.133 A 
ATOM     10  C   UNL     1      -5.460  -0.290   7.045  1.00  0.00     0.047 A 
ATOM     11  C   UNL     1      -4.169   1.646   7.736  1.00  0.00     0.056 A 
ATOM     12  C   UNL     1      -6.434   0.032   7.985  1.00  0.00     0.004 A 
ATOM     13  C   UNL     1      -6.275   1.158   8.800  1.00  0.00     0.009 A 
BRANCH   9  14
ATOM     14  O   UNL     1      -3.414   0.198   5.919  1.00  0.00    -0.410 OA
BRANCH  14  15
ATOM     15  C   UNL     1      -2.070   0.116   6.247  1.00  0.00     0.412 C 
ATOM     16  N   UNL     1      -1.262  -0.105   5.168  1.00  0.00    -0.321 N 
ATOM     17  H   UNL     1      -0.297  -0.176   5.348  1.00  0.00     0.167 HD
ATOM     18  O   UNL     1      -1.592   0.215   7.376  1.00  0.00    -0.224 OA
BRANCH  16  19
ATOM     19  C   UNL     1      -1.676  -0.248   3.787  1.00  0.00     0.119 C 
BRANCH  19  20
ATOM     20  C   UNL     1      -1.064   0.828   2.890  1.00  0.00     0.021 C 
BRANCH  20  21
ATOM     21  C   UNL     1       0.466   0.793   2.791  1.00  0.00     0.002 C 
BRANCH  21  22
ATOM     22  C   UNL     1       1.067  -0.522   2.282  1.00  0.00    -0.000 C 
BRANCH  22  23
ATOM     23  C   UNL     1       0.590  -0.973   0.899  1.00  0.00    -0.003 C 
ATOM     24  C   UNL     1       0.962  -0.003  -0.211  1.00  0.00     0.004 C 
ENDBRANCH  22  23
ENDBRANCH  21  22
ENDBRANCH  20  21
ENDBRANCH  19  20
ENDBRANCH  16  19
ENDBRANCH  14  15
ENDBRANCH   9  14
ENDBRANCH   1   8
BRANCH   4  25
ATOM     25  C   UNL     1      -4.824   6.805  11.935  1.00  0.00     0.135 C 
BRANCH  25  26
ATOM     26  C   UNL     1      -6.138   7.068  12.652  1.00  0.00     0.224 C 
ATOM     27  O   UNL     1      -6.240   6.941  13.874  1.00  0.00    -0.275 OA
ATOM     28  N   UNL     1      -7.237   7.472  11.949  1.00  0.00    -0.356 N 
ATOM     29  H   UNL     1      -8.030   7.687  12.492  1.00  0.00     0.163 HD
BRANCH  28  30
ATOM     30  C   UNL     1      -7.404   7.631  10.516  1.00  0.00     0.117 C 
BRANCH  30  31
ATOM     31  C   UNL     1      -8.143   6.453   9.883  1.00  0.00     0.042 C 
BRANCH  31  32
ATOM     32  C   UNL     1      -9.604   6.328  10.306  1.00  0.00     0.118 C 
BRANCH  32  33
ATOM     33  N   UNL     1     -10.418   7.449   9.857  1.00  0.00    -0.352 N 
ATOM     34  C   UNL     1     -11.578   7.468   9.124  1.00  0.00     0.251 C 
ATOM     35  H   UNL     1     -10.082   8.336  10.121  1.00  0.00     0.163 HD
ATOM     36  O   UNL     1     -12.013   8.540   8.710  1.00  0.00    -0.269 OA
BRANCH  34  37
ATOM     37  C   UNL     1     -12.306   6.218   8.813  1.00  0.00     0.039 A 
ATOM     38  C   UNL     1     -12.864   6.067   7.539  1.00  0.00     0.014 A 
ATOM     39  C   UNL     1     -12.490   5.222   9.775  1.00  0.00     0.014 A 
ATOM     40  C   UNL     1     -13.554   4.897   7.212  1.00  0.00     0.010 A 
ATOM     41  C   UNL     1     -13.123   4.029   9.429  1.00  0.00     0.010 A 
ATOM     42  C   UNL     1     -13.665   3.856   8.146  1.00  0.00    -0.014 A 
BRANCH  42  43
ATOM     43  C   UNL     1     -14.348   2.582   7.808  1.00  0.00     0.031 A 
ATOM     44  C   UNL     1     -15.611   2.189   8.522  1.00  0.00     0.074 A 
ATOM     45  C   UNL     1     -13.794   1.744   6.910  1.00  0.00     0.049 A 
ATOM     46  N   UNL     1     -16.294   1.074   8.449  1.00  0.00    -0.248 NA
ATOM     47  C   UNL     1     -16.165   3.172   9.466  1.00  0.00     0.031 C 
ATOM     48  C   UNL     1     -12.554   1.994   6.175  1.00  0.00     0.029 A 
ATOM     49  N   UNL     1     -14.194   0.504   6.478  1.00  0.00    -0.354 N 
ATOM     50  C   UNL     1     -17.341   1.213   9.350  1.00  0.00     0.074 A 
ATOM     51  C   UNL     1     -17.181   2.502   9.990  1.00  0.00     0.031 C 
ATOM     52  C   UNL     1     -12.301   0.948   5.372  1.00  0.00     0.029 A 
ATOM     53  C   UNL     1     -13.338  -0.062   5.566  1.00  0.00     0.049 A 
ATOM     54  H   UNL     1     -15.016   0.063   6.792  1.00  0.00     0.167 HD
ATOM     55  C   UNL     1     -18.355   0.351   9.608  1.00  0.00     0.037 A 
ATOM     56  C   UNL     1     -13.378  -1.266   4.963  1.00  0.00     0.037 A 
ATOM     57  C   UNL     1     -18.529  -0.917   8.949  1.00  0.00     0.049 A 
ATOM     58  C   UNL     1     -14.514  -2.204   5.266  1.00  0.00     0.074 A 
ATOM     59  C   UNL     1     -19.553  -1.835   9.101  1.00  0.00     0.029 A 
ATOM     60  N   UNL     1     -17.654  -1.444   8.011  1.00  0.00    -0.354 N 
ATOM     61  N   UNL     1     -15.527  -2.042   6.081  1.00  0.00    -0.248 NA
ATOM     62  C   UNL     1     -14.514  -3.494   4.560  1.00  0.00     0.031 C 
ATOM     63  C   UNL     1     -19.278  -2.937   8.282  1.00  0.00     0.029 A 
ATOM     64  C   UNL     1     -18.107  -2.684   7.587  1.00  0.00     0.049 A 
ATOM     65  H   UNL     1     -16.833  -1.004   7.693  1.00  0.00     0.167 HD
ATOM     66  C   UNL     1     -16.298  -3.190   5.967  1.00  0.00     0.074 A 
ATOM     67  C   UNL     1     -15.642  -4.039   4.994  1.00  0.00     0.031 C 
ATOM     68  C   UNL     1     -17.448  -3.511   6.609  1.00  0.00     0.037 A 
BRANCH  55  69
ATOM     69  C   UNL     1     -19.356   0.753  10.652  1.00  0.00     0.064 A 
ATOM     70  C   UNL     1     -20.276   1.789  10.428  1.00  0.00     0.173 A 
ATOM     71  C   UNL     1     -19.418   0.075  11.878  1.00  0.00     0.173 A 
ATOM     72  F   UNL     1     -20.251   2.477   9.277  1.00  0.00    -0.203 F 
ATOM     73  C   UNL     1     -21.198   2.152  11.406  1.00  0.00     0.198 A 
ATOM     74  C   UNL     1     -20.361   0.421  12.842  1.00  0.00     0.198 A 
ATOM     75  F   UNL     1     -18.567  -0.929  12.140  1.00  0.00    -0.203 F 
ATOM     76  F   UNL     1     -22.032   3.179  11.190  1.00  0.00    -0.200 F 
ATOM     77  C   UNL     1     -21.244   1.464  12.609  1.00  0.00     0.200 A 
ATOM     78  F   UNL     1     -20.413  -0.254  13.999  1.00  0.00    -0.200 F 
ATOM     79  F   UNL     1     -22.136   1.812  13.548  1.00  0.00    -0.200 F 
ENDBRANCH  55  69
BRANCH  56  80
ATOM     80  C   UNL     1     -12.319  -1.641   3.991  1.00  0.00     0.064 A 
ATOM     81  C   UNL     1     -12.602  -1.724   2.620  1.00  0.00     0.173 A 
ATOM     82  C   UNL     1     -11.009  -1.918   4.407  1.00  0.00     0.173 A 
ATOM     83  F   UNL     1     -13.846  -1.488   2.178  1.00  0.00    -0.203 F 
ATOM     84  C   UNL     1     -11.618  -2.088   1.704  1.00  0.00     0.198 A 
ATOM     85  C   UNL     1     -10.020  -2.257   3.486  1.00  0.00     0.198 A 
ATOM     86  F   UNL     1     -10.687  -1.848   5.707  1.00  0.00    -0.203 F 
ATOM     87  F   UNL     1     -11.925  -2.201   0.405  1.00  0.00    -0.200 F 
ATOM     88  C   UNL     1     -10.326  -2.349   2.136  1.00  0.00     0.200 A 
ATOM     89  F   UNL     1      -8.770  -2.495   3.906  1.00  0.00    -0.200 F 
ATOM     90  F   UNL     1      -9.379  -2.695   1.254  1.00  0.00    -0.200 F 
ENDBRANCH  56  80
BRANCH  68  91
ATOM     91  C   UNL     1     -18.093  -4.818   6.253  1.00  0.00     0.064 A 
ATOM     92  C   UNL     1     -17.556  -6.043   6.674  1.00  0.00     0.173 A 
ATOM     93  C   UNL     1     -19.288  -4.841   5.517  1.00  0.00     0.173 A 
ATOM     94  F   UNL     1     -16.407  -6.075   7.366  1.00  0.00    -0.203 F 
ATOM     95  C   UNL     1     -18.181  -7.245   6.353  1.00  0.00     0.198 A 
ATOM     96  C   UNL     1     -19.924  -6.043   5.222  1.00  0.00     0.198 A 
ATOM     97  F   UNL     1     -19.844  -3.695   5.096  1.00  0.00    -0.203 F 
ATOM     98  F   UNL     1     -17.629  -8.407   6.729  1.00  0.00    -0.200 F 
ATOM     99  C   UNL     1     -19.368  -7.244   5.634  1.00  0.00     0.200 A 
ATOM    100  F   UNL     1     -21.077  -6.039   4.537  1.00  0.00    -0.200 F 
ATOM    101  F   UNL     1     -19.972  -8.402   5.333  1.00  0.00    -0.200 F 
ENDBRANCH  68  91
ENDBRANCH  42  43
ENDBRANCH  34  37
ENDBRANCH  32  33
ENDBRANCH  31  32
ENDBRANCH  30  31
ENDBRANCH  28  30
ENDBRANCH  25  26
ENDBRANCH   4  25
TORSDOF 19
