REMARK SMILES O=C(/C=C/C(=O)NCc1ccc(-c2cccs2)s1)NCCCNC(=O)c1ccc(-c2c3nc(c(-c4c(F)c(F)c(F)c(F)c4F)c4ccc([nH]4)c(-c4c(F)c(F)c(F)c(F)c4F)c4nc(c(-c5c(F)c(F)c(F)c(F)c5F)c5ccc2[nH]5)C=C4)C=C3)cc1
REMARK SMILES IDX 20 1 19 2 1 3 2 4 3 6 4 7 5 8 6 9 7 10 8 12 9 13 10 14 18 15
REMARK SMILES IDX 11 16 12 17 13 18 14 19 17 20 15 21 16 22 21 23 22 24 23 25
REMARK SMILES IDX 24 26 25 28 26 29 27 30 88 31 28 32 87 33 29 34 30 35 31 36
REMARK SMILES IDX 81 37 32 38 86 39 80 40 82 41 33 42 85 43 79 44 78 45 34 47
REMARK SMILES IDX 66 48 46 49 65 50 47 51 50 52 64 53 83 54 48 55 49 56 63 58
REMARK SMILES IDX 84 59 51 60 35 61 36 62 44 63 37 64 38 65 42 66 45 67 39 68
REMARK SMILES IDX 40 69 43 70 41 71 67 72 68 73 76 74 69 75 70 76 74 77 77 78
REMARK SMILES IDX 71 79 72 80 75 81 73 82 52 83 53 84 61 85 54 86 55 87 59 88
REMARK SMILES IDX 62 89 56 90 57 91 60 92 58 93
REMARK H PARENT 19 5 7 11 23 27 82 46 50 57
REMARK Flexibility Score: inf
ROOT
ATOM      1  C   UNL     1       2.100   1.352  -2.224  1.00  0.00     0.118 C 
ENDROOT
BRANCH   1   2
ATOM      2  N   UNL     1       2.730   0.479  -1.253  1.00  0.00    -0.352 N 
ATOM      3  O   UNL     1       0.845   0.154   0.025  1.00  0.00    -0.270 OA
ATOM      4  C   UNL     1       2.023  -0.067  -0.213  1.00  0.00     0.244 C 
ATOM      5  H   UNL     1       3.689   0.273  -1.343  1.00  0.00     0.163 HD
BRANCH   4   6
ATOM      6  C   UNL     1       2.767  -1.049   0.605  1.00  0.00     0.077 C 
ATOM      7  C   UNL     1       3.992  -0.794   1.074  1.00  0.00     0.077 C 
BRANCH   7   8
ATOM      8  C   UNL     1       4.817  -1.682   1.918  1.00  0.00     0.244 C 
ATOM      9  O   UNL     1       6.039  -1.642   1.771  1.00  0.00    -0.270 OA
ATOM     10  N   UNL     1       4.304  -2.467   2.891  1.00  0.00    -0.348 N 
ATOM     11  H   UNL     1       4.988  -2.983   3.375  1.00  0.00     0.164 HD
BRANCH  10  12
ATOM     12  C   UNL     1       2.956  -2.709   3.371  1.00  0.00     0.163 C 
BRANCH  12  13
ATOM     13  C   UNL     1       2.578  -4.120   3.027  1.00  0.00     0.024 A 
ATOM     14  C   UNL     1       3.304  -5.276   3.249  1.00  0.00     0.018 A 
ATOM     15  S   UNL     1       1.062  -4.476   2.306  1.00  0.00    -0.138 S 
ATOM     16  C   UNL     1       2.608  -6.446   2.838  1.00  0.00     0.022 A 
ATOM     17  C   UNL     1       1.365  -6.161   2.314  1.00  0.00     0.045 A 
BRANCH  17  18
ATOM     18  C   UNL     1       0.400  -7.130   1.873  1.00  0.00     0.044 A 
ATOM     19  C   UNL     1      -0.152  -8.136   2.642  1.00  0.00     0.021 A 
ATOM     20  S   UNL     1      -0.148  -7.208   0.253  1.00  0.00    -0.143 S 
ATOM     21  C   UNL     1      -1.018  -8.984   1.892  1.00  0.00     0.012 A 
ATOM     22  C   UNL     1      -1.096  -8.598   0.573  1.00  0.00     0.065 A 
ENDBRANCH  17  18
ENDBRANCH  12  13
ENDBRANCH  10  12
ENDBRANCH   7   8
ENDBRANCH   4   6
ENDBRANCH   1   2
BRANCH   1  23
ATOM     23  C   UNL     1       2.417   2.825  -1.997  1.00  0.00     0.042 C 
BRANCH  23  24
ATOM     24  C   UNL     1       3.896   3.179  -2.110  1.00  0.00     0.118 C 
BRANCH  24  25
ATOM     25  N   UNL     1       4.460   2.873  -3.417  1.00  0.00    -0.352 N 
ATOM     26  C   UNL     1       5.116   3.671  -4.319  1.00  0.00     0.251 C 
ATOM     27  H   UNL     1       4.353   1.936  -3.700  1.00  0.00     0.163 HD
ATOM     28  O   UNL     1       5.374   3.230  -5.436  1.00  0.00    -0.269 OA
BRANCH  26  29
ATOM     29  C   UNL     1       5.504   5.057  -3.976  1.00  0.00     0.039 A 
ATOM     30  C   UNL     1       5.394   6.045  -4.961  1.00  0.00     0.014 A 
ATOM     31  C   UNL     1       6.022   5.385  -2.721  1.00  0.00     0.014 A 
ATOM     32  C   UNL     1       5.756   7.363  -4.673  1.00  0.00     0.010 A 
ATOM     33  C   UNL     1       6.303   6.714  -2.408  1.00  0.00     0.010 A 
ATOM     34  C   UNL     1       6.189   7.714  -3.384  1.00  0.00    -0.014 A 
BRANCH  34  35
ATOM     35  C   UNL     1       6.559   9.116  -3.055  1.00  0.00     0.031 A 
ATOM     36  C   UNL     1       7.973   9.451  -2.661  1.00  0.00     0.074 A 
ATOM     37  C   UNL     1       5.618  10.079  -3.068  1.00  0.00     0.049 A 
ATOM     38  N   UNL     1       8.482  10.600  -2.293  1.00  0.00    -0.248 NA
ATOM     39  C   UNL     1       8.938   8.340  -2.653  1.00  0.00     0.031 C 
ATOM     40  C   UNL     1       4.205   9.876  -3.391  1.00  0.00     0.029 A 
ATOM     41  N   UNL     1       5.706  11.422  -2.796  1.00  0.00    -0.354 N 
ATOM     42  C   UNL     1       9.815  10.347  -1.998  1.00  0.00     0.074 A 
ATOM     43  C   UNL     1      10.023   8.926  -2.170  1.00  0.00     0.031 C 
ATOM     44  C   UNL     1       3.565  11.054  -3.324  1.00  0.00     0.029 A 
ATOM     45  C   UNL     1       4.511  12.088  -2.916  1.00  0.00     0.049 A 
ATOM     46  H   UNL     1       6.547  11.865  -2.538  1.00  0.00     0.167 HD
ATOM     47  C   UNL     1      10.786  11.223  -1.643  1.00  0.00     0.037 A 
ATOM     48  C   UNL     1       4.213  13.386  -2.716  1.00  0.00     0.037 A 
ATOM     49  C   UNL     1      10.581  12.640  -1.496  1.00  0.00     0.049 A 
ATOM     50  C   UNL     1       5.308  14.338  -2.312  1.00  0.00     0.074 A 
ATOM     51  C   UNL     1      11.510  13.619  -1.192  1.00  0.00     0.029 A 
ATOM     52  N   UNL     1       9.359  13.280  -1.642  1.00  0.00    -0.354 N 
ATOM     53  N   UNL     1       6.579  14.098  -2.103  1.00  0.00    -0.248 NA
ATOM     54  C   UNL     1       4.926  15.745  -2.127  1.00  0.00     0.031 C 
ATOM     55  C   UNL     1      10.841  14.844  -1.101  1.00  0.00     0.029 A 
ATOM     56  C   UNL     1       9.506  14.639  -1.411  1.00  0.00     0.049 A 
ATOM     57  H   UNL     1       8.512  12.835  -1.875  1.00  0.00     0.167 HD
ATOM     58  C   UNL     1       7.155  15.325  -1.798  1.00  0.00     0.074 A 
ATOM     59  C   UNL     1       6.095  16.309  -1.863  1.00  0.00     0.031 C 
ATOM     60  C   UNL     1       8.445  15.610  -1.494  1.00  0.00     0.037 A 
BRANCH  47  61
ATOM     61  C   UNL     1      12.161  10.671  -1.390  1.00  0.00     0.064 A 
ATOM     62  C   UNL     1      12.948  10.147  -2.427  1.00  0.00     0.173 A 
ATOM     63  C   UNL     1      12.711  10.696  -0.099  1.00  0.00     0.173 A 
ATOM     64  F   UNL     1      12.467  10.090  -3.678  1.00  0.00    -0.203 F 
ATOM     65  C   UNL     1      14.220   9.637  -2.176  1.00  0.00     0.198 A 
ATOM     66  C   UNL     1      13.997  10.217   0.142  1.00  0.00     0.198 A 
ATOM     67  F   UNL     1      12.007  11.192   0.929  1.00  0.00    -0.203 F 
ATOM     68  F   UNL     1      14.929   9.091  -3.173  1.00  0.00    -0.200 F 
ATOM     69  C   UNL     1      14.746   9.680  -0.894  1.00  0.00     0.200 A 
ATOM     70  F   UNL     1      14.510  10.273   1.379  1.00  0.00    -0.200 F 
ATOM     71  F   UNL     1      15.973   9.196  -0.655  1.00  0.00    -0.200 F 
ENDBRANCH  47  61
BRANCH  48  72
ATOM     72  C   UNL     1       2.822  13.870  -2.921  1.00  0.00     0.064 A 
ATOM     73  C   UNL     1       2.508  14.734  -3.980  1.00  0.00     0.173 A 
ATOM     74  C   UNL     1       1.782  13.493  -2.058  1.00  0.00     0.173 A 
ATOM     75  F   UNL     1       3.471  15.140  -4.820  1.00  0.00    -0.203 F 
ATOM     76  C   UNL     1       1.215  15.223  -4.152  1.00  0.00     0.198 A 
ATOM     77  C   UNL     1       0.482  13.957  -2.251  1.00  0.00     0.198 A 
ATOM     78  F   UNL     1       2.026  12.665  -1.032  1.00  0.00    -0.203 F 
ATOM     79  F   UNL     1       0.955  16.090  -5.141  1.00  0.00    -0.200 F 
ATOM     80  C   UNL     1       0.202  14.830  -3.291  1.00  0.00     0.200 A 
ATOM     81  F   UNL     1      -0.497  13.563  -1.425  1.00  0.00    -0.200 F 
ATOM     82  F   UNL     1      -1.042  15.299  -3.459  1.00  0.00    -0.200 F 
ENDBRANCH  48  72
BRANCH  60  83
ATOM     83  C   UNL     1       8.796  17.052  -1.258  1.00  0.00     0.064 A 
ATOM     84  C   UNL     1       8.364  17.743  -0.116  1.00  0.00     0.173 A 
ATOM     85  C   UNL     1       9.610  17.739  -2.172  1.00  0.00     0.173 A 
ATOM     86  F   UNL     1       7.574  17.137   0.782  1.00  0.00    -0.203 F 
ATOM     87  C   UNL     1       8.708  19.078   0.085  1.00  0.00     0.198 A 
ATOM     88  C   UNL     1       9.980  19.062  -1.950  1.00  0.00     0.198 A 
ATOM     89  F   UNL     1      10.058  17.122  -3.276  1.00  0.00    -0.203 F 
ATOM     90  F   UNL     1       8.238  19.734   1.155  1.00  0.00    -0.200 F 
ATOM     91  C   UNL     1       9.521  19.733  -0.827  1.00  0.00     0.200 A 
ATOM     92  F   UNL     1      10.780  19.688  -2.824  1.00  0.00    -0.200 F 
ATOM     93  F   UNL     1       9.857  21.015  -0.628  1.00  0.00    -0.200 F 
ENDBRANCH  60  83
ENDBRANCH  34  35
ENDBRANCH  26  29
ENDBRANCH  24  25
ENDBRANCH  23  24
ENDBRANCH   1  23
TORSDOF 14
