REMARK SMILES Cn1cc(-c2cc(C(F)(F)F)c3c(C4CC4)nn(CC(=O)NCCCNC(=O)c4ccc(-c5c6nc(c(-c7c(F)c(F)c(F)c(F)c7F)c7ccc([nH]7)c(-c7c(F)c(F)c(F)c(F)c7F)c7nc(c(-c8c(F)c(F)c(F)c(F)c8F)c8ccc5[nH]8)C=C7)C=C6)cc4)c3n2)cn1
REMARK SMILES IDX 24 1 23 2 22 3 20 4 21 5 19 7 18 8 5 9 6 10 93 11 7 12 92 13
REMARK SMILES IDX 12 14 13 15 17 16 4 17 1 18 2 19 3 20 95 21 94 22 8 23 9 24
REMARK SMILES IDX 10 25 11 26 14 27 15 28 16 29 25 30 26 31 27 32 28 34 29 35
REMARK SMILES IDX 30 36 91 37 31 38 90 39 32 40 33 41 34 42 84 43 35 44 89 45
REMARK SMILES IDX 83 46 85 47 36 48 88 49 82 50 81 51 37 53 69 54 49 55 68 56
REMARK SMILES IDX 50 57 53 58 67 59 86 60 51 61 52 62 66 64 87 65 54 66 38 67
REMARK SMILES IDX 39 68 47 69 40 70 41 71 45 72 48 73 42 74 43 75 46 76 44 77
REMARK SMILES IDX 70 78 71 79 79 80 72 81 73 82 77 83 80 84 74 85 75 86 78 87
REMARK SMILES IDX 76 88 55 89 56 90 64 91 57 92 58 93 62 94 65 95 59 96 60 97
REMARK SMILES IDX 63 98 61 99
REMARK H PARENT 22 6 26 33 85 52 53 63
REMARK Flexibility Score: inf
ROOT
ATOM      1  C   UNL     1      -2.180  -3.167  -3.570  1.00  0.00     0.042 C 
ENDROOT
BRANCH   1   2
ATOM      2  C   UNL     1      -2.341  -1.665  -3.815  1.00  0.00     0.117 C 
BRANCH   2   3
ATOM      3  N   UNL     1      -3.364  -1.059  -2.980  1.00  0.00    -0.354 N 
ATOM      4  C   UNL     1      -3.182  -0.465  -1.762  1.00  0.00     0.241 C 
ATOM      5  O   UNL     1      -4.137   0.062  -1.190  1.00  0.00    -0.273 OA
ATOM      6  H   UNL     1      -4.285  -1.077  -3.328  1.00  0.00     0.163 HD
BRANCH   4   7
ATOM      7  C   UNL     1      -1.794  -0.412  -1.208  1.00  0.00     0.246 C 
BRANCH   7   8
ATOM      8  N   UNL     1      -1.293  -1.711  -0.806  1.00  0.00    -0.237 N 
ATOM      9  C   UNL     1       1.998  -1.307  -0.298  1.00  0.00     0.077 A 
ATOM     10  C   UNL     1       2.416  -2.576   0.094  1.00  0.00     0.043 A 
ATOM     11  N   UNL     1       1.016  -1.212  -1.224  1.00  0.00    -0.228 NA
ATOM     12  C   UNL     1       1.529  -3.668  -0.088  1.00  0.00     0.071 A 
ATOM     13  C   UNL     1       0.023  -2.048  -0.873  1.00  0.00     0.159 A 
ATOM     14  C   UNL     1       0.191  -3.246  -0.198  1.00  0.00     0.055 A 
ATOM     15  C   UNL     1      -1.084  -3.454   0.395  1.00  0.00     0.076 A 
ATOM     16  N   UNL     1      -2.006  -2.580  -0.052  1.00  0.00    -0.175 NA
BRANCH   9  17
ATOM     17  C   UNL     1       1.733  -0.241   0.706  1.00  0.00     0.038 A 
ATOM     18  C   UNL     1      -1.340   0.850   2.164  1.00  0.00     0.173 C 
ATOM     19  N   UNL     1       0.053   0.742   1.771  1.00  0.00    -0.275 N 
ATOM     20  C   UNL     1       0.769  -0.427   1.697  1.00  0.00     0.118 A 
ATOM     21  N   UNL     1       0.647   1.753   1.112  1.00  0.00    -0.181 NA
ATOM     22  C   UNL     1       1.621   1.148   0.420  1.00  0.00     0.145 A 
ENDBRANCH   9  17
BRANCH  12  23
ATOM     23  C   UNL     1       2.012  -5.050  -0.431  1.00  0.00     0.417 C 
ATOM     24  F   UNL     1       1.603  -6.039   0.399  1.00  0.00    -0.166 F 
ATOM     25  F   UNL     1       1.588  -5.426  -1.674  1.00  0.00    -0.166 F 
ATOM     26  F   UNL     1       3.371  -5.143  -0.471  1.00  0.00    -0.166 F 
ENDBRANCH  12  23
BRANCH  15  27
ATOM     27  C   UNL     1      -1.447  -4.290   1.624  1.00  0.00     0.041 C 
ATOM     28  C   UNL     1      -0.548  -5.299   2.286  1.00  0.00     0.011 C 
ATOM     29  C   UNL     1      -0.739  -3.975   2.936  1.00  0.00     0.011 C 
ENDBRANCH  15  27
ENDBRANCH   7   8
ENDBRANCH   4   7
ENDBRANCH   2   3
ENDBRANCH   1   2
BRANCH   1  30
ATOM     30  C   UNL     1      -3.318  -3.936  -4.189  1.00  0.00     0.118 C 
BRANCH  30  31
ATOM     31  N   UNL     1      -3.323  -3.791  -5.643  1.00  0.00    -0.352 N 
ATOM     32  C   UNL     1      -4.128  -4.423  -6.563  1.00  0.00     0.251 C 
ATOM     33  H   UNL     1      -2.664  -3.159  -6.013  1.00  0.00     0.163 HD
ATOM     34  O   UNL     1      -3.853  -4.436  -7.745  1.00  0.00    -0.269 OA
BRANCH  32  35
ATOM     35  C   UNL     1      -5.344  -5.074  -6.059  1.00  0.00     0.039 A 
ATOM     36  C   UNL     1      -5.758  -6.307  -6.558  1.00  0.00     0.014 A 
ATOM     37  C   UNL     1      -6.048  -4.424  -5.046  1.00  0.00     0.014 A 
ATOM     38  C   UNL     1      -6.891  -6.883  -6.005  1.00  0.00     0.010 A 
ATOM     39  C   UNL     1      -7.009  -5.091  -4.352  1.00  0.00     0.010 A 
ATOM     40  C   UNL     1      -7.503  -6.256  -4.906  1.00  0.00    -0.014 A 
BRANCH  40  41
ATOM     41  C   UNL     1      -8.660  -6.829  -4.260  1.00  0.00     0.031 A 
ATOM     42  C   UNL     1      -8.388  -8.152  -3.672  1.00  0.00     0.074 A 
ATOM     43  C   UNL     1      -9.803  -6.136  -4.076  1.00  0.00     0.049 A 
ATOM     44  N   UNL     1      -8.703  -9.292  -4.184  1.00  0.00    -0.248 NA
ATOM     45  C   UNL     1      -7.503  -8.245  -2.500  1.00  0.00     0.031 C 
ATOM     46  C   UNL     1     -10.051  -4.706  -4.313  1.00  0.00     0.029 A 
ATOM     47  N   UNL     1     -10.988  -6.564  -3.563  1.00  0.00    -0.354 N 
ATOM     48  C   UNL     1      -8.296 -10.235  -3.252  1.00  0.00     0.074 A 
ATOM     49  C   UNL     1      -7.372  -9.569  -2.373  1.00  0.00     0.031 C 
ATOM     50  C   UNL     1     -11.224  -4.345  -3.745  1.00  0.00     0.029 A 
ATOM     51  C   UNL     1     -11.892  -5.545  -3.282  1.00  0.00     0.049 A 
ATOM     52  H   UNL     1     -11.189  -7.515  -3.404  1.00  0.00     0.167 HD
ATOM     53  C   UNL     1      -9.024 -11.374  -3.092  1.00  0.00     0.037 A 
ATOM     54  C   UNL     1     -13.115  -5.701  -2.721  1.00  0.00     0.037 A 
ATOM     55  C   UNL     1     -10.001 -11.506  -4.143  1.00  0.00     0.049 A 
ATOM     56  C   UNL     1     -13.530  -7.098  -2.989  1.00  0.00     0.074 A 
ATOM     57  C   UNL     1     -10.008 -11.931  -5.453  1.00  0.00     0.029 A 
ATOM     58  N   UNL     1     -11.107 -10.716  -3.966  1.00  0.00    -0.354 N 
ATOM     59  N   UNL     1     -13.770  -7.554  -4.188  1.00  0.00    -0.248 NA
ATOM     60  C   UNL     1     -13.325  -8.111  -1.959  1.00  0.00     0.031 C 
ATOM     61  C   UNL     1     -11.106 -11.272  -6.087  1.00  0.00     0.029 A 
ATOM     62  C   UNL     1     -11.774 -10.499  -5.142  1.00  0.00     0.049 A 
ATOM     63  H   UNL     1     -11.389 -10.348  -3.097  1.00  0.00     0.167 HD
ATOM     64  C   UNL     1     -13.334  -8.863  -4.144  1.00  0.00     0.074 A 
ATOM     65  C   UNL     1     -13.239  -9.198  -2.729  1.00  0.00     0.031 C 
ATOM     66  C   UNL     1     -12.761  -9.447  -5.232  1.00  0.00     0.037 A 
BRANCH  53  67
ATOM     67  C   UNL     1      -9.198 -12.095  -1.783  1.00  0.00     0.064 A 
ATOM     68  C   UNL     1      -9.732 -13.397  -1.778  1.00  0.00     0.173 A 
ATOM     69  C   UNL     1      -9.124 -11.459  -0.525  1.00  0.00     0.173 A 
ATOM     70  F   UNL     1      -9.897 -14.069  -2.927  1.00  0.00    -0.203 F 
ATOM     71  C   UNL     1     -10.173 -14.007  -0.600  1.00  0.00     0.198 A 
ATOM     72  C   UNL     1      -9.511 -12.091   0.654  1.00  0.00     0.198 A 
ATOM     73  F   UNL     1      -8.785 -10.170  -0.403  1.00  0.00    -0.203 F 
ATOM     74  F   UNL     1     -10.761 -15.210  -0.652  1.00  0.00    -0.200 F 
ATOM     75  C   UNL     1     -10.054 -13.357   0.616  1.00  0.00     0.200 A 
ATOM     76  F   UNL     1      -9.419 -11.429   1.817  1.00  0.00    -0.200 F 
ATOM     77  F   UNL     1     -10.505 -13.926   1.741  1.00  0.00    -0.200 F 
ENDBRANCH  53  67
BRANCH  54  78
ATOM     78  C   UNL     1     -13.780  -4.873  -1.689  1.00  0.00     0.064 A 
ATOM     79  C   UNL     1     -15.142  -5.064  -1.401  1.00  0.00     0.173 A 
ATOM     80  C   UNL     1     -13.029  -4.155  -0.740  1.00  0.00     0.173 A 
ATOM     81  F   UNL     1     -15.918  -5.758  -2.246  1.00  0.00    -0.203 F 
ATOM     82  C   UNL     1     -15.704  -4.630  -0.197  1.00  0.00     0.198 A 
ATOM     83  C   UNL     1     -13.593  -3.720   0.462  1.00  0.00     0.198 A 
ATOM     84  F   UNL     1     -11.714  -3.960  -0.912  1.00  0.00    -0.203 F 
ATOM     85  F   UNL     1     -16.984  -4.913   0.084  1.00  0.00    -0.200 F 
ATOM     86  C   UNL     1     -14.923  -3.980   0.744  1.00  0.00     0.200 A 
ATOM     87  F   UNL     1     -12.821  -3.122   1.380  1.00  0.00    -0.200 F 
ATOM     88  F   UNL     1     -15.436  -3.647   1.936  1.00  0.00    -0.200 F 
ENDBRANCH  54  78
BRANCH  66  89
ATOM     89  C   UNL     1     -13.077  -8.872  -6.577  1.00  0.00     0.064 A 
ATOM     90  C   UNL     1     -12.632  -7.625  -7.042  1.00  0.00     0.173 A 
ATOM     91  C   UNL     1     -13.811  -9.670  -7.464  1.00  0.00     0.173 A 
ATOM     92  F   UNL     1     -11.878  -6.830  -6.272  1.00  0.00    -0.203 F 
ATOM     93  C   UNL     1     -12.928  -7.193  -8.336  1.00  0.00     0.198 A 
ATOM     94  C   UNL     1     -14.077  -9.252  -8.762  1.00  0.00     0.198 A 
ATOM     95  F   UNL     1     -14.237 -10.883  -7.077  1.00  0.00    -0.203 F 
ATOM     96  F   UNL     1     -12.500  -5.994  -8.761  1.00  0.00    -0.200 F 
ATOM     97  C   UNL     1     -13.642  -8.011  -9.197  1.00  0.00     0.200 A 
ATOM     98  F   UNL     1     -14.739 -10.064  -9.599  1.00  0.00    -0.200 F 
ATOM     99  F   UNL     1     -13.895  -7.614 -10.452  1.00  0.00    -0.200 F 
ENDBRANCH  66  89
ENDBRANCH  40  41
ENDBRANCH  32  35
ENDBRANCH  30  31
ENDBRANCH   1  30
TORSDOF 14
