REMARK SMILES COc1ccc(C(=O)/C=C/c2c(F)cccc2F)cc1CC(=O)NCCCNC(=O)c1ccc(-c2c3nc(c(-c4c(F)c(F)c(F)c(F)c4F)c4ccc([nH]4)c(-c4c(F)c(F)c(F)c(F)c4F)c4nc(c(-c5c(F)c(F)c(F)c(F)c5F)c5ccc2[nH]5)C=C4)C=C3)cc1
REMARK SMILES IDX 25 1 24 2 22 3 23 4 21 6 20 7 3 8 4 9 5 10 19 11 6 12 2 13
REMARK SMILES IDX 1 14 7 15 8 16 9 17 10 18 11 19 12 20 17 21 13 22 14 23
REMARK SMILES IDX 16 24 18 25 15 26 26 27 27 28 28 29 29 30 30 32 31 33 32 34
REMARK SMILES IDX 93 35 33 36 92 37 34 38 35 39 36 40 86 41 37 42 91 43 85 44
REMARK SMILES IDX 87 45 38 46 90 47 84 48 83 49 39 51 71 52 51 53 70 54 52 55
REMARK SMILES IDX 55 56 69 57 88 58 53 59 54 60 68 62 89 63 56 64 40 65 41 66
REMARK SMILES IDX 49 67 42 68 43 69 47 70 50 71 44 72 45 73 48 74 46 75 72 76
REMARK SMILES IDX 73 77 81 78 74 79 75 80 79 81 82 82 76 83 77 84 80 85 78 86
REMARK SMILES IDX 57 87 58 88 66 89 59 90 60 91 64 92 67 93 61 94 62 95 65 96
REMARK SMILES IDX 63 97
REMARK H PARENT 24 5 28 31 87 50 55 61
REMARK Flexibility Score: inf
ROOT
ATOM      1  C   UNL     1       2.838   2.899  -0.525  1.00  0.00     0.117 C 
ENDROOT
BRANCH   1   2
ATOM      2  N   UNL     1       4.085   2.477   0.085  1.00  0.00    -0.356 N 
ATOM      3  C   UNL     1       4.291   1.446   0.953  1.00  0.00     0.224 C 
ATOM      4  O   UNL     1       5.420   1.264   1.408  1.00  0.00    -0.275 OA
ATOM      5  H   UNL     1       4.882   3.001  -0.159  1.00  0.00     0.163 HD
BRANCH   3   6
ATOM      6  C   UNL     1       3.135   0.532   1.309  1.00  0.00     0.139 C 
BRANCH   6   7
ATOM      7  C   UNL     1       2.113   1.144   2.240  1.00  0.00     0.004 A 
ATOM      8  C   UNL     1       0.735   1.212   1.983  1.00  0.00     0.122 A 
ATOM      9  C   UNL     1      -0.120   1.798   2.925  1.00  0.00     0.047 A 
ATOM     10  C   UNL     1       0.372   2.298   4.135  1.00  0.00     0.016 A 
ATOM     11  C   UNL     1       2.594   1.691   3.452  1.00  0.00     0.020 A 
ATOM     12  C   UNL     1       1.740   2.252   4.411  1.00  0.00     0.022 A 
BRANCH   8  13
ATOM     13  O   UNL     1       0.135   0.919   0.789  1.00  0.00    -0.496 OA
ATOM     14  C   UNL     1       0.300  -0.408   0.303  1.00  0.00     0.278 C 
ENDBRANCH   8  13
BRANCH  12  15
ATOM     15  C   UNL     1       2.231   2.886   5.674  1.00  0.00     0.185 C 
ATOM     16  O   UNL     1       1.490   3.627   6.317  1.00  0.00    -0.289 OA
BRANCH  15  17
ATOM     17  C   UNL     1       3.635   2.713   6.137  1.00  0.00     0.053 C 
ATOM     18  C   UNL     1       4.316   1.561   6.068  1.00  0.00     0.018 C 
BRANCH  18  19
ATOM     19  C   UNL     1       5.728   1.460   6.441  1.00  0.00     0.046 A 
ATOM     20  C   UNL     1       6.733   1.806   5.532  1.00  0.00     0.133 A 
ATOM     21  C   UNL     1       6.112   0.972   7.689  1.00  0.00     0.133 A 
ATOM     22  F   UNL     1       6.409   2.289   4.323  1.00  0.00    -0.206 F 
ATOM     23  C   UNL     1       8.082   1.647   5.845  1.00  0.00     0.040 A 
ATOM     24  C   UNL     1       7.458   0.815   8.021  1.00  0.00     0.040 A 
ATOM     25  F   UNL     1       5.183   0.628   8.594  1.00  0.00    -0.206 F 
ATOM     26  C   UNL     1       8.447   1.145   7.094  1.00  0.00     0.006 A 
ENDBRANCH  18  19
ENDBRANCH  15  17
ENDBRANCH  12  15
ENDBRANCH   6   7
ENDBRANCH   3   6
ENDBRANCH   1   2
BRANCH   1  27
ATOM     27  C   UNL     1       2.239   4.116   0.173  1.00  0.00     0.042 C 
BRANCH  27  28
ATOM     28  C   UNL     1       3.069   5.386   0.021  1.00  0.00     0.118 C 
BRANCH  28  29
ATOM     29  N   UNL     1       3.219   5.786  -1.370  1.00  0.00    -0.352 N 
ATOM     30  C   UNL     1       2.985   6.987  -1.984  1.00  0.00     0.251 C 
ATOM     31  H   UNL     1       3.543   5.075  -1.968  1.00  0.00     0.163 HD
ATOM     32  O   UNL     1       3.000   7.041  -3.211  1.00  0.00    -0.269 OA
BRANCH  30  33
ATOM     33  C   UNL     1       2.713   8.212  -1.202  1.00  0.00     0.039 A 
ATOM     34  C   UNL     1       1.801   9.136  -1.722  1.00  0.00     0.014 A 
ATOM     35  C   UNL     1       3.394   8.500  -0.015  1.00  0.00     0.014 A 
ATOM     36  C   UNL     1       1.552  10.329  -1.043  1.00  0.00     0.010 A 
ATOM     37  C   UNL     1       3.095   9.660   0.698  1.00  0.00     0.010 A 
ATOM     38  C   UNL     1       2.185  10.593   0.182  1.00  0.00    -0.014 A 
BRANCH  38  39
ATOM     39  C   UNL     1       1.911  11.854   0.915  1.00  0.00     0.031 A 
ATOM     40  C   UNL     1       2.988  12.890   1.077  1.00  0.00     0.074 A 
ATOM     41  C   UNL     1       0.695  12.051   1.459  1.00  0.00     0.049 A 
ATOM     42  N   UNL     1       2.936  14.050   1.683  1.00  0.00    -0.248 NA
ATOM     43  C   UNL     1       4.304  12.572   0.503  1.00  0.00     0.031 C 
ATOM     44  C   UNL     1      -0.413  11.097   1.416  1.00  0.00     0.029 A 
ATOM     45  N   UNL     1       0.190  13.118   2.156  1.00  0.00    -0.354 N 
ATOM     46  C   UNL     1       4.211  14.590   1.575  1.00  0.00     0.074 A 
ATOM     47  C   UNL     1       5.027  13.614   0.888  1.00  0.00     0.031 C 
ATOM     48  C   UNL     1      -1.477  11.632   2.035  1.00  0.00     0.029 A 
ATOM     49  C   UNL     1      -1.118  12.955   2.538  1.00  0.00     0.049 A 
ATOM     50  H   UNL     1       0.715  13.925   2.363  1.00  0.00     0.167 HD
ATOM     51  C   UNL     1       4.653  15.801   1.992  1.00  0.00     0.037 A 
ATOM     52  C   UNL     1      -1.938  13.783   3.212  1.00  0.00     0.037 A 
ATOM     53  C   UNL     1       3.831  16.782   2.650  1.00  0.00     0.049 A 
ATOM     54  C   UNL     1      -1.431  15.135   3.632  1.00  0.00     0.074 A 
ATOM     55  C   UNL     1       4.171  18.059   3.064  1.00  0.00     0.029 A 
ATOM     56  N   UNL     1       2.499  16.594   2.989  1.00  0.00    -0.354 N 
ATOM     57  N   UNL     1      -0.244  15.664   3.463  1.00  0.00    -0.248 NA
ATOM     58  C   UNL     1      -2.386  16.012   4.323  1.00  0.00     0.031 C 
ATOM     59  C   UNL     1       3.054  18.631   3.682  1.00  0.00     0.029 A 
ATOM     60  C   UNL     1       2.006  17.728   3.616  1.00  0.00     0.049 A 
ATOM     61  H   UNL     1       1.981  15.777   2.810  1.00  0.00     0.167 HD
ATOM     62  C   UNL     1      -0.315  16.941   4.000  1.00  0.00     0.074 A 
ATOM     63  C   UNL     1      -1.669  17.114   4.486  1.00  0.00     0.031 C 
ATOM     64  C   UNL     1       0.653  17.886   4.084  1.00  0.00     0.037 A 
BRANCH  51  65
ATOM     65  C   UNL     1       6.095  16.135   1.741  1.00  0.00     0.064 A 
ATOM     66  C   UNL     1       6.573  16.398   0.448  1.00  0.00     0.173 A 
ATOM     67  C   UNL     1       7.002  16.226   2.807  1.00  0.00     0.173 A 
ATOM     68  F   UNL     1       5.749  16.312  -0.607  1.00  0.00    -0.203 F 
ATOM     69  C   UNL     1       7.912  16.713   0.229  1.00  0.00     0.198 A 
ATOM     70  C   UNL     1       8.334  16.569   2.588  1.00  0.00     0.198 A 
ATOM     71  F   UNL     1       6.596  15.990   4.064  1.00  0.00    -0.203 F 
ATOM     72  F   UNL     1       8.355  16.915  -1.019  1.00  0.00    -0.200 F 
ATOM     73  C   UNL     1       8.789  16.805   1.299  1.00  0.00     0.200 A 
ATOM     74  F   UNL     1       9.179  16.669   3.623  1.00  0.00    -0.200 F 
ATOM     75  F   UNL     1      10.076  17.114   1.087  1.00  0.00    -0.200 F 
ENDBRANCH  51  65
BRANCH  52  76
ATOM     76  C   UNL     1      -3.338  13.373   3.487  1.00  0.00     0.064 A 
ATOM     77  C   UNL     1      -4.407  13.974   2.809  1.00  0.00     0.173 A 
ATOM     78  C   UNL     1      -3.635  12.374   4.424  1.00  0.00     0.173 A 
ATOM     79  F   UNL     1      -4.172  14.948   1.918  1.00  0.00    -0.203 F 
ATOM     80  C   UNL     1      -5.724  13.605   3.073  1.00  0.00     0.198 A 
ATOM     81  C   UNL     1      -4.951  11.988   4.669  1.00  0.00     0.198 A 
ATOM     82  F   UNL     1      -2.646  11.765   5.094  1.00  0.00    -0.203 F 
ATOM     83  F   UNL     1      -6.731  14.225   2.442  1.00  0.00    -0.200 F 
ATOM     84  C   UNL     1      -5.995  12.608   3.999  1.00  0.00     0.200 A 
ATOM     85  F   UNL     1      -5.209  11.015   5.554  1.00  0.00    -0.200 F 
ATOM     86  F   UNL     1      -7.262  12.251   4.249  1.00  0.00    -0.200 F 
ENDBRANCH  52  76
BRANCH  64  87
ATOM     87  C   UNL     1       0.270  19.203   4.692  1.00  0.00     0.064 A 
ATOM     88  C   UNL     1       0.041  19.338   6.069  1.00  0.00     0.173 A 
ATOM     89  C   UNL     1       0.151  20.346   3.889  1.00  0.00     0.173 A 
ATOM     90  F   UNL     1       0.128  18.270   6.877  1.00  0.00    -0.203 F 
ATOM     91  C   UNL     1      -0.324  20.566   6.615  1.00  0.00     0.198 A 
ATOM     92  C   UNL     1      -0.187  21.578   4.442  1.00  0.00     0.198 A 
ATOM     93  F   UNL     1       0.367  20.270   2.567  1.00  0.00    -0.203 F 
ATOM     94  F   UNL     1      -0.589  20.662   7.925  1.00  0.00    -0.200 F 
ATOM     95  C   UNL     1      -0.433  21.685   5.802  1.00  0.00     0.200 A 
ATOM     96  F   UNL     1      -0.281  22.660   3.657  1.00  0.00    -0.200 F 
ATOM     97  F   UNL     1      -0.785  22.866   6.330  1.00  0.00    -0.200 F 
ENDBRANCH  64  87
ENDBRANCH  38  39
ENDBRANCH  30  33
ENDBRANCH  28  29
ENDBRANCH  27  28
ENDBRANCH   1  27
TORSDOF 15
