REMARK SMILES Cc1ccc(S(=O)(=O)N2CCN(C(=O)[C@H]3CCCC[C@@H]3C(=O)NCCCNC(=O)c3ccc(-c4c5nc(c(-c6c(F)c(F)c(F)c(F)c6F)c6ccc([nH]6)c(-c6c(F)c(F)c(F)c(F)c6F)c6nc(c(-c7c(F)c(F)c(F)c(F)c7F)c7ccc4[nH]7)C=C6)C=C5)cc3)CC2)cc1C
REMARK SMILES IDX 24 1 23 2 21 3 22 4 20 6 15 7 16 8 17 9 19 10 18 11 13 12
REMARK SMILES IDX 9 13 10 14 94 15 11 16 93 17 12 18 14 19 6 20 7 21 8 22 5 23
REMARK SMILES IDX 1 24 2 25 3 26 96 27 4 28 95 29 97 30 25 31 26 32 27 33
REMARK SMILES IDX 28 34 29 36 30 37 31 38 92 39 32 40 91 41 33 42 34 43 35 44
REMARK SMILES IDX 85 45 36 46 90 47 84 48 86 49 37 50 89 51 83 52 82 53 38 55
REMARK SMILES IDX 70 56 50 57 69 58 51 59 54 60 68 61 87 62 52 63 53 64 67 66
REMARK SMILES IDX 88 67 55 68 39 69 40 70 48 71 41 72 42 73 46 74 49 75 43 76
REMARK SMILES IDX 44 77 47 78 45 79 71 80 72 81 80 82 73 83 74 84 78 85 81 86
REMARK SMILES IDX 75 87 76 88 79 89 77 90 56 91 57 92 65 93 58 94 59 95 63 96
REMARK SMILES IDX 66 97 60 98 61 99 64 100 62 101
REMARK H PARENT 23 5 27 35 86 54 54 65
REMARK Flexibility Score: inf
ROOT
ATOM      1  C   UNL     1      -3.385   5.801  -2.940  1.00  0.00     0.117 C 
ENDROOT
BRANCH   1   2
ATOM      2  N   UNL     1      -3.626   4.476  -2.415  1.00  0.00    -0.356 N 
ATOM      3  C   UNL     1      -4.399   4.104  -1.364  1.00  0.00     0.223 C 
ATOM      4  O   UNL     1      -4.415   2.905  -1.082  1.00  0.00    -0.275 OA
ATOM      5  H   UNL     1      -3.166   3.743  -2.884  1.00  0.00     0.163 HD
BRANCH   3   6
ATOM      6  C   UNL     1      -5.131   5.158  -0.537  1.00  0.00     0.091 C 
ATOM      7  C   UNL     1      -6.024   4.457   0.539  1.00  0.00     0.091 C 
ATOM      8  C   UNL     1      -7.247   3.829  -0.174  1.00  0.00     0.014 C 
ATOM      9  C   UNL     1      -8.059   4.816  -0.996  1.00  0.00     0.001 C 
ATOM     10  C   UNL     1      -6.003   6.172  -1.319  1.00  0.00     0.014 C 
ATOM     11  C   UNL     1      -7.183   5.517  -2.014  1.00  0.00     0.001 C 
BRANCH   7  12
ATOM     12  C   UNL     1      -6.284   5.505   1.631  1.00  0.00     0.226 C 
ATOM     13  N   UNL     1      -9.489   5.363   4.398  1.00  0.00    -0.194 NA
ATOM     14  C   UNL     1      -9.101   6.628   3.754  1.00  0.00     0.124 C 
ATOM     15  C   UNL     1      -9.259   4.153   3.580  1.00  0.00     0.124 C 
ATOM     16  C   UNL     1      -7.646   6.567   3.307  1.00  0.00     0.136 C 
ATOM     17  C   UNL     1      -7.832   4.086   3.017  1.00  0.00     0.136 C 
ATOM     18  N   UNL     1      -7.340   5.371   2.503  1.00  0.00    -0.340 N 
ATOM     19  O   UNL     1      -5.532   6.481   1.744  1.00  0.00    -0.275 OA
BRANCH  13  20
ATOM     20  S   UNL     1      -9.883   5.299   6.026  1.00  0.00     0.243 S 
ATOM     21  O   UNL     1     -10.476   4.008   6.292  1.00  0.00    -0.207 OA
ATOM     22  O   UNL     1     -10.583   6.531   6.337  1.00  0.00    -0.207 OA
BRANCH  20  23
ATOM     23  C   UNL     1      -8.356   5.350   6.942  1.00  0.00     0.082 A 
ATOM     24  C   UNL     1      -4.665   5.393   9.187  1.00  0.00     0.044 C 
ATOM     25  C   UNL     1      -5.969   5.410   8.441  1.00  0.00    -0.048 A 
ATOM     26  C   UNL     1      -5.968   4.992   7.110  1.00  0.00     0.005 A 
ATOM     27  C   UNL     1      -7.187   5.806   9.031  1.00  0.00    -0.047 A 
ATOM     28  C   UNL     1      -7.152   4.957   6.383  1.00  0.00     0.022 A 
ATOM     29  C   UNL     1      -8.373   5.787   8.266  1.00  0.00     0.025 A 
ATOM     30  C   UNL     1      -7.289   6.244  10.464  1.00  0.00     0.044 C 
ENDBRANCH  20  23
ENDBRANCH  13  20
ENDBRANCH   7  12
ENDBRANCH   3   6
ENDBRANCH   1   2
BRANCH   1  31
ATOM     31  C   UNL     1      -1.983   5.997  -3.467  1.00  0.00     0.042 C 
BRANCH  31  32
ATOM     32  C   UNL     1      -1.560   4.983  -4.508  1.00  0.00     0.118 C 
BRANCH  32  33
ATOM     33  N   UNL     1      -2.333   5.055  -5.739  1.00  0.00    -0.352 N 
ATOM     34  C   UNL     1      -1.937   5.403  -7.009  1.00  0.00     0.251 C 
ATOM     35  H   UNL     1      -3.284   4.819  -5.649  1.00  0.00     0.163 HD
ATOM     36  O   UNL     1      -2.774   5.545  -7.895  1.00  0.00    -0.269 OA
BRANCH  34  37
ATOM     37  C   UNL     1      -0.507   5.648  -7.297  1.00  0.00     0.039 A 
ATOM     38  C   UNL     1      -0.155   6.719  -8.120  1.00  0.00     0.014 A 
ATOM     39  C   UNL     1       0.488   4.843  -6.741  1.00  0.00     0.014 A 
ATOM     40  C   UNL     1       1.193   7.022  -8.318  1.00  0.00     0.010 A 
ATOM     41  C   UNL     1       1.819   5.232  -6.820  1.00  0.00     0.010 A 
ATOM     42  C   UNL     1       2.191   6.309  -7.633  1.00  0.00    -0.014 A 
BRANCH  42  43
ATOM     43  C   UNL     1       3.629   6.649  -7.785  1.00  0.00     0.031 A 
ATOM     44  C   UNL     1       4.594   5.619  -8.312  1.00  0.00     0.074 A 
ATOM     45  C   UNL     1       4.076   7.862  -7.404  1.00  0.00     0.049 A 
ATOM     46  N   UNL     1       5.889   5.709  -8.485  1.00  0.00    -0.248 NA
ATOM     47  C   UNL     1       4.038   4.301  -8.658  1.00  0.00     0.031 C 
ATOM     48  C   UNL     1       3.254   8.923  -6.819  1.00  0.00     0.029 A 
ATOM     49  N   UNL     1       5.335   8.407  -7.451  1.00  0.00    -0.354 N 
ATOM     50  C   UNL     1       6.295   4.462  -8.942  1.00  0.00     0.074 A 
ATOM     51  C   UNL     1       5.129   3.609  -8.946  1.00  0.00     0.031 C 
ATOM     52  C   UNL     1       4.020  10.003  -6.601  1.00  0.00     0.029 A 
ATOM     53  C   UNL     1       5.394   9.699  -6.988  1.00  0.00     0.049 A 
ATOM     54  H   UNL     1       6.121   7.919  -7.785  1.00  0.00     0.167 HD
ATOM     55  C   UNL     1       7.524   4.070  -9.355  1.00  0.00     0.037 A 
ATOM     56  C   UNL     1       6.439  10.541  -6.886  1.00  0.00     0.037 A 
ATOM     57  C   UNL     1       8.677   4.929  -9.376  1.00  0.00     0.049 A 
ATOM     58  C   UNL     1       7.796  10.081  -7.350  1.00  0.00     0.074 A 
ATOM     59  C   UNL     1       9.952   4.651  -9.834  1.00  0.00     0.029 A 
ATOM     60  N   UNL     1       8.694   6.237  -8.912  1.00  0.00    -0.354 N 
ATOM     61  N   UNL     1       8.151   8.926  -7.857  1.00  0.00    -0.248 NA
ATOM     62  C   UNL     1       8.895  11.049  -7.236  1.00  0.00     0.031 C 
ATOM     63  C   UNL     1      10.756   5.769  -9.591  1.00  0.00     0.029 A 
ATOM     64  C   UNL     1       9.966   6.769  -9.047  1.00  0.00     0.049 A 
ATOM     65  H   UNL     1       7.917   6.716  -8.542  1.00  0.00     0.167 HD
ATOM     66  C   UNL     1       9.503   9.037  -8.153  1.00  0.00     0.074 A 
ATOM     67  C   UNL     1       9.899  10.380  -7.785  1.00  0.00     0.031 C 
ATOM     68  C   UNL     1      10.342   8.111  -8.681  1.00  0.00     0.037 A 
BRANCH  55  69
ATOM     69  C   UNL     1       7.680   2.650  -9.823  1.00  0.00     0.064 A 
ATOM     70  C   UNL     1       7.067   2.186 -10.998  1.00  0.00     0.173 A 
ATOM     71  C   UNL     1       8.476   1.747  -9.102  1.00  0.00     0.173 A 
ATOM     72  F   UNL     1       6.284   3.002 -11.720  1.00  0.00    -0.203 F 
ATOM     73  C   UNL     1       7.217   0.865 -11.414  1.00  0.00     0.198 A 
ATOM     74  C   UNL     1       8.654   0.437  -9.541  1.00  0.00     0.198 A 
ATOM     75  F   UNL     1       9.089   2.136  -7.974  1.00  0.00    -0.203 F 
ATOM     76  F   UNL     1       6.573   0.431 -12.506  1.00  0.00    -0.200 F 
ATOM     77  C   UNL     1       8.017  -0.005 -10.690  1.00  0.00     0.200 A 
ATOM     78  F   UNL     1       9.441  -0.398  -8.848  1.00  0.00    -0.200 F 
ATOM     79  F   UNL     1       8.168  -1.274 -11.095  1.00  0.00    -0.200 F 
ENDBRANCH  55  69
BRANCH  56  80
ATOM     80  C   UNL     1       6.241  11.914  -6.348  1.00  0.00     0.064 A 
ATOM     81  C   UNL     1       6.388  13.041  -7.170  1.00  0.00     0.173 A 
ATOM     82  C   UNL     1       5.913  12.131  -5.002  1.00  0.00     0.173 A 
ATOM     83  F   UNL     1       6.720  12.888  -8.461  1.00  0.00    -0.203 F 
ATOM     84  C   UNL     1       6.241  14.330  -6.662  1.00  0.00     0.198 A 
ATOM     85  C   UNL     1       5.733  13.419  -4.502  1.00  0.00     0.198 A 
ATOM     86  F   UNL     1       5.753  11.089  -4.173  1.00  0.00    -0.203 F 
ATOM     87  F   UNL     1       6.441  15.389  -7.458  1.00  0.00    -0.200 F 
ATOM     88  C   UNL     1       5.908  14.518  -5.329  1.00  0.00     0.200 A 
ATOM     89  F   UNL     1       5.393  13.595  -3.217  1.00  0.00    -0.200 F 
ATOM     90  F   UNL     1       5.764  15.757  -4.840  1.00  0.00    -0.200 F 
ENDBRANCH  56  80
BRANCH  68  91
ATOM     91  C   UNL     1      11.762   8.533  -8.933  1.00  0.00     0.064 A 
ATOM     92  C   UNL     1      12.657   8.789  -7.883  1.00  0.00     0.173 A 
ATOM     93  C   UNL     1      12.242   8.652 -10.247  1.00  0.00     0.173 A 
ATOM     94  F   UNL     1      12.246   8.701  -6.609  1.00  0.00    -0.203 F 
ATOM     95  C   UNL     1      13.967   9.184  -8.140  1.00  0.00     0.198 A 
ATOM     96  C   UNL     1      13.563   9.009 -10.499  1.00  0.00     0.198 A 
ATOM     97  F   UNL     1      11.431   8.409 -11.288  1.00  0.00    -0.203 F 
ATOM     98  F   UNL     1      14.786   9.483  -7.122  1.00  0.00    -0.200 F 
ATOM     99  C   UNL     1      14.421   9.286  -9.447  1.00  0.00     0.200 A 
ATOM    100  F   UNL     1      14.004   9.089 -11.762  1.00  0.00    -0.200 F 
ATOM    101  F   UNL     1      15.684   9.661  -9.691  1.00  0.00    -0.200 F 
ENDBRANCH  68  91
ENDBRANCH  42  43
ENDBRANCH  34  37
ENDBRANCH  32  33
ENDBRANCH  31  32
ENDBRANCH   1  31
TORSDOF 13
