REMARK SMILES C[N@H+]1CCO[C@H](CNC(=O)N(CCC(=O)NCCCNC(=O)c2ccc(-c3c4nc(c(-c5c(F)c(F)c(F)c(F)c5F)c5ccc([nH]5)c(-c5c(F)c(F)c(F)c(F)c5F)c5nc(c(-c6c(F)c(F)c(F)c(F)c6F)c6ccc3[nH]6)C=C5)C=C4)cc2)C2CC2)C1
REMARK SMILES IDX 14 1 15 2 16 3 13 5 12 6 11 7 9 8 8 9 10 11 7 12 6 13 1 14
REMARK SMILES IDX 2 15 3 16 89 17 4 19 5 20 86 21 87 22 88 23 17 24 18 25
REMARK SMILES IDX 19 26 20 27 21 28 22 30 23 31 24 32 85 33 25 34 84 35 26 36
REMARK SMILES IDX 27 37 28 38 78 39 29 40 83 41 77 42 79 43 30 44 82 45 76 46
REMARK SMILES IDX 75 47 31 49 63 50 43 51 62 52 44 53 47 54 61 55 80 56 45 57
REMARK SMILES IDX 46 58 60 60 81 61 48 62 32 63 33 64 41 65 34 66 35 67 39 68
REMARK SMILES IDX 42 69 36 70 37 71 40 72 38 73 64 74 65 75 73 76 66 77 67 78
REMARK SMILES IDX 71 79 74 80 68 81 69 82 72 83 70 84 49 85 50 86 58 87 51 88
REMARK SMILES IDX 52 89 56 90 59 91 53 92 54 93 57 94 55 95
REMARK H PARENT 16 4 8 10 2 18 20 29 79 48 47 59
REMARK Flexibility Score: inf
ROOT
ATOM      1  C   UNL     1       4.462   0.968  -7.969  1.00  0.00     0.221 C 
ATOM      2  O   UNL     1       4.021   1.871  -8.684  1.00  0.00    -0.275 OA
ATOM      3  N   UNL     1       4.896  -0.165  -8.583  1.00  0.00    -0.356 N 
ATOM      4  H   UNL     1       4.793  -0.152  -9.562  1.00  0.00     0.163 HD
ENDROOT
BRANCH   1   5
ATOM      5  C   UNL     1       4.507   1.129  -6.466  1.00  0.00     0.121 C 
BRANCH   5   6
ATOM      6  C   UNL     1       3.089   1.233  -5.902  1.00  0.00     0.131 C 
BRANCH   6   7
ATOM      7  N   UNL     1       2.461  -0.084  -5.741  1.00  0.00    -0.321 N 
BRANCH   7   8
ATOM      8  C   UNL     1       2.851  -1.063  -4.861  1.00  0.00     0.317 C 
ATOM      9  N   UNL     1       3.615  -0.821  -3.777  1.00  0.00    -0.335 N 
ATOM     10  H   UNL     1       4.099  -1.622  -3.473  1.00  0.00     0.165 HD
ATOM     11  O   UNL     1       2.549  -2.252  -5.017  1.00  0.00    -0.249 OA
BRANCH   9  12
ATOM     12  C   UNL     1       3.894   0.343  -2.949  1.00  0.00     0.155 C 
BRANCH  12  13
ATOM     13  C   UNL     1       2.749   0.803  -2.013  1.00  0.00     0.192 C 
ATOM     14  C   UNL     1       0.658   0.082   0.243  1.00  0.00     0.332 C 
ATOM     15  N   UNL     1       0.391   0.379  -1.159  1.00  0.00    -0.333 N 
ATOM     16  C   UNL     1       0.155   1.815  -1.401  1.00  0.00     0.290 C 
ATOM     17  C   UNL     1       1.480  -0.084  -2.048  1.00  0.00     0.296 C 
ATOM     18  H   UNL     1      -0.462  -0.135  -1.382  1.00  0.00     0.348 HD
ATOM     19  C   UNL     1       1.433   2.671  -1.402  1.00  0.00     0.222 C 
ATOM     20  O   UNL     1       2.407   2.168  -2.331  1.00  0.00    -0.365 OA
ENDBRANCH  12  13
ENDBRANCH   9  12
ENDBRANCH   7   8
BRANCH   7  21
ATOM     21  C   UNL     1       1.595  -0.467  -6.846  1.00  0.00     0.087 C 
ATOM     22  C   UNL     1       0.243  -1.091  -6.627  1.00  0.00     0.027 C 
ATOM     23  C   UNL     1       0.342   0.293  -7.189  1.00  0.00     0.027 C 
ENDBRANCH   7  21
ENDBRANCH   6   7
ENDBRANCH   5   6
ENDBRANCH   1   5
BRANCH   3  24
ATOM     24  C   UNL     1       5.482  -1.393  -8.067  1.00  0.00     0.117 C 
BRANCH  24  25
ATOM     25  C   UNL     1       4.488  -2.544  -7.908  1.00  0.00     0.042 C 
BRANCH  25  26
ATOM     26  C   UNL     1       3.606  -2.848  -9.120  1.00  0.00     0.118 C 
BRANCH  26  27
ATOM     27  N   UNL     1       4.225  -3.789 -10.038  1.00  0.00    -0.352 N 
ATOM     28  C   UNL     1       3.799  -5.038 -10.424  1.00  0.00     0.251 C 
ATOM     29  H   UNL     1       5.072  -3.489 -10.441  1.00  0.00     0.163 HD
ATOM     30  O   UNL     1       4.556  -5.767 -11.058  1.00  0.00    -0.269 OA
BRANCH  28  31
ATOM     31  C   UNL     1       2.440  -5.529 -10.085  1.00  0.00     0.039 A 
ATOM     32  C   UNL     1       2.304  -6.832  -9.593  1.00  0.00     0.014 A 
ATOM     33  C   UNL     1       1.298  -4.760 -10.330  1.00  0.00     0.014 A 
ATOM     34  C   UNL     1       1.035  -7.351  -9.312  1.00  0.00     0.010 A 
ATOM     35  C   UNL     1       0.031  -5.267 -10.019  1.00  0.00     0.010 A 
ATOM     36  C   UNL     1      -0.113  -6.569  -9.512  1.00  0.00    -0.014 A 
BRANCH  36  37
ATOM     37  C   UNL     1      -1.466  -7.104  -9.200  1.00  0.00     0.031 A 
ATOM     38  C   UNL     1      -2.428  -7.448 -10.303  1.00  0.00     0.074 A 
ATOM     39  C   UNL     1      -1.850  -7.248  -7.917  1.00  0.00     0.049 A 
ATOM     40  N   UNL     1      -3.669  -7.862 -10.223  1.00  0.00    -0.248 NA
ATOM     41  C   UNL     1      -1.933  -7.296 -11.679  1.00  0.00     0.031 C 
ATOM     42  C   UNL     1      -1.024  -6.943  -6.750  1.00  0.00     0.029 A 
ATOM     43  N   UNL     1      -3.042  -7.674  -7.381  1.00  0.00    -0.354 N 
ATOM     44  C   UNL     1      -4.106  -8.012 -11.532  1.00  0.00     0.074 A 
ATOM     45  C   UNL     1      -3.007  -7.616 -12.389  1.00  0.00     0.031 C 
ATOM     46  C   UNL     1      -1.731  -7.191  -5.636  1.00  0.00     0.029 A 
ATOM     47  C   UNL     1      -3.071  -7.640  -6.009  1.00  0.00     0.049 A 
ATOM     48  H   UNL     1      -3.802  -7.975  -7.929  1.00  0.00     0.167 HD
ATOM     49  C   UNL     1      -5.307  -8.450 -11.979  1.00  0.00     0.037 A 
ATOM     50  C   UNL     1      -4.068  -7.918  -5.147  1.00  0.00     0.037 A 
ATOM     51  C   UNL     1      -6.396  -8.866 -11.133  1.00  0.00     0.049 A 
ATOM     52  C   UNL     1      -5.408  -8.359  -5.670  1.00  0.00     0.074 A 
ATOM     53  C   UNL     1      -7.624  -9.391 -11.502  1.00  0.00     0.029 A 
ATOM     54  N   UNL     1      -6.394  -8.795  -9.748  1.00  0.00    -0.354 N 
ATOM     55  N   UNL     1      -5.790  -8.549  -6.909  1.00  0.00    -0.248 NA
ATOM     56  C   UNL     1      -6.457  -8.620  -4.673  1.00  0.00     0.031 C 
ATOM     57  C   UNL     1      -8.380  -9.597 -10.343  1.00  0.00     0.029 A 
ATOM     58  C   UNL     1      -7.610  -9.237  -9.250  1.00  0.00     0.049 A 
ATOM     59  H   UNL     1      -5.640  -8.478  -9.200  1.00  0.00     0.167 HD
ATOM     60  C   UNL     1      -7.113  -8.966  -6.840  1.00  0.00     0.074 A 
ATOM     61  C   UNL     1      -7.466  -9.015  -5.438  1.00  0.00     0.031 C 
ATOM     62  C   UNL     1      -7.956  -9.279  -7.853  1.00  0.00     0.037 A 
BRANCH  49  63
ATOM     63  C   UNL     1      -5.519  -8.506 -13.462  1.00  0.00     0.064 A 
ATOM     64  C   UNL     1      -4.921  -9.499 -14.251  1.00  0.00     0.173 A 
ATOM     65  C   UNL     1      -6.378  -7.592 -14.092  1.00  0.00     0.173 A 
ATOM     66  F   UNL     1      -4.089 -10.392 -13.695  1.00  0.00    -0.203 F 
ATOM     67  C   UNL     1      -5.161  -9.565 -15.621  1.00  0.00     0.198 A 
ATOM     68  C   UNL     1      -6.633  -7.675 -15.458  1.00  0.00     0.198 A 
ATOM     69  F   UNL     1      -6.981  -6.629 -13.379  1.00  0.00    -0.203 F 
ATOM     70  F   UNL     1      -4.556 -10.503 -16.362  1.00  0.00    -0.200 F 
ATOM     71  C   UNL     1      -6.021  -8.657 -16.222  1.00  0.00     0.200 A 
ATOM     72  F   UNL     1      -7.473  -6.805 -16.035  1.00  0.00    -0.200 F 
ATOM     73  F   UNL     1      -6.258  -8.728 -17.539  1.00  0.00    -0.200 F 
ENDBRANCH  49  63
BRANCH  50  74
ATOM     74  C   UNL     1      -3.838  -7.781  -3.687  1.00  0.00     0.064 A 
ATOM     75  C   UNL     1      -3.742  -8.912  -2.865  1.00  0.00     0.173 A 
ATOM     76  C   UNL     1      -3.713  -6.521  -3.086  1.00  0.00     0.173 A 
ATOM     77  F   UNL     1      -3.885 -10.137  -3.393  1.00  0.00    -0.203 F 
ATOM     78  C   UNL     1      -3.538  -8.787  -1.493  1.00  0.00     0.198 A 
ATOM     79  C   UNL     1      -3.487  -6.397  -1.717  1.00  0.00     0.198 A 
ATOM     80  F   UNL     1      -3.806  -5.410  -3.831  1.00  0.00    -0.203 F 
ATOM     81  F   UNL     1      -3.487  -9.882  -0.723  1.00  0.00    -0.200 F 
ATOM     82  C   UNL     1      -3.404  -7.530  -0.921  1.00  0.00     0.200 A 
ATOM     83  F   UNL     1      -3.353  -5.183  -1.168  1.00  0.00    -0.200 F 
ATOM     84  F   UNL     1      -3.205  -7.411   0.398  1.00  0.00    -0.200 F 
ENDBRANCH  50  74
BRANCH  62  85
ATOM     85  C   UNL     1      -9.343  -9.717  -7.487  1.00  0.00     0.064 A 
ATOM     86  C   UNL     1     -10.309  -8.796  -7.055  1.00  0.00     0.173 A 
ATOM     87  C   UNL     1      -9.724 -11.061  -7.614  1.00  0.00     0.173 A 
ATOM     88  F   UNL     1      -9.987  -7.503  -6.902  1.00  0.00    -0.203 F 
ATOM     89  C   UNL     1     -11.604  -9.209  -6.750  1.00  0.00     0.198 A 
ATOM     90  C   UNL     1     -11.026 -11.466  -7.330  1.00  0.00     0.198 A 
ATOM     91  F   UNL     1      -8.838 -11.979  -8.027  1.00  0.00    -0.203 F 
ATOM     92  F   UNL     1     -12.502  -8.318  -6.308  1.00  0.00    -0.200 F 
ATOM     93  C   UNL     1     -11.963 -10.541  -6.895  1.00  0.00     0.200 A 
ATOM     94  F   UNL     1     -11.374 -12.751  -7.479  1.00  0.00    -0.200 F 
ATOM     95  F   UNL     1     -13.212 -10.934  -6.609  1.00  0.00    -0.200 F 
ENDBRANCH  62  85
ENDBRANCH  36  37
ENDBRANCH  28  31
ENDBRANCH  26  27
ENDBRANCH  25  26
ENDBRANCH  24  25
ENDBRANCH   3  24
TORSDOF 16
