REMARK SMILES O=C(C[C@]12CSc3[nH]c(=O)sc3[C@H]1c1cc(Cl)ccc1OC2=O)NCCCNC(=O)c1ccc(-c2c3nc(c(-c4c(F)c(F)c(F)c(F)c4F)c4ccc([nH]4)c(-c4c(F)c(F)c(F)c(F)c4F)c4nc(c(-c5c(F)c(F)c(F)c(F)c5F)c5ccc2[nH]5)C=C4)C=C3)cc1
REMARK SMILES IDX 26 1 25 2 24 3 1 4 2 5 3 7 4 8 5 9 13 10 22 11 6 12 12 13
REMARK SMILES IDX 14 14 21 15 23 16 7 17 11 18 15 19 20 20 8 21 9 22 16 23
REMARK SMILES IDX 19 24 10 26 17 27 18 28 27 29 28 30 29 31 30 33 31 34 32 35
REMARK SMILES IDX 93 36 33 37 92 38 34 39 35 40 36 41 86 42 37 43 91 44 85 45
REMARK SMILES IDX 87 46 38 47 90 48 84 49 83 50 39 52 71 53 51 54 70 55 52 56
REMARK SMILES IDX 55 57 69 58 88 59 53 60 54 61 68 63 89 64 56 65 40 66 41 67
REMARK SMILES IDX 49 68 42 69 43 70 47 71 50 72 44 73 45 74 48 75 46 76 72 77
REMARK SMILES IDX 73 78 81 79 74 80 75 81 79 82 82 83 76 84 77 85 80 86 78 87
REMARK SMILES IDX 57 88 58 89 66 90 59 91 60 92 64 93 67 94 61 95 62 96 65 97
REMARK SMILES IDX 63 98
REMARK H PARENT 24 6 8 25 28 32 87 51 55 62
REMARK Flexibility Score: inf
ROOT
ATOM      1  C   UNL     1       3.092   2.083   2.862  1.00  0.00     0.042 C 
ENDROOT
BRANCH   1   2
ATOM      2  C   UNL     1       2.720   1.588   1.470  1.00  0.00     0.117 C 
BRANCH   2   3
ATOM      3  N   UNL     1       3.447   0.372   1.057  1.00  0.00    -0.356 N 
ATOM      4  O   UNL     1       1.811  -1.132   1.530  1.00  0.00    -0.275 OA
ATOM      5  C   UNL     1       2.839  -0.864   0.913  1.00  0.00     0.221 C 
ATOM      6  H   UNL     1       4.412   0.443   0.875  1.00  0.00     0.163 HD
BRANCH   5   7
ATOM      7  C   UNL     1       3.478  -1.908  -0.094  1.00  0.00     0.120 C 
BRANCH   7   8
ATOM      8  C   UNL     1       4.108  -1.377  -1.455  1.00  0.00     0.098 C 
ATOM      9  C   UNL     1       5.635  -1.494  -1.223  1.00  0.00     0.097 C 
ATOM     10  C   UNL     1       3.289  -0.099  -1.795  1.00  0.00     0.085 C 
ATOM     11  C   UNL     1       4.119  -1.887  -2.953  1.00  0.00     0.319 C 
ATOM     12  S   UNL     1       6.358   0.037  -0.716  1.00  0.00    -0.106 SA
ATOM     13  C   UNL     1       4.228   1.018  -2.213  1.00  0.00     0.049 A 
ATOM     14  C   UNL     1       1.888  -0.737  -2.246  1.00  0.00     0.006 A 
ATOM     15  O   UNL     1       3.047  -2.526  -3.454  1.00  0.00    -0.426 OA
ATOM     16  O   UNL     1       4.995  -1.558  -3.759  1.00  0.00    -0.251 OA
ATOM     17  C   UNL     1       5.498   1.104  -1.738  1.00  0.00     0.090 A 
ATOM     18  S   UNL     1       3.722   2.632  -2.700  1.00  0.00    -0.077 S 
ATOM     19  C   UNL     1       0.746  -0.565  -1.418  1.00  0.00     0.028 A 
ATOM     20  C   UNL     1       1.902  -1.991  -2.908  1.00  0.00     0.134 A 
ATOM     21  N   UNL     1       6.081   2.325  -1.805  1.00  0.00    -0.307 N 
ATOM     22  C   UNL     1       5.285   3.335  -2.217  1.00  0.00     0.305 A 
ATOM     23  C   UNL     1      -0.174  -1.627  -1.192  1.00  0.00     0.041 A 
ATOM     24  C   UNL     1       0.909  -2.979  -2.818  1.00  0.00     0.049 A 
ATOM     25  H   UNL     1       7.026   2.468  -1.568  1.00  0.00     0.171 HD
ATOM     26  O   UNL     1       5.564   4.537  -2.191  1.00  0.00    -0.257 OA
ATOM     27  Cl  UNL     1      -1.307  -1.534   0.106  1.00  0.00    -0.084 Cl
ATOM     28  C   UNL     1      -0.095  -2.828  -1.889  1.00  0.00     0.024 A 
ENDBRANCH   7   8
ENDBRANCH   5   7
ENDBRANCH   2   3
ENDBRANCH   1   2
BRANCH   1  29
ATOM     29  C   UNL     1       4.602   2.185   3.057  1.00  0.00     0.118 C 
BRANCH  29  30
ATOM     30  N   UNL     1       5.236   3.232   2.279  1.00  0.00    -0.352 N 
ATOM     31  C   UNL     1       5.608   4.517   2.559  1.00  0.00     0.251 C 
ATOM     32  H   UNL     1       5.441   2.960   1.355  1.00  0.00     0.163 HD
ATOM     33  O   UNL     1       6.407   5.040   1.780  1.00  0.00    -0.269 OA
BRANCH  31  34
ATOM     34  C   UNL     1       5.036   5.334   3.659  1.00  0.00     0.039 A 
ATOM     35  C   UNL     1       4.222   4.850   4.685  1.00  0.00     0.014 A 
ATOM     36  C   UNL     1       5.262   6.720   3.566  1.00  0.00     0.014 A 
ATOM     37  C   UNL     1       3.529   5.726   5.501  1.00  0.00     0.010 A 
ATOM     38  C   UNL     1       4.592   7.602   4.397  1.00  0.00     0.010 A 
ATOM     39  C   UNL     1       3.673   7.097   5.312  1.00  0.00    -0.014 A 
BRANCH  39  40
ATOM     40  C   UNL     1       2.882   7.981   6.152  1.00  0.00     0.031 A 
ATOM     41  C   UNL     1       3.209   7.918   7.607  1.00  0.00     0.074 A 
ATOM     42  C   UNL     1       2.015   8.855   5.606  1.00  0.00     0.049 A 
ATOM     43  N   UNL     1       2.410   7.724   8.607  1.00  0.00    -0.248 NA
ATOM     44  C   UNL     1       4.634   7.965   7.984  1.00  0.00     0.031 C 
ATOM     45  C   UNL     1       1.794   9.141   4.185  1.00  0.00     0.029 A 
ATOM     46  N   UNL     1       1.217   9.765   6.222  1.00  0.00    -0.354 N 
ATOM     47  C   UNL     1       3.207   7.776   9.750  1.00  0.00     0.074 A 
ATOM     48  C   UNL     1       4.575   7.801   9.304  1.00  0.00     0.031 C 
ATOM     49  C   UNL     1       1.123  10.308   4.065  1.00  0.00     0.029 A 
ATOM     50  C   UNL     1       0.769  10.782   5.390  1.00  0.00     0.049 A 
ATOM     51  H   UNL     1       0.977   9.708   7.175  1.00  0.00     0.167 HD
ATOM     52  C   UNL     1       2.687   7.984  10.990  1.00  0.00     0.037 A 
ATOM     53  C   UNL     1       0.245  11.966   5.793  1.00  0.00     0.037 A 
ATOM     54  C   UNL     1       1.285   7.683  11.041  1.00  0.00     0.049 A 
ATOM     55  C   UNL     1      -0.184  11.798   7.207  1.00  0.00     0.074 A 
ATOM     56  C   UNL     1       0.549   6.526  10.885  1.00  0.00     0.029 A 
ATOM     57  N   UNL     1       0.390   8.717  10.925  1.00  0.00    -0.354 N 
ATOM     58  N   UNL     1      -1.184  11.043   7.573  1.00  0.00    -0.248 NA
ATOM     59  C   UNL     1       0.793  12.089   8.249  1.00  0.00     0.031 C 
ATOM     60  C   UNL     1      -0.630   6.931  10.197  1.00  0.00     0.029 A 
ATOM     61  C   UNL     1      -0.571   8.314  10.031  1.00  0.00     0.049 A 
ATOM     62  H   UNL     1       0.429   9.582  11.393  1.00  0.00     0.167 HD
ATOM     63  C   UNL     1      -0.756  10.431   8.742  1.00  0.00     0.074 A 
ATOM     64  C   UNL     1       0.439  11.168   9.149  1.00  0.00     0.031 C 
ATOM     65  C   UNL     1      -1.233   9.207   9.112  1.00  0.00     0.037 A 
BRANCH  52  66
ATOM     66  C   UNL     1       3.396   8.744  12.076  1.00  0.00     0.064 A 
ATOM     67  C   UNL     1       2.929   8.689  13.402  1.00  0.00     0.173 A 
ATOM     68  C   UNL     1       4.354   9.745  11.803  1.00  0.00     0.173 A 
ATOM     69  F   UNL     1       1.990   7.799  13.758  1.00  0.00    -0.203 F 
ATOM     70  C   UNL     1       3.361   9.599  14.371  1.00  0.00     0.198 A 
ATOM     71  C   UNL     1       4.821  10.616  12.783  1.00  0.00     0.198 A 
ATOM     72  F   UNL     1       4.788   9.984  10.558  1.00  0.00    -0.203 F 
ATOM     73  F   UNL     1       2.814   9.580  15.594  1.00  0.00    -0.200 F 
ATOM     74  C   UNL     1       4.306  10.561  14.060  1.00  0.00     0.200 A 
ATOM     75  F   UNL     1       5.719  11.555  12.455  1.00  0.00    -0.200 F 
ATOM     76  F   UNL     1       4.684  11.465  14.974  1.00  0.00    -0.200 F 
ENDBRANCH  52  66
BRANCH  53  77
ATOM     77  C   UNL     1       0.408  13.298   5.159  1.00  0.00     0.064 A 
ATOM     78  C   UNL     1      -0.404  14.382   5.532  1.00  0.00     0.173 A 
ATOM     79  C   UNL     1       1.531  13.608   4.364  1.00  0.00     0.173 A 
ATOM     80  F   UNL     1      -1.467  14.186   6.326  1.00  0.00    -0.203 F 
ATOM     81  C   UNL     1      -0.098  15.694   5.154  1.00  0.00     0.198 A 
ATOM     82  C   UNL     1       1.828  14.915   3.978  1.00  0.00     0.198 A 
ATOM     83  F   UNL     1       2.418  12.664   4.023  1.00  0.00    -0.203 F 
ATOM     84  F   UNL     1      -0.863  16.709   5.582  1.00  0.00    -0.200 F 
ATOM     85  C   UNL     1       1.022  15.961   4.384  1.00  0.00     0.200 A 
ATOM     86  F   UNL     1       2.935  15.160   3.262  1.00  0.00    -0.200 F 
ATOM     87  F   UNL     1       1.348  17.222   4.071  1.00  0.00    -0.200 F 
ENDBRANCH  53  77
BRANCH  65  88
ATOM     88  C   UNL     1      -2.375   8.632   8.323  1.00  0.00     0.064 A 
ATOM     89  C   UNL     1      -2.279   8.276   6.966  1.00  0.00     0.173 A 
ATOM     90  C   UNL     1      -3.541   8.260   9.004  1.00  0.00     0.173 A 
ATOM     91  F   UNL     1      -1.155   8.498   6.275  1.00  0.00    -0.203 F 
ATOM     92  C   UNL     1      -3.316   7.613   6.314  1.00  0.00     0.198 A 
ATOM     93  C   UNL     1      -4.561   7.564   8.360  1.00  0.00     0.198 A 
ATOM     94  F   UNL     1      -3.663   8.516  10.316  1.00  0.00    -0.203 F 
ATOM     95  F   UNL     1      -3.196   7.287   5.018  1.00  0.00    -0.200 F 
ATOM     96  C   UNL     1      -4.453   7.249   7.015  1.00  0.00     0.200 A 
ATOM     97  F   UNL     1      -5.635   7.164   9.055  1.00  0.00    -0.200 F 
ATOM     98  F   UNL     1      -5.429   6.564   6.403  1.00  0.00    -0.200 F 
ENDBRANCH  65  88
ENDBRANCH  39  40
ENDBRANCH  31  34
ENDBRANCH  29  30
ENDBRANCH   1  29
TORSDOF 11
