REMARK SMILES O=C(NCCCNC(=O)[C@@H]1C=C[C@@H](NC(=O)c2ccc3ncccc3c2)C1)c1ccc(-c2c3nc(c(-c4c(F)c(F)c(F)c(F)c4F)c4ccc([nH]4)c(-c4c(F)c(F)c(F)c(F)c4F)c4nc(c(-c5c(F)c(F)c(F)c(F)c5F)c5ccc2[nH]5)C=C4)C=C3)cc1
REMARK SMILES IDX 5 1 4 2 3 3 1 4 2 5 28 7 29 8 90 9 30 10 89 11 31 12 32 13
REMARK SMILES IDX 33 14 83 15 34 16 88 17 82 18 84 19 35 20 87 21 81 22 80 23
REMARK SMILES IDX 36 25 68 26 48 27 67 28 49 29 52 30 66 31 85 32 50 33 51 34
REMARK SMILES IDX 65 36 86 37 53 38 37 39 38 40 46 41 39 42 40 43 44 44 47 45
REMARK SMILES IDX 41 46 42 47 45 48 43 49 69 50 70 51 78 52 71 53 72 54 76 55
REMARK SMILES IDX 79 56 73 57 74 58 77 59 75 60 54 61 55 62 63 63 56 64 57 65
REMARK SMILES IDX 61 66 64 67 58 68 59 69 62 70 60 71 6 72 7 73 8 74 9 76
REMARK SMILES IDX 10 77 11 78 27 79 12 80 13 81 14 82 15 83 16 85 17 86 18 87
REMARK SMILES IDX 26 88 19 89 25 90 20 91 24 92 21 93 23 94 22 95
REMARK H PARENT 3 6 84 24 52 35 7 75 14 84
REMARK Flexibility Score: inf
ROOT
ATOM      1  C   UNL     1       4.881  -3.343   1.797  1.00  0.00     0.042 C 
ENDROOT
BRANCH   1   2
ATOM      2  C   UNL     1       5.672  -2.701   2.933  1.00  0.00     0.118 C 
BRANCH   2   3
ATOM      3  N   UNL     1       5.805  -1.258   2.779  1.00  0.00    -0.352 N 
ATOM      4  O   UNL     1       5.411   0.923   3.164  1.00  0.00    -0.269 OA
ATOM      5  C   UNL     1       5.355  -0.234   3.575  1.00  0.00     0.251 C 
ATOM      6  H   UNL     1       6.296  -0.971   1.975  1.00  0.00     0.163 HD
BRANCH   5   7
ATOM      7  C   UNL     1       4.782  -0.511   4.909  1.00  0.00     0.039 A 
ATOM      8  C   UNL     1       5.362  -1.452   5.762  1.00  0.00     0.014 A 
ATOM      9  C   UNL     1       3.657   0.207   5.327  1.00  0.00     0.014 A 
ATOM     10  C   UNL     1       4.728  -1.791   6.953  1.00  0.00     0.010 A 
ATOM     11  C   UNL     1       3.074  -0.069   6.568  1.00  0.00     0.010 A 
ATOM     12  C   UNL     1       3.579  -1.101   7.372  1.00  0.00    -0.014 A 
BRANCH  12  13
ATOM     13  C   UNL     1       2.942  -1.462   8.665  1.00  0.00     0.031 A 
ATOM     14  C   UNL     1       1.550  -2.031   8.710  1.00  0.00     0.074 A 
ATOM     15  C   UNL     1       3.641  -1.304   9.806  1.00  0.00     0.049 A 
ATOM     16  N   UNL     1       0.855  -2.437   9.745  1.00  0.00    -0.248 NA
ATOM     17  C   UNL     1       0.839  -2.150   7.429  1.00  0.00     0.031 C 
ATOM     18  C   UNL     1       4.995  -0.754   9.892  1.00  0.00     0.029 A 
ATOM     19  N   UNL     1       3.322  -1.607  11.104  1.00  0.00    -0.354 N 
ATOM     20  C   UNL     1      -0.377  -2.837   9.244  1.00  0.00     0.074 A 
ATOM     21  C   UNL     1      -0.348  -2.596   7.817  1.00  0.00     0.031 C 
ATOM     22  C   UNL     1       5.410  -0.808  11.165  1.00  0.00     0.029 A 
ATOM     23  C   UNL     1       4.333  -1.338  11.993  1.00  0.00     0.049 A 
ATOM     24  H   UNL     1       2.452  -1.982  11.373  1.00  0.00     0.167 HD
ATOM     25  C   UNL     1      -1.431  -3.366   9.912  1.00  0.00     0.037 A 
ATOM     26  C   UNL     1       4.385  -1.494  13.329  1.00  0.00     0.037 A 
ATOM     27  C   UNL     1      -1.448  -3.619  11.331  1.00  0.00     0.049 A 
ATOM     28  C   UNL     1       3.193  -2.058  14.047  1.00  0.00     0.074 A 
ATOM     29  C   UNL     1      -2.450  -4.194  12.094  1.00  0.00     0.029 A 
ATOM     30  N   UNL     1      -0.416  -3.302  12.204  1.00  0.00    -0.354 N 
ATOM     31  N   UNL     1       2.052  -2.478  13.557  1.00  0.00    -0.248 NA
ATOM     32  C   UNL     1       3.298  -2.171  15.508  1.00  0.00     0.031 C 
ATOM     33  C   UNL     1      -2.049  -4.172  13.435  1.00  0.00     0.029 A 
ATOM     34  C   UNL     1      -0.770  -3.644  13.501  1.00  0.00     0.049 A 
ATOM     35  H   UNL     1       0.441  -2.895  11.941  1.00  0.00     0.167 HD
ATOM     36  C   UNL     1       1.317  -2.937  14.641  1.00  0.00     0.074 A 
ATOM     37  C   UNL     1       2.147  -2.752  15.814  1.00  0.00     0.031 C 
ATOM     38  C   UNL     1       0.069  -3.465  14.660  1.00  0.00     0.037 A 
BRANCH  25  39
ATOM     39  C   UNL     1      -2.671  -3.681   9.120  1.00  0.00     0.064 A 
ATOM     40  C   UNL     1      -2.709  -4.723   8.182  1.00  0.00     0.173 A 
ATOM     41  C   UNL     1      -3.847  -2.942   9.324  1.00  0.00     0.173 A 
ATOM     42  F   UNL     1      -1.611  -5.455   7.939  1.00  0.00    -0.203 F 
ATOM     43  C   UNL     1      -3.866  -4.990   7.452  1.00  0.00     0.198 A 
ATOM     44  C   UNL     1      -5.011  -3.233   8.617  1.00  0.00     0.198 A 
ATOM     45  F   UNL     1      -3.871  -1.940  10.215  1.00  0.00    -0.203 F 
ATOM     46  F   UNL     1      -3.860  -5.952   6.519  1.00  0.00    -0.200 F 
ATOM     47  C   UNL     1      -5.017  -4.249   7.674  1.00  0.00     0.200 A 
ATOM     48  F   UNL     1      -6.126  -2.525   8.845  1.00  0.00    -0.200 F 
ATOM     49  F   UNL     1      -6.129  -4.508   6.973  1.00  0.00    -0.200 F 
ENDBRANCH  25  39
BRANCH  26  50
ATOM     50  C   UNL     1       5.623  -1.128  14.066  1.00  0.00     0.064 A 
ATOM     51  C   UNL     1       6.423  -2.113  14.660  1.00  0.00     0.173 A 
ATOM     52  C   UNL     1       6.037   0.207  14.181  1.00  0.00     0.173 A 
ATOM     53  F   UNL     1       6.059  -3.402  14.593  1.00  0.00    -0.203 F 
ATOM     54  C   UNL     1       7.582  -1.775  15.354  1.00  0.00     0.198 A 
ATOM     55  C   UNL     1       7.213   0.541  14.848  1.00  0.00     0.198 A 
ATOM     56  F   UNL     1       5.309   1.187  13.624  1.00  0.00    -0.203 F 
ATOM     57  F   UNL     1       8.307  -2.733  15.948  1.00  0.00    -0.200 F 
ATOM     58  C   UNL     1       7.980  -0.450  15.441  1.00  0.00     0.200 A 
ATOM     59  F   UNL     1       7.602   1.821  14.914  1.00  0.00    -0.200 F 
ATOM     60  F   UNL     1       9.101  -0.126  16.101  1.00  0.00    -0.200 F 
ENDBRANCH  26  50
BRANCH  38  61
ATOM     61  C   UNL     1      -0.456  -3.936  15.987  1.00  0.00     0.064 A 
ATOM     62  C   UNL     1      -0.805  -3.039  17.008  1.00  0.00     0.173 A 
ATOM     63  C   UNL     1      -0.629  -5.307  16.231  1.00  0.00     0.173 A 
ATOM     64  F   UNL     1      -0.643  -1.719  16.832  1.00  0.00    -0.203 F 
ATOM     65  C   UNL     1      -1.276  -3.500  18.235  1.00  0.00     0.198 A 
ATOM     66  C   UNL     1      -1.133  -5.762  17.446  1.00  0.00     0.198 A 
ATOM     67  F   UNL     1      -0.317  -6.207  15.287  1.00  0.00    -0.203 F 
ATOM     68  F   UNL     1      -1.547  -2.628  19.217  1.00  0.00    -0.200 F 
ATOM     69  C   UNL     1      -1.446  -4.860  18.451  1.00  0.00     0.200 A 
ATOM     70  F   UNL     1      -1.310  -7.075  17.647  1.00  0.00    -0.200 F 
ATOM     71  F   UNL     1      -1.903  -5.301  19.631  1.00  0.00    -0.200 F 
ENDBRANCH  38  61
ENDBRANCH  12  13
ENDBRANCH   5   7
ENDBRANCH   2   3
ENDBRANCH   1   2
BRANCH   1  72
ATOM     72  C   UNL     1       5.579  -3.268   0.442  1.00  0.00     0.117 C 
BRANCH  72  73
ATOM     73  N   UNL     1       6.795  -4.059   0.431  1.00  0.00    -0.356 N 
ATOM     74  C   UNL     1       7.017  -5.292  -0.113  1.00  0.00     0.227 C 
ATOM     75  H   UNL     1       7.570  -3.648   0.877  1.00  0.00     0.163 HD
ATOM     76  O   UNL     1       8.091  -5.844   0.131  1.00  0.00    -0.274 OA
BRANCH  74  77
ATOM     77  C   UNL     1       5.945  -5.919  -1.010  1.00  0.00     0.103 C 
ATOM     78  C   UNL     1       4.803  -6.467  -0.203  1.00  0.00    -0.016 C 
ATOM     79  C   UNL     1       6.457  -7.186  -1.719  1.00  0.00     0.047 C 
ATOM     80  C   UNL     1       4.872  -7.796  -0.084  1.00  0.00    -0.006 C 
ATOM     81  C   UNL     1       6.064  -8.348  -0.798  1.00  0.00     0.106 C 
BRANCH  81  82
ATOM     82  N   UNL     1       5.641  -9.521  -1.528  1.00  0.00    -0.346 N 
ATOM     83  C   UNL     1       5.999 -10.832  -1.343  1.00  0.00     0.251 C 
ATOM     84  H   UNL     1       5.005  -9.356  -2.262  1.00  0.00     0.164 HD
ATOM     85  O   UNL     1       5.622 -11.695  -2.129  1.00  0.00    -0.269 OA
BRANCH  83  86
ATOM     86  C   UNL     1       6.883 -11.206  -0.220  1.00  0.00     0.040 A 
ATOM     87  C   UNL     1       6.583 -10.854   1.096  1.00  0.00     0.016 A 
ATOM     88  C   UNL     1       8.036 -11.940  -0.499  1.00  0.00     0.024 A 
ATOM     89  C   UNL     1       7.489 -11.161   2.116  1.00  0.00     0.030 A 
ATOM     90  C   UNL     1       8.935 -12.252   0.534  1.00  0.00     0.001 A 
ATOM     91  C   UNL     1       8.672 -11.840   1.859  1.00  0.00     0.070 A 
ATOM     92  C   UNL     1      10.117 -12.962   0.288  1.00  0.00     0.012 A 
ATOM     93  N   UNL     1       9.522 -12.084   2.871  1.00  0.00    -0.256 NA
ATOM     94  C   UNL     1      10.997 -13.216   1.332  1.00  0.00     0.021 A 
ATOM     95  C   UNL     1      10.662 -12.754   2.591  1.00  0.00     0.112 A 
ENDBRANCH  83  86
ENDBRANCH  81  82
ENDBRANCH  74  77
ENDBRANCH  72  73
ENDBRANCH   1  72
TORSDOF 12
