REMARK SMILES CN(c1ccc(C(=O)NCCCNC(=O)c2ccc(-c3c4nc(c(-c5c(F)c(F)c(F)c(F)c5F)c5ccc([nH]5)c(-c5c(F)c(F)c(F)c(F)c5F)c5nc(c(-c6c(F)c(F)c(F)c(F)c6F)c6ccc3[nH]6)C=C5)C=C4)cc2)cc1[N+](=O)[O-])C1CC1
REMARK SMILES IDX 11 1 10 2 9 3 7 4 8 5 6 7 3 8 4 9 80 10 5 11 79 12 2 13 1 14
REMARK SMILES IDX 84 15 85 16 86 17 81 18 82 19 83 20 12 21 13 22 14 23 15 25
REMARK SMILES IDX 16 26 17 27 78 28 18 29 77 30 19 31 20 32 21 33 71 34 22 35
REMARK SMILES IDX 76 36 70 37 72 38 23 39 75 40 69 41 68 42 24 44 56 45 36 46
REMARK SMILES IDX 55 47 37 48 40 49 54 50 73 51 38 52 39 53 53 55 74 56 41 57
REMARK SMILES IDX 25 58 26 59 34 60 27 61 28 62 32 63 35 64 29 65 30 66 33 67
REMARK SMILES IDX 31 68 57 69 58 70 66 71 59 72 60 73 64 74 67 75 61 76 62 77
REMARK SMILES IDX 65 78 63 79 42 80 43 81 51 82 44 83 45 84 49 85 52 86 46 87
REMARK SMILES IDX 47 88 50 89 48 90
REMARK H PARENT 9 6 13 24 72 43 40 54
REMARK Flexibility Score: inf
ROOT
ATOM      1  C   UNL     1      -5.402  -1.428   3.598  1.00  0.00     0.042 C 
ENDROOT
BRANCH   1   2
ATOM      2  C   UNL     1      -4.183  -2.090   4.240  1.00  0.00     0.118 C 
BRANCH   2   3
ATOM      3  N   UNL     1      -4.059  -3.475   3.822  1.00  0.00    -0.352 N 
ATOM      4  C   UNL     1      -3.213  -4.090   2.938  1.00  0.00     0.251 C 
ATOM      5  O   UNL     1      -3.272  -5.313   2.829  1.00  0.00    -0.269 OA
ATOM      6  H   UNL     1      -4.701  -4.084   4.253  1.00  0.00     0.163 HD
BRANCH   4   7
ATOM      7  C   UNL     1      -2.206  -3.345   2.140  1.00  0.00     0.046 A 
ATOM      8  C   UNL     1      -0.187  -2.080   0.565  1.00  0.00     0.116 A 
ATOM      9  C   UNL     1      -0.004  -3.363   1.107  1.00  0.00     0.034 A 
ATOM     10  C   UNL     1      -1.411  -1.456   0.851  1.00  0.00     0.293 A 
ATOM     11  C   UNL     1      -0.992  -3.988   1.877  1.00  0.00     0.016 A 
ATOM     12  C   UNL     1      -2.425  -2.082   1.599  1.00  0.00     0.101 A 
BRANCH   8  13
ATOM     13  N   UNL     1       0.847  -1.548  -0.216  1.00  0.00    -0.366 N 
ATOM     14  C   UNL     1       1.403  -0.249   0.154  1.00  0.00     0.144 C 
BRANCH  13  15
ATOM     15  C   UNL     1       1.092  -2.008  -1.602  1.00  0.00     0.082 C 
ATOM     16  C   UNL     1       0.946  -3.428  -2.075  1.00  0.00     0.027 C 
ATOM     17  C   UNL     1      -0.029  -2.384  -2.534  1.00  0.00     0.027 C 
ENDBRANCH  13  15
ENDBRANCH   8  13
BRANCH  10  18
ATOM     18  N   UNL     1      -1.700  -0.113   0.391  1.00  0.00     0.065 N 
ATOM     19  O   UNL     1      -1.922   0.732   1.272  1.00  0.00    -0.258 OA
ATOM     20  O   UNL     1      -1.762   0.089  -0.828  1.00  0.00    -0.258 OA
ENDBRANCH  10  18
ENDBRANCH   4   7
ENDBRANCH   2   3
ENDBRANCH   1   2
BRANCH   1  21
ATOM     21  C   UNL     1      -6.728  -1.903   4.184  1.00  0.00     0.118 C 
BRANCH  21  22
ATOM     22  N   UNL     1      -6.929  -1.419   5.541  1.00  0.00    -0.352 N 
ATOM     23  C   UNL     1      -7.959  -0.682   6.069  1.00  0.00     0.251 C 
ATOM     24  H   UNL     1      -6.217  -1.656   6.178  1.00  0.00     0.163 HD
ATOM     25  O   UNL     1      -7.842  -0.188   7.185  1.00  0.00    -0.269 OA
BRANCH  23  26
ATOM     26  C   UNL     1      -9.207  -0.472   5.302  1.00  0.00     0.039 A 
ATOM     27  C   UNL     1      -9.819   0.785   5.349  1.00  0.00     0.014 A 
ATOM     28  C   UNL     1      -9.806  -1.514   4.588  1.00  0.00     0.014 A 
ATOM     29  C   UNL     1     -11.004   1.009   4.647  1.00  0.00     0.010 A 
ATOM     30  C   UNL     1     -10.952  -1.272   3.834  1.00  0.00     0.010 A 
ATOM     31  C   UNL     1     -11.568  -0.011   3.865  1.00  0.00    -0.014 A 
BRANCH  31  32
ATOM     32  C   UNL     1     -12.805   0.218   3.080  1.00  0.00     0.031 A 
ATOM     33  C   UNL     1     -14.066  -0.525   3.420  1.00  0.00     0.074 A 
ATOM     34  C   UNL     1     -12.771   1.037   2.013  1.00  0.00     0.049 A 
ATOM     35  N   UNL     1     -15.223  -0.520   2.806  1.00  0.00    -0.248 NA
ATOM     36  C   UNL     1     -14.009  -1.419   4.586  1.00  0.00     0.031 C 
ATOM     37  C   UNL     1     -11.591   1.766   1.548  1.00  0.00     0.029 A 
ATOM     38  N   UNL     1     -13.750   1.376   1.113  1.00  0.00    -0.354 N 
ATOM     39  C   UNL     1     -16.019  -1.425   3.494  1.00  0.00     0.074 A 
ATOM     40  C   UNL     1     -15.202  -1.993   4.545  1.00  0.00     0.031 C 
ATOM     41  C   UNL     1     -11.915   2.471   0.452  1.00  0.00     0.029 A 
ATOM     42  C   UNL     1     -13.315   2.220   0.121  1.00  0.00     0.049 A 
ATOM     43  H   UNL     1     -14.675   1.045   1.172  1.00  0.00     0.167 HD
ATOM     44  C   UNL     1     -17.319  -1.741   3.277  1.00  0.00     0.037 A 
ATOM     45  C   UNL     1     -13.968   2.726  -0.941  1.00  0.00     0.037 A 
ATOM     46  C   UNL     1     -18.136  -1.145   2.252  1.00  0.00     0.049 A 
ATOM     47  C   UNL     1     -15.419   2.391  -1.140  1.00  0.00     0.074 A 
ATOM     48  C   UNL     1     -19.487  -1.323   2.013  1.00  0.00     0.029 A 
ATOM     49  N   UNL     1     -17.672  -0.258   1.291  1.00  0.00    -0.354 N 
ATOM     50  N   UNL     1     -16.189   1.601  -0.432  1.00  0.00    -0.248 NA
ATOM     51  C   UNL     1     -16.096   3.026  -2.280  1.00  0.00     0.031 C 
ATOM     52  C   UNL     1     -19.831  -0.579   0.879  1.00  0.00     0.029 A 
ATOM     53  C   UNL     1     -18.705   0.099   0.439  1.00  0.00     0.049 A 
ATOM     54  H   UNL     1     -16.746   0.069   1.224  1.00  0.00     0.167 HD
ATOM     55  C   UNL     1     -17.442   1.655  -1.026  1.00  0.00     0.074 A 
ATOM     56  C   UNL     1     -17.334   2.569  -2.145  1.00  0.00     0.031 C 
ATOM     57  C   UNL     1     -18.579   1.005  -0.675  1.00  0.00     0.037 A 
BRANCH  44  58
ATOM     58  C   UNL     1     -17.934  -2.786   4.163  1.00  0.00     0.064 A 
ATOM     59  C   UNL     1     -18.190  -2.546   5.522  1.00  0.00     0.173 A 
ATOM     60  C   UNL     1     -18.286  -4.040   3.642  1.00  0.00     0.173 A 
ATOM     61  F   UNL     1     -17.863  -1.367   6.073  1.00  0.00    -0.203 F 
ATOM     62  C   UNL     1     -18.739  -3.536   6.334  1.00  0.00     0.198 A 
ATOM     63  C   UNL     1     -18.863  -5.017   4.450  1.00  0.00     0.198 A 
ATOM     64  F   UNL     1     -18.070  -4.320   2.348  1.00  0.00    -0.203 F 
ATOM     65  F   UNL     1     -18.921  -3.303   7.641  1.00  0.00    -0.200 F 
ATOM     66  C   UNL     1     -19.080  -4.768   5.796  1.00  0.00     0.200 A 
ATOM     67  F   UNL     1     -19.203  -6.203   3.926  1.00  0.00    -0.200 F 
ATOM     68  F   UNL     1     -19.608  -5.719   6.579  1.00  0.00    -0.200 F 
ENDBRANCH  44  58
BRANCH  45  69
ATOM     69  C   UNL     1     -13.247   3.623  -1.879  1.00  0.00     0.064 A 
ATOM     70  C   UNL     1     -13.500   5.001  -1.893  1.00  0.00     0.173 A 
ATOM     71  C   UNL     1     -12.265   3.128  -2.748  1.00  0.00     0.173 A 
ATOM     72  F   UNL     1     -14.443   5.517  -1.092  1.00  0.00    -0.203 F 
ATOM     73  C   UNL     1     -12.801   5.850  -2.749  1.00  0.00     0.198 A 
ATOM     74  C   UNL     1     -11.550   3.981  -3.585  1.00  0.00     0.198 A 
ATOM     75  F   UNL     1     -11.982   1.817  -2.764  1.00  0.00    -0.203 F 
ATOM     76  F   UNL     1     -13.080   7.161  -2.763  1.00  0.00    -0.200 F 
ATOM     77  C   UNL     1     -11.821   5.341  -3.588  1.00  0.00     0.200 A 
ATOM     78  F   UNL     1     -10.593   3.487  -4.383  1.00  0.00    -0.200 F 
ATOM     79  F   UNL     1     -11.139   6.160  -4.399  1.00  0.00    -0.200 F 
ENDBRANCH  45  69
BRANCH  57  80
ATOM     80  C   UNL     1     -19.802   1.269  -1.502  1.00  0.00     0.064 A 
ATOM     81  C   UNL     1     -19.939   0.748  -2.797  1.00  0.00     0.173 A 
ATOM     82  C   UNL     1     -20.868   2.015  -0.977  1.00  0.00     0.173 A 
ATOM     83  F   UNL     1     -18.940   0.042  -3.348  1.00  0.00    -0.203 F 
ATOM     84  C   UNL     1     -21.090   0.982  -3.544  1.00  0.00     0.198 A 
ATOM     85  C   UNL     1     -22.029   2.224  -1.717  1.00  0.00     0.198 A 
ATOM     86  F   UNL     1     -20.789   2.531   0.259  1.00  0.00    -0.203 F 
ATOM     87  F   UNL     1     -21.182   0.510  -4.795  1.00  0.00    -0.200 F 
ATOM     88  C   UNL     1     -22.136   1.713  -3.001  1.00  0.00     0.200 A 
ATOM     89  F   UNL     1     -23.043   2.921  -1.186  1.00  0.00    -0.200 F 
ATOM     90  F   UNL     1     -23.247   1.931  -3.719  1.00  0.00    -0.200 F 
ENDBRANCH  57  80
ENDBRANCH  31  32
ENDBRANCH  23  26
ENDBRANCH  21  22
ENDBRANCH   1  21
TORSDOF 13
