REMARK SMILES Cc1ccccc1-c1c(Cl)ccc2c1C=C(C(=O)NCCCNC(=O)c1ccc(-c3c4nc(c(-c5c(F)c(F)c(F)c(F)c5F)c5ccc([nH]5)c(-c5c(F)c(F)c(F)c(F)c5F)c5nc(c(-c6c(F)c(F)c(F)c(F)c6F)c6ccc3[nH]6)C=C5)C=C4)cc1)[C@@H](C(F)(F)F)O2
REMARK SMILES IDX 21 1 20 2 19 3 17 4 18 5 16 7 8 8 9 9 14 10 10 11 11 12
REMARK SMILES IDX 13 13 15 14 12 15 94 16 89 17 7 18 1 19 2 20 3 21 4 22 6 23
REMARK SMILES IDX 5 24 90 25 91 26 92 27 93 28 22 29 23 30 24 31 25 33 26 34
REMARK SMILES IDX 27 35 88 36 28 37 87 38 29 39 30 40 31 41 81 42 32 43 86 44
REMARK SMILES IDX 80 45 82 46 33 47 85 48 79 49 78 50 34 52 66 53 46 54 65 55
REMARK SMILES IDX 47 56 50 57 64 58 83 59 48 60 49 61 63 63 84 64 51 65 35 66
REMARK SMILES IDX 36 67 44 68 37 69 38 70 42 71 45 72 39 73 40 74 43 75 41 76
REMARK SMILES IDX 67 77 68 78 76 79 69 80 70 81 74 82 77 83 71 84 72 85 75 86
REMARK SMILES IDX 73 87 52 88 53 89 61 90 54 91 55 92 59 93 62 94 56 95 57 96
REMARK SMILES IDX 60 97 58 98
REMARK H PARENT 19 6 23 32 82 51 50 62
REMARK Flexibility Score: inf
ROOT
ATOM      1  C   UNL     1       5.311  -1.490  -2.812  1.00  0.00     0.042 C 
ENDROOT
BRANCH   1   2
ATOM      2  C   UNL     1       4.768  -0.564  -1.739  1.00  0.00     0.118 C 
BRANCH   2   3
ATOM      3  N   UNL     1       5.453   0.715  -1.720  1.00  0.00    -0.352 N 
ATOM      4  C   UNL     1       5.053   1.955  -2.110  1.00  0.00     0.251 C 
ATOM      5  O   UNL     1       5.890   2.856  -2.072  1.00  0.00    -0.270 OA
ATOM      6  H   UNL     1       6.370   0.678  -1.363  1.00  0.00     0.163 HD
BRANCH   4   7
ATOM      7  C   UNL     1       3.655   2.215  -2.609  1.00  0.00     0.067 C 
ATOM      8  C   UNL     1       1.170   2.440   0.155  1.00  0.00     0.012 A 
ATOM      9  C   UNL     1       0.883   3.425   1.132  1.00  0.00     0.049 A 
ATOM     10  C   UNL     1       2.081   2.797  -0.875  1.00  0.00     0.027 A 
ATOM     11  Cl  UNL     1      -0.120   3.089   2.507  1.00  0.00    -0.084 Cl
ATOM     12  C   UNL     1       1.403   4.721   1.041  1.00  0.00     0.025 A 
ATOM     13  C   UNL     1       2.524   4.129  -0.999  1.00  0.00     0.128 A 
ATOM     14  C   UNL     1       2.666   1.798  -1.794  1.00  0.00     0.026 C 
ATOM     15  C   UNL     1       2.196   5.082  -0.042  1.00  0.00     0.049 A 
ATOM     16  O   UNL     1       3.299   4.584  -2.038  1.00  0.00    -0.475 OA
ATOM     17  C   UNL     1       3.532   3.647  -3.117  1.00  0.00     0.314 C 
BRANCH   8  18
ATOM     18  C   UNL     1       0.424   1.152   0.136  1.00  0.00    -0.013 A 
ATOM     19  C   UNL     1       2.405  -0.350   0.799  1.00  0.00     0.045 C 
ATOM     20  C   UNL     1       0.978  -0.119   0.396  1.00  0.00    -0.043 A 
ATOM     21  C   UNL     1       0.162  -1.267   0.302  1.00  0.00     0.004 A 
ATOM     22  C   UNL     1      -1.193  -1.173  -0.007  1.00  0.00     0.000 A 
ATOM     23  C   UNL     1      -0.954   1.213  -0.181  1.00  0.00     0.009 A 
ATOM     24  C   UNL     1      -1.756   0.072  -0.237  1.00  0.00     0.001 A 
ENDBRANCH   8  18
BRANCH  17  25
ATOM     25  C   UNL     1       2.474   3.766  -4.226  1.00  0.00     0.429 C 
ATOM     26  F   UNL     1       2.461   5.005  -4.771  1.00  0.00    -0.167 F 
ATOM     27  F   UNL     1       2.732   2.897  -5.236  1.00  0.00    -0.167 F 
ATOM     28  F   UNL     1       1.219   3.503  -3.791  1.00  0.00    -0.167 F 
ENDBRANCH  17  25
ENDBRANCH   4   7
ENDBRANCH   2   3
ENDBRANCH   1   2
BRANCH   1  29
ATOM     29  C   UNL     1       6.529  -2.274  -2.346  1.00  0.00     0.118 C 
BRANCH  29  30
ATOM     30  N   UNL     1       6.220  -3.596  -1.795  1.00  0.00    -0.352 N 
ATOM     31  C   UNL     1       7.084  -4.601  -1.388  1.00  0.00     0.251 C 
ATOM     32  H   UNL     1       5.261  -3.800  -1.700  1.00  0.00     0.163 HD
ATOM     33  O   UNL     1       6.648  -5.658  -0.940  1.00  0.00    -0.269 OA
BRANCH  31  34
ATOM     34  C   UNL     1       8.537  -4.322  -1.354  1.00  0.00     0.039 A 
ATOM     35  C   UNL     1       9.201  -4.496  -0.136  1.00  0.00     0.014 A 
ATOM     36  C   UNL     1       9.117  -3.580  -2.373  1.00  0.00     0.014 A 
ATOM     37  C   UNL     1      10.272  -3.664   0.171  1.00  0.00     0.010 A 
ATOM     38  C   UNL     1      10.074  -2.655  -2.025  1.00  0.00     0.010 A 
ATOM     39  C   UNL     1      10.598  -2.652  -0.728  1.00  0.00    -0.014 A 
BRANCH  39  40
ATOM     40  C   UNL     1      11.473  -1.537  -0.402  1.00  0.00     0.031 A 
ATOM     41  C   UNL     1      12.860  -1.565  -0.900  1.00  0.00     0.074 A 
ATOM     42  C   UNL     1      10.999  -0.464   0.270  1.00  0.00     0.049 A 
ATOM     43  N   UNL     1      13.838  -0.917  -0.370  1.00  0.00    -0.248 NA
ATOM     44  C   UNL     1      13.265  -2.393  -2.028  1.00  0.00     0.031 C 
ATOM     45  C   UNL     1      11.656   0.829   0.443  1.00  0.00     0.029 A 
ATOM     46  N   UNL     1       9.862  -0.385   1.091  1.00  0.00    -0.354 N 
ATOM     47  C   UNL     1      14.920  -1.018  -1.216  1.00  0.00     0.074 A 
ATOM     48  C   UNL     1      14.531  -2.003  -2.195  1.00  0.00     0.031 C 
ATOM     49  C   UNL     1      11.120   1.454   1.502  1.00  0.00     0.029 A 
ATOM     50  C   UNL     1      10.189   0.532   2.123  1.00  0.00     0.049 A 
ATOM     51  H   UNL     1       9.012  -0.868   0.975  1.00  0.00     0.167 HD
ATOM     52  C   UNL     1      15.964  -0.154  -1.048  1.00  0.00     0.037 A 
ATOM     53  C   UNL     1      10.214   0.152   3.435  1.00  0.00     0.037 A 
ATOM     54  C   UNL     1      15.767   0.654   0.159  1.00  0.00     0.049 A 
ATOM     55  C   UNL     1      11.584   0.256   4.058  1.00  0.00     0.074 A 
ATOM     56  C   UNL     1      15.255   1.927   0.357  1.00  0.00     0.029 A 
ATOM     57  N   UNL     1      15.775   0.036   1.408  1.00  0.00    -0.354 N 
ATOM     58  N   UNL     1      12.682   0.385   3.366  1.00  0.00    -0.248 NA
ATOM     59  C   UNL     1      11.832   0.186   5.494  1.00  0.00     0.031 C 
ATOM     60  C   UNL     1      14.881   2.041   1.720  1.00  0.00     0.029 A 
ATOM     61  C   UNL     1      15.192   0.853   2.361  1.00  0.00     0.049 A 
ATOM     62  H   UNL     1      16.144  -0.858   1.588  1.00  0.00     0.167 HD
ATOM     63  C   UNL     1      13.759   0.373   4.210  1.00  0.00     0.074 A 
ATOM     64  C   UNL     1      13.173   0.278   5.535  1.00  0.00     0.031 C 
ATOM     65  C   UNL     1      15.042   0.419   3.744  1.00  0.00     0.037 A 
BRANCH  52  66
ATOM     66  C   UNL     1      16.988   0.171  -2.120  1.00  0.00     0.064 A 
ATOM     67  C   UNL     1      17.634   1.429  -2.137  1.00  0.00     0.173 A 
ATOM     68  C   UNL     1      17.331  -0.666  -3.199  1.00  0.00     0.173 A 
ATOM     69  F   UNL     1      17.502   2.297  -1.127  1.00  0.00    -0.203 F 
ATOM     70  C   UNL     1      18.445   1.849  -3.198  1.00  0.00     0.198 A 
ATOM     71  C   UNL     1      18.097  -0.230  -4.286  1.00  0.00     0.198 A 
ATOM     72  F   UNL     1      17.000  -1.961  -3.216  1.00  0.00    -0.203 F 
ATOM     73  F   UNL     1      19.021   3.058  -3.156  1.00  0.00    -0.200 F 
ATOM     74  C   UNL     1      18.645   1.034  -4.292  1.00  0.00     0.200 A 
ATOM     75  F   UNL     1      18.303  -1.052  -5.326  1.00  0.00    -0.200 F 
ATOM     76  F   UNL     1      19.388   1.449  -5.326  1.00  0.00    -0.200 F 
ENDBRANCH  52  66
BRANCH  53  77
ATOM     77  C   UNL     1       9.198  -0.897   3.726  1.00  0.00     0.064 A 
ATOM     78  C   UNL     1       7.854  -0.544   3.485  1.00  0.00     0.173 A 
ATOM     79  C   UNL     1       9.537  -2.253   3.673  1.00  0.00     0.173 A 
ATOM     80  F   UNL     1       7.474   0.741   3.575  1.00  0.00    -0.203 F 
ATOM     81  C   UNL     1       6.960  -1.467   2.954  1.00  0.00     0.198 A 
ATOM     82  C   UNL     1       8.617  -3.186   3.191  1.00  0.00     0.198 A 
ATOM     83  F   UNL     1      10.789  -2.653   3.934  1.00  0.00    -0.203 F 
ATOM     84  F   UNL     1       5.760  -1.059   2.516  1.00  0.00    -0.200 F 
ATOM     85  C   UNL     1       7.360  -2.778   2.762  1.00  0.00     0.200 A 
ATOM     86  F   UNL     1       8.990  -4.463   3.031  1.00  0.00    -0.200 F 
ATOM     87  F   UNL     1       6.556  -3.632   2.113  1.00  0.00    -0.200 F 
ENDBRANCH  53  77
BRANCH  65  88
ATOM     88  C   UNL     1      16.270   0.170   4.583  1.00  0.00     0.064 A 
ATOM     89  C   UNL     1      16.290  -0.668   5.711  1.00  0.00     0.173 A 
ATOM     90  C   UNL     1      17.525   0.692   4.191  1.00  0.00     0.173 A 
ATOM     91  F   UNL     1      15.199  -1.345   6.095  1.00  0.00    -0.203 F 
ATOM     92  C   UNL     1      17.453  -0.883   6.452  1.00  0.00     0.198 A 
ATOM     93  C   UNL     1      18.698   0.421   4.895  1.00  0.00     0.198 A 
ATOM     94  F   UNL     1      17.654   1.460   3.099  1.00  0.00    -0.203 F 
ATOM     95  F   UNL     1      17.404  -1.638   7.559  1.00  0.00    -0.200 F 
ATOM     96  C   UNL     1      18.657  -0.344   6.042  1.00  0.00     0.200 A 
ATOM     97  F   UNL     1      19.868   0.896   4.446  1.00  0.00    -0.200 F 
ATOM     98  F   UNL     1      19.778  -0.581   6.736  1.00  0.00    -0.200 F 
ENDBRANCH  65  88
ENDBRANCH  39  40
ENDBRANCH  31  34
ENDBRANCH  29  30
ENDBRANCH   1  29
TORSDOF 12
