REMARK SMILES Cc1c([C@H]2[C@H](C(=O)NCCCNC(=O)c3ccc(-c4c5nc(c(-c6c(F)c(F)c(F)c(F)c6F)c6ccc([nH]6)c(-c6c(F)c(F)c(F)c(F)c6F)c6nc(c(-c7c(F)c(F)c(F)c(F)c7F)c7ccc4[nH]7)C=C6)C=C5)cc3)OCC(=O)N2CC(C)C)cnn1C
REMARK SMILES IDX 10 1 9 2 8 3 6 4 7 5 5 7 4 8 82 9 78 10 80 11 79 12 81 13
REMARK SMILES IDX 3 14 1 15 2 16 89 17 87 18 88 19 90 20 83 21 84 22 85 23
REMARK SMILES IDX 86 24 11 25 12 26 13 27 14 29 15 30 16 31 77 32 17 33 76 34
REMARK SMILES IDX 18 35 19 36 20 37 70 38 21 39 75 40 69 41 71 42 22 43 74 44
REMARK SMILES IDX 68 45 67 46 23 48 55 49 35 50 54 51 36 52 39 53 53 54 72 55
REMARK SMILES IDX 37 56 38 57 52 59 73 60 40 61 24 62 25 63 33 64 26 65 27 66
REMARK SMILES IDX 31 67 34 68 28 69 29 70 32 71 30 72 56 73 57 74 65 75 58 76
REMARK SMILES IDX 59 77 63 78 66 79 60 80 61 81 64 82 62 83 41 84 42 85 50 86
REMARK SMILES IDX 43 87 44 88 48 89 51 90 45 91 46 92 49 93 47 94
REMARK H PARENT 8 6 12 28 71 47 39 58
REMARK Flexibility Score: inf
ROOT
ATOM      1  C   UNL     1      -3.787  -2.205   2.248  1.00  0.00     0.042 C 
ENDROOT
BRANCH   1   2
ATOM      2  C   UNL     1      -3.620  -3.596   1.669  1.00  0.00     0.117 C 
BRANCH   2   3
ATOM      3  N   UNL     1      -3.963  -3.647   0.273  1.00  0.00    -0.354 N 
ATOM      4  C   UNL     1      -3.225  -4.059  -0.787  1.00  0.00     0.251 C 
ATOM      5  O   UNL     1      -3.777  -3.994  -1.892  1.00  0.00    -0.272 OA
ATOM      6  H   UNL     1      -4.871  -3.336   0.055  1.00  0.00     0.163 HD
BRANCH   4   7
ATOM      7  C   UNL     1      -1.760  -4.541  -0.664  1.00  0.00     0.234 C 
ATOM      8  C   UNL     1      -0.782  -3.399  -0.248  1.00  0.00     0.157 C 
ATOM      9  N   UNL     1      -0.361  -3.437   1.165  1.00  0.00    -0.330 N 
ATOM     10  O   UNL     1      -1.490  -5.814  -0.101  1.00  0.00    -0.356 OA
ATOM     11  C   UNL     1      -0.293  -4.642   1.860  1.00  0.00     0.249 C 
ATOM     12  C   UNL     1      -1.059  -5.825   1.235  1.00  0.00     0.261 C 
ATOM     13  O   UNL     1       0.178  -4.731   2.993  1.00  0.00    -0.272 OA
BRANCH   8  14
ATOM     14  C   UNL     1       0.412  -3.432  -1.165  1.00  0.00     0.019 A 
ATOM     15  C   UNL     1      -0.647  -2.453  -3.345  1.00  0.00     0.067 C 
ATOM     16  C   UNL     1       0.427  -3.049  -2.503  1.00  0.00     0.040 A 
ATOM     17  N   UNL     1       1.654  -3.431  -2.982  1.00  0.00    -0.273 N 
ATOM     18  C   UNL     1       1.712  -3.934  -0.934  1.00  0.00     0.141 A 
ATOM     19  N   UNL     1       2.471  -3.910  -2.029  1.00  0.00    -0.181 NA
ATOM     20  C   UNL     1       2.075  -3.483  -4.363  1.00  0.00     0.174 C 
ENDBRANCH   8  14
BRANCH   9  21
ATOM     21  C   UNL     1      -0.197  -2.188   1.924  1.00  0.00     0.123 C 
BRANCH  21  22
ATOM     22  C   UNL     1       1.240  -1.671   2.103  1.00  0.00     0.002 C 
ATOM     23  C   UNL     1       1.674  -0.788   0.934  1.00  0.00     0.009 C 
ATOM     24  C   UNL     1       1.326  -0.833   3.389  1.00  0.00     0.009 C 
ENDBRANCH  21  22
ENDBRANCH   9  21
ENDBRANCH   4   7
ENDBRANCH   2   3
ENDBRANCH   1   2
BRANCH   1  25
ATOM     25  C   UNL     1      -5.232  -1.907   2.592  1.00  0.00     0.118 C 
BRANCH  25  26
ATOM     26  N   UNL     1      -5.748  -2.818   3.610  1.00  0.00    -0.352 N 
ATOM     27  C   UNL     1      -6.177  -2.567   4.888  1.00  0.00     0.251 C 
ATOM     28  H   UNL     1      -5.794  -3.762   3.335  1.00  0.00     0.163 HD
ATOM     29  O   UNL     1      -6.340  -3.489   5.675  1.00  0.00    -0.269 OA
BRANCH  27  30
ATOM     30  C   UNL     1      -6.429  -1.175   5.305  1.00  0.00     0.039 A 
ATOM     31  C   UNL     1      -6.070  -0.770   6.591  1.00  0.00     0.014 A 
ATOM     32  C   UNL     1      -7.008  -0.272   4.413  1.00  0.00     0.014 A 
ATOM     33  C   UNL     1      -6.231   0.566   6.954  1.00  0.00     0.010 A 
ATOM     34  C   UNL     1      -7.042   1.076   4.728  1.00  0.00     0.010 A 
ATOM     35  C   UNL     1      -6.676   1.506   6.010  1.00  0.00    -0.014 A 
BRANCH  35  36
ATOM     36  C   UNL     1      -6.798   2.944   6.341  1.00  0.00     0.031 A 
ATOM     37  C   UNL     1      -8.137   3.621   6.228  1.00  0.00     0.074 A 
ATOM     38  C   UNL     1      -5.697   3.648   6.665  1.00  0.00     0.049 A 
ATOM     39  N   UNL     1      -8.441   4.884   6.380  1.00  0.00    -0.248 NA
ATOM     40  C   UNL     1      -9.283   2.773   5.853  1.00  0.00     0.031 C 
ATOM     41  C   UNL     1      -4.338   3.107   6.743  1.00  0.00     0.029 A 
ATOM     42  N   UNL     1      -5.544   4.973   6.980  1.00  0.00    -0.354 N 
ATOM     43  C   UNL     1      -9.798   4.980   6.100  1.00  0.00     0.074 A 
ATOM     44  C   UNL     1     -10.246   3.667   5.697  1.00  0.00     0.031 C 
ATOM     45  C   UNL     1      -3.497   4.084   7.120  1.00  0.00     0.029 A 
ATOM     46  C   UNL     1      -4.247   5.326   7.261  1.00  0.00     0.049 A 
ATOM     47  H   UNL     1      -6.293   5.612   7.003  1.00  0.00     0.167 HD
ATOM     48  C   UNL     1     -10.605   6.061   6.204  1.00  0.00     0.037 A 
ATOM     49  C   UNL     1      -3.725   6.523   7.589  1.00  0.00     0.037 A 
ATOM     50  C   UNL     1     -10.155   7.354   6.644  1.00  0.00     0.049 A 
ATOM     51  C   UNL     1      -4.647   7.708   7.699  1.00  0.00     0.074 A 
ATOM     52  C   UNL     1     -10.899   8.501   6.850  1.00  0.00     0.029 A 
ATOM     53  N   UNL     1      -8.838   7.668   6.946  1.00  0.00    -0.354 N 
ATOM     54  N   UNL     1      -5.943   7.771   7.506  1.00  0.00    -0.248 NA
ATOM     55  C   UNL     1      -4.035   8.988   8.081  1.00  0.00     0.031 C 
ATOM     56  C   UNL     1     -10.024   9.525   7.224  1.00  0.00     0.029 A 
ATOM     57  C   UNL     1      -8.744   9.000   7.314  1.00  0.00     0.049 A 
ATOM     58  H   UNL     1      -8.083   7.038   6.906  1.00  0.00     0.167 HD
ATOM     59  C   UNL     1      -6.305   9.084   7.775  1.00  0.00     0.074 A 
ATOM     60  C   UNL     1      -5.095   9.779   8.160  1.00  0.00     0.031 C 
ATOM     61  C   UNL     1      -7.529   9.665   7.707  1.00  0.00     0.037 A 
BRANCH  48  62
ATOM     62  C   UNL     1     -12.054   5.890   5.848  1.00  0.00     0.064 A 
ATOM     63  C   UNL     1     -12.920   5.109   6.630  1.00  0.00     0.173 A 
ATOM     64  C   UNL     1     -12.594   6.547   4.732  1.00  0.00     0.173 A 
ATOM     65  F   UNL     1     -12.452   4.446   7.698  1.00  0.00    -0.203 F 
ATOM     66  C   UNL     1     -14.264   4.971   6.293  1.00  0.00     0.198 A 
ATOM     67  C   UNL     1     -13.947   6.435   4.419  1.00  0.00     0.198 A 
ATOM     68  F   UNL     1     -11.813   7.307   3.950  1.00  0.00    -0.203 F 
ATOM     69  F   UNL     1     -15.058   4.178   7.025  1.00  0.00    -0.200 F 
ATOM     70  C   UNL     1     -14.778   5.642   5.194  1.00  0.00     0.200 A 
ATOM     71  F   UNL     1     -14.445   7.096   3.364  1.00  0.00    -0.200 F 
ATOM     72  F   UNL     1     -16.075   5.519   4.879  1.00  0.00    -0.200 F 
ENDBRANCH  48  62
BRANCH  49  73
ATOM     73  C   UNL     1      -2.269   6.657   7.859  1.00  0.00     0.064 A 
ATOM     74  C   UNL     1      -1.798   6.960   9.144  1.00  0.00     0.173 A 
ATOM     75  C   UNL     1      -1.319   6.502   6.838  1.00  0.00     0.173 A 
ATOM     76  F   UNL     1      -2.667   7.133  10.151  1.00  0.00    -0.203 F 
ATOM     77  C   UNL     1      -0.438   7.136   9.392  1.00  0.00     0.198 A 
ATOM     78  C   UNL     1       0.043   6.644   7.095  1.00  0.00     0.198 A 
ATOM     79  F   UNL     1      -1.713   6.202   5.592  1.00  0.00    -0.203 F 
ATOM     80  F   UNL     1      -0.023   7.483  10.618  1.00  0.00    -0.200 F 
ATOM     81  C   UNL     1       0.482   6.973   8.368  1.00  0.00     0.200 A 
ATOM     82  F   UNL     1       0.930   6.468   6.106  1.00  0.00    -0.200 F 
ATOM     83  F   UNL     1       1.790   7.143   8.606  1.00  0.00    -0.200 F 
ENDBRANCH  49  73
BRANCH  61  84
ATOM     84  C   UNL     1      -7.626  11.110   8.102  1.00  0.00     0.064 A 
ATOM     85  C   UNL     1      -7.086  12.131   7.307  1.00  0.00     0.173 A 
ATOM     86  C   UNL     1      -8.310  11.478   9.271  1.00  0.00     0.173 A 
ATOM     87  F   UNL     1      -6.412  11.831   6.187  1.00  0.00    -0.203 F 
ATOM     88  C   UNL     1      -7.201  13.466   7.684  1.00  0.00     0.198 A 
ATOM     89  C   UNL     1      -8.455  12.816   9.625  1.00  0.00     0.198 A 
ATOM     90  F   UNL     1      -8.854  10.540  10.060  1.00  0.00    -0.203 F 
ATOM     91  F   UNL     1      -6.630  14.422   6.938  1.00  0.00    -0.200 F 
ATOM     92  C   UNL     1      -7.892  13.808   8.837  1.00  0.00     0.200 A 
ATOM     93  F   UNL     1      -9.140  13.144  10.729  1.00  0.00    -0.200 F 
ATOM     94  F   UNL     1      -8.011  15.094   9.192  1.00  0.00    -0.200 F 
ENDBRANCH  61  84
ENDBRANCH  35  36
ENDBRANCH  27  30
ENDBRANCH  25  26
ENDBRANCH   1  25
TORSDOF 13
