REMARK SMILES COc1ccccc1N1C(=O)[C@@H]2[C@@H](C1=O)[C@@](Cc1ccccc1)(C(=O)NCCCNC(=O)c1ccc(-c3c4nc(c(-c5c(F)c(F)c(F)c(F)c5F)c5ccc([nH]5)c(-c5c(F)c(F)c(F)c(F)c5F)c5nc(c(-c6c(F)c(F)c(F)c(F)c6F)c6ccc3[nH]6)C=C5)C=C4)cc1)[NH2+][C@H]2c1ccc(C)cc1
REMARK SMILES IDX 28 1 27 2 26 3 24 4 25 5 16 7 9 8 10 9 14 10 11 11 12 12
REMARK SMILES IDX 13 13 15 14 97 15 96 16 8 19 3 20 4 21 5 22 7 23 6 24 2 25
REMARK SMILES IDX 1 26 98 27 99 28 104 29 100 30 103 31 101 32 102 33 17 34
REMARK SMILES IDX 18 35 19 36 23 37 20 38 22 39 21 40 29 41 30 42 31 43 32 45
REMARK SMILES IDX 33 46 34 47 95 48 35 49 94 50 36 51 37 52 38 53 88 54 39 55
REMARK SMILES IDX 93 56 87 57 89 58 40 59 92 60 86 61 85 62 41 64 73 65 53 66
REMARK SMILES IDX 72 67 54 68 57 69 71 70 90 71 55 72 56 73 70 75 91 76 58 77
REMARK SMILES IDX 42 78 43 79 51 80 44 81 45 82 49 83 52 84 46 85 47 86 50 87
REMARK SMILES IDX 48 88 74 89 75 90 83 91 76 92 77 93 81 94 84 95 78 96 79 97
REMARK SMILES IDX 82 98 80 99 59 100 60 101 68 102 61 103 62 104 66 105 69 106
REMARK SMILES IDX 63 107 64 108 67 109 65 110
REMARK H PARENT 26 6 96 17 96 18 30 44 89 63 57 74
REMARK Flexibility Score: inf
ROOT
ATOM      1  C   UNL     1       6.097  -2.581   4.907  1.00  0.00     0.042 C 
ENDROOT
BRANCH   1   2
ATOM      2  C   UNL     1       6.623  -1.223   4.440  1.00  0.00     0.118 C 
BRANCH   2   3
ATOM      3  N   UNL     1       7.037  -1.282   3.044  1.00  0.00    -0.351 N 
ATOM      4  C   UNL     1       6.365  -1.112   1.875  1.00  0.00     0.282 C 
ATOM      5  O   UNL     1       6.822  -1.783   0.938  1.00  0.00    -0.268 OA
ATOM      6  H   UNL     1       7.993  -1.487   2.924  1.00  0.00     0.163 HD
BRANCH   4   7
ATOM      7  C   UNL     1       5.301   0.007   1.592  1.00  0.00     0.192 C 
ATOM      8  N   UNL     1       3.465  -1.235  -1.406  1.00  0.00    -0.246 N 
ATOM      9  C   UNL     1       4.282  -0.228  -1.908  1.00  0.00     0.244 C 
ATOM     10  C   UNL     1       3.804  -1.536  -0.094  1.00  0.00     0.245 C 
ATOM     11  O   UNL     1       4.224   0.358  -2.972  1.00  0.00    -0.273 OA
ATOM     12  C   UNL     1       5.306  -0.011  -0.825  1.00  0.00     0.162 C 
ATOM     13  C   UNL     1       4.432  -0.274   0.385  1.00  0.00     0.170 C 
ATOM     14  O   UNL     1       3.671  -2.588   0.506  1.00  0.00    -0.273 OA
ATOM     15  C   UNL     1       5.920   1.305  -0.439  1.00  0.00     0.228 C 
ATOM     16  N   UNL     1       6.079   1.225   1.055  1.00  0.00    -0.326 N 
ATOM     17  H   UNL     1       7.067   1.126   1.287  1.00  0.00     0.347 HD
ATOM     18  H   UNL     1       5.713   2.077   1.482  1.00  0.00     0.347 HD
BRANCH   8  19
ATOM     19  C   UNL     1       2.406  -1.867  -2.077  1.00  0.00     0.094 A 
ATOM     20  C   UNL     1       1.174  -2.070  -1.425  1.00  0.00     0.143 A 
ATOM     21  C   UNL     1       0.155  -2.803  -2.030  1.00  0.00     0.048 A 
ATOM     22  C   UNL     1       0.342  -3.307  -3.314  1.00  0.00     0.004 A 
ATOM     23  C   UNL     1       2.562  -2.327  -3.386  1.00  0.00     0.031 A 
ATOM     24  C   UNL     1       1.537  -3.061  -3.994  1.00  0.00     0.002 A 
BRANCH  20  25
ATOM     25  O   UNL     1       0.910  -1.540  -0.184  1.00  0.00    -0.495 OA
ATOM     26  C   UNL     1       0.524  -0.167  -0.292  1.00  0.00     0.278 C 
ENDBRANCH  20  25
ENDBRANCH   8  19
BRANCH  15  27
ATOM     27  C   UNL     1       7.229   1.596  -1.146  1.00  0.00     0.010 A 
ATOM     28  C   UNL     1       8.313   0.704  -1.102  1.00  0.00     0.010 A 
ATOM     29  C   UNL     1       7.375   2.773  -1.895  1.00  0.00     0.010 A 
ATOM     30  C   UNL     1       9.492   0.966  -1.804  1.00  0.00     0.004 A 
ATOM     31  C   UNL     1       8.558   3.037  -2.596  1.00  0.00     0.004 A 
ATOM     32  C   UNL     1       9.622   2.132  -2.562  1.00  0.00    -0.051 A 
ATOM     33  C   UNL     1      10.885   2.386  -3.329  1.00  0.00     0.044 C 
ENDBRANCH  15  27
BRANCH   7  34
ATOM     34  C   UNL     1       4.427   0.535   2.762  1.00  0.00     0.115 C 
BRANCH  34  35
ATOM     35  C   UNL     1       3.388  -0.355   3.422  1.00  0.00    -0.041 A 
ATOM     36  C   UNL     1       2.424   0.234   4.257  1.00  0.00     0.004 A 
ATOM     37  C   UNL     1       3.352  -1.743   3.287  1.00  0.00     0.004 A 
ATOM     38  C   UNL     1       1.464  -0.543   4.916  1.00  0.00     0.000 A 
ATOM     39  C   UNL     1       2.394  -2.525   3.938  1.00  0.00     0.000 A 
ATOM     40  C   UNL     1       1.449  -1.925   4.756  1.00  0.00     0.000 A 
ENDBRANCH  34  35
ENDBRANCH   7  34
ENDBRANCH   4   7
ENDBRANCH   2   3
ENDBRANCH   1   2
BRANCH   1  41
ATOM     41  C   UNL     1       7.191  -3.595   5.210  1.00  0.00     0.118 C 
BRANCH  41  42
ATOM     42  N   UNL     1       7.754  -3.407   6.535  1.00  0.00    -0.352 N 
ATOM     43  C   UNL     1       7.600  -4.141   7.685  1.00  0.00     0.251 C 
ATOM     44  H   UNL     1       8.345  -2.624   6.623  1.00  0.00     0.163 HD
ATOM     45  O   UNL     1       7.981  -3.656   8.749  1.00  0.00    -0.269 OA
BRANCH  43  46
ATOM     46  C   UNL     1       6.985  -5.492   7.683  1.00  0.00     0.039 A 
ATOM     47  C   UNL     1       6.241  -5.885   8.803  1.00  0.00     0.014 A 
ATOM     48  C   UNL     1       7.199  -6.412   6.653  1.00  0.00     0.014 A 
ATOM     49  C   UNL     1       5.694  -7.170   8.873  1.00  0.00     0.010 A 
ATOM     50  C   UNL     1       6.577  -7.661   6.681  1.00  0.00     0.010 A 
ATOM     51  C   UNL     1       5.840  -8.066   7.803  1.00  0.00    -0.014 A 
BRANCH  51  52
ATOM     52  C   UNL     1       5.276  -9.441   7.864  1.00  0.00     0.031 A 
ATOM     53  C   UNL     1       6.191 -10.637   7.832  1.00  0.00     0.074 A 
ATOM     54  C   UNL     1       3.942  -9.622   7.903  1.00  0.00     0.049 A 
ATOM     55  N   UNL     1       5.892 -11.913   7.809  1.00  0.00    -0.248 NA
ATOM     56  C   UNL     1       7.636 -10.363   7.795  1.00  0.00     0.031 C 
ATOM     57  C   UNL     1       2.943  -8.553   7.899  1.00  0.00     0.029 A 
ATOM     58  N   UNL     1       3.195 -10.774   7.945  1.00  0.00    -0.354 N 
ATOM     59  C   UNL     1       7.105 -12.586   7.729  1.00  0.00     0.074 A 
ATOM     60  C   UNL     1       8.142 -11.580   7.659  1.00  0.00     0.031 C 
ATOM     61  C   UNL     1       1.717  -9.097   7.962  1.00  0.00     0.029 A 
ATOM     62  C   UNL     1       1.840 -10.552   7.973  1.00  0.00     0.049 A 
ATOM     63  H   UNL     1       3.594 -11.675   7.955  1.00  0.00     0.167 HD
ATOM     64  C   UNL     1       7.337 -13.921   7.739  1.00  0.00     0.037 A 
ATOM     65  C   UNL     1       0.813 -11.422   7.998  1.00  0.00     0.037 A 
ATOM     66  C   UNL     1       6.310 -14.923   7.849  1.00  0.00     0.049 A 
ATOM     67  C   UNL     1       1.096 -12.900   8.012  1.00  0.00     0.074 A 
ATOM     68  C   UNL     1       6.449 -16.297   7.937  1.00  0.00     0.029 A 
ATOM     69  N   UNL     1       4.949 -14.655   7.888  1.00  0.00    -0.354 N 
ATOM     70  N   UNL     1       2.249 -13.522   7.998  1.00  0.00    -0.248 NA
ATOM     71  C   UNL     1      -0.068 -13.796   8.050  1.00  0.00     0.031 C 
ATOM     72  C   UNL     1       5.171 -16.864   7.989  1.00  0.00     0.029 A 
ATOM     73  C   UNL     1       4.237 -15.841   7.978  1.00  0.00     0.049 A 
ATOM     74  H   UNL     1       4.549 -13.757   7.857  1.00  0.00     0.167 HD
ATOM     75  C   UNL     1       1.954 -14.877   8.048  1.00  0.00     0.074 A 
ATOM     76  C   UNL     1       0.511 -14.988   8.109  1.00  0.00     0.031 C 
ATOM     77  C   UNL     1       2.801 -15.935   8.042  1.00  0.00     0.037 A 
BRANCH  64  78
ATOM     78  C   UNL     1       8.764 -14.377   7.630  1.00  0.00     0.064 A 
ATOM     79  C   UNL     1       9.678 -14.194   8.679  1.00  0.00     0.173 A 
ATOM     80  C   UNL     1       9.216 -15.032   6.475  1.00  0.00     0.173 A 
ATOM     81  F   UNL     1       9.299 -13.564   9.802  1.00  0.00    -0.203 F 
ATOM     82  C   UNL     1      10.999 -14.618   8.563  1.00  0.00     0.198 A 
ATOM     83  C   UNL     1      10.530 -15.483   6.373  1.00  0.00     0.198 A 
ATOM     84  F   UNL     1       8.383 -15.241   5.444  1.00  0.00    -0.203 F 
ATOM     85  F   UNL     1      11.866 -14.385   9.557  1.00  0.00    -0.200 F 
ATOM     86  C   UNL     1      11.422 -15.268   7.413  1.00  0.00     0.200 A 
ATOM     87  F   UNL     1      10.935 -16.122   5.267  1.00  0.00    -0.200 F 
ATOM     88  F   UNL     1      12.693 -15.679   7.304  1.00  0.00    -0.200 F 
ENDBRANCH  64  78
BRANCH  65  89
ATOM     89  C   UNL     1      -0.583 -10.916   8.039  1.00  0.00     0.064 A 
ATOM     90  C   UNL     1      -1.359 -11.043   9.199  1.00  0.00     0.173 A 
ATOM     91  C   UNL     1      -1.167 -10.291   6.928  1.00  0.00     0.173 A 
ATOM     92  F   UNL     1      -0.850 -11.654  10.280  1.00  0.00    -0.203 F 
ATOM     93  C   UNL     1      -2.671 -10.579   9.243  1.00  0.00     0.198 A 
ATOM     94  C   UNL     1      -2.471  -9.804   6.980  1.00  0.00     0.198 A 
ATOM     95  F   UNL     1      -0.466 -10.143   5.794  1.00  0.00    -0.203 F 
ATOM     96  F   UNL     1      -3.404 -10.748  10.352  1.00  0.00    -0.200 F 
ATOM     97  C   UNL     1      -3.224  -9.953   8.135  1.00  0.00     0.200 A 
ATOM     98  F   UNL     1      -2.999  -9.189   5.913  1.00  0.00    -0.200 F 
ATOM     99  F   UNL     1      -4.485  -9.500   8.180  1.00  0.00    -0.200 F 
ENDBRANCH  65  89
BRANCH  77 100
ATOM    100  C   UNL     1       2.193 -17.303   8.129  1.00  0.00     0.064 A 
ATOM    101  C   UNL     1       1.515 -17.876   7.043  1.00  0.00     0.173 A 
ATOM    102  C   UNL     1       2.323 -18.066   9.299  1.00  0.00     0.173 A 
ATOM    103  F   UNL     1       1.351 -17.180   5.907  1.00  0.00    -0.203 F 
ATOM    104  C   UNL     1       0.971 -19.154   7.133  1.00  0.00     0.198 A 
ATOM    105  C   UNL     1       1.802 -19.355   9.376  1.00  0.00     0.198 A 
ATOM    106  F   UNL     1       2.968 -17.566  10.364  1.00  0.00    -0.203 F 
ATOM    107  F   UNL     1       0.289 -19.665   6.098  1.00  0.00    -0.200 F 
ATOM    108  C   UNL     1       1.120 -19.895   8.296  1.00  0.00     0.200 A 
ATOM    109  F   UNL     1       1.957 -20.073  10.497  1.00  0.00    -0.200 F 
ATOM    110  F   UNL     1       0.601 -21.127   8.378  1.00  0.00    -0.200 F 
ENDBRANCH  77 100
ENDBRANCH  51  52
ENDBRANCH  43  46
ENDBRANCH  41  42
ENDBRANCH   1  41
TORSDOF 15
