REMARK SMILES CC1(C)CCSC[C@@]1(Nc1ccccc1Br)C(=O)NCCCNC(=O)c1ccc(-c2c3nc(c(-c4c(F)c(F)c(F)c(F)c4F)c4ccc([nH]4)c(-c4c(F)c(F)c(F)c(F)c4F)c4nc(c(-c5c(F)c(F)c(F)c(F)c5F)c5ccc2[nH]5)C=C4)C=C3)cc1
REMARK SMILES IDX 21 1 20 2 19 3 17 4 18 5 8 7 1 8 2 9 3 10 4 11 5 12 7 13
REMARK SMILES IDX 6 14 9 15 10 17 11 18 15 19 12 20 14 21 16 22 13 23 22 24
REMARK SMILES IDX 23 25 24 26 25 28 26 29 27 30 88 31 28 32 87 33 29 34 30 35
REMARK SMILES IDX 31 36 81 37 32 38 86 39 80 40 82 41 33 42 85 43 79 44 78 45
REMARK SMILES IDX 34 47 66 48 46 49 65 50 47 51 50 52 64 53 83 54 48 55 49 56
REMARK SMILES IDX 63 58 84 59 51 60 35 61 36 62 44 63 37 64 38 65 42 66 45 67
REMARK SMILES IDX 39 68 40 69 43 70 41 71 67 72 68 73 76 74 69 75 70 76 74 77
REMARK SMILES IDX 77 78 71 79 72 80 75 81 73 82 52 83 53 84 61 85 54 86 55 87
REMARK SMILES IDX 59 88 62 89 56 90 57 91 60 92 58 93
REMARK H PARENT 19 6 9 16 23 27 82 46 50 57
REMARK Flexibility Score: inf
ROOT
ATOM      1  C   UNL     1       2.046   4.074  -4.679  1.00  0.00     0.042 C 
ENDROOT
BRANCH   1   2
ATOM      2  C   UNL     1       1.674   2.714  -4.095  1.00  0.00     0.117 C 
BRANCH   2   3
ATOM      3  N   UNL     1       2.648   2.143  -3.171  1.00  0.00    -0.354 N 
ATOM      4  C   UNL     1       2.673   1.976  -1.810  1.00  0.00     0.247 C 
ATOM      5  O   UNL     1       3.646   1.345  -1.373  1.00  0.00    -0.272 OA
ATOM      6  H   UNL     1       3.458   1.806  -3.618  1.00  0.00     0.163 HD
BRANCH   4   7
ATOM      7  C   UNL     1       1.534   2.446  -0.840  1.00  0.00     0.131 C 
ATOM      8  C   UNL     1       1.042  -0.081  -0.270  1.00  0.00     0.014 C 
ATOM      9  C   UNL     1       0.422   1.266  -0.751  1.00  0.00    -0.002 C 
ATOM     10  C   UNL     1      -0.249   0.939  -2.105  1.00  0.00     0.014 C 
ATOM     11  C   UNL     1      -0.742   1.626   0.226  1.00  0.00     0.020 C 
ATOM     12  C   UNL     1      -0.352   1.904   1.671  1.00  0.00     0.070 C 
ATOM     13  C   UNL     1       2.101   2.652   0.602  1.00  0.00     0.108 C 
ATOM     14  S   UNL     1       0.866   3.224   1.835  1.00  0.00    -0.159 SA
BRANCH   7  15
ATOM     15  N   UNL     1       0.911   3.721  -1.301  1.00  0.00    -0.369 N 
ATOM     16  H   UNL     1      -0.025   3.612  -1.589  1.00  0.00     0.161 HD
BRANCH  15  17
ATOM     17  C   UNL     1       1.365   5.033  -1.413  1.00  0.00     0.049 A 
ATOM     18  C   UNL     1       0.328   5.975  -1.653  1.00  0.00     0.027 A 
ATOM     19  C   UNL     1       2.674   5.567  -1.443  1.00  0.00     0.041 A 
ATOM     20  C   UNL     1       0.553   7.334  -1.902  1.00  0.00     0.002 A 
ATOM     21  C   UNL     1       2.895   6.943  -1.689  1.00  0.00     0.018 A 
ATOM     22  Br  UNL     1       4.318   4.620  -1.307  1.00  0.00    -0.049 Br
ATOM     23  C   UNL     1       1.845   7.820  -1.923  1.00  0.00     0.001 A 
ENDBRANCH  15  17
ENDBRANCH   7  15
ENDBRANCH   4   7
ENDBRANCH   2   3
ENDBRANCH   1   2
BRANCH   1  24
ATOM     24  C   UNL     1       3.368   4.129  -5.428  1.00  0.00     0.118 C 
BRANCH  24  25
ATOM     25  N   UNL     1       3.205   3.825  -6.841  1.00  0.00    -0.352 N 
ATOM     26  C   UNL     1       3.335   4.637  -7.939  1.00  0.00     0.251 C 
ATOM     27  H   UNL     1       2.964   2.892  -7.040  1.00  0.00     0.163 HD
ATOM     28  O   UNL     1       2.922   4.233  -9.031  1.00  0.00    -0.269 OA
BRANCH  26  29
ATOM     29  C   UNL     1       3.947   5.987  -7.856  1.00  0.00     0.039 A 
ATOM     30  C   UNL     1       3.434   7.003  -8.672  1.00  0.00     0.014 A 
ATOM     31  C   UNL     1       5.070   6.250  -7.065  1.00  0.00     0.014 A 
ATOM     32  C   UNL     1       4.017   8.275  -8.670  1.00  0.00     0.010 A 
ATOM     33  C   UNL     1       5.610   7.538  -7.011  1.00  0.00     0.010 A 
ATOM     34  C   UNL     1       5.102   8.560  -7.827  1.00  0.00    -0.014 A 
BRANCH  34  35
ATOM     35  C   UNL     1       5.740   9.905  -7.826  1.00  0.00     0.031 A 
ATOM     36  C   UNL     1       7.149  10.077  -8.329  1.00  0.00     0.074 A 
ATOM     37  C   UNL     1       5.067  10.973  -7.355  1.00  0.00     0.049 A 
ATOM     38  N   UNL     1       7.891  11.157  -8.370  1.00  0.00    -0.248 NA
ATOM     39  C   UNL     1       7.821   8.872  -8.840  1.00  0.00     0.031 C 
ATOM     40  C   UNL     1       3.706  10.946  -6.821  1.00  0.00     0.029 A 
ATOM     41  N   UNL     1       5.441  12.291  -7.249  1.00  0.00    -0.354 N 
ATOM     42  C   UNL     1       9.111  10.760  -8.901  1.00  0.00     0.074 A 
ATOM     43  C   UNL     1       9.030   9.333  -9.123  1.00  0.00     0.031 C 
ATOM     44  C   UNL     1       3.350  12.191  -6.464  1.00  0.00     0.029 A 
ATOM     45  C   UNL     1       4.468  13.098  -6.713  1.00  0.00     0.049 A 
ATOM     46  H   UNL     1       6.323  12.625  -7.530  1.00  0.00     0.167 HD
ATOM     47  C   UNL     1      10.194  11.518  -9.201  1.00  0.00     0.037 A 
ATOM     48  C   UNL     1       4.477  14.419  -6.448  1.00  0.00     0.037 A 
ATOM     49  C   UNL     1      10.275  12.942  -9.005  1.00  0.00     0.049 A 
ATOM     50  C   UNL     1       5.702  15.233  -6.768  1.00  0.00     0.074 A 
ATOM     51  C   UNL     1      11.322  13.797  -9.306  1.00  0.00     0.029 A 
ATOM     52  N   UNL     1       9.267  13.721  -8.460  1.00  0.00    -0.354 N 
ATOM     53  N   UNL     1       6.832  14.851  -7.308  1.00  0.00    -0.248 NA
ATOM     54  C   UNL     1       5.647  16.667  -6.444  1.00  0.00     0.031 C 
ATOM     55  C   UNL     1      10.958  15.091  -8.915  1.00  0.00     0.029 A 
ATOM     56  C   UNL     1       9.671  15.046  -8.405  1.00  0.00     0.049 A 
ATOM     57  H   UNL     1       8.393  13.384  -8.156  1.00  0.00     0.167 HD
ATOM     58  C   UNL     1       7.610  15.997  -7.416  1.00  0.00     0.074 A 
ATOM     59  C   UNL     1       6.818  17.092  -6.896  1.00  0.00     0.031 C 
ATOM     60  C   UNL     1       8.868  16.129  -7.902  1.00  0.00     0.037 A 
BRANCH  47  61
ATOM     61  C   UNL     1      11.385  10.820  -9.788  1.00  0.00     0.064 A 
ATOM     62  C   UNL     1      11.375  10.345 -11.108  1.00  0.00     0.173 A 
ATOM     63  C   UNL     1      12.563  10.666  -9.042  1.00  0.00     0.173 A 
ATOM     64  F   UNL     1      10.269  10.460 -11.858  1.00  0.00    -0.203 F 
ATOM     65  C   UNL     1      12.494   9.720 -11.652  1.00  0.00     0.198 A 
ATOM     66  C   UNL     1      13.689  10.064  -9.599  1.00  0.00     0.198 A 
ATOM     67  F   UNL     1      12.627  11.110  -7.778  1.00  0.00    -0.203 F 
ATOM     68  F   UNL     1      12.448   9.239 -12.902  1.00  0.00    -0.200 F 
ATOM     69  C   UNL     1      13.651   9.586 -10.900  1.00  0.00     0.200 A 
ATOM     70  F   UNL     1      14.811   9.945  -8.876  1.00  0.00    -0.200 F 
ATOM     71  F   UNL     1      14.730   8.992 -11.429  1.00  0.00    -0.200 F 
ENDBRANCH  47  61
BRANCH  48  72
ATOM     72  C   UNL     1       3.275  15.069  -5.866  1.00  0.00     0.064 A 
ATOM     73  C   UNL     1       2.498  15.954  -6.627  1.00  0.00     0.173 A 
ATOM     74  C   UNL     1       2.890  14.837  -4.538  1.00  0.00     0.173 A 
ATOM     75  F   UNL     1       2.842  16.226  -7.894  1.00  0.00    -0.203 F 
ATOM     76  C   UNL     1       1.395  16.600  -6.074  1.00  0.00     0.198 A 
ATOM     77  C   UNL     1       1.771  15.464  -3.994  1.00  0.00     0.198 A 
ATOM     78  F   UNL     1       3.599  13.998  -3.769  1.00  0.00    -0.203 F 
ATOM     79  F   UNL     1       0.698  17.478  -6.809  1.00  0.00    -0.200 F 
ATOM     80  C   UNL     1       1.029  16.351  -4.760  1.00  0.00     0.200 A 
ATOM     81  F   UNL     1       1.414  15.213  -2.727  1.00  0.00    -0.200 F 
ATOM     82  F   UNL     1      -0.032  16.973  -4.229  1.00  0.00    -0.200 F 
ENDBRANCH  48  72
BRANCH  60  83
ATOM     83  C   UNL     1       9.453  17.509  -7.932  1.00  0.00     0.064 A 
ATOM     84  C   UNL     1       9.886  18.150  -6.762  1.00  0.00     0.173 A 
ATOM     85  C   UNL     1       9.615  18.185  -9.151  1.00  0.00     0.173 A 
ATOM     86  F   UNL     1       9.737  17.551  -5.571  1.00  0.00    -0.203 F 
ATOM     87  C   UNL     1      10.439  19.427  -6.809  1.00  0.00     0.198 A 
ATOM     88  C   UNL     1      10.191  19.451  -9.197  1.00  0.00     0.198 A 
ATOM     89  F   UNL     1       9.221  17.612 -10.299  1.00  0.00    -0.203 F 
ATOM     90  F   UNL     1      10.807  20.038  -5.675  1.00  0.00    -0.200 F 
ATOM     91  C   UNL     1      10.597  20.073  -8.026  1.00  0.00     0.200 A 
ATOM     92  F   UNL     1      10.351  20.071 -10.375  1.00  0.00    -0.200 F 
ATOM     93  F   UNL     1      11.133  21.300  -8.070  1.00  0.00    -0.200 F 
ENDBRANCH  60  83
ENDBRANCH  34  35
ENDBRANCH  26  29
ENDBRANCH  24  25
ENDBRANCH   1  24
TORSDOF 12
