REMARK SMILES Cc1nn(Cc2ccc(Cl)cc2Cl)c(C)c1NC(=O)c1c(C(=O)NCCCNC(=O)c2ccc(-c3c4nc(c(-c5c(F)c(F)c(F)c(F)c5F)c5ccc([nH]5)c(-c5c(F)c(F)c(F)c(F)c5F)c5nc(c(-c6c(F)c(F)c(F)c(F)c6F)c6ccc3[nH]6)C=C5)C=C4)cc2)cnn1C
REMARK SMILES IDX 25 1 24 2 22 3 23 4 21 6 20 7 96 8 94 9 95 10 97 11 18 12
REMARK SMILES IDX 17 13 19 15 16 16 1 17 2 18 3 19 4 20 14 21 15 22 5 23 6 24
REMARK SMILES IDX 7 25 12 26 8 27 11 28 13 29 9 30 10 31 26 32 27 33 28 34
REMARK SMILES IDX 29 35 30 37 31 38 32 39 93 40 33 41 92 42 34 43 35 44 36 45
REMARK SMILES IDX 86 46 37 47 91 48 85 49 87 50 38 51 90 52 84 53 83 54 39 56
REMARK SMILES IDX 71 57 51 58 70 59 52 60 55 61 69 62 88 63 53 64 54 65 68 67
REMARK SMILES IDX 89 68 56 69 40 70 41 71 49 72 42 73 43 74 47 75 50 76 44 77
REMARK SMILES IDX 45 78 48 79 46 80 72 81 73 82 81 83 74 84 75 85 79 86 82 87
REMARK SMILES IDX 76 88 77 89 80 90 78 91 57 92 58 93 66 94 59 95 60 96 64 97
REMARK SMILES IDX 67 98 61 99 62 100 65 101 63 102
REMARK H PARENT 24 5 17 14 28 36 87 55 55 66
REMARK Flexibility Score: inf
ROOT
ATOM      1  C   UNL     1       0.703   6.920   3.096  1.00  0.00     0.118 C 
ENDROOT
BRANCH   1   2
ATOM      2  N   UNL     1       1.228   5.573   2.883  1.00  0.00    -0.352 N 
ATOM      3  C   UNL     1       2.136   5.043   1.985  1.00  0.00     0.255 C 
ATOM      4  O   UNL     1       2.567   3.920   2.245  1.00  0.00    -0.269 OA
ATOM      5  H   UNL     1       0.860   4.906   3.506  1.00  0.00     0.163 HD
BRANCH   3   6
ATOM      6  C   UNL     1       2.523   5.741   0.768  1.00  0.00     0.090 A 
ATOM      7  C   UNL     1       2.963   5.144  -0.424  1.00  0.00     0.138 A 
ATOM      8  N   UNL     1       3.165   6.185  -1.303  1.00  0.00    -0.262 N 
ATOM      9  C   UNL     1       2.631   7.123   0.496  1.00  0.00     0.149 A 
ATOM     10  N   UNL     1       2.945   7.395  -0.767  1.00  0.00    -0.180 NA
ATOM     11  C   UNL     1       3.428   6.119  -2.724  1.00  0.00     0.174 C 
BRANCH   7  12
ATOM     12  C   UNL     1       3.262   3.775  -0.781  1.00  0.00     0.274 C 
ATOM     13  N   UNL     1       2.376   2.738  -0.612  1.00  0.00    -0.317 N 
ATOM     14  H   UNL     1       2.767   1.850  -0.780  1.00  0.00     0.170 HD
ATOM     15  O   UNL     1       4.358   3.480  -1.267  1.00  0.00    -0.267 OA
BRANCH  13  16
ATOM     16  C   UNL     1       1.046   2.703  -0.254  1.00  0.00     0.085 A 
ATOM     17  C   UNL     1       0.808   0.153   0.326  1.00  0.00     0.071 C 
ATOM     18  C   UNL     1       0.348   1.563   0.245  1.00  0.00     0.083 A 
ATOM     19  N   UNL     1      -0.874   1.890   0.688  1.00  0.00    -0.175 NA
ATOM     20  N   UNL     1      -0.960   3.208   0.423  1.00  0.00    -0.263 N 
ATOM     21  C   UNL     1       0.065   3.664  -0.370  1.00  0.00     0.060 A 
ATOM     22  C   UNL     1      -0.040   4.920  -1.145  1.00  0.00     0.069 C 
BRANCH  20  23
ATOM     23  C   UNL     1      -1.909   4.030   1.167  1.00  0.00     0.181 C 
BRANCH  23  24
ATOM     24  C   UNL     1      -3.226   4.211   0.464  1.00  0.00    -0.008 A 
ATOM     25  C   UNL     1      -4.123   3.127   0.456  1.00  0.00     0.009 A 
ATOM     26  C   UNL     1      -3.613   5.401  -0.177  1.00  0.00     0.047 A 
ATOM     27  C   UNL     1      -5.353   3.222  -0.194  1.00  0.00     0.021 A 
ATOM     28  C   UNL     1      -4.831   5.485  -0.853  1.00  0.00     0.041 A 
ATOM     29  Cl  UNL     1      -2.661   6.842  -0.145  1.00  0.00    -0.084 Cl
ATOM     30  C   UNL     1      -5.694   4.395  -0.859  1.00  0.00     0.042 A 
ATOM     31  Cl  UNL     1      -7.196   4.506  -1.687  1.00  0.00    -0.084 Cl
ENDBRANCH  23  24
ENDBRANCH  20  23
ENDBRANCH  13  16
ENDBRANCH   7  12
ENDBRANCH   3   6
ENDBRANCH   1   2
BRANCH   1  32
ATOM     32  C   UNL     1      -0.813   7.052   3.262  1.00  0.00     0.042 C 
BRANCH  32  33
ATOM     33  C   UNL     1      -1.417   6.215   4.369  1.00  0.00     0.118 C 
BRANCH  33  34
ATOM     34  N   UNL     1      -1.218   6.784   5.696  1.00  0.00    -0.352 N 
ATOM     35  C   UNL     1      -1.859   6.429   6.871  1.00  0.00     0.251 C 
ATOM     36  H   UNL     1      -0.550   7.504   5.766  1.00  0.00     0.163 HD
ATOM     37  O   UNL     1      -1.899   7.199   7.816  1.00  0.00    -0.269 OA
BRANCH  35  38
ATOM     38  C   UNL     1      -2.495   5.098   6.963  1.00  0.00     0.039 A 
ATOM     39  C   UNL     1      -3.655   4.903   7.717  1.00  0.00     0.014 A 
ATOM     40  C   UNL     1      -1.907   4.031   6.289  1.00  0.00     0.014 A 
ATOM     41  C   UNL     1      -4.232   3.636   7.739  1.00  0.00     0.010 A 
ATOM     42  C   UNL     1      -2.569   2.839   6.161  1.00  0.00     0.010 A 
ATOM     43  C   UNL     1      -3.688   2.611   6.944  1.00  0.00    -0.014 A 
BRANCH  43  44
ATOM     44  C   UNL     1      -4.358   1.323   6.825  1.00  0.00     0.031 A 
ATOM     45  C   UNL     1      -5.792   1.437   6.463  1.00  0.00     0.074 A 
ATOM     46  C   UNL     1      -3.714   0.135   6.851  1.00  0.00     0.049 A 
ATOM     47  N   UNL     1      -6.800   1.128   7.206  1.00  0.00    -0.248 NA
ATOM     48  C   UNL     1      -6.158   2.122   5.211  1.00  0.00     0.031 C 
ATOM     49  C   UNL     1      -2.273  -0.127   6.911  1.00  0.00     0.029 A 
ATOM     50  N   UNL     1      -4.231  -1.119   6.727  1.00  0.00    -0.354 N 
ATOM     51  C   UNL     1      -7.928   1.374   6.436  1.00  0.00     0.074 A 
ATOM     52  C   UNL     1      -7.489   2.154   5.308  1.00  0.00     0.031 C 
ATOM     53  C   UNL     1      -2.029  -1.413   6.575  1.00  0.00     0.029 A 
ATOM     54  C   UNL     1      -3.295  -2.106   6.433  1.00  0.00     0.049 A 
ATOM     55  H   UNL     1      -5.190  -1.311   6.836  1.00  0.00     0.167 HD
ATOM     56  C   UNL     1      -9.072   0.672   6.661  1.00  0.00     0.037 A 
ATOM     57  C   UNL     1      -3.557  -3.386   6.060  1.00  0.00     0.037 A 
ATOM     58  C   UNL     1      -9.066   0.079   7.978  1.00  0.00     0.049 A 
ATOM     59  C   UNL     1      -4.943  -3.693   6.505  1.00  0.00     0.074 A 
ATOM     60  C   UNL     1      -8.888   0.584   9.255  1.00  0.00     0.029 A 
ATOM     61  N   UNL     1      -8.832  -1.272   8.088  1.00  0.00    -0.354 N 
ATOM     62  N   UNL     1      -5.288  -3.800   7.759  1.00  0.00    -0.248 NA
ATOM     63  C   UNL     1      -6.025  -3.378   5.582  1.00  0.00     0.031 C 
ATOM     64  C   UNL     1      -8.049  -0.366   9.911  1.00  0.00     0.029 A 
ATOM     65  C   UNL     1      -7.856  -1.436   9.039  1.00  0.00     0.049 A 
ATOM     66  H   UNL     1      -9.281  -1.986   7.580  1.00  0.00     0.167 HD
ATOM     67  C   UNL     1      -6.495  -3.124   7.844  1.00  0.00     0.074 A 
ATOM     68  C   UNL     1      -6.933  -2.945   6.460  1.00  0.00     0.031 C 
ATOM     69  C   UNL     1      -6.880  -2.498   8.995  1.00  0.00     0.037 A 
BRANCH  56  70
ATOM     70  C   UNL     1      -9.980   0.191   5.557  1.00  0.00     0.064 A 
ATOM     71  C   UNL     1     -11.201  -0.422   5.897  1.00  0.00     0.173 A 
ATOM     72  C   UNL     1      -9.568   0.025   4.216  1.00  0.00     0.173 A 
ATOM     73  F   UNL     1     -11.674  -0.352   7.151  1.00  0.00    -0.203 F 
ATOM     74  C   UNL     1     -11.909  -1.208   4.985  1.00  0.00     0.198 A 
ATOM     75  C   UNL     1     -10.306  -0.713   3.294  1.00  0.00     0.198 A 
ATOM     76  F   UNL     1      -8.384   0.461   3.770  1.00  0.00    -0.203 F 
ATOM     77  F   UNL     1     -12.993  -1.883   5.391  1.00  0.00    -0.200 F 
ATOM     78  C   UNL     1     -11.458  -1.357   3.686  1.00  0.00     0.200 A 
ATOM     79  F   UNL     1      -9.836  -0.863   2.048  1.00  0.00    -0.200 F 
ATOM     80  F   UNL     1     -12.100  -2.160   2.829  1.00  0.00    -0.200 F 
ENDBRANCH  56  70
BRANCH  57  81
ATOM     81  C   UNL     1      -2.828  -4.236   5.081  1.00  0.00     0.064 A 
ATOM     82  C   UNL     1      -3.136  -5.602   4.937  1.00  0.00     0.173 A 
ATOM     83  C   UNL     1      -2.019  -3.677   4.071  1.00  0.00     0.173 A 
ATOM     84  F   UNL     1      -3.934  -6.212   5.825  1.00  0.00    -0.203 F 
ATOM     85  C   UNL     1      -2.694  -6.347   3.836  1.00  0.00     0.198 A 
ATOM     86  C   UNL     1      -1.572  -4.423   2.978  1.00  0.00     0.198 A 
ATOM     87  F   UNL     1      -1.721  -2.371   4.069  1.00  0.00    -0.203 F 
ATOM     88  F   UNL     1      -3.068  -7.627   3.701  1.00  0.00    -0.200 F 
ATOM     89  C   UNL     1      -1.922  -5.753   2.852  1.00  0.00     0.200 A 
ATOM     90  F   UNL     1      -0.853  -3.826   2.016  1.00  0.00    -0.200 F 
ATOM     91  F   UNL     1      -1.554  -6.447   1.766  1.00  0.00    -0.200 F 
ENDBRANCH  57  81
BRANCH  69  92
ATOM     92  C   UNL     1      -6.100  -2.760  10.256  1.00  0.00     0.064 A 
ATOM     93  C   UNL     1      -4.726  -2.502  10.414  1.00  0.00     0.173 A 
ATOM     94  C   UNL     1      -6.812  -3.150  11.399  1.00  0.00     0.173 A 
ATOM     95  F   UNL     1      -3.989  -2.023   9.404  1.00  0.00    -0.203 F 
ATOM     96  C   UNL     1      -4.093  -2.675  11.646  1.00  0.00     0.198 A 
ATOM     97  C   UNL     1      -6.187  -3.281  12.636  1.00  0.00     0.198 A 
ATOM     98  F   UNL     1      -8.136  -3.359  11.327  1.00  0.00    -0.203 F 
ATOM     99  F   UNL     1      -2.778  -2.437  11.765  1.00  0.00    -0.200 F 
ATOM    100  C   UNL     1      -4.826  -3.056  12.757  1.00  0.00     0.200 A 
ATOM    101  F   UNL     1      -6.912  -3.599  13.717  1.00  0.00    -0.200 F 
ATOM    102  F   UNL     1      -4.227  -3.182  13.949  1.00  0.00    -0.200 F 
ENDBRANCH  69  92
ENDBRANCH  43  44
ENDBRANCH  35  38
ENDBRANCH  33  34
ENDBRANCH  32  33
ENDBRANCH   1  32
TORSDOF 14
