REMARK SMILES COc1ccc(CCN2C(=O)CC[C@@H](C(=O)NCCCNC(=O)c3ccc(-c4c5nc(c(-c6c(F)c(F)c(F)c(F)c6F)c6ccc([nH]6)c(-c6c(F)c(F)c(F)c(F)c6F)c6nc(c(-c7c(F)c(F)c(F)c(F)c7F)c7ccc4[nH]7)C=C6)C=C5)cc3)[C@@H]2c2ccc(Cl)cc2)cc1OC
REMARK SMILES IDX 18 1 17 2 15 3 16 4 14 6 9 7 10 8 87 9 11 10 12 11 13 12
REMARK SMILES IDX 8 13 7 14 6 15 3 16 4 17 96 18 5 19 95 20 2 21 1 22 97 23
REMARK SMILES IDX 98 24 88 25 89 26 94 27 90 28 93 29 91 30 92 31 19 32 20 33
REMARK SMILES IDX 21 34 22 35 23 37 24 38 25 39 86 40 26 41 85 42 27 43 28 44
REMARK SMILES IDX 29 45 79 46 30 47 84 48 78 49 80 50 31 51 83 52 77 53 76 54
REMARK SMILES IDX 32 56 64 57 44 58 63 59 45 60 48 61 62 62 81 63 46 64 47 65
REMARK SMILES IDX 61 67 82 68 49 69 33 70 34 71 42 72 35 73 36 74 40 75 43 76
REMARK SMILES IDX 37 77 38 78 41 79 39 80 65 81 66 82 74 83 67 84 68 85 72 86
REMARK SMILES IDX 75 87 69 88 70 89 73 90 71 91 50 92 51 93 59 94 52 95 53 96
REMARK SMILES IDX 57 97 60 98 54 99 55 100 58 101 56 102
REMARK H PARENT 17 5 21 36 80 55 48 66
REMARK Flexibility Score: inf
ROOT
ATOM      1  C   UNL     1      -4.642  -5.133   5.578  1.00  0.00     0.117 C 
ENDROOT
BRANCH   1   2
ATOM      2  N   UNL     1      -3.477  -4.702   4.834  1.00  0.00    -0.356 N 
ATOM      3  C   UNL     1      -2.227  -4.365   5.234  1.00  0.00     0.225 C 
ATOM      4  O   UNL     1      -1.395  -4.252   4.338  1.00  0.00    -0.275 OA
ATOM      5  H   UNL     1      -3.619  -4.642   3.861  1.00  0.00     0.163 HD
BRANCH   3   6
ATOM      6  C   UNL     1      -1.891  -4.178   6.706  1.00  0.00     0.106 C 
ATOM      7  N   UNL     1       0.487  -3.323   6.654  1.00  0.00    -0.335 N 
ATOM      8  C   UNL     1       0.128  -2.018   6.947  1.00  0.00     0.223 C 
ATOM      9  C   UNL     1      -0.391  -4.473   6.949  1.00  0.00     0.128 C 
ATOM     10  O   UNL     1       0.947  -1.110   7.085  1.00  0.00    -0.275 OA
ATOM     11  C   UNL     1      -1.351  -1.695   6.915  1.00  0.00     0.101 C 
ATOM     12  C   UNL     1      -2.293  -2.824   7.282  1.00  0.00     0.026 C 
BRANCH   7  13
ATOM     13  C   UNL     1       1.861  -3.589   6.188  1.00  0.00     0.125 C 
BRANCH  13  14
ATOM     14  C   UNL     1       1.988  -3.920   4.685  1.00  0.00     0.057 C 
BRANCH  14  15
ATOM     15  C   UNL     1       1.802  -2.778   3.705  1.00  0.00    -0.042 A 
ATOM     16  C   UNL     1       1.407  -0.737   1.785  1.00  0.00     0.160 A 
ATOM     17  C   UNL     1       0.402  -1.056   2.696  1.00  0.00     0.051 A 
ATOM     18  C   UNL     1       2.628  -1.421   1.831  1.00  0.00     0.160 A 
ATOM     19  C   UNL     1       0.601  -2.071   3.629  1.00  0.00     0.008 A 
ATOM     20  C   UNL     1       2.807  -2.439   2.788  1.00  0.00     0.054 A 
BRANCH  16  21
ATOM     21  O   UNL     1       1.192   0.306   0.925  1.00  0.00    -0.493 OA
ATOM     22  C   UNL     1       0.171   0.017  -0.029  1.00  0.00     0.278 C 
ENDBRANCH  16  21
BRANCH  18  23
ATOM     23  O   UNL     1       3.728  -1.237   1.035  1.00  0.00    -0.493 OA
ATOM     24  C   UNL     1       3.605  -0.367  -0.081  1.00  0.00     0.278 C 
ENDBRANCH  18  23
ENDBRANCH  14  15
ENDBRANCH  13  14
ENDBRANCH   7  13
BRANCH   9  25
ATOM     25  C   UNL     1      -0.184  -5.040   8.367  1.00  0.00    -0.025 A 
ATOM     26  C   UNL     1       0.679  -4.455   9.309  1.00  0.00     0.007 A 
ATOM     27  C   UNL     1      -0.866  -6.216   8.744  1.00  0.00     0.007 A 
ATOM     28  C   UNL     1       0.845  -5.017  10.580  1.00  0.00     0.021 A 
ATOM     29  C   UNL     1      -0.724  -6.760  10.022  1.00  0.00     0.021 A 
ATOM     30  C   UNL     1       0.137  -6.160  10.934  1.00  0.00     0.041 A 
ATOM     31  Cl  UNL     1       0.332  -6.843  12.500  1.00  0.00    -0.084 Cl
ENDBRANCH   9  25
ENDBRANCH   3   6
ENDBRANCH   1   2
BRANCH   1  32
ATOM     32  C   UNL     1      -5.856  -4.259   5.300  1.00  0.00     0.042 C 
BRANCH  32  33
ATOM     33  C   UNL     1      -6.164  -4.036   3.821  1.00  0.00     0.118 C 
BRANCH  33  34
ATOM     34  N   UNL     1      -6.389  -5.269   3.083  1.00  0.00    -0.352 N 
ATOM     35  C   UNL     1      -7.493  -5.715   2.398  1.00  0.00     0.251 C 
ATOM     36  H   UNL     1      -5.622  -5.887   3.073  1.00  0.00     0.163 HD
ATOM     37  O   UNL     1      -7.511  -6.863   1.969  1.00  0.00    -0.269 OA
BRANCH  35  38
ATOM     38  C   UNL     1      -8.671  -4.841   2.202  1.00  0.00     0.039 A 
ATOM     39  C   UNL     1      -9.943  -5.402   2.345  1.00  0.00     0.014 A 
ATOM     40  C   UNL     1      -8.541  -3.494   1.859  1.00  0.00     0.014 A 
ATOM     41  C   UNL     1     -11.076  -4.598   2.216  1.00  0.00     0.010 A 
ATOM     42  C   UNL     1      -9.668  -2.673   1.818  1.00  0.00     0.010 A 
ATOM     43  C   UNL     1     -10.948  -3.215   1.996  1.00  0.00    -0.014 A 
BRANCH  43  44
ATOM     44  C   UNL     1     -12.150  -2.340   1.980  1.00  0.00     0.031 A 
ATOM     45  C   UNL     1     -12.538  -1.583   0.740  1.00  0.00     0.074 A 
ATOM     46  C   UNL     1     -12.880  -2.206   3.104  1.00  0.00     0.049 A 
ATOM     47  N   UNL     1     -13.563  -0.790   0.542  1.00  0.00    -0.248 NA
ATOM     48  C   UNL     1     -11.648  -1.710  -0.424  1.00  0.00     0.031 C 
ATOM     49  C   UNL     1     -12.575  -2.838   4.389  1.00  0.00     0.029 A 
ATOM     50  N   UNL     1     -14.031  -1.498   3.350  1.00  0.00    -0.354 N 
ATOM     51  C   UNL     1     -13.440  -0.328  -0.762  1.00  0.00     0.074 A 
ATOM     52  C   UNL     1     -12.208  -0.875  -1.287  1.00  0.00     0.031 C 
ATOM     53  C   UNL     1     -13.534  -2.525   5.274  1.00  0.00     0.029 A 
ATOM     54  C   UNL     1     -14.500  -1.639   4.633  1.00  0.00     0.049 A 
ATOM     55  H   UNL     1     -14.477  -0.942   2.671  1.00  0.00     0.167 HD
ATOM     56  C   UNL     1     -14.289   0.460  -1.466  1.00  0.00     0.037 A 
ATOM     57  C   UNL     1     -15.588  -1.115   5.228  1.00  0.00     0.037 A 
ATOM     58  C   UNL     1     -15.520   0.998  -0.942  1.00  0.00     0.049 A 
ATOM     59  C   UNL     1     -16.510  -0.237   4.425  1.00  0.00     0.074 A 
ATOM     60  C   UNL     1     -16.474   1.762  -1.591  1.00  0.00     0.029 A 
ATOM     61  N   UNL     1     -15.962   0.835   0.363  1.00  0.00    -0.354 N 
ATOM     62  N   UNL     1     -16.424   0.126   3.169  1.00  0.00    -0.248 NA
ATOM     63  C   UNL     1     -17.688   0.293   5.125  1.00  0.00     0.031 C 
ATOM     64  C   UNL     1     -17.463   2.110  -0.664  1.00  0.00     0.029 A 
ATOM     65  C   UNL     1     -17.161   1.508   0.546  1.00  0.00     0.049 A 
ATOM     66  H   UNL     1     -15.494   0.317   1.058  1.00  0.00     0.167 HD
ATOM     67  C   UNL     1     -17.547   0.904   2.919  1.00  0.00     0.074 A 
ATOM     68  C   UNL     1     -18.312   0.935   4.148  1.00  0.00     0.031 C 
ATOM     69  C   UNL     1     -17.910   1.538   1.777  1.00  0.00     0.037 A 
BRANCH  56  70
ATOM     70  C   UNL     1     -13.918   0.789  -2.885  1.00  0.00     0.064 A 
ATOM     71  C   UNL     1     -13.912  -0.189  -3.892  1.00  0.00     0.173 A 
ATOM     72  C   UNL     1     -13.602   2.106  -3.253  1.00  0.00     0.173 A 
ATOM     73  F   UNL     1     -14.196  -1.466  -3.595  1.00  0.00    -0.203 F 
ATOM     74  C   UNL     1     -13.574   0.133  -5.205  1.00  0.00     0.198 A 
ATOM     75  C   UNL     1     -13.298   2.431  -4.573  1.00  0.00     0.198 A 
ATOM     76  F   UNL     1     -13.597   3.083  -2.334  1.00  0.00    -0.203 F 
ATOM     77  F   UNL     1     -13.524  -0.830  -6.136  1.00  0.00    -0.200 F 
ATOM     78  C   UNL     1     -13.276   1.443  -5.545  1.00  0.00     0.200 A 
ATOM     79  F   UNL     1     -13.025   3.700  -4.904  1.00  0.00    -0.200 F 
ATOM     80  F   UNL     1     -12.960   1.752  -6.811  1.00  0.00    -0.200 F 
ENDBRANCH  56  70
BRANCH  57  81
ATOM     81  C   UNL     1     -15.883  -1.429   6.652  1.00  0.00     0.064 A 
ATOM     82  C   UNL     1     -16.999  -2.201   7.005  1.00  0.00     0.173 A 
ATOM     83  C   UNL     1     -15.066  -0.954   7.688  1.00  0.00     0.173 A 
ATOM     84  F   UNL     1     -17.823  -2.663   6.053  1.00  0.00    -0.203 F 
ATOM     85  C   UNL     1     -17.301  -2.463   8.340  1.00  0.00     0.198 A 
ATOM     86  C   UNL     1     -15.349  -1.245   9.020  1.00  0.00     0.198 A 
ATOM     87  F   UNL     1     -13.982  -0.217   7.404  1.00  0.00    -0.203 F 
ATOM     88  F   UNL     1     -18.403  -3.157   8.651  1.00  0.00    -0.200 F 
ATOM     89  C   UNL     1     -16.472  -1.990   9.346  1.00  0.00     0.200 A 
ATOM     90  F   UNL     1     -14.535  -0.802   9.988  1.00  0.00    -0.200 F 
ATOM     91  F   UNL     1     -16.760  -2.246  10.630  1.00  0.00    -0.200 F 
ENDBRANCH  57  81
BRANCH  69  92
ATOM     92  C   UNL     1     -19.209   2.296   1.801  1.00  0.00     0.064 A 
ATOM     93  C   UNL     1     -19.373   3.460   2.567  1.00  0.00     0.173 A 
ATOM     94  C   UNL     1     -20.306   1.850   1.048  1.00  0.00     0.173 A 
ATOM     95  F   UNL     1     -18.360   3.923   3.317  1.00  0.00    -0.203 F 
ATOM     96  C   UNL     1     -20.598   4.120   2.617  1.00  0.00     0.198 A 
ATOM     97  C   UNL     1     -21.518   2.535   1.068  1.00  0.00     0.198 A 
ATOM     98  F   UNL     1     -20.204   0.748   0.289  1.00  0.00    -0.203 F 
ATOM     99  F   UNL     1     -20.750   5.186   3.414  1.00  0.00    -0.200 F 
ATOM    100  C   UNL     1     -21.668   3.660   1.864  1.00  0.00     0.200 A 
ATOM    101  F   UNL     1     -22.546   2.098   0.327  1.00  0.00    -0.200 F 
ATOM    102  F   UNL     1     -22.847   4.295   1.915  1.00  0.00    -0.200 F 
ENDBRANCH  69  92
ENDBRANCH  43  44
ENDBRANCH  35  38
ENDBRANCH  33  34
ENDBRANCH  32  33
ENDBRANCH   1  32
TORSDOF 16
