REMARK SMILES Cc1cc(Cl)c2c(c1)C=C(C(=O)NCCCNC(=O)c1ccc(-c3c4nc(c(-c5c(F)c(F)c(F)c(F)c5F)c5ccc([nH]5)c(-c5c(F)c(F)c(F)c(F)c5F)c5nc(c(-c6c(F)c(F)c(F)c(F)c6F)c6ccc3[nH]6)C=C5)C=C4)cc1)[C@@H](C(F)(F)F)O2
REMARK SMILES IDX 15 1 14 2 13 3 11 4 12 5 10 7 1 8 2 9 3 10 8 11 4 12 7 13
REMARK SMILES IDX 5 14 6 15 9 16 88 17 83 18 84 19 85 20 86 21 87 22 16 23
REMARK SMILES IDX 17 24 18 25 19 27 20 28 21 29 82 30 22 31 81 32 23 33 24 34
REMARK SMILES IDX 25 35 75 36 26 37 80 38 74 39 76 40 27 41 79 42 73 43 72 44
REMARK SMILES IDX 28 46 60 47 40 48 59 49 41 50 44 51 58 52 77 53 42 54 43 55
REMARK SMILES IDX 57 57 78 58 45 59 29 60 30 61 38 62 31 63 32 64 36 65 39 66
REMARK SMILES IDX 33 67 34 68 37 69 35 70 61 71 62 72 70 73 63 74 64 75 68 76
REMARK SMILES IDX 71 77 65 78 66 79 69 80 67 81 46 82 47 83 55 84 48 85 49 86
REMARK SMILES IDX 53 87 56 88 50 89 51 90 54 91 52 92
REMARK H PARENT 13 6 17 26 76 45 44 56
REMARK Flexibility Score: inf
ROOT
ATOM      1  C   UNL     1      -0.920  -2.256   9.461  1.00  0.00     0.042 C 
ENDROOT
BRANCH   1   2
ATOM      2  C   UNL     1      -1.984  -1.975   8.412  1.00  0.00     0.118 C 
BRANCH   2   3
ATOM      3  N   UNL     1      -1.872  -0.628   7.873  1.00  0.00    -0.352 N 
ATOM      4  C   UNL     1      -1.490  -0.053   6.709  1.00  0.00     0.251 C 
ATOM      5  O   UNL     1      -1.558   1.180   6.685  1.00  0.00    -0.270 OA
ATOM      6  H   UNL     1      -2.149   0.048   8.534  1.00  0.00     0.163 HD
BRANCH   4   7
ATOM      7  C   UNL     1      -1.008  -0.792   5.506  1.00  0.00     0.067 C 
ATOM      8  C   UNL     1       1.038   0.193  -0.258  1.00  0.00     0.044 C 
ATOM      9  C   UNL     1       0.684  -0.594   0.969  1.00  0.00    -0.049 A 
ATOM     10  C   UNL     1       0.901  -1.977   0.992  1.00  0.00     0.028 A 
ATOM     11  C   UNL     1       0.189   0.042   2.116  1.00  0.00     0.015 A 
ATOM     12  C   UNL     1       0.621  -2.713   2.142  1.00  0.00     0.084 A 
ATOM     13  C   UNL     1      -0.100  -0.695   3.271  1.00  0.00     0.019 A 
ATOM     14  Cl  UNL     1       0.909  -4.416   2.125  1.00  0.00    -0.080 Cl
ATOM     15  C   UNL     1       0.116  -2.076   3.279  1.00  0.00     0.146 A 
ATOM     16  C   UNL     1      -0.577  -0.035   4.481  1.00  0.00     0.025 C 
ATOM     17  O   UNL     1      -0.098  -2.829   4.399  1.00  0.00    -0.474 OA
ATOM     18  C   UNL     1      -1.009  -2.288   5.387  1.00  0.00     0.314 C 
BRANCH  18  19
ATOM     19  C   UNL     1      -2.419  -2.866   5.153  1.00  0.00     0.429 C 
ATOM     20  F   UNL     1      -2.446  -4.187   5.461  1.00  0.00    -0.167 F 
ATOM     21  F   UNL     1      -3.360  -2.275   5.929  1.00  0.00    -0.167 F 
ATOM     22  F   UNL     1      -2.831  -2.735   3.873  1.00  0.00    -0.167 F 
ENDBRANCH  18  19
ENDBRANCH   4   7
ENDBRANCH   2   3
ENDBRANCH   1   2
BRANCH   1  23
ATOM     23  C   UNL     1      -1.270  -1.639  10.809  1.00  0.00     0.118 C 
BRANCH  23  24
ATOM     24  N   UNL     1      -2.483  -2.225  11.373  1.00  0.00    -0.352 N 
ATOM     25  C   UNL     1      -2.640  -3.117  12.402  1.00  0.00     0.251 C 
ATOM     26  H   UNL     1      -3.321  -1.933  10.947  1.00  0.00     0.163 HD
ATOM     27  O   UNL     1      -3.709  -3.710  12.542  1.00  0.00    -0.269 OA
BRANCH  25  28
ATOM     28  C   UNL     1      -1.532  -3.366  13.340  1.00  0.00     0.039 A 
ATOM     29  C   UNL     1      -1.301  -4.665  13.802  1.00  0.00     0.014 A 
ATOM     30  C   UNL     1      -0.738  -2.309  13.789  1.00  0.00     0.014 A 
ATOM     31  C   UNL     1      -0.233  -4.908  14.665  1.00  0.00     0.010 A 
ATOM     32  C   UNL     1       0.385  -2.567  14.562  1.00  0.00     0.010 A 
ATOM     33  C   UNL     1       0.638  -3.865  15.024  1.00  0.00    -0.014 A 
BRANCH  33  34
ATOM     34  C   UNL     1       1.801  -4.101  15.911  1.00  0.00     0.031 A 
ATOM     35  C   UNL     1       1.871  -3.409  17.244  1.00  0.00     0.074 A 
ATOM     36  C   UNL     1       2.812  -4.885  15.490  1.00  0.00     0.049 A 
ATOM     37  N   UNL     1       2.834  -3.421  18.130  1.00  0.00    -0.248 NA
ATOM     38  C   UNL     1       0.722  -2.567  17.624  1.00  0.00     0.031 C 
ATOM     39  C   UNL     1       2.872  -5.564  14.194  1.00  0.00     0.029 A 
ATOM     40  N   UNL     1       3.988  -5.238  16.102  1.00  0.00    -0.354 N 
ATOM     41  C   UNL     1       2.412  -2.585  19.155  1.00  0.00     0.074 A 
ATOM     42  C   UNL     1       1.137  -2.033  18.763  1.00  0.00     0.031 C 
ATOM     43  C   UNL     1       4.011  -6.271  14.120  1.00  0.00     0.029 A 
ATOM     44  C   UNL     1       4.780  -6.064  15.342  1.00  0.00     0.049 A 
ATOM     45  H   UNL     1       4.240  -4.928  17.002  1.00  0.00     0.167 HD
ATOM     46  C   UNL     1       3.023  -2.330  20.334  1.00  0.00     0.037 A 
ATOM     47  C   UNL     1       5.994  -6.586  15.602  1.00  0.00     0.037 A 
ATOM     48  C   UNL     1       4.269  -2.922  20.737  1.00  0.00     0.049 A 
ATOM     49  C   UNL     1       6.648  -6.283  16.925  1.00  0.00     0.074 A 
ATOM     50  C   UNL     1       4.935  -2.784  21.942  1.00  0.00     0.029 A 
ATOM     51  N   UNL     1       5.032  -3.770  19.949  1.00  0.00    -0.354 N 
ATOM     52  N   UNL     1       6.204  -5.550  17.917  1.00  0.00    -0.248 NA
ATOM     53  C   UNL     1       7.968  -6.882  17.168  1.00  0.00     0.031 C 
ATOM     54  C   UNL     1       6.127  -3.507  21.864  1.00  0.00     0.029 A 
ATOM     55  C   UNL     1       6.176  -4.141  20.633  1.00  0.00     0.049 A 
ATOM     56  H   UNL     1       4.795  -4.064  19.039  1.00  0.00     0.167 HD
ATOM     57  C   UNL     1       7.174  -5.619  18.907  1.00  0.00     0.074 A 
ATOM     58  C   UNL     1       8.221  -6.483  18.407  1.00  0.00     0.031 C 
ATOM     59  C   UNL     1       7.199  -5.016  20.120  1.00  0.00     0.037 A 
BRANCH  46  60
ATOM     60  C   UNL     1       2.353  -1.397  21.298  1.00  0.00     0.064 A 
ATOM     61  C   UNL     1       1.206  -1.782  22.007  1.00  0.00     0.173 A 
ATOM     62  C   UNL     1       2.928  -0.154  21.600  1.00  0.00     0.173 A 
ATOM     63  F   UNL     1       0.611  -2.956  21.745  1.00  0.00    -0.203 F 
ATOM     64  C   UNL     1       0.660  -0.957  22.987  1.00  0.00     0.198 A 
ATOM     65  C   UNL     1       2.396   0.656  22.599  1.00  0.00     0.198 A 
ATOM     66  F   UNL     1       4.026   0.259  20.950  1.00  0.00    -0.203 F 
ATOM     67  F   UNL     1      -0.445  -1.338  23.641  1.00  0.00    -0.200 F 
ATOM     68  C   UNL     1       1.264   0.254  23.293  1.00  0.00     0.200 A 
ATOM     69  F   UNL     1       2.989   1.819  22.904  1.00  0.00    -0.200 F 
ATOM     70  F   UNL     1       0.757   1.031  24.259  1.00  0.00    -0.200 F 
ENDBRANCH  46  60
BRANCH  47  71
ATOM     71  C   UNL     1       6.662  -7.459  14.600  1.00  0.00     0.064 A 
ATOM     72  C   UNL     1       6.871  -8.822  14.854  1.00  0.00     0.173 A 
ATOM     73  C   UNL     1       7.115  -6.950  13.374  1.00  0.00     0.173 A 
ATOM     74  F   UNL     1       6.473  -9.354  16.019  1.00  0.00    -0.203 F 
ATOM     75  C   UNL     1       7.528  -9.636  13.933  1.00  0.00     0.198 A 
ATOM     76  C   UNL     1       7.743  -7.772  12.439  1.00  0.00     0.198 A 
ATOM     77  F   UNL     1       6.936  -5.655  13.076  1.00  0.00    -0.203 F 
ATOM     78  F   UNL     1       7.760 -10.923  14.225  1.00  0.00    -0.200 F 
ATOM     79  C   UNL     1       7.958  -9.111  12.724  1.00  0.00     0.200 A 
ATOM     80  F   UNL     1       8.142  -7.264  11.265  1.00  0.00    -0.200 F 
ATOM     81  F   UNL     1       8.588  -9.894  11.837  1.00  0.00    -0.200 F 
ENDBRANCH  47  71
BRANCH  59  82
ATOM     82  C   UNL     1       8.381  -5.277  21.006  1.00  0.00     0.064 A 
ATOM     83  C   UNL     1       9.638  -4.721  20.729  1.00  0.00     0.173 A 
ATOM     84  C   UNL     1       8.231  -6.012  22.192  1.00  0.00     0.173 A 
ATOM     85  F   UNL     1       9.833  -4.019  19.603  1.00  0.00    -0.203 F 
ATOM     86  C   UNL     1      10.706  -4.901  21.603  1.00  0.00     0.198 A 
ATOM     87  C   UNL     1       9.293  -6.162  23.079  1.00  0.00     0.198 A 
ATOM     88  F   UNL     1       7.045  -6.554  22.507  1.00  0.00    -0.203 F 
ATOM     89  F   UNL     1      11.907  -4.388  21.303  1.00  0.00    -0.200 F 
ATOM     90  C   UNL     1      10.530  -5.611  22.782  1.00  0.00     0.200 A 
ATOM     91  F   UNL     1       9.114  -6.830  24.227  1.00  0.00    -0.200 F 
ATOM     92  F   UNL     1      11.553  -5.762  23.633  1.00  0.00    -0.200 F 
ENDBRANCH  59  82
ENDBRANCH  33  34
ENDBRANCH  25  28
ENDBRANCH  23  24
ENDBRANCH   1  23
TORSDOF 11
