REMARK SMILES CN1C(=O)/C(=C\c2ccc(-c3ccccc3C(=O)NCCCNC(=O)c3ccc(-c4c5nc(c(-c6c(F)c(F)c(F)c(F)c6F)c6ccc([nH]6)c(-c6c(F)c(F)c(F)c(F)c6F)c6nc(c(-c7c(F)c(F)c(F)c(F)c7F)c7ccc4[nH]7)C=C6)C=C5)cc3)o2)C(=O)[NH+]=C1S
REMARK SMILES IDX 20 1 19 2 17 3 18 4 16 6 11 7 12 8 13 9 15 10 14 11 10 12
REMARK SMILES IDX 7 13 8 14 89 15 9 16 6 17 1 18 2 19 3 20 93 21 4 22 5 23
REMARK SMILES IDX 92 24 90 25 91 27 94 28 21 30 22 31 23 32 24 33 25 35 26 36
REMARK SMILES IDX 27 37 88 38 28 39 87 40 29 41 30 42 31 43 81 44 32 45 86 46
REMARK SMILES IDX 80 47 82 48 33 49 85 50 79 51 78 52 34 54 66 55 46 56 65 57
REMARK SMILES IDX 47 58 50 59 64 60 83 61 48 62 49 63 63 65 84 66 51 67 35 68
REMARK SMILES IDX 36 69 44 70 37 71 38 72 42 73 45 74 39 75 40 76 43 77 41 78
REMARK SMILES IDX 67 79 68 80 76 81 69 82 70 83 74 84 77 85 71 86 72 87 75 88
REMARK SMILES IDX 73 89 52 90 53 91 61 92 54 93 55 94 59 95 62 96 56 97 57 98
REMARK SMILES IDX 60 99 58 100
REMARK H PARENT 19 5 92 26 94 29 23 34 82 53 50 64
REMARK Flexibility Score: inf
ROOT
ATOM      1  C   UNL     1      -0.649  -2.792   6.456  1.00  0.00     0.118 C 
ENDROOT
BRANCH   1   2
ATOM      2  N   UNL     1      -1.309  -3.720   7.319  1.00  0.00    -0.352 N 
ATOM      3  C   UNL     1      -2.454  -4.461   7.189  1.00  0.00     0.252 C 
ATOM      4  O   UNL     1      -2.501  -5.398   8.000  1.00  0.00    -0.269 OA
ATOM      5  H   UNL     1      -0.849  -3.853   8.180  1.00  0.00     0.163 HD
BRANCH   3   6
ATOM      6  C   UNL     1      -3.654  -4.247   6.282  1.00  0.00     0.050 A 
ATOM      7  C   UNL     1      -3.842  -3.582   5.045  1.00  0.00     0.030 A 
ATOM      8  C   UNL     1      -5.133  -3.560   4.454  1.00  0.00     0.013 A 
ATOM      9  C   UNL     1      -6.226  -4.204   5.024  1.00  0.00     0.001 A 
ATOM     10  C   UNL     1      -4.804  -4.888   6.828  1.00  0.00     0.014 A 
ATOM     11  C   UNL     1      -6.058  -4.880   6.215  1.00  0.00     0.001 A 
BRANCH   7  12
ATOM     12  C   UNL     1      -2.843  -2.933   4.217  1.00  0.00     0.135 A 
ATOM     13  C   UNL     1      -1.825  -1.085   3.455  1.00  0.00     0.128 A 
ATOM     14  C   UNL     1      -1.148  -2.203   2.969  1.00  0.00     0.051 A 
ATOM     15  O   UNL     1      -2.878  -1.566   4.214  1.00  0.00    -0.457 OA
ATOM     16  C   UNL     1      -1.827  -3.371   3.400  1.00  0.00     0.051 A 
BRANCH  13  17
ATOM     17  C   UNL     1      -1.536   0.312   3.380  1.00  0.00     0.071 C 
ATOM     18  C   UNL     1       1.328   0.113  -0.489  1.00  0.00     0.301 C 
ATOM     19  N   UNL     1       0.657   0.895   0.542  1.00  0.00    -0.189 N 
ATOM     20  C   UNL     1      -0.440   0.313   1.133  1.00  0.00     0.349 C 
ATOM     21  C   UNL     1       0.929   2.213   0.809  1.00  0.00     0.318 C 
ATOM     22  O   UNL     1      -1.062  -0.609   0.614  1.00  0.00    -0.240 OA
ATOM     23  C   UNL     1      -0.868   0.943   2.394  1.00  0.00     0.157 C 
ATOM     24  N   UNL     1       0.377   2.917   1.727  1.00  0.00    -0.200 N 
ATOM     25  C   UNL     1      -0.523   2.373   2.603  1.00  0.00     0.347 C 
ATOM     26  H   UNL     1       0.606   3.872   1.804  1.00  0.00     0.316 HD
ATOM     27  O   UNL     1      -0.994   3.018   3.524  1.00  0.00    -0.241 OA
BRANCH  21  28
ATOM     28  S   UNL     1       2.093   3.039  -0.200  1.00  0.00    -0.055 SA
ATOM     29  H   UNL     1       2.591   2.172  -1.121  1.00  0.00     0.116 HD
ENDBRANCH  21  28
ENDBRANCH  13  17
ENDBRANCH   7  12
ENDBRANCH   3   6
ENDBRANCH   1   2
BRANCH   1  30
ATOM     30  C   UNL     1      -0.280  -1.459   7.064  1.00  0.00     0.042 C 
BRANCH  30  31
ATOM     31  C   UNL     1       1.220  -1.235   7.162  1.00  0.00     0.118 C 
BRANCH  31  32
ATOM     32  N   UNL     1       1.946  -1.433   5.904  1.00  0.00    -0.352 N 
ATOM     33  C   UNL     1       2.663  -0.598   5.084  1.00  0.00     0.251 C 
ATOM     34  H   UNL     1       1.910  -2.361   5.577  1.00  0.00     0.163 HD
ATOM     35  O   UNL     1       3.038  -1.024   3.992  1.00  0.00    -0.269 OA
BRANCH  33  36
ATOM     36  C   UNL     1       2.950   0.807   5.449  1.00  0.00     0.039 A 
ATOM     37  C   UNL     1       3.118   1.750   4.426  1.00  0.00     0.014 A 
ATOM     38  C   UNL     1       3.058   1.219   6.772  1.00  0.00     0.014 A 
ATOM     39  C   UNL     1       3.271   3.103   4.738  1.00  0.00     0.010 A 
ATOM     40  C   UNL     1       3.053   2.571   7.081  1.00  0.00     0.010 A 
ATOM     41  C   UNL     1       3.167   3.532   6.069  1.00  0.00    -0.014 A 
BRANCH  41  42
ATOM     42  C   UNL     1       3.178   4.968   6.447  1.00  0.00     0.031 A 
ATOM     43  C   UNL     1       4.181   5.472   7.450  1.00  0.00     0.074 A 
ATOM     44  C   UNL     1       2.213   5.787   5.984  1.00  0.00     0.049 A 
ATOM     45  N   UNL     1       4.247   6.635   8.048  1.00  0.00    -0.248 NA
ATOM     46  C   UNL     1       5.224   4.524   7.876  1.00  0.00     0.031 C 
ATOM     47  C   UNL     1       1.145   5.401   5.061  1.00  0.00     0.029 A 
ATOM     48  N   UNL     1       1.956   7.109   6.249  1.00  0.00    -0.354 N 
ATOM     49  C   UNL     1       5.308   6.541   8.939  1.00  0.00     0.074 A 
ATOM     50  C   UNL     1       5.815   5.190   8.855  1.00  0.00     0.031 C 
ATOM     51  C   UNL     1       0.363   6.463   4.818  1.00  0.00     0.029 A 
ATOM     52  C   UNL     1       0.840   7.590   5.608  1.00  0.00     0.049 A 
ATOM     53  H   UNL     1       2.518   7.659   6.841  1.00  0.00     0.167 HD
ATOM     54  C   UNL     1       5.832   7.505   9.732  1.00  0.00     0.037 A 
ATOM     55  C   UNL     1       0.256   8.802   5.667  1.00  0.00     0.037 A 
ATOM     56  C   UNL     1       5.349   8.859   9.774  1.00  0.00     0.049 A 
ATOM     57  C   UNL     1       0.862   9.858   6.549  1.00  0.00     0.074 A 
ATOM     58  C   UNL     1       5.858   9.936  10.476  1.00  0.00     0.029 A 
ATOM     59  N   UNL     1       4.241   9.321   9.077  1.00  0.00    -0.354 N 
ATOM     60  N   UNL     1       1.911   9.781   7.332  1.00  0.00    -0.248 NA
ATOM     61  C   UNL     1       0.206  11.172   6.552  1.00  0.00     0.031 C 
ATOM     62  C   UNL     1       5.031  11.039  10.242  1.00  0.00     0.029 A 
ATOM     63  C   UNL     1       4.037  10.663   9.351  1.00  0.00     0.049 A 
ATOM     64  H   UNL     1       3.683   8.776   8.476  1.00  0.00     0.167 HD
ATOM     65  C   UNL     1       2.056  11.037   7.901  1.00  0.00     0.074 A 
ATOM     66  C   UNL     1       0.998  11.865   7.358  1.00  0.00     0.031 C 
ATOM     67  C   UNL     1       2.979  11.468   8.796  1.00  0.00     0.037 A 
BRANCH  54  68
ATOM     68  C   UNL     1       6.995   7.129  10.607  1.00  0.00     0.064 A 
ATOM     69  C   UNL     1       8.251   6.809  10.067  1.00  0.00     0.173 A 
ATOM     70  C   UNL     1       6.860   7.112  12.004  1.00  0.00     0.173 A 
ATOM     71  F   UNL     1       8.432   6.797   8.738  1.00  0.00    -0.203 F 
ATOM     72  C   UNL     1       9.316   6.449  10.889  1.00  0.00     0.198 A 
ATOM     73  C   UNL     1       7.937   6.785  12.824  1.00  0.00     0.198 A 
ATOM     74  F   UNL     1       5.685   7.413  12.575  1.00  0.00    -0.203 F 
ATOM     75  F   UNL     1      10.486   6.088  10.346  1.00  0.00    -0.200 F 
ATOM     76  C   UNL     1       9.160   6.445  12.267  1.00  0.00     0.200 A 
ATOM     77  F   UNL     1       7.790   6.794  14.156  1.00  0.00    -0.200 F 
ATOM     78  F   UNL     1      10.188   6.103  13.057  1.00  0.00    -0.200 F 
ENDBRANCH  54  68
BRANCH  55  79
ATOM     79  C   UNL     1      -0.953   9.084   4.850  1.00  0.00     0.064 A 
ATOM     80  C   UNL     1      -0.890   9.963   3.759  1.00  0.00     0.173 A 
ATOM     81  C   UNL     1      -2.189   8.485   5.134  1.00  0.00     0.173 A 
ATOM     82  F   UNL     1       0.264  10.577   3.461  1.00  0.00    -0.203 F 
ATOM     83  C   UNL     1      -2.021  10.248   2.998  1.00  0.00     0.198 A 
ATOM     84  C   UNL     1      -3.313   8.748   4.353  1.00  0.00     0.198 A 
ATOM     85  F   UNL     1      -2.303   7.636   6.166  1.00  0.00    -0.203 F 
ATOM     86  F   UNL     1      -1.944  11.130   1.992  1.00  0.00    -0.200 F 
ATOM     87  C   UNL     1      -3.230   9.635   3.291  1.00  0.00     0.200 A 
ATOM     88  F   UNL     1      -4.477   8.146   4.632  1.00  0.00    -0.200 F 
ATOM     89  F   UNL     1      -4.317   9.909   2.557  1.00  0.00    -0.200 F 
ENDBRANCH  55  79
BRANCH  67  90
ATOM     90  C   UNL     1       2.902  12.906   9.219  1.00  0.00     0.064 A 
ATOM     91  C   UNL     1       1.877  13.372  10.055  1.00  0.00     0.173 A 
ATOM     92  C   UNL     1       3.888  13.818   8.814  1.00  0.00     0.173 A 
ATOM     93  F   UNL     1       0.902  12.542  10.457  1.00  0.00    -0.203 F 
ATOM     94  C   UNL     1       1.827  14.706  10.449  1.00  0.00     0.198 A 
ATOM     95  C   UNL     1       3.853  15.143   9.236  1.00  0.00     0.198 A 
ATOM     96  F   UNL     1       4.893  13.420   8.020  1.00  0.00    -0.203 F 
ATOM     97  F   UNL     1       0.812  15.141  11.207  1.00  0.00    -0.200 F 
ATOM     98  C   UNL     1       2.819  15.588  10.046  1.00  0.00     0.200 A 
ATOM     99  F   UNL     1       4.821  15.991   8.859  1.00  0.00    -0.200 F 
ATOM    100  F   UNL     1       2.775  16.870  10.434  1.00  0.00    -0.200 F 
ENDBRANCH  67  90
ENDBRANCH  41  42
ENDBRANCH  33  36
ENDBRANCH  31  32
ENDBRANCH  30  31
ENDBRANCH   1  30
TORSDOF 13
