REMARK SMILES O=C(CCN1C(=O)/C(=C\c2ccc(-c3cccc(Cl)c3)o2)SC1=S)NCCCNC(=O)c1ccc(-c2c3nc(c(-c4c(F)c(F)c(F)c(F)c4F)c4ccc([nH]4)c(-c4c(F)c(F)c(F)c(F)c4F)c4nc(c(-c5c(F)c(F)c(F)c(F)c5F)c5ccc2[nH]5)C=C4)C=C3)cc1
REMARK SMILES IDX 26 1 25 2 1 3 2 4 3 6 4 7 5 8 6 9 23 10 7 11 8 12 22 13
REMARK SMILES IDX 24 14 9 15 10 16 11 17 21 18 12 19 13 20 14 21 15 22 20 23
REMARK SMILES IDX 16 24 18 25 17 26 19 27 27 28 28 29 29 30 30 31 31 33 32 34
REMARK SMILES IDX 33 35 94 36 34 37 93 38 35 39 36 40 37 41 87 42 38 43 92 44
REMARK SMILES IDX 86 45 88 46 39 47 91 48 85 49 84 50 40 52 72 53 52 54 71 55
REMARK SMILES IDX 53 56 56 57 70 58 89 59 54 60 55 61 69 63 90 64 57 65 41 66
REMARK SMILES IDX 42 67 50 68 43 69 44 70 48 71 51 72 45 73 46 74 49 75 47 76
REMARK SMILES IDX 73 77 74 78 82 79 75 80 76 81 80 82 83 83 77 84 78 85 81 86
REMARK SMILES IDX 79 87 58 88 59 89 67 90 60 91 61 92 65 93 68 94 62 95 63 96
REMARK SMILES IDX 66 97 64 98
REMARK H PARENT 25 5 29 32 88 51 56 62
REMARK Flexibility Score: inf
ROOT
ATOM      1  C   UNL     1       1.986   1.622   1.642  1.00  0.00     0.117 C 
ENDROOT
BRANCH   1   2
ATOM      2  N   UNL     1       2.696   0.642   0.848  1.00  0.00    -0.356 N 
ATOM      3  O   UNL     1       0.922   0.085  -0.504  1.00  0.00    -0.275 OA
ATOM      4  C   UNL     1       2.100  -0.038  -0.192  1.00  0.00     0.221 C 
ATOM      5  H   UNL     1       3.640   0.454   1.059  1.00  0.00     0.163 HD
BRANCH   4   6
ATOM      6  C   UNL     1       3.032  -0.994  -0.901  1.00  0.00     0.122 C 
BRANCH   6   7
ATOM      7  C   UNL     1       3.961  -0.302  -1.899  1.00  0.00     0.137 C 
BRANCH   7   8
ATOM      8  N   UNL     1       4.907   0.651  -1.295  1.00  0.00    -0.292 N 
ATOM      9  C   UNL     1       4.646   2.008  -1.435  1.00  0.00     0.266 C 
ATOM     10  C   UNL     1       6.074   0.313  -0.645  1.00  0.00     0.148 C 
ATOM     11  O   UNL     1       3.709   2.472  -2.061  1.00  0.00    -0.268 OA
ATOM     12  C   UNL     1       5.671   2.816  -0.711  1.00  0.00     0.084 C 
ATOM     13  S   UNL     1       6.899   1.768  -0.101  1.00  0.00    -0.054 SA
ATOM     14  S   UNL     1       6.666  -1.210  -0.320  1.00  0.00    -0.052 S 
ATOM     15  C   UNL     1       5.676   4.141  -0.509  1.00  0.00     0.068 C 
BRANCH  15  16
ATOM     16  C   UNL     1       4.606   4.985  -0.906  1.00  0.00     0.128 A 
ATOM     17  C   UNL     1       3.284   4.970  -0.478  1.00  0.00     0.051 A 
ATOM     18  O   UNL     1       4.737   6.016  -1.812  1.00  0.00    -0.457 OA
ATOM     19  C   UNL     1       2.586   5.978  -1.164  1.00  0.00     0.051 A 
ATOM     20  C   UNL     1       3.513   6.592  -1.969  1.00  0.00     0.134 A 
BRANCH  20  21
ATOM     21  C   UNL     1       3.399   7.684  -2.912  1.00  0.00     0.019 A 
ATOM     22  C   UNL     1       2.775   8.876  -2.516  1.00  0.00     0.012 A 
ATOM     23  C   UNL     1       3.799   7.525  -4.243  1.00  0.00     0.032 A 
ATOM     24  C   UNL     1       2.532   9.891  -3.440  1.00  0.00     0.002 A 
ATOM     25  C   UNL     1       3.540   8.537  -5.166  1.00  0.00     0.041 A 
ATOM     26  C   UNL     1       2.906   9.716  -4.771  1.00  0.00     0.020 A 
ATOM     27  Cl  UNL     1       3.972   8.318  -6.817  1.00  0.00    -0.084 Cl
ENDBRANCH  20  21
ENDBRANCH  15  16
ENDBRANCH   7   8
ENDBRANCH   6   7
ENDBRANCH   4   6
ENDBRANCH   1   2
BRANCH   1  28
ATOM     28  C   UNL     1       2.369   1.581   3.114  1.00  0.00     0.042 C 
BRANCH  28  29
ATOM     29  C   UNL     1       3.848   1.810   3.415  1.00  0.00     0.118 C 
BRANCH  29  30
ATOM     30  N   UNL     1       4.330   3.138   3.070  1.00  0.00    -0.352 N 
ATOM     31  C   UNL     1       5.089   4.018   3.806  1.00  0.00     0.251 C 
ATOM     32  H   UNL     1       4.074   3.455   2.174  1.00  0.00     0.163 HD
ATOM     33  O   UNL     1       5.330   5.131   3.348  1.00  0.00    -0.269 OA
BRANCH  31  34
ATOM     34  C   UNL     1       5.582   3.657   5.156  1.00  0.00     0.039 A 
ATOM     35  C   UNL     1       5.507   4.615   6.172  1.00  0.00     0.014 A 
ATOM     36  C   UNL     1       6.119   2.398   5.434  1.00  0.00     0.014 A 
ATOM     37  C   UNL     1       5.902   4.287   7.473  1.00  0.00     0.010 A 
ATOM     38  C   UNL     1       6.431   2.045   6.747  1.00  0.00     0.010 A 
ATOM     39  C   UNL     1       6.330   2.986   7.783  1.00  0.00    -0.014 A 
BRANCH  39  40
ATOM     40  C   UNL     1       6.663   2.605   9.184  1.00  0.00     0.031 A 
ATOM     41  C   UNL     1       8.054   2.163   9.551  1.00  0.00     0.074 A 
ATOM     42  C   UNL     1       5.698   2.619  10.125  1.00  0.00     0.049 A 
ATOM     43  N   UNL     1       8.525   1.790  10.716  1.00  0.00    -0.248 NA
ATOM     44  C   UNL     1       9.042   2.107   8.463  1.00  0.00     0.031 C 
ATOM     45  C   UNL     1       4.296   2.972   9.893  1.00  0.00     0.029 A 
ATOM     46  N   UNL     1       5.747   2.331  11.468  1.00  0.00    -0.354 N 
ATOM     47  C   UNL     1       9.855   1.453  10.498  1.00  0.00     0.074 A 
ATOM     48  C   UNL     1      10.100   1.602   9.080  1.00  0.00     0.031 C 
ATOM     49  C   UNL     1       3.628   2.914  11.056  1.00  0.00     0.029 A 
ATOM     50  C   UNL     1       4.542   2.483  12.110  1.00  0.00     0.049 A 
ATOM     51  H   UNL     1       6.569   2.042  11.927  1.00  0.00     0.167 HD
ATOM     52  C   UNL     1      10.795   1.079  11.400  1.00  0.00     0.037 A 
ATOM     53  C   UNL     1       4.208   2.295  13.401  1.00  0.00     0.037 A 
ATOM     54  C   UNL     1      10.555   0.944  12.814  1.00  0.00     0.049 A 
ATOM     55  C   UNL     1       5.269   1.869  14.381  1.00  0.00     0.074 A 
ATOM     56  C   UNL     1      11.456   0.624  13.815  1.00  0.00     0.029 A 
ATOM     57  N   UNL     1       9.322   1.111  13.427  1.00  0.00    -0.354 N 
ATOM     58  N   UNL     1       6.542   1.633  14.175  1.00  0.00    -0.248 NA
ATOM     59  C   UNL     1       4.846   1.696  15.778  1.00  0.00     0.031 C 
ATOM     60  C   UNL     1      10.757   0.541  15.024  1.00  0.00     0.029 A 
ATOM     61  C   UNL     1       9.434   0.875  14.789  1.00  0.00     0.049 A 
ATOM     62  H   UNL     1       8.490   1.362  12.963  1.00  0.00     0.167 HD
ATOM     63  C   UNL     1       7.077   1.315  15.416  1.00  0.00     0.074 A 
ATOM     64  C   UNL     1       5.995   1.410  16.373  1.00  0.00     0.031 C 
ATOM     65  C   UNL     1       8.351   0.976  15.735  1.00  0.00     0.037 A 
BRANCH  52  66
ATOM     66  C   UNL     1      12.178   0.791  10.885  1.00  0.00     0.064 A 
ATOM     67  C   UNL     1      13.002   1.806  10.373  1.00  0.00     0.173 A 
ATOM     68  C   UNL     1      12.704  -0.509  10.942  1.00  0.00     0.173 A 
ATOM     69  F   UNL     1      12.547   3.066  10.287  1.00  0.00    -0.203 F 
ATOM     70  C   UNL     1      14.284   1.526   9.908  1.00  0.00     0.198 A 
ATOM     71  C   UNL     1      14.000  -0.780  10.509  1.00  0.00     0.198 A 
ATOM     72  F   UNL     1      11.966  -1.518  11.429  1.00  0.00    -0.203 F 
ATOM     73  F   UNL     1      15.030   2.503   9.373  1.00  0.00    -0.200 F 
ATOM     74  C   UNL     1      14.785   0.235   9.984  1.00  0.00     0.200 A 
ATOM     75  F   UNL     1      14.489  -2.025  10.599  1.00  0.00    -0.200 F 
ATOM     76  F   UNL     1      16.023  -0.032   9.545  1.00  0.00    -0.200 F 
ENDBRANCH  52  66
BRANCH  53  77
ATOM     77  C   UNL     1       2.810   2.534  13.853  1.00  0.00     0.064 A 
ATOM     78  C   UNL     1       2.502   3.594  14.718  1.00  0.00     0.173 A 
ATOM     79  C   UNL     1       1.758   1.702  13.444  1.00  0.00     0.173 A 
ATOM     80  F   UNL     1       3.476   4.407  15.154  1.00  0.00    -0.203 F 
ATOM     81  C   UNL     1       1.202   3.795  15.178  1.00  0.00     0.198 A 
ATOM     82  C   UNL     1       0.453   1.924  13.878  1.00  0.00     0.198 A 
ATOM     83  F   UNL     1       1.997   0.676  12.613  1.00  0.00    -0.203 F 
ATOM     84  F   UNL     1       0.947   4.782  16.048  1.00  0.00    -0.200 F 
ATOM     85  C   UNL     1       0.178   2.963  14.753  1.00  0.00     0.200 A 
ATOM     86  F   UNL     1      -0.537   1.128  13.451  1.00  0.00    -0.200 F 
ATOM     87  F   UNL     1      -1.073   3.158  15.193  1.00  0.00    -0.200 F 
ENDBRANCH  53  77
BRANCH  65  88
ATOM     88  C   UNL     1       8.654   0.721  17.185  1.00  0.00     0.064 A 
ATOM     89  C   UNL     1       8.146  -0.397  17.864  1.00  0.00     0.173 A 
ATOM     90  C   UNL     1       9.481   1.601  17.901  1.00  0.00     0.173 A 
ATOM     91  F   UNL     1       7.340  -1.263  17.231  1.00  0.00    -0.203 F 
ATOM     92  C   UNL     1       8.422  -0.602  19.214  1.00  0.00     0.198 A 
ATOM     93  C   UNL     1       9.785   1.372  19.240  1.00  0.00     0.198 A 
ATOM     94  F   UNL     1      10.001   2.682  17.300  1.00  0.00    -0.203 F 
ATOM     95  F   UNL     1       7.873  -1.642  19.857  1.00  0.00    -0.200 F 
ATOM     96  C   UNL     1       9.246   0.278  19.899  1.00  0.00     0.200 A 
ATOM     97  F   UNL     1      10.596   2.215  19.895  1.00  0.00    -0.200 F 
ATOM     98  F   UNL     1       9.513   0.077  21.197  1.00  0.00    -0.200 F 
ENDBRANCH  65  88
ENDBRANCH  39  40
ENDBRANCH  31  34
ENDBRANCH  29  30
ENDBRANCH  28  29
ENDBRANCH   1  28
TORSDOF 14
