REMARK SMILES C[NH+](C)CC[NH2+][C@@H](C(=O)NCCCNC(=O)c1ccc(-c2c3nc(c(-c4c(F)c(F)c(F)c(F)c4F)c4ccc([nH]4)c(-c4c(F)c(F)c(F)c(F)c4F)c4nc(c(-c5c(F)c(F)c(F)c(F)c5F)c5ccc2[nH]5)C=C4)C=C3)cc1)c1cccc(C2CC2)c1
REMARK SMILES IDX 11 1 10 2 8 3 9 4 7 6 6 7 5 10 4 11 2 12 1 13 3 14 80 16
REMARK SMILES IDX 81 17 88 18 82 19 84 20 83 21 85 22 86 23 87 24 12 25 13 26
REMARK SMILES IDX 14 27 15 28 16 30 17 31 18 32 79 33 19 34 78 35 20 36 21 37
REMARK SMILES IDX 22 38 72 39 23 40 77 41 71 42 73 43 24 44 76 45 70 46 69 47
REMARK SMILES IDX 25 49 57 50 37 51 56 52 38 53 41 54 55 55 74 56 39 57 40 58
REMARK SMILES IDX 54 60 75 61 42 62 26 63 27 64 35 65 28 66 29 67 33 68 36 69
REMARK SMILES IDX 30 70 31 71 34 72 32 73 58 74 59 75 67 76 60 77 61 78 65 79
REMARK SMILES IDX 68 80 62 81 63 82 66 83 64 84 43 85 44 86 52 87 45 88 46 89
REMARK SMILES IDX 50 90 53 91 47 92 48 93 51 94 49 95
REMARK H PARENT 10 5 6 8 6 9 2 15 14 29 73 48 41 59
REMARK Flexibility Score: inf
ROOT
ATOM      1  C   UNL     1      -1.358  -1.736  -4.594  1.00  0.00     0.118 C 
ENDROOT
BRANCH   1   2
ATOM      2  N   UNL     1      -1.765  -0.497  -3.945  1.00  0.00    -0.351 N 
ATOM      3  C   UNL     1      -1.062   0.547  -3.407  1.00  0.00     0.283 C 
ATOM      4  O   UNL     1      -1.728   1.331  -2.720  1.00  0.00    -0.268 OA
ATOM      5  H   UNL     1      -2.742  -0.388  -3.881  1.00  0.00     0.163 HD
BRANCH   3   6
ATOM      6  C   UNL     1       0.490   0.689  -3.577  1.00  0.00     0.304 C 
BRANCH   6   7
ATOM      7  N   UNL     1       1.145   0.215  -2.327  1.00  0.00    -0.328 N 
ATOM      8  H   UNL     1       2.150   0.358  -2.421  1.00  0.00     0.347 HD
ATOM      9  H   UNL     1       0.733   0.753  -1.565  1.00  0.00     0.347 HD
BRANCH   7  10
ATOM     10  C   UNL     1       0.914  -1.183  -2.014  1.00  0.00     0.323 C 
BRANCH  10  11
ATOM     11  C   UNL     1       1.476  -1.627  -0.645  1.00  0.00     0.323 C 
BRANCH  11  12
ATOM     12  N   UNL     1       0.800  -1.159   0.576  1.00  0.00    -0.335 N 
ATOM     13  C   UNL     1       1.158   0.200   0.965  1.00  0.00     0.332 C 
ATOM     14  C   UNL     1      -0.648  -1.338   0.559  1.00  0.00     0.332 C 
ATOM     15  H   UNL     1       1.163  -1.779   1.301  1.00  0.00     0.347 HD
ENDBRANCH  11  12
ENDBRANCH  10  11
ENDBRANCH   7  10
ENDBRANCH   6   7
BRANCH   6  16
ATOM     16  C   UNL     1       0.972   2.140  -3.804  1.00  0.00     0.019 A 
ATOM     17  C   UNL     1       2.337   2.439  -3.626  1.00  0.00     0.010 A 
ATOM     18  C   UNL     1       0.112   3.209  -4.124  1.00  0.00     0.014 A 
ATOM     19  C   UNL     1       2.800   3.751  -3.671  1.00  0.00     0.001 A 
ATOM     20  C   UNL     1       0.545   4.554  -4.163  1.00  0.00    -0.044 A 
ATOM     21  C   UNL     1       1.908   4.792  -3.920  1.00  0.00     0.004 A 
BRANCH  20  22
ATOM     22  C   UNL     1      -0.382   5.735  -4.394  1.00  0.00     0.019 C 
ATOM     23  C   UNL     1      -1.731   5.612  -5.057  1.00  0.00     0.009 C 
ATOM     24  C   UNL     1      -1.649   5.853  -3.577  1.00  0.00     0.009 C 
ENDBRANCH  20  22
ENDBRANCH   6  16
ENDBRANCH   3   6
ENDBRANCH   1   2
BRANCH   1  25
ATOM     25  C   UNL     1      -1.583  -2.990  -3.729  1.00  0.00     0.042 C 
BRANCH  25  26
ATOM     26  C   UNL     1      -2.981  -3.154  -3.127  1.00  0.00     0.118 C 
BRANCH  26  27
ATOM     27  N   UNL     1      -3.844  -3.945  -3.982  1.00  0.00    -0.352 N 
ATOM     28  C   UNL     1      -4.484  -5.134  -3.729  1.00  0.00     0.251 C 
ATOM     29  H   UNL     1      -3.995  -3.573  -4.881  1.00  0.00     0.163 HD
ATOM     30  O   UNL     1      -4.955  -5.764  -4.673  1.00  0.00    -0.269 OA
BRANCH  28  31
ATOM     31  C   UNL     1      -4.631  -5.677  -2.353  1.00  0.00     0.039 A 
ATOM     32  C   UNL     1      -4.583  -7.067  -2.185  1.00  0.00     0.014 A 
ATOM     33  C   UNL     1      -4.943  -4.868  -1.256  1.00  0.00     0.014 A 
ATOM     34  C   UNL     1      -4.848  -7.641  -0.937  1.00  0.00     0.010 A 
ATOM     35  C   UNL     1      -5.158  -5.439   0.006  1.00  0.00     0.010 A 
ATOM     36  C   UNL     1      -5.145  -6.833   0.172  1.00  0.00    -0.014 A 
BRANCH  36  37
ATOM     37  C   UNL     1      -5.514  -7.452   1.475  1.00  0.00     0.031 A 
ATOM     38  C   UNL     1      -6.926  -7.353   1.993  1.00  0.00     0.074 A 
ATOM     39  C   UNL     1      -4.590  -8.114   2.198  1.00  0.00     0.049 A 
ATOM     40  N   UNL     1      -7.447  -7.852   3.088  1.00  0.00    -0.248 NA
ATOM     41  C   UNL     1      -7.875  -6.576   1.182  1.00  0.00     0.031 C 
ATOM     42  C   UNL     1      -3.180  -8.257   1.838  1.00  0.00     0.029 A 
ATOM     43  N   UNL     1      -4.702  -8.794   3.387  1.00  0.00    -0.354 N 
ATOM     44  C   UNL     1      -8.773  -7.437   3.103  1.00  0.00     0.074 A 
ATOM     45  C   UNL     1      -8.967  -6.610   1.931  1.00  0.00     0.031 C 
ATOM     46  C   UNL     1      -2.562  -8.999   2.772  1.00  0.00     0.029 A 
ATOM     47  C   UNL     1      -3.527  -9.371   3.804  1.00  0.00     0.049 A 
ATOM     48  H   UNL     1      -5.544  -8.861   3.892  1.00  0.00     0.167 HD
ATOM     49  C   UNL     1      -9.748  -7.734   3.997  1.00  0.00     0.037 A 
ATOM     50  C   UNL     1      -3.261 -10.126   4.887  1.00  0.00     0.037 A 
ATOM     51  C   UNL     1      -9.574  -8.582   5.146  1.00  0.00     0.049 A 
ATOM     52  C   UNL     1      -4.369 -10.474   5.844  1.00  0.00     0.074 A 
ATOM     53  C   UNL     1     -10.515  -8.974   6.084  1.00  0.00     0.029 A 
ATOM     54  N   UNL     1      -8.376  -9.176   5.513  1.00  0.00    -0.354 N 
ATOM     55  N   UNL     1      -5.631 -10.124   5.812  1.00  0.00    -0.248 NA
ATOM     56  C   UNL     1      -4.016 -11.340   6.979  1.00  0.00     0.031 C 
ATOM     57  C   UNL     1      -9.880  -9.784   7.032  1.00  0.00     0.029 A 
ATOM     58  C   UNL     1      -8.552  -9.927   6.665  1.00  0.00     0.049 A 
ATOM     59  H   UNL     1      -7.525  -9.079   5.027  1.00  0.00     0.167 HD
ATOM     60  C   UNL     1      -6.228 -10.748   6.900  1.00  0.00     0.074 A 
ATOM     61  C   UNL     1      -5.192 -11.509   7.567  1.00  0.00     0.031 C 
ATOM     62  C   UNL     1      -7.519 -10.693   7.310  1.00  0.00     0.037 A 
BRANCH  49  63
ATOM     63  C   UNL     1     -11.105  -7.138   3.760  1.00  0.00     0.064 A 
ATOM     64  C   UNL     1     -11.935  -7.592   2.724  1.00  0.00     0.173 A 
ATOM     65  C   UNL     1     -11.596  -6.126   4.599  1.00  0.00     0.173 A 
ATOM     66  F   UNL     1     -11.507  -8.550   1.888  1.00  0.00    -0.203 F 
ATOM     67  C   UNL     1     -13.194  -7.035   2.518  1.00  0.00     0.198 A 
ATOM     68  C   UNL     1     -12.866  -5.589   4.406  1.00  0.00     0.198 A 
ATOM     69  F   UNL     1     -10.846  -5.661   5.609  1.00  0.00    -0.203 F 
ATOM     70  F   UNL     1     -13.950  -7.452   1.493  1.00  0.00    -0.200 F 
ATOM     71  C   UNL     1     -13.661  -6.038   3.362  1.00  0.00     0.200 A 
ATOM     72  F   UNL     1     -13.321  -4.634   5.229  1.00  0.00    -0.200 F 
ATOM     73  F   UNL     1     -14.875  -5.505   3.164  1.00  0.00    -0.200 F 
ENDBRANCH  49  63
BRANCH  50  74
ATOM     74  C   UNL     1      -1.888 -10.650   5.102  1.00  0.00     0.064 A 
ATOM     75  C   UNL     1      -1.602 -12.010   4.918  1.00  0.00     0.173 A 
ATOM     76  C   UNL     1      -0.841  -9.809   5.501  1.00  0.00     0.173 A 
ATOM     77  F   UNL     1      -2.579 -12.857   4.560  1.00  0.00    -0.203 F 
ATOM     78  C   UNL     1      -0.323 -12.512   5.142  1.00  0.00     0.198 A 
ATOM     79  C   UNL     1       0.444 -10.308   5.702  1.00  0.00     0.198 A 
ATOM     80  F   UNL     1      -1.065  -8.500   5.689  1.00  0.00    -0.203 F 
ATOM     81  F   UNL     1      -0.085 -13.823   4.999  1.00  0.00    -0.200 F 
ATOM     82  C   UNL     1       0.701 -11.660   5.529  1.00  0.00     0.200 A 
ATOM     83  F   UNL     1       1.433  -9.481   6.066  1.00  0.00    -0.200 F 
ATOM     84  F   UNL     1       1.932 -12.143   5.742  1.00  0.00    -0.200 F 
ENDBRANCH  50  74
BRANCH  62  85
ATOM     85  C   UNL     1      -7.893 -11.509   8.511  1.00  0.00     0.064 A 
ATOM     86  C   UNL     1      -7.502 -11.136   9.806  1.00  0.00     0.173 A 
ATOM     87  C   UNL     1      -8.672 -12.667   8.367  1.00  0.00     0.173 A 
ATOM     88  F   UNL     1      -6.745 -10.045   9.993  1.00  0.00    -0.203 F 
ATOM     89  C   UNL     1      -7.854 -11.909  10.909  1.00  0.00     0.198 A 
ATOM     90  C   UNL     1      -9.042 -13.424   9.475  1.00  0.00     0.198 A 
ATOM     91  F   UNL     1      -9.075 -13.063   7.150  1.00  0.00    -0.203 F 
ATOM     92  F   UNL     1      -7.429 -11.561  12.132  1.00  0.00    -0.200 F 
ATOM     93  C   UNL     1      -8.627 -13.049  10.743  1.00  0.00     0.200 A 
ATOM     94  F   UNL     1      -9.796 -14.521   9.314  1.00  0.00    -0.200 F 
ATOM     95  F   UNL     1      -8.963 -13.793  11.807  1.00  0.00    -0.200 F 
ENDBRANCH  62  85
ENDBRANCH  36  37
ENDBRANCH  28  31
ENDBRANCH  26  27
ENDBRANCH  25  26
ENDBRANCH   1  25
TORSDOF 16
