REMARK SMILES O=C(NCCCNC(=O)[C@H]1CCC(=O)N(C2CCCCC2)[C@H]1c1ccccc1)c1ccc(-c2c3nc(c(-c4c(F)c(F)c(F)c(F)c4F)c4ccc([nH]4)c(-c4c(F)c(F)c(F)c(F)c4F)c4nc(c(-c5c(F)c(F)c(F)c(F)c5F)c5ccc2[nH]5)C=C4)C=C3)cc1
REMARK SMILES IDX 4 1 3 2 1 3 2 4 29 6 30 7 91 8 31 9 90 10 32 11 33 12 34 13
REMARK SMILES IDX 84 14 35 15 89 16 83 17 85 18 36 19 88 20 82 21 81 22 37 24
REMARK SMILES IDX 69 25 49 26 68 27 50 28 53 29 67 30 86 31 51 32 52 33 66 35
REMARK SMILES IDX 87 36 54 37 38 38 39 39 47 40 40 41 41 42 45 43 48 44 42 45
REMARK SMILES IDX 43 46 46 47 44 48 70 49 71 50 79 51 72 52 73 53 77 54 80 55
REMARK SMILES IDX 74 56 75 57 78 58 76 59 55 60 56 61 64 62 57 63 58 64 62 65
REMARK SMILES IDX 65 66 59 67 60 68 63 69 61 70 5 71 6 72 7 73 8 74 9 76 10 77
REMARK SMILES IDX 11 78 22 79 12 80 15 81 13 82 14 83 23 84 24 85 28 86 25 87
REMARK SMILES IDX 27 88 26 89 16 90 17 91 21 92 18 93 20 94 19 95
REMARK H PARENT 3 5 85 23 53 34 7 75
REMARK Flexibility Score: inf
ROOT
ATOM      1  C   UNL     1       8.010  -0.576  -1.602  1.00  0.00     0.118 C 
ENDROOT
BRANCH   1   2
ATOM      2  N   UNL     1       9.321  -1.209  -1.552  1.00  0.00    -0.352 N 
ATOM      3  O   UNL     1      11.290  -1.844  -0.652  1.00  0.00    -0.269 OA
ATOM      4  C   UNL     1      10.150  -1.439  -0.477  1.00  0.00     0.251 C 
ATOM      5  H   UNL     1       9.667  -1.520  -2.420  1.00  0.00     0.163 HD
BRANCH   4   6
ATOM      6  C   UNL     1       9.662  -1.162   0.892  1.00  0.00     0.039 A 
ATOM      7  C   UNL     1       8.372  -1.528   1.268  1.00  0.00     0.014 A 
ATOM      8  C   UNL     1      10.499  -0.513   1.805  1.00  0.00     0.014 A 
ATOM      9  C   UNL     1       7.848  -1.066   2.465  1.00  0.00     0.010 A 
ATOM     10  C   UNL     1      10.010  -0.164   3.069  1.00  0.00     0.010 A 
ATOM     11  C   UNL     1       8.666  -0.401   3.393  1.00  0.00    -0.014 A 
BRANCH  11  12
ATOM     12  C   UNL     1       8.085  -0.039   4.712  1.00  0.00     0.031 A 
ATOM     13  C   UNL     1       7.968   1.391   5.158  1.00  0.00     0.074 A 
ATOM     14  C   UNL     1       7.587  -1.032   5.476  1.00  0.00     0.049 A 
ATOM     15  N   UNL     1       7.419   1.869   6.248  1.00  0.00    -0.248 NA
ATOM     16  C   UNL     1       8.545   2.420   4.281  1.00  0.00     0.031 C 
ATOM     17  C   UNL     1       7.667  -2.459   5.153  1.00  0.00     0.029 A 
ATOM     18  N   UNL     1       6.884  -0.999   6.652  1.00  0.00    -0.354 N 
ATOM     19  C   UNL     1       7.598   3.244   6.196  1.00  0.00     0.074 A 
ATOM     20  C   UNL     1       8.331   3.527   4.980  1.00  0.00     0.031 C 
ATOM     21  C   UNL     1       6.975  -3.157   6.063  1.00  0.00     0.029 A 
ATOM     22  C   UNL     1       6.468  -2.238   7.073  1.00  0.00     0.049 A 
ATOM     23  H   UNL     1       6.696  -0.169   7.146  1.00  0.00     0.167 HD
ATOM     24  C   UNL     1       7.179   4.184   7.079  1.00  0.00     0.037 A 
ATOM     25  C   UNL     1       5.765  -2.601   8.161  1.00  0.00     0.037 A 
ATOM     26  C   UNL     1       6.438   3.895   8.281  1.00  0.00     0.049 A 
ATOM     27  C   UNL     1       5.306  -1.536   9.112  1.00  0.00     0.074 A 
ATOM     28  C   UNL     1       5.968   4.777   9.240  1.00  0.00     0.029 A 
ATOM     29  N   UNL     1       6.053   2.625   8.687  1.00  0.00    -0.354 N 
ATOM     30  N   UNL     1       5.477  -0.239   9.043  1.00  0.00    -0.248 NA
ATOM     31  C   UNL     1       4.560  -1.986  10.294  1.00  0.00     0.031 C 
ATOM     32  C   UNL     1       5.328   4.037  10.241  1.00  0.00     0.029 A 
ATOM     33  C   UNL     1       5.360   2.699   9.885  1.00  0.00     0.049 A 
ATOM     34  H   UNL     1       6.244   1.793   8.195  1.00  0.00     0.167 HD
ATOM     35  C   UNL     1       4.862   0.284  10.170  1.00  0.00     0.074 A 
ATOM     36  C   UNL     1       4.279  -0.834  10.885  1.00  0.00     0.031 C 
ATOM     37  C   UNL     1       4.796   1.573  10.584  1.00  0.00     0.037 A 
BRANCH  24  38
ATOM     38  C   UNL     1       7.514   5.618   6.786  1.00  0.00     0.064 A 
ATOM     39  C   UNL     1       6.864   6.331   5.768  1.00  0.00     0.173 A 
ATOM     40  C   UNL     1       8.453   6.305   7.571  1.00  0.00     0.173 A 
ATOM     41  F   UNL     1       5.968   5.717   4.981  1.00  0.00    -0.203 F 
ATOM     42  C   UNL     1       7.152   7.674   5.536  1.00  0.00     0.198 A 
ATOM     43  C   UNL     1       8.720   7.655   7.353  1.00  0.00     0.198 A 
ATOM     44  F   UNL     1       9.100   5.673   8.561  1.00  0.00    -0.203 F 
ATOM     45  F   UNL     1       6.543   8.325   4.536  1.00  0.00    -0.200 F 
ATOM     46  C   UNL     1       8.073   8.337   6.333  1.00  0.00     0.200 A 
ATOM     47  F   UNL     1       9.602   8.297   8.132  1.00  0.00    -0.200 F 
ATOM     48  F   UNL     1       8.340   9.632   6.116  1.00  0.00    -0.200 F 
ENDBRANCH  24  38
BRANCH  25  49
ATOM     49  C   UNL     1       5.470  -4.036   8.402  1.00  0.00     0.064 A 
ATOM     50  C   UNL     1       4.162  -4.533   8.322  1.00  0.00     0.173 A 
ATOM     51  C   UNL     1       6.497  -4.944   8.701  1.00  0.00     0.173 A 
ATOM     52  F   UNL     1       3.145  -3.701   8.054  1.00  0.00    -0.203 F 
ATOM     53  C   UNL     1       3.891  -5.880   8.547  1.00  0.00     0.198 A 
ATOM     54  C   UNL     1       6.229  -6.297   8.893  1.00  0.00     0.198 A 
ATOM     55  F   UNL     1       7.767  -4.520   8.780  1.00  0.00    -0.203 F 
ATOM     56  F   UNL     1       2.627  -6.323   8.507  1.00  0.00    -0.200 F 
ATOM     57  C   UNL     1       4.925  -6.763   8.825  1.00  0.00     0.200 A 
ATOM     58  F   UNL     1       7.234  -7.148   9.140  1.00  0.00    -0.200 F 
ATOM     59  F   UNL     1       4.665  -8.060   9.032  1.00  0.00    -0.200 F 
ENDBRANCH  25  49
BRANCH  37  60
ATOM     60  C   UNL     1       4.062   1.831  11.865  1.00  0.00     0.064 A 
ATOM     61  C   UNL     1       4.603   1.461  13.105  1.00  0.00     0.173 A 
ATOM     62  C   UNL     1       2.806   2.456  11.853  1.00  0.00     0.173 A 
ATOM     63  F   UNL     1       5.793   0.844  13.165  1.00  0.00    -0.203 F 
ATOM     64  C   UNL     1       3.898   1.677  14.285  1.00  0.00     0.198 A 
ATOM     65  C   UNL     1       2.116   2.695  13.038  1.00  0.00     0.198 A 
ATOM     66  F   UNL     1       2.249   2.831  10.692  1.00  0.00    -0.203 F 
ATOM     67  F   UNL     1       4.409   1.263  15.453  1.00  0.00    -0.200 F 
ATOM     68  C   UNL     1       2.658   2.296  14.251  1.00  0.00     0.200 A 
ATOM     69  F   UNL     1       0.922   3.301  13.005  1.00  0.00    -0.200 F 
ATOM     70  F   UNL     1       1.978   2.499  15.388  1.00  0.00    -0.200 F 
ENDBRANCH  37  60
ENDBRANCH  11  12
ENDBRANCH   4   6
ENDBRANCH   1   2
BRANCH   1  71
ATOM     71  C   UNL     1       8.016   0.759  -2.325  1.00  0.00     0.042 C 
BRANCH  71  72
ATOM     72  C   UNL     1       8.320   0.662  -3.811  1.00  0.00     0.117 C 
BRANCH  72  73
ATOM     73  N   UNL     1       7.398  -0.229  -4.488  1.00  0.00    -0.356 N 
ATOM     74  C   UNL     1       6.406   0.054  -5.370  1.00  0.00     0.225 C 
ATOM     75  H   UNL     1       7.509  -1.184  -4.276  1.00  0.00     0.163 HD
ATOM     76  O   UNL     1       5.432  -0.699  -5.337  1.00  0.00    -0.275 OA
BRANCH  74  77
ATOM     77  C   UNL     1       6.454   1.307  -6.231  1.00  0.00     0.106 C 
ATOM     78  C   UNL     1       7.813   1.675  -6.822  1.00  0.00     0.026 C 
ATOM     79  C   UNL     1       5.443   1.270  -7.413  1.00  0.00     0.128 C 
ATOM     80  C   UNL     1       7.732   3.100  -7.327  1.00  0.00     0.101 C 
ATOM     81  N   UNL     1       5.391   2.603  -8.074  1.00  0.00    -0.332 N 
ATOM     82  C   UNL     1       6.487   3.462  -8.116  1.00  0.00     0.223 C 
ATOM     83  O   UNL     1       6.478   4.541  -8.712  1.00  0.00    -0.275 OA
BRANCH  79  84
ATOM     84  C   UNL     1       5.704   0.143  -8.432  1.00  0.00    -0.025 A 
ATOM     85  C   UNL     1       6.486   0.332  -9.585  1.00  0.00     0.006 A 
ATOM     86  C   UNL     1       5.193  -1.147  -8.208  1.00  0.00     0.006 A 
ATOM     87  C   UNL     1       6.776  -0.727 -10.450  1.00  0.00     0.000 A 
ATOM     88  C   UNL     1       5.508  -2.215  -9.053  1.00  0.00     0.000 A 
ATOM     89  C   UNL     1       6.303  -2.005 -10.173  1.00  0.00     0.000 A 
ENDBRANCH  79  84
BRANCH  81  90
ATOM     90  C   UNL     1       4.149   2.959  -8.804  1.00  0.00     0.085 C 
ATOM     91  C   UNL     1       3.472   4.204  -8.199  1.00  0.00     0.025 C 
ATOM     92  C   UNL     1       4.371   3.082 -10.325  1.00  0.00     0.025 C 
ATOM     93  C   UNL     1       2.244   4.644  -8.991  1.00  0.00     0.002 C 
ATOM     94  C   UNL     1       3.127   3.553 -11.069  1.00  0.00     0.002 C 
ATOM     95  C   UNL     1       2.571   4.837 -10.467  1.00  0.00     0.000 C 
ENDBRANCH  81  90
ENDBRANCH  74  77
ENDBRANCH  72  73
ENDBRANCH  71  72
ENDBRANCH   1  71
TORSDOF 12
