REMARK SMILES O=C(COCCNc1nncs1)NCCCNC(=O)c1ccc(-c2c3nc(c(-c4c(F)c(F)c(F)c(F)c4F)c4ccc([nH]4)c(-c4c(F)c(F)c(F)c(F)c4F)c4nc(c(-c5c(F)c(F)c(F)c(F)c5F)c5ccc2[nH]5)C=C4)C=C3)cc1
REMARK SMILES IDX 1 1 2 2 13 3 3 5 4 6 5 7 6 8 7 9 8 11 9 12 12 13 10 14 11 15
REMARK SMILES IDX 14 16 15 17 16 18 17 19 18 20 19 22 20 23 21 24 82 25 22 26
REMARK SMILES IDX 81 27 23 28 24 29 25 30 75 31 26 32 80 33 74 34 76 35 27 36
REMARK SMILES IDX 79 37 73 38 72 39 28 41 60 42 40 43 59 44 41 45 44 46 58 47
REMARK SMILES IDX 77 48 42 49 43 50 57 52 78 53 45 54 29 55 30 56 38 57 31 58
REMARK SMILES IDX 32 59 36 60 39 61 33 62 34 63 37 64 35 65 61 66 62 67 70 68
REMARK SMILES IDX 63 69 64 70 68 71 71 72 65 73 66 74 69 75 67 76 46 77 47 78
REMARK SMILES IDX 55 79 48 80 49 81 53 82 56 83 50 84 51 85 54 86 52 87
REMARK H PARENT 13 4 7 10 17 21 76 40 44 51
REMARK Flexibility Score: inf
ROOT
ATOM      1  O   UNL     1       1.662   0.921   0.763  1.00  0.00    -0.272 OA
ATOM      2  C   UNL     1       2.601   0.396   0.177  1.00  0.00     0.245 C 
ATOM      3  N   UNL     1       2.977   0.701  -1.114  1.00  0.00    -0.354 N 
ATOM      4  H   UNL     1       3.810   0.314  -1.469  1.00  0.00     0.163 HD
ENDROOT
BRANCH   2   5
ATOM      5  C   UNL     1       3.501  -0.655   0.836  1.00  0.00     0.260 C 
BRANCH   5   6
ATOM      6  O   UNL     1       3.869  -1.761   0.023  1.00  0.00    -0.370 OA
BRANCH   6   7
ATOM      7  C   UNL     1       2.786  -2.522  -0.530  1.00  0.00     0.182 C 
BRANCH   7   8
ATOM      8  C   UNL     1       1.942  -3.303   0.492  1.00  0.00     0.143 C 
BRANCH   8   9
ATOM      9  N   UNL     1       0.877  -2.485   1.037  1.00  0.00    -0.358 N 
ATOM     10  H   UNL     1       1.145  -1.768   1.656  1.00  0.00     0.163 HD
BRANCH   9  11
ATOM     11  C   UNL     1      -0.447  -2.602   0.784  1.00  0.00     0.205 A 
ATOM     12  N   UNL     1      -1.311  -1.706   1.217  1.00  0.00    -0.121 NA
ATOM     13  S   UNL     1      -1.206  -3.891  -0.078  1.00  0.00    -0.083 S 
ATOM     14  N   UNL     1      -2.618  -1.993   0.884  1.00  0.00    -0.145 NA
ATOM     15  C   UNL     1      -2.704  -3.119   0.216  1.00  0.00     0.204 A 
ENDBRANCH   9  11
ENDBRANCH   8   9
ENDBRANCH   7   8
ENDBRANCH   6   7
ENDBRANCH   5   6
ENDBRANCH   2   5
BRANCH   3  16
ATOM     16  C   UNL     1       2.194   1.568  -1.966  1.00  0.00     0.117 C 
BRANCH  16  17
ATOM     17  C   UNL     1       2.433   3.052  -1.714  1.00  0.00     0.042 C 
BRANCH  17  18
ATOM     18  C   UNL     1       3.887   3.495  -1.837  1.00  0.00     0.118 C 
BRANCH  18  19
ATOM     19  N   UNL     1       4.457   3.257  -3.154  1.00  0.00    -0.352 N 
ATOM     20  C   UNL     1       5.167   4.085  -3.986  1.00  0.00     0.251 C 
ATOM     21  H   UNL     1       4.308   2.350  -3.508  1.00  0.00     0.163 HD
ATOM     22  O   UNL     1       5.460   3.694  -5.112  1.00  0.00    -0.269 OA
BRANCH  20  23
ATOM     23  C   UNL     1       5.569   5.447  -3.561  1.00  0.00     0.039 A 
ATOM     24  C   UNL     1       5.521   6.476  -4.508  1.00  0.00     0.014 A 
ATOM     25  C   UNL     1       6.044   5.715  -2.275  1.00  0.00     0.014 A 
ATOM     26  C   UNL     1       5.903   7.773  -4.156  1.00  0.00     0.010 A 
ATOM     27  C   UNL     1       6.357   7.022  -1.903  1.00  0.00     0.010 A 
ATOM     28  C   UNL     1       6.304   8.063  -2.843  1.00  0.00    -0.014 A 
BRANCH  28  29
ATOM     29  C   UNL     1       6.700   9.440  -2.450  1.00  0.00     0.031 A 
ATOM     30  C   UNL     1       8.119   9.732  -2.042  1.00  0.00     0.074 A 
ATOM     31  C   UNL     1       5.778  10.421  -2.419  1.00  0.00     0.049 A 
ATOM     32  N   UNL     1       8.648  10.855  -1.624  1.00  0.00    -0.248 NA
ATOM     33  C   UNL     1       9.063   8.605  -2.086  1.00  0.00     0.031 C 
ATOM     34  C   UNL     1       4.362  10.260  -2.749  1.00  0.00     0.029 A 
ATOM     35  N   UNL     1       5.894  11.748  -2.086  1.00  0.00    -0.354 N 
ATOM     36  C   UNL     1       9.976  10.565  -1.339  1.00  0.00     0.074 A 
ATOM     37  C   UNL     1      10.162   9.151  -1.585  1.00  0.00     0.031 C 
ATOM     38  C   UNL     1       3.744  11.446  -2.624  1.00  0.00     0.029 A 
ATOM     39  C   UNL     1       4.712  12.443  -2.176  1.00  0.00     0.049 A 
ATOM     40  H   UNL     1       6.743  12.162  -1.810  1.00  0.00     0.167 HD
ATOM     41  C   UNL     1      10.958  11.405  -0.933  1.00  0.00     0.037 A 
ATOM     42  C   UNL     1       4.442  13.738  -1.923  1.00  0.00     0.037 A 
ATOM     43  C   UNL     1      10.783  12.818  -0.720  1.00  0.00     0.049 A 
ATOM     44  C   UNL     1       5.554  14.653  -1.488  1.00  0.00     0.074 A 
ATOM     45  C   UNL     1      11.729  13.761  -0.360  1.00  0.00     0.029 A 
ATOM     46  N   UNL     1       9.577  13.490  -0.851  1.00  0.00    -0.354 N 
ATOM     47  N   UNL     1       6.819  14.380  -1.284  1.00  0.00    -0.248 NA
ATOM     48  C   UNL     1       5.200  16.062  -1.259  1.00  0.00     0.031 C 
ATOM     49  C   UNL     1      11.088  14.999  -0.238  1.00  0.00     0.029 A 
ATOM     50  C   UNL     1       9.753  14.835  -0.567  1.00  0.00     0.049 A 
ATOM     51  H   UNL     1       8.722  13.074  -1.108  1.00  0.00     0.167 HD
ATOM     52  C   UNL     1       7.418  15.584  -0.936  1.00  0.00     0.074 A 
ATOM     53  C   UNL     1       6.379  16.592  -0.967  1.00  0.00     0.031 C 
ATOM     54  C   UNL     1       8.713  15.830  -0.620  1.00  0.00     0.037 A 
BRANCH  41  55
ATOM     55  C   UNL     1      12.319  10.816  -0.697  1.00  0.00     0.064 A 
ATOM     56  C   UNL     1      13.120  10.368  -1.759  1.00  0.00     0.173 A 
ATOM     57  C   UNL     1      12.842  10.727   0.601  1.00  0.00     0.173 A 
ATOM     58  F   UNL     1      12.661  10.421  -3.019  1.00  0.00    -0.203 F 
ATOM     59  C   UNL     1      14.380   9.825  -1.527  1.00  0.00     0.198 A 
ATOM     60  C   UNL     1      14.115  10.210   0.827  1.00  0.00     0.198 A 
ATOM     61  F   UNL     1      12.121  11.146   1.652  1.00  0.00    -0.203 F 
ATOM     62  F   UNL     1      15.106   9.357  -2.552  1.00  0.00    -0.200 F 
ATOM     63  C   UNL     1      14.880   9.752  -0.235  1.00  0.00     0.200 A 
ATOM     64  F   UNL     1      14.602  10.152   2.075  1.00  0.00    -0.200 F 
ATOM     65  F   UNL     1      16.095   9.233  -0.014  1.00  0.00    -0.200 F 
ENDBRANCH  41  55
BRANCH  42  66
ATOM     66  C   UNL     1       3.063  14.257  -2.113  1.00  0.00     0.064 A 
ATOM     67  C   UNL     1       2.763  15.129  -3.169  1.00  0.00     0.173 A 
ATOM     68  C   UNL     1       2.022  13.902  -1.244  1.00  0.00     0.173 A 
ATOM     69  F   UNL     1       3.731  15.515  -4.013  1.00  0.00    -0.203 F 
ATOM     70  C   UNL     1       1.479  15.643  -3.336  1.00  0.00     0.198 A 
ATOM     71  C   UNL     1       0.732  14.395  -1.428  1.00  0.00     0.198 A 
ATOM     72  F   UNL     1       2.257  13.068  -0.220  1.00  0.00    -0.203 F 
ATOM     73  F   UNL     1       1.231  16.510  -4.327  1.00  0.00    -0.200 F 
ATOM     74  C   UNL     1       0.463  15.271  -2.469  1.00  0.00     0.200 A 
ATOM     75  F   UNL     1      -0.250  14.025  -0.595  1.00  0.00    -0.200 F 
ATOM     76  F   UNL     1      -0.772  15.764  -2.631  1.00  0.00    -0.200 F 
ENDBRANCH  42  66
BRANCH  54  77
ATOM     77  C   UNL     1       9.091  17.253  -0.329  1.00  0.00     0.064 A 
ATOM     78  C   UNL     1       8.706  17.891   0.859  1.00  0.00     0.173 A 
ATOM     79  C   UNL     1       9.883  17.974  -1.236  1.00  0.00     0.173 A 
ATOM     80  F   UNL     1       7.937  17.249   1.751  1.00  0.00    -0.203 F 
ATOM     81  C   UNL     1       9.077  19.208   1.116  1.00  0.00     0.198 A 
ATOM     82  C   UNL     1      10.275  19.281  -0.963  1.00  0.00     0.198 A 
ATOM     83  F   UNL     1      10.283  17.407  -2.384  1.00  0.00    -0.203 F 
ATOM     84  F   UNL     1       8.658  19.814   2.236  1.00  0.00    -0.200 F 
ATOM     85  C   UNL     1       9.866  19.899   0.208  1.00  0.00     0.200 A 
ATOM     86  F   UNL     1      11.048  19.943  -1.835  1.00  0.00    -0.200 F 
ATOM     87  F   UNL     1      10.227  21.165   0.460  1.00  0.00    -0.200 F 
ENDBRANCH  54  77
ENDBRANCH  28  29
ENDBRANCH  20  23
ENDBRANCH  18  19
ENDBRANCH  17  18
ENDBRANCH  16  17
ENDBRANCH   3  16
TORSDOF 15
