REMARK SMILES O=C(COc1csc(C(=O)NCCCNC(=O)c2ccc(-c3c4nc(c(-c5c(F)c(F)c(F)c(F)c5F)c5ccc([nH]5)c(-c5c(F)c(F)c(F)c(F)c5F)c5nc(c(-c6c(F)c(F)c(F)c(F)c6F)c6ccc3[nH]6)C=C5)C=C4)cc2)c1)Nc1nccs1
REMARK SMILES IDX 12 1 11 2 9 3 10 4 8 6 5 7 6 8 81 9 7 10 4 11 3 12 2 13 1 14
REMARK SMILES IDX 82 15 83 17 84 18 87 19 85 20 86 21 13 22 14 23 15 24 16 25
REMARK SMILES IDX 17 27 18 28 19 29 80 30 20 31 79 32 21 33 22 34 23 35 73 36
REMARK SMILES IDX 24 37 78 38 72 39 74 40 25 41 77 42 71 43 70 44 26 46 58 47
REMARK SMILES IDX 38 48 57 49 39 50 42 51 56 52 75 53 40 54 41 55 55 57 76 58
REMARK SMILES IDX 43 59 27 60 28 61 36 62 29 63 30 64 34 65 37 66 31 67 32 68
REMARK SMILES IDX 35 69 33 70 59 71 60 72 68 73 61 74 62 75 66 76 69 77 63 78
REMARK SMILES IDX 64 79 67 80 65 81 44 82 45 83 53 84 46 85 47 86 51 87 54 88
REMARK SMILES IDX 48 89 49 90 52 91 50 92
REMARK H PARENT 11 5 82 16 15 26 74 45 42 56
REMARK Flexibility Score: inf
ROOT
ATOM      1  C   UNL     1       5.585  -6.027  -1.584  1.00  0.00     0.118 C 
ENDROOT
BRANCH   1   2
ATOM      2  N   UNL     1       4.459  -6.341  -2.437  1.00  0.00    -0.351 N 
ATOM      3  C   UNL     1       3.304  -5.657  -2.733  1.00  0.00     0.261 C 
ATOM      4  O   UNL     1       2.558  -6.231  -3.530  1.00  0.00    -0.268 OA
ATOM      5  H   UNL     1       4.534  -7.211  -2.892  1.00  0.00     0.163 HD
BRANCH   3   6
ATOM      6  C   UNL     1       3.021  -4.343  -2.167  1.00  0.00     0.096 A 
ATOM      7  C   UNL     1       3.033  -2.320  -0.986  1.00  0.00     0.131 A 
ATOM      8  C   UNL     1       2.076  -2.054  -1.935  1.00  0.00     0.112 A 
ATOM      9  C   UNL     1       3.528  -3.649  -1.082  1.00  0.00     0.072 A 
ATOM     10  S   UNL     1       1.808  -3.397  -2.954  1.00  0.00    -0.135 S 
BRANCH   7  11
ATOM     11  O   UNL     1       3.555  -1.411  -0.125  1.00  0.00    -0.483 OA
BRANCH  11  12
ATOM     12  C   UNL     1       2.599  -0.819   0.748  1.00  0.00     0.329 C 
BRANCH  12  13
ATOM     13  C   UNL     1       1.891   0.421   0.195  1.00  0.00     0.264 C 
ATOM     14  O   UNL     1       0.837   0.806   0.690  1.00  0.00    -0.271 OA
ATOM     15  N   UNL     1       2.576   0.991  -0.857  1.00  0.00    -0.299 N 
ATOM     16  H   UNL     1       3.505   0.711  -1.025  1.00  0.00     0.172 HD
BRANCH  15  17
ATOM     17  C   UNL     1       2.014   1.928  -1.672  1.00  0.00     0.189 A 
ATOM     18  N   UNL     1       0.840   2.496  -1.595  1.00  0.00    -0.229 NA
ATOM     19  S   UNL     1       2.964   2.322  -3.037  1.00  0.00    -0.105 S 
ATOM     20  C   UNL     1       0.648   3.298  -2.702  1.00  0.00     0.125 A 
ATOM     21  C   UNL     1       1.687   3.317  -3.608  1.00  0.00     0.088 A 
ENDBRANCH  15  17
ENDBRANCH  12  13
ENDBRANCH  11  12
ENDBRANCH   7  11
ENDBRANCH   3   6
ENDBRANCH   1   2
BRANCH   1  22
ATOM     22  C   UNL     1       5.416  -6.645  -0.197  1.00  0.00     0.042 C 
BRANCH  22  23
ATOM     23  C   UNL     1       5.683  -8.150  -0.179  1.00  0.00     0.118 C 
BRANCH  23  24
ATOM     24  N   UNL     1       7.084  -8.448  -0.436  1.00  0.00    -0.352 N 
ATOM     25  C   UNL     1       7.982  -9.202   0.271  1.00  0.00     0.251 C 
ATOM     26  H   UNL     1       7.447  -8.040  -1.255  1.00  0.00     0.163 HD
ATOM     27  O   UNL     1       9.175  -9.124  -0.013  1.00  0.00    -0.269 OA
BRANCH  25  28
ATOM     28  C   UNL     1       7.549 -10.110   1.356  1.00  0.00     0.039 A 
ATOM     29  C   UNL     1       8.412 -10.297   2.442  1.00  0.00     0.014 A 
ATOM     30  C   UNL     1       6.370 -10.856   1.273  1.00  0.00     0.014 A 
ATOM     31  C   UNL     1       8.095 -11.220   3.438  1.00  0.00     0.010 A 
ATOM     32  C   UNL     1       6.018 -11.728   2.304  1.00  0.00     0.010 A 
ATOM     33  C   UNL     1       6.892 -11.941   3.380  1.00  0.00    -0.014 A 
BRANCH  33  34
ATOM     34  C   UNL     1       6.577 -12.964   4.408  1.00  0.00     0.031 A 
ATOM     35  C   UNL     1       6.522 -14.420   4.031  1.00  0.00     0.074 A 
ATOM     36  C   UNL     1       6.328 -12.583   5.674  1.00  0.00     0.049 A 
ATOM     37  N   UNL     1       6.255 -15.461   4.780  1.00  0.00    -0.248 NA
ATOM     38  C   UNL     1       6.779 -14.749   2.620  1.00  0.00     0.031 C 
ATOM     39  C   UNL     1       6.304 -11.200   6.151  1.00  0.00     0.029 A 
ATOM     40  N   UNL     1       6.045 -13.326   6.792  1.00  0.00    -0.354 N 
ATOM     41  C   UNL     1       6.302 -16.560   3.931  1.00  0.00     0.074 A 
ATOM     42  C   UNL     1       6.565 -16.056   2.601  1.00  0.00     0.031 C 
ATOM     43  C   UNL     1       6.041 -11.194   7.467  1.00  0.00     0.029 A 
ATOM     44  C   UNL     1       5.857 -12.569   7.922  1.00  0.00     0.049 A 
ATOM     45  H   UNL     1       5.983 -14.309   6.785  1.00  0.00     0.167 HD
ATOM     46  C   UNL     1       6.170 -17.873   4.237  1.00  0.00     0.037 A 
ATOM     47  C   UNL     1       5.572 -12.945   9.183  1.00  0.00     0.037 A 
ATOM     48  C   UNL     1       5.933 -18.375   5.565  1.00  0.00     0.049 A 
ATOM     49  C   UNL     1       5.457 -14.411   9.502  1.00  0.00     0.074 A 
ATOM     50  C   UNL     1       5.813 -19.687   5.987  1.00  0.00     0.029 A 
ATOM     51  N   UNL     1       5.786 -17.578   6.692  1.00  0.00    -0.354 N 
ATOM     52  N   UNL     1       5.558 -15.443   8.700  1.00  0.00    -0.248 NA
ATOM     53  C   UNL     1       5.208 -14.764  10.906  1.00  0.00     0.031 C 
ATOM     54  C   UNL     1       5.564 -19.683   7.365  1.00  0.00     0.029 A 
ATOM     55  C   UNL     1       5.572 -18.371   7.808  1.00  0.00     0.049 A 
ATOM     56  H   UNL     1       5.827 -16.594   6.697  1.00  0.00     0.167 HD
ATOM     57  C   UNL     1       5.405 -16.566   9.502  1.00  0.00     0.074 A 
ATOM     58  C   UNL     1       5.231 -16.088  10.858  1.00  0.00     0.031 C 
ATOM     59  C   UNL     1       5.404 -17.875   9.149  1.00  0.00     0.037 A 
BRANCH  46  60
ATOM     60  C   UNL     1       6.295 -18.861   3.113  1.00  0.00     0.064 A 
ATOM     61  C   UNL     1       7.528 -19.105   2.488  1.00  0.00     0.173 A 
ATOM     62  C   UNL     1       5.181 -19.590   2.671  1.00  0.00     0.173 A 
ATOM     63  F   UNL     1       8.622 -18.425   2.864  1.00  0.00    -0.203 F 
ATOM     64  C   UNL     1       7.635 -20.020   1.443  1.00  0.00     0.198 A 
ATOM     65  C   UNL     1       5.297 -20.525   1.645  1.00  0.00     0.198 A 
ATOM     66  F   UNL     1       3.980 -19.399   3.236  1.00  0.00    -0.203 F 
ATOM     67  F   UNL     1       8.812 -20.198   0.829  1.00  0.00    -0.200 F 
ATOM     68  C   UNL     1       6.521 -20.734   1.028  1.00  0.00     0.200 A 
ATOM     69  F   UNL     1       4.223 -21.223   1.252  1.00  0.00    -0.200 F 
ATOM     70  F   UNL     1       6.626 -21.617   0.025  1.00  0.00    -0.200 F 
ENDBRANCH  46  60
BRANCH  47  71
ATOM     71  C   UNL     1       5.408 -11.918  10.243  1.00  0.00     0.064 A 
ATOM     72  C   UNL     1       6.360 -11.773  11.262  1.00  0.00     0.173 A 
ATOM     73  C   UNL     1       4.294 -11.067  10.265  1.00  0.00     0.173 A 
ATOM     74  F   UNL     1       7.433 -12.577  11.293  1.00  0.00    -0.203 F 
ATOM     75  C   UNL     1       6.192 -10.833  12.276  1.00  0.00     0.198 A 
ATOM     76  C   UNL     1       4.141 -10.108  11.264  1.00  0.00     0.198 A 
ATOM     77  F   UNL     1       3.358 -11.160   9.309  1.00  0.00    -0.203 F 
ATOM     78  F   UNL     1       7.093 -10.749  13.264  1.00  0.00    -0.200 F 
ATOM     79  C   UNL     1       5.085  -9.998  12.274  1.00  0.00     0.200 A 
ATOM     80  F   UNL     1       3.077  -9.293  11.250  1.00  0.00    -0.200 F 
ATOM     81  F   UNL     1       4.924  -9.093  13.249  1.00  0.00    -0.200 F 
ENDBRANCH  47  71
BRANCH  59  82
ATOM     82  C   UNL     1       5.232 -18.877  10.252  1.00  0.00     0.064 A 
ATOM     83  C   UNL     1       4.001 -19.049  10.903  1.00  0.00     0.173 A 
ATOM     84  C   UNL     1       6.306 -19.686  10.652  1.00  0.00     0.173 A 
ATOM     85  F   UNL     1       2.948 -18.290  10.567  1.00  0.00    -0.203 F 
ATOM     86  C   UNL     1       3.862 -19.971  11.937  1.00  0.00     0.198 A 
ATOM     87  C   UNL     1       6.156 -20.627  11.666  1.00  0.00     0.198 A 
ATOM     88  F   UNL     1       7.502 -19.565  10.056  1.00  0.00    -0.203 F 
ATOM     89  F   UNL     1       2.692 -20.079  12.582  1.00  0.00    -0.200 F 
ATOM     90  C   UNL     1       4.937 -20.762  12.314  1.00  0.00     0.200 A 
ATOM     91  F   UNL     1       7.192 -21.398  12.022  1.00  0.00    -0.200 F 
ATOM     92  F   UNL     1       4.801 -21.647  13.311  1.00  0.00    -0.200 F 
ENDBRANCH  59  82
ENDBRANCH  33  34
ENDBRANCH  25  28
ENDBRANCH  23  24
ENDBRANCH  22  23
ENDBRANCH   1  22
TORSDOF 14
