REMARK SMILES CC(C)Cc1cc2c(cc1Cl)C=C(C(=O)NCCCNC(=O)c1ccc(-c3c4nc(c(-c5c(F)c(F)c(F)c(F)c5F)c5ccc([nH]5)c(-c5c(F)c(F)c(F)c(F)c5F)c5nc(c(-c6c(F)c(F)c(F)c(F)c6F)c6ccc3[nH]6)C=C5)C=C4)cc1)[C@@H](C(F)(F)F)O2
REMARK SMILES IDX 18 1 17 2 16 3 14 4 15 5 13 7 5 8 6 9 10 10 7 11 9 12 11 13
REMARK SMILES IDX 8 14 91 15 12 16 86 17 4 18 2 19 1 20 3 21 87 22 88 23 89 24
REMARK SMILES IDX 90 25 19 26 20 27 21 28 22 30 23 31 24 32 85 33 25 34 84 35
REMARK SMILES IDX 26 36 27 37 28 38 78 39 29 40 83 41 77 42 79 43 30 44 82 45
REMARK SMILES IDX 76 46 75 47 31 49 63 50 43 51 62 52 44 53 47 54 61 55 80 56
REMARK SMILES IDX 45 57 46 58 60 60 81 61 48 62 32 63 33 64 41 65 34 66 35 67
REMARK SMILES IDX 39 68 42 69 36 70 37 71 40 72 38 73 64 74 65 75 73 76 66 77
REMARK SMILES IDX 67 78 71 79 74 80 68 81 69 82 72 83 70 84 49 85 50 86 58 87
REMARK SMILES IDX 51 88 52 89 56 90 59 91 53 92 54 93 57 94 55 95
REMARK H PARENT 16 6 20 29 79 48 47 59
REMARK Flexibility Score: inf
ROOT
ATOM      1  C   UNL     1      -8.122   5.895   0.317  1.00  0.00     0.042 C 
ENDROOT
BRANCH   1   2
ATOM      2  C   UNL     1      -7.412   5.898  -1.028  1.00  0.00     0.118 C 
BRANCH   2   3
ATOM      3  N   UNL     1      -6.147   6.612  -0.963  1.00  0.00    -0.352 N 
ATOM      4  C   UNL     1      -4.831   6.305  -0.933  1.00  0.00     0.251 C 
ATOM      5  O   UNL     1      -4.074   7.276  -0.829  1.00  0.00    -0.270 OA
ATOM      6  H   UNL     1      -6.287   7.586  -0.932  1.00  0.00     0.163 HD
BRANCH   4   7
ATOM      7  C   UNL     1      -4.263   4.931  -1.019  1.00  0.00     0.067 C 
ATOM      8  C   UNL     1      -1.138   0.965  -1.342  1.00  0.00    -0.025 A 
ATOM      9  C   UNL     1      -2.490   1.142  -0.971  1.00  0.00     0.052 A 
ATOM     10  C   UNL     1      -0.401   2.119  -1.663  1.00  0.00     0.045 A 
ATOM     11  C   UNL     1      -3.065   2.410  -0.911  1.00  0.00     0.128 A 
ATOM     12  C   UNL     1      -0.968   3.397  -1.530  1.00  0.00     0.032 A 
ATOM     13  Cl  UNL     1       1.204   2.084  -2.297  1.00  0.00    -0.084 Cl
ATOM     14  C   UNL     1      -2.301   3.545  -1.157  1.00  0.00     0.019 A 
ATOM     15  O   UNL     1      -4.396   2.486  -0.601  1.00  0.00    -0.475 OA
ATOM     16  C   UNL     1      -2.918   4.858  -1.030  1.00  0.00     0.025 C 
ATOM     17  C   UNL     1      -5.072   3.669  -1.126  1.00  0.00     0.314 C 
BRANCH   8  18
ATOM     18  C   UNL     1      -0.662  -0.473  -1.462  1.00  0.00     0.040 C 
BRANCH  18  19
ATOM     19  C   UNL     1       0.768  -0.872  -1.044  1.00  0.00    -0.013 C 
ATOM     20  C   UNL     1       1.130  -0.420   0.370  1.00  0.00     0.008 C 
ATOM     21  C   UNL     1       0.927  -2.394  -1.151  1.00  0.00     0.008 C 
ENDBRANCH  18  19
ENDBRANCH   8  18
BRANCH  17  22
ATOM     22  C   UNL     1      -5.563   3.401  -2.565  1.00  0.00     0.429 C 
ATOM     23  F   UNL     1      -6.590   2.514  -2.556  1.00  0.00    -0.167 F 
ATOM     24  F   UNL     1      -6.031   4.521  -3.168  1.00  0.00    -0.167 F 
ATOM     25  F   UNL     1      -4.601   2.900  -3.370  1.00  0.00    -0.167 F 
ENDBRANCH  17  22
ENDBRANCH   4   7
ENDBRANCH   2   3
ENDBRANCH   1   2
BRANCH   1  26
ATOM     26  C   UNL     1      -8.712   7.255   0.668  1.00  0.00     0.118 C 
BRANCH  26  27
ATOM     27  N   UNL     1      -9.825   7.617  -0.206  1.00  0.00    -0.352 N 
ATOM     28  C   UNL     1     -11.171   7.708   0.059  1.00  0.00     0.251 C 
ATOM     29  H   UNL     1      -9.572   7.829  -1.133  1.00  0.00     0.163 HD
ATOM     30  O   UNL     1     -11.974   7.804  -0.865  1.00  0.00    -0.269 OA
BRANCH  28  31
ATOM     31  C   UNL     1     -11.653   7.668   1.454  1.00  0.00     0.039 A 
ATOM     32  C   UNL     1     -10.969   8.359   2.453  1.00  0.00     0.014 A 
ATOM     33  C   UNL     1     -12.797   6.929   1.770  1.00  0.00     0.014 A 
ATOM     34  C   UNL     1     -11.298   8.144   3.783  1.00  0.00     0.010 A 
ATOM     35  C   UNL     1     -13.196   6.806   3.104  1.00  0.00     0.010 A 
ATOM     36  C   UNL     1     -12.415   7.366   4.127  1.00  0.00    -0.014 A 
BRANCH  36  37
ATOM     37  C   UNL     1     -12.726   7.159   5.564  1.00  0.00     0.031 A 
ATOM     38  C   UNL     1     -12.674   5.785   6.174  1.00  0.00     0.074 A 
ATOM     39  C   UNL     1     -12.968   8.234   6.339  1.00  0.00     0.049 A 
ATOM     40  N   UNL     1     -12.862   5.429   7.421  1.00  0.00    -0.248 NA
ATOM     41  C   UNL     1     -12.378   4.660   5.273  1.00  0.00     0.031 C 
ATOM     42  C   UNL     1     -13.034   9.616   5.859  1.00  0.00     0.029 A 
ATOM     43  N   UNL     1     -13.156   8.345   7.693  1.00  0.00    -0.354 N 
ATOM     44  C   UNL     1     -12.735   4.047   7.447  1.00  0.00     0.074 A 
ATOM     45  C   UNL     1     -12.476   3.620   6.090  1.00  0.00     0.031 C 
ATOM     46  C   UNL     1     -13.164  10.440   6.907  1.00  0.00     0.029 A 
ATOM     47  C   UNL     1     -13.266   9.644   8.125  1.00  0.00     0.049 A 
ATOM     48  H   UNL     1     -13.207   7.569   8.297  1.00  0.00     0.167 HD
ATOM     49  C   UNL     1     -12.815   3.213   8.511  1.00  0.00     0.037 A 
ATOM     50  C   UNL     1     -13.438  10.142   9.364  1.00  0.00     0.037 A 
ATOM     51  C   UNL     1     -13.032   3.647   9.866  1.00  0.00     0.049 A 
ATOM     52  C   UNL     1     -13.545   9.193  10.521  1.00  0.00     0.074 A 
ATOM     53  C   UNL     1     -13.096   2.881  11.017  1.00  0.00     0.029 A 
ATOM     54  N   UNL     1     -13.212   4.967  10.253  1.00  0.00    -0.354 N 
ATOM     55  N   UNL     1     -13.427   7.888  10.530  1.00  0.00    -0.248 NA
ATOM     56  C   UNL     1     -13.829   9.782  11.836  1.00  0.00     0.031 C 
ATOM     57  C   UNL     1     -13.354   3.733  12.095  1.00  0.00     0.029 A 
ATOM     58  C   UNL     1     -13.411   5.034  11.623  1.00  0.00     0.049 A 
ATOM     59  H   UNL     1     -13.201   5.741   9.645  1.00  0.00     0.167 HD
ATOM     60  C   UNL     1     -13.625   7.497  11.845  1.00  0.00     0.074 A 
ATOM     61  C   UNL     1     -13.843   8.707  12.613  1.00  0.00     0.031 C 
ATOM     62  C   UNL     1     -13.636   6.247  12.366  1.00  0.00     0.037 A 
BRANCH  49  63
ATOM     63  C   UNL     1     -12.676   1.740   8.260  1.00  0.00     0.064 A 
ATOM     64  C   UNL     1     -11.437   1.157   7.960  1.00  0.00     0.173 A 
ATOM     65  C   UNL     1     -13.788   0.892   8.385  1.00  0.00     0.173 A 
ATOM     66  F   UNL     1     -10.346   1.925   7.817  1.00  0.00    -0.203 F 
ATOM     67  C   UNL     1     -11.318  -0.219   7.780  1.00  0.00     0.198 A 
ATOM     68  C   UNL     1     -13.661  -0.485   8.228  1.00  0.00     0.198 A 
ATOM     69  F   UNL     1     -14.995   1.399   8.676  1.00  0.00    -0.203 F 
ATOM     70  F   UNL     1     -10.129  -0.751   7.461  1.00  0.00    -0.200 F 
ATOM     71  C   UNL     1     -12.427  -1.039   7.922  1.00  0.00     0.200 A 
ATOM     72  F   UNL     1     -14.731  -1.278   8.377  1.00  0.00    -0.200 F 
ATOM     73  F   UNL     1     -12.307  -2.364   7.760  1.00  0.00    -0.200 F 
ENDBRANCH  49  63
BRANCH  50  74
ATOM     74  C   UNL     1     -13.516  11.612   9.555  1.00  0.00     0.064 A 
ATOM     75  C   UNL     1     -12.477  12.312  10.182  1.00  0.00     0.173 A 
ATOM     76  C   UNL     1     -14.603  12.353   9.067  1.00  0.00     0.173 A 
ATOM     77  F   UNL     1     -11.425  11.645  10.680  1.00  0.00    -0.203 F 
ATOM     78  C   UNL     1     -12.521  13.699  10.310  1.00  0.00     0.198 A 
ATOM     79  C   UNL     1     -14.633  13.741   9.172  1.00  0.00     0.198 A 
ATOM     80  F   UNL     1     -15.620  11.728   8.455  1.00  0.00    -0.203 F 
ATOM     81  F   UNL     1     -11.524  14.344  10.931  1.00  0.00    -0.200 F 
ATOM     82  C   UNL     1     -13.593  14.413   9.796  1.00  0.00     0.200 A 
ATOM     83  F   UNL     1     -15.662  14.428   8.656  1.00  0.00    -0.200 F 
ATOM     84  F   UNL     1     -13.624  15.748   9.900  1.00  0.00    -0.200 F 
ENDBRANCH  50  74
BRANCH  62  85
ATOM     85  C   UNL     1     -13.900   6.117  13.835  1.00  0.00     0.064 A 
ATOM     86  C   UNL     1     -15.192   6.277  14.356  1.00  0.00     0.173 A 
ATOM     87  C   UNL     1     -12.870   5.761  14.718  1.00  0.00     0.173 A 
ATOM     88  F   UNL     1     -16.205   6.631  13.551  1.00  0.00    -0.203 F 
ATOM     89  C   UNL     1     -15.442   6.091  15.712  1.00  0.00     0.198 A 
ATOM     90  C   UNL     1     -13.128   5.553  16.069  1.00  0.00     0.198 A 
ATOM     91  F   UNL     1     -11.619   5.591  14.264  1.00  0.00    -0.203 F 
ATOM     92  F   UNL     1     -16.679   6.274  16.195  1.00  0.00    -0.200 F 
ATOM     93  C   UNL     1     -14.413   5.721  16.566  1.00  0.00     0.200 A 
ATOM     94  F   UNL     1     -12.136   5.184  16.890  1.00  0.00    -0.200 F 
ATOM     95  F   UNL     1     -14.659   5.528  17.869  1.00  0.00    -0.200 F 
ENDBRANCH  62  85
ENDBRANCH  36  37
ENDBRANCH  28  31
ENDBRANCH  26  27
ENDBRANCH   1  26
TORSDOF 13
