REMARK SMILES C[C@@](NC(=O)CSc1ccc(Cl)cc1)(C(=O)NCCCNC(=O)c1ccc(-c2c3nc(c(-c4c(F)c(F)c(F)c(F)c4F)c4ccc([nH]4)c(-c4c(F)c(F)c(F)c(F)c4F)c4nc(c(-c5c(F)c(F)c(F)c(F)c5F)c5ccc2[nH]5)C=C4)C=C3)cc1)C1CC1
REMARK SMILES IDX 18 1 17 2 15 3 16 4 2 6 1 7 3 8 4 9 5 11 6 12 7 13 8 14 9 15
REMARK SMILES IDX 14 16 10 17 13 18 11 19 12 20 87 21 88 22 89 23 19 24 20 25
REMARK SMILES IDX 21 26 22 27 23 29 24 30 25 31 86 32 26 33 85 34 27 35 28 36
REMARK SMILES IDX 29 37 79 38 30 39 84 40 78 41 80 42 31 43 83 44 77 45 76 46
REMARK SMILES IDX 32 48 64 49 44 50 63 51 45 52 48 53 62 54 81 55 46 56 47 57
REMARK SMILES IDX 61 59 82 60 49 61 33 62 34 63 42 64 35 65 36 66 40 67 43 68
REMARK SMILES IDX 37 69 38 70 41 71 39 72 65 73 66 74 74 75 67 76 68 77 72 78
REMARK SMILES IDX 75 79 69 80 70 81 73 82 71 83 50 84 51 85 59 86 52 87 53 88
REMARK SMILES IDX 57 89 60 90 54 91 55 92 58 93 56 94
REMARK H PARENT 17 5 3 10 21 28 80 47 48 58
REMARK Flexibility Score: inf
ROOT
ATOM      1  C   UNL     1      -1.180   0.344   1.435  1.00  0.00     0.117 C 
ENDROOT
BRANCH   1   2
ATOM      2  N   UNL     1      -1.665  -0.202   0.193  1.00  0.00    -0.354 N 
ATOM      3  C   UNL     1      -1.087  -1.121  -0.627  1.00  0.00     0.245 C 
ATOM      4  O   UNL     1      -1.867  -1.639  -1.433  1.00  0.00    -0.272 OA
ATOM      5  H   UNL     1      -2.539   0.138  -0.105  1.00  0.00     0.163 HD
BRANCH   3   6
ATOM      6  C   UNL     1       0.434  -1.494  -0.537  1.00  0.00     0.119 C 
ATOM      7  C   UNL     1       1.266  -0.171  -0.610  1.00  0.00     0.046 C 
BRANCH   6   8
ATOM      8  N   UNL     1       0.822  -2.144   0.746  1.00  0.00    -0.341 N 
ATOM      9  C   UNL     1       0.302  -3.092   1.571  1.00  0.00     0.231 C 
ATOM     10  H   UNL     1       1.678  -1.796   1.086  1.00  0.00     0.164 HD
ATOM     11  O   UNL     1       1.088  -3.578   2.394  1.00  0.00    -0.274 OA
BRANCH   9  12
ATOM     12  C   UNL     1      -1.139  -3.540   1.551  1.00  0.00     0.174 C 
BRANCH  12  13
ATOM     13  S   UNL     1      -2.225  -2.848   2.865  1.00  0.00    -0.116 SA
BRANCH  13  14
ATOM     14  C   UNL     1      -1.231  -2.454   4.310  1.00  0.00     0.008 A 
ATOM     15  C   UNL     1      -0.754  -3.425   5.190  1.00  0.00     0.016 A 
ATOM     16  C   UNL     1      -1.163  -1.114   4.727  1.00  0.00     0.016 A 
ATOM     17  C   UNL     1      -0.228  -3.054   6.443  1.00  0.00     0.021 A 
ATOM     18  C   UNL     1      -0.635  -0.734   5.962  1.00  0.00     0.021 A 
ATOM     19  C   UNL     1      -0.178  -1.714   6.825  1.00  0.00     0.041 A 
ATOM     20  Cl  UNL     1       0.400  -1.263   8.382  1.00  0.00    -0.084 Cl
ENDBRANCH  13  14
ENDBRANCH  12  13
ENDBRANCH   9  12
ENDBRANCH   6   8
BRANCH   6  21
ATOM     21  C   UNL     1       0.985  -2.318  -1.714  1.00  0.00     0.024 C 
ATOM     22  C   UNL     1       0.275  -3.360  -2.543  1.00  0.00     0.007 C 
ATOM     23  C   UNL     1       0.536  -2.000  -3.132  1.00  0.00     0.007 C 
ENDBRANCH   6  21
ENDBRANCH   3   6
ENDBRANCH   1   2
BRANCH   1  24
ATOM     24  C   UNL     1      -2.072   1.422   2.028  1.00  0.00     0.042 C 
BRANCH  24  25
ATOM     25  C   UNL     1      -3.553   1.082   2.163  1.00  0.00     0.118 C 
BRANCH  25  26
ATOM     26  N   UNL     1      -3.886   0.079   3.166  1.00  0.00    -0.352 N 
ATOM     27  C   UNL     1      -4.380   0.178   4.451  1.00  0.00     0.251 C 
ATOM     28  H   UNL     1      -3.728  -0.846   2.871  1.00  0.00     0.163 HD
ATOM     29  O   UNL     1      -4.518  -0.824   5.139  1.00  0.00    -0.269 OA
BRANCH  27  30
ATOM     30  C   UNL     1      -4.694   1.495   5.036  1.00  0.00     0.039 A 
ATOM     31  C   UNL     1      -4.351   1.759   6.367  1.00  0.00     0.014 A 
ATOM     32  C   UNL     1      -5.337   2.468   4.281  1.00  0.00     0.014 A 
ATOM     33  C   UNL     1      -4.573   3.032   6.900  1.00  0.00     0.010 A 
ATOM     34  C   UNL     1      -5.417   3.766   4.756  1.00  0.00     0.010 A 
ATOM     35  C   UNL     1      -5.062   4.059   6.080  1.00  0.00    -0.014 A 
BRANCH  35  36
ATOM     36  C   UNL     1      -5.265   5.448   6.561  1.00  0.00     0.031 A 
ATOM     37  C   UNL     1      -6.633   6.071   6.453  1.00  0.00     0.074 A 
ATOM     38  C   UNL     1      -4.210   6.180   6.965  1.00  0.00     0.049 A 
ATOM     39  N   UNL     1      -6.995   7.317   6.621  1.00  0.00    -0.248 NA
ATOM     40  C   UNL     1      -7.733   5.180   6.045  1.00  0.00     0.031 C 
ATOM     41  C   UNL     1      -2.829   5.703   7.058  1.00  0.00     0.029 A 
ATOM     42  N   UNL     1      -4.132   7.495   7.350  1.00  0.00    -0.354 N 
ATOM     43  C   UNL     1      -8.347   7.361   6.302  1.00  0.00     0.074 A 
ATOM     44  C   UNL     1      -8.724   6.037   5.862  1.00  0.00     0.031 C 
ATOM     45  C   UNL     1      -2.046   6.702   7.492  1.00  0.00     0.029 A 
ATOM     46  C   UNL     1      -2.858   7.902   7.660  1.00  0.00     0.049 A 
ATOM     47  H   UNL     1      -4.915   8.089   7.398  1.00  0.00     0.167 HD
ATOM     48  C   UNL     1      -9.204   8.404   6.398  1.00  0.00     0.037 A 
ATOM     49  C   UNL     1      -2.398   9.114   8.025  1.00  0.00     0.037 A 
ATOM     50  C   UNL     1      -8.825   9.706   6.880  1.00  0.00     0.049 A 
ATOM     51  C   UNL     1      -3.374  10.254   8.142  1.00  0.00     0.074 A 
ATOM     52  C   UNL     1      -9.622  10.816   7.088  1.00  0.00     0.029 A 
ATOM     53  N   UNL     1      -7.532  10.067   7.236  1.00  0.00    -0.354 N 
ATOM     54  N   UNL     1      -4.662  10.272   7.898  1.00  0.00    -0.248 NA
ATOM     55  C   UNL     1      -2.831  11.542   8.594  1.00  0.00     0.031 C 
ATOM     56  C   UNL     1      -8.803  11.865   7.519  1.00  0.00     0.029 A 
ATOM     57  C   UNL     1      -7.506  11.390   7.643  1.00  0.00     0.049 A 
ATOM     58  H   UNL     1      -6.750   9.470   7.204  1.00  0.00     0.167 HD
ATOM     59  C   UNL     1      -5.091  11.557   8.199  1.00  0.00     0.074 A 
ATOM     60  C   UNL     1      -3.926  12.285   8.660  1.00  0.00     0.031 C 
ATOM     61  C   UNL     1      -6.335  12.091   8.104  1.00  0.00     0.037 A 
BRANCH  48  62
ATOM     62  C   UNL     1     -10.631   8.177   5.983  1.00  0.00     0.064 A 
ATOM     63  C   UNL     1     -11.482   7.320   6.698  1.00  0.00     0.173 A 
ATOM     64  C   UNL     1     -11.164   8.844   4.869  1.00  0.00     0.173 A 
ATOM     65  F   UNL     1     -11.023   6.645   7.763  1.00  0.00    -0.203 F 
ATOM     66  C   UNL     1     -12.799   7.111   6.294  1.00  0.00     0.198 A 
ATOM     67  C   UNL     1     -12.492   8.662   4.490  1.00  0.00     0.198 A 
ATOM     68  F   UNL     1     -10.398   9.677   4.149  1.00  0.00    -0.203 F 
ATOM     69  F   UNL     1     -13.572   6.240   6.957  1.00  0.00    -0.200 F 
ATOM     70  C   UNL     1     -13.305   7.789   5.196  1.00  0.00     0.200 A 
ATOM     71  F   UNL     1     -12.983   9.330   3.437  1.00  0.00    -0.200 F 
ATOM     72  F   UNL     1     -14.574   7.594   4.813  1.00  0.00    -0.200 F 
ENDBRANCH  48  62
BRANCH  49  73
ATOM     73  C   UNL     1      -0.957   9.301   8.339  1.00  0.00     0.064 A 
ATOM     74  C   UNL     1      -0.537   9.560   9.652  1.00  0.00     0.173 A 
ATOM     75  C   UNL     1       0.029   9.225   7.345  1.00  0.00     0.173 A 
ATOM     76  F   UNL     1      -1.443   9.659  10.636  1.00  0.00    -0.203 F 
ATOM     77  C   UNL     1       0.808   9.762   9.953  1.00  0.00     0.198 A 
ATOM     78  C   UNL     1       1.378   9.395   7.652  1.00  0.00     0.198 A 
ATOM     79  F   UNL     1      -0.316   8.970   6.074  1.00  0.00    -0.203 F 
ATOM     80  F   UNL     1       1.174  10.059  11.208  1.00  0.00    -0.200 F 
ATOM     81  C   UNL     1       1.765   9.673   8.954  1.00  0.00     0.200 A 
ATOM     82  F   UNL     1       2.301   9.290   6.687  1.00  0.00    -0.200 F 
ATOM     83  F   UNL     1       3.059   9.863   9.245  1.00  0.00    -0.200 F 
ENDBRANCH  49  73
BRANCH  61  84
ATOM     84  C   UNL     1      -6.503  13.515   8.550  1.00  0.00     0.064 A 
ATOM     85  C   UNL     1      -5.958  14.587   7.828  1.00  0.00     0.173 A 
ATOM     86  C   UNL     1      -7.242  13.810   9.707  1.00  0.00     0.173 A 
ATOM     87  F   UNL     1      -5.233  14.357   6.722  1.00  0.00    -0.203 F 
ATOM     88  C   UNL     1      -6.112  15.898   8.269  1.00  0.00     0.198 A 
ATOM     89  C   UNL     1      -7.426  15.125  10.123  1.00  0.00     0.198 A 
ATOM     90  F   UNL     1      -7.793  12.823  10.428  1.00  0.00    -0.203 F 
ATOM     91  F   UNL     1      -5.528  16.901   7.599  1.00  0.00    -0.200 F 
ATOM     92  C   UNL     1      -6.851  16.166   9.412  1.00  0.00     0.200 A 
ATOM     93  F   UNL     1      -8.155  15.383  11.217  1.00  0.00    -0.200 F 
ATOM     94  F   UNL     1      -7.001  17.430   9.833  1.00  0.00    -0.200 F 
ENDBRANCH  61  84
ENDBRANCH  35  36
ENDBRANCH  27  30
ENDBRANCH  25  26
ENDBRANCH  24  25
ENDBRANCH   1  24
TORSDOF 15
