REMARK SMILES COc1ccc(OC)c(N2C(=O)c3ccc(C(=O)NCCCNC(=O)c4ccc(-c5c6nc(c(-c7c(F)c(F)c(F)c(F)c7F)c7ccc([nH]7)c(-c7c(F)c(F)c(F)c(F)c7F)c7nc(c(-c8c(F)c(F)c(F)c(F)c8F)c8ccc5[nH]8)C=C7)C=C6)cc4)cc3C2=O)c1
REMARK SMILES IDX 21 1 20 2 19 3 17 4 18 5 16 7 10 8 11 9 91 10 12 11 13 12
REMARK SMILES IDX 90 13 92 14 14 15 89 16 15 17 9 18 3 19 4 20 93 21 5 22 6 23
REMARK SMILES IDX 2 24 1 25 7 26 8 27 22 28 23 29 24 30 25 32 26 33 27 34
REMARK SMILES IDX 88 35 28 36 87 37 29 38 30 39 31 40 81 41 32 42 86 43 80 44
REMARK SMILES IDX 82 45 33 46 85 47 79 48 78 49 34 51 66 52 46 53 65 54 47 55
REMARK SMILES IDX 50 56 64 57 83 58 48 59 49 60 63 62 84 63 51 64 35 65 36 66
REMARK SMILES IDX 44 67 37 68 38 69 42 70 45 71 39 72 40 73 43 74 41 75 67 76
REMARK SMILES IDX 68 77 76 78 69 79 70 80 74 81 77 82 71 83 72 84 75 85 73 86
REMARK SMILES IDX 52 87 53 88 61 89 54 90 55 91 59 92 62 93 56 94 57 95 60 96
REMARK SMILES IDX 58 97
REMARK H PARENT 19 6 23 31 82 50 50 61
REMARK Flexibility Score: inf
ROOT
ATOM      1  C   UNL     1       9.953   7.268   2.339  1.00  0.00     0.042 C 
ENDROOT
BRANCH   1   2
ATOM      2  C   UNL     1       9.723   7.085   0.844  1.00  0.00     0.118 C 
BRANCH   2   3
ATOM      3  N   UNL     1      10.489   5.979   0.295  1.00  0.00    -0.352 N 
ATOM      4  C   UNL     1      10.209   4.741  -0.207  1.00  0.00     0.251 C 
ATOM      5  O   UNL     1      11.189   4.041  -0.478  1.00  0.00    -0.269 OA
ATOM      6  H   UNL     1      11.454   6.172   0.283  1.00  0.00     0.163 HD
BRANCH   4   7
ATOM      7  C   UNL     1       8.851   4.169  -0.449  1.00  0.00     0.040 A 
ATOM      8  N   UNL     1       4.323   3.567  -1.104  1.00  0.00    -0.238 N 
ATOM      9  C   UNL     1       5.100   2.438  -1.244  1.00  0.00     0.266 C 
ATOM     10  C   UNL     1       5.098   4.652  -0.764  1.00  0.00     0.266 C 
ATOM     11  O   UNL     1       4.812   1.288  -1.526  1.00  0.00    -0.268 OA
ATOM     12  C   UNL     1       6.475   2.840  -1.006  1.00  0.00     0.053 A 
ATOM     13  C   UNL     1       6.486   4.194  -0.771  1.00  0.00     0.054 A 
ATOM     14  O   UNL     1       4.821   5.758  -0.338  1.00  0.00    -0.268 OA
ATOM     15  C   UNL     1       7.624   2.087  -0.979  1.00  0.00     0.015 A 
ATOM     16  C   UNL     1       7.658   4.894  -0.525  1.00  0.00     0.028 A 
ATOM     17  C   UNL     1       8.811   2.763  -0.683  1.00  0.00     0.015 A 
BRANCH   8  18
ATOM     18  C   UNL     1       2.908   3.548  -1.203  1.00  0.00     0.098 A 
ATOM     19  C   UNL     1       0.845   2.258  -0.929  1.00  0.00     0.121 A 
ATOM     20  C   UNL     1       0.125   3.306  -1.498  1.00  0.00     0.050 A 
ATOM     21  C   UNL     1       2.222   2.396  -0.773  1.00  0.00     0.077 A 
ATOM     22  C   UNL     1       0.776   4.475  -1.910  1.00  0.00     0.052 A 
ATOM     23  C   UNL     1       2.164   4.599  -1.761  1.00  0.00     0.143 A 
BRANCH  19  24
ATOM     24  O   UNL     1       0.120   1.145  -0.596  1.00  0.00    -0.497 OA
ATOM     25  C   UNL     1       0.820   0.098   0.075  1.00  0.00     0.278 C 
ENDBRANCH  19  24
BRANCH  23  26
ATOM     26  O   UNL     1       2.805   5.634  -2.392  1.00  0.00    -0.495 OA
ATOM     27  C   UNL     1       2.641   6.876  -1.706  1.00  0.00     0.278 C 
ENDBRANCH  23  26
ENDBRANCH   8  18
ENDBRANCH   4   7
ENDBRANCH   2   3
ENDBRANCH   1   2
BRANCH   1  28
ATOM     28  C   UNL     1      11.369   7.692   2.713  1.00  0.00     0.118 C 
BRANCH  28  29
ATOM     29  N   UNL     1      11.721   9.002   2.180  1.00  0.00    -0.352 N 
ATOM     30  C   UNL     1      11.945  10.197   2.817  1.00  0.00     0.251 C 
ATOM     31  H   UNL     1      11.814   9.035   1.201  1.00  0.00     0.163 HD
ATOM     32  O   UNL     1      12.020  11.229   2.154  1.00  0.00    -0.269 OA
BRANCH  30  33
ATOM     33  C   UNL     1      12.087  10.265   4.288  1.00  0.00     0.039 A 
ATOM     34  C   UNL     1      11.519  11.346   4.971  1.00  0.00     0.014 A 
ATOM     35  C   UNL     1      12.820   9.307   4.992  1.00  0.00     0.014 A 
ATOM     36  C   UNL     1      11.631  11.429   6.362  1.00  0.00     0.010 A 
ATOM     37  C   UNL     1      12.863   9.347   6.383  1.00  0.00     0.010 A 
ATOM     38  C   UNL     1      12.274  10.411   7.083  1.00  0.00    -0.014 A 
BRANCH  38  39
ATOM     39  C   UNL     1      12.349  10.441   8.566  1.00  0.00     0.031 A 
ATOM     40  C   UNL     1      13.682  10.543   9.254  1.00  0.00     0.074 A 
ATOM     41  C   UNL     1      11.223  10.302   9.292  1.00  0.00     0.049 A 
ATOM     42  N   UNL     1      13.962  10.489  10.533  1.00  0.00    -0.248 NA
ATOM     43  C   UNL     1      14.862  10.695   8.389  1.00  0.00     0.031 C 
ATOM     44  C   UNL     1       9.876  10.149   8.741  1.00  0.00     0.029 A 
ATOM     45  N   UNL     1      11.034  10.251  10.650  1.00  0.00    -0.354 N 
ATOM     46  C   UNL     1      15.345  10.581  10.621  1.00  0.00     0.074 A 
ATOM     47  C   UNL     1      15.852  10.645   9.268  1.00  0.00     0.031 C 
ATOM     48  C   UNL     1       8.998  10.040   9.751  1.00  0.00     0.029 A 
ATOM     49  C   UNL     1       9.723  10.075  11.017  1.00  0.00     0.049 A 
ATOM     50  H   UNL     1      11.769  10.332  11.300  1.00  0.00     0.167 HD
ATOM     51  C   UNL     1      16.119  10.630  11.732  1.00  0.00     0.037 A 
ATOM     52  C   UNL     1       9.168   9.947  12.238  1.00  0.00     0.037 A 
ATOM     53  C   UNL     1      15.608  10.598  13.077  1.00  0.00     0.049 A 
ATOM     54  C   UNL     1      10.050  10.009  13.455  1.00  0.00     0.074 A 
ATOM     55  C   UNL     1      16.304  10.706  14.268  1.00  0.00     0.029 A 
ATOM     56  N   UNL     1      14.269  10.446  13.409  1.00  0.00    -0.354 N 
ATOM     57  N   UNL     1      11.350  10.161  13.528  1.00  0.00    -0.248 NA
ATOM     58  C   UNL     1       9.386   9.887  14.760  1.00  0.00     0.031 C 
ATOM     59  C   UNL     1      15.392  10.577  15.322  1.00  0.00     0.029 A 
ATOM     60  C   UNL     1      14.121  10.437  14.787  1.00  0.00     0.049 A 
ATOM     61  H   UNL     1      13.533  10.357  12.761  1.00  0.00     0.167 HD
ATOM     62  C   UNL     1      11.656  10.181  14.882  1.00  0.00     0.074 A 
ATOM     63  C   UNL     1      10.403  10.040  15.595  1.00  0.00     0.031 C 
ATOM     64  C   UNL     1      12.866  10.305  15.480  1.00  0.00     0.037 A 
BRANCH  51  65
ATOM     65  C   UNL     1      17.605  10.729  11.539  1.00  0.00     0.064 A 
ATOM     66  C   UNL     1      18.207  11.896  11.043  1.00  0.00     0.173 A 
ATOM     67  C   UNL     1      18.442   9.659  11.889  1.00  0.00     0.173 A 
ATOM     68  F   UNL     1      17.451  12.945  10.684  1.00  0.00    -0.203 F 
ATOM     69  C   UNL     1      19.587  11.976  10.876  1.00  0.00     0.198 A 
ATOM     70  C   UNL     1      19.824   9.753  11.749  1.00  0.00     0.198 A 
ATOM     71  F   UNL     1      17.920   8.522  12.374  1.00  0.00    -0.203 F 
ATOM     72  F   UNL     1      20.133  13.082  10.353  1.00  0.00    -0.200 F 
ATOM     73  C   UNL     1      20.395  10.908  11.235  1.00  0.00     0.200 A 
ATOM     74  F   UNL     1      20.605   8.725  12.109  1.00  0.00    -0.200 F 
ATOM     75  F   UNL     1      21.723  10.989  11.080  1.00  0.00    -0.200 F 
ENDBRANCH  51  65
BRANCH  52  76
ATOM     76  C   UNL     1       7.698   9.774  12.369  1.00  0.00     0.064 A 
ATOM     77  C   UNL     1       6.899  10.797  12.898  1.00  0.00     0.173 A 
ATOM     78  C   UNL     1       7.063   8.589  11.972  1.00  0.00     0.173 A 
ATOM     79  F   UNL     1       7.464  11.942  13.310  1.00  0.00    -0.203 F 
ATOM     80  C   UNL     1       5.523  10.635  13.042  1.00  0.00     0.198 A 
ATOM     81  C   UNL     1       5.683   8.438  12.091  1.00  0.00     0.198 A 
ATOM     82  F   UNL     1       7.781   7.581  11.455  1.00  0.00    -0.203 F 
ATOM     83  F   UNL     1       4.790  11.613  13.590  1.00  0.00    -0.200 F 
ATOM     84  C   UNL     1       4.915   9.458  12.633  1.00  0.00     0.200 A 
ATOM     85  F   UNL     1       5.097   7.304  11.681  1.00  0.00    -0.200 F 
ATOM     86  F   UNL     1       3.591   9.304  12.767  1.00  0.00    -0.200 F 
ENDBRANCH  52  76
BRANCH  64  87
ATOM     87  C   UNL     1      12.891  10.330  16.980  1.00  0.00     0.064 A 
ATOM     88  C   UNL     1      12.656   9.174  17.740  1.00  0.00     0.173 A 
ATOM     89  C   UNL     1      13.192  11.517  17.665  1.00  0.00     0.173 A 
ATOM     90  F   UNL     1      12.348   8.018  17.132  1.00  0.00    -0.203 F 
ATOM     91  C   UNL     1      12.699   9.212  19.131  1.00  0.00     0.198 A 
ATOM     92  C   UNL     1      13.263  11.545  19.054  1.00  0.00     0.198 A 
ATOM     93  F   UNL     1      13.431  12.648  16.984  1.00  0.00    -0.203 F 
ATOM     94  F   UNL     1      12.426   8.107  19.838  1.00  0.00    -0.200 F 
ATOM     95  C   UNL     1      13.009  10.395  19.786  1.00  0.00     0.200 A 
ATOM     96  F   UNL     1      13.575  12.685  19.686  1.00  0.00    -0.200 F 
ATOM     97  F   UNL     1      13.057  10.427  21.125  1.00  0.00    -0.200 F 
ENDBRANCH  64  87
ENDBRANCH  38  39
ENDBRANCH  30  33
ENDBRANCH  28  29
ENDBRANCH   1  28
TORSDOF 13
