REMARK SMILES O=C(NCCCNC(=O)c1cnccc1C(=O)Nc1ccc(Cl)c(Cl)c1)c1ccc(-c2c3nc(c(-c4c(F)c(F)c(F)c(F)c4F)c4ccc([nH]4)c(-c4c(F)c(F)c(F)c(F)c4F)c4nc(c(-c5c(F)c(F)c(F)c(F)c5F)c5ccc2[nH]5)C=C4)C=C3)cc1
REMARK SMILES IDX 5 1 4 2 3 3 1 4 2 5 27 7 28 8 89 9 29 10 88 11 30 12 31 13
REMARK SMILES IDX 32 14 82 15 33 16 87 17 81 18 83 19 34 20 86 21 80 22 79 23
REMARK SMILES IDX 35 25 67 26 47 27 66 28 48 29 51 30 65 31 84 32 49 33 50 34
REMARK SMILES IDX 64 36 85 37 52 38 36 39 37 40 45 41 38 42 39 43 43 44 46 45
REMARK SMILES IDX 40 46 41 47 44 48 42 49 68 50 69 51 77 52 70 53 71 54 75 55
REMARK SMILES IDX 78 56 72 57 73 58 76 59 74 60 53 61 54 62 62 63 55 64 56 65
REMARK SMILES IDX 60 66 63 67 57 68 58 69 61 70 59 71 6 72 7 73 8 74 9 76
REMARK SMILES IDX 10 77 11 78 15 79 12 80 14 81 13 82 16 83 17 84 18 85 19 87
REMARK SMILES IDX 20 88 26 89 21 90 24 91 22 92 25 93 23 94
REMARK H PARENT 3 6 83 24 51 35 7 75 18 86
REMARK Flexibility Score: inf
ROOT
ATOM      1  C   UNL     1       4.860  -0.350  -2.523  1.00  0.00     0.042 C 
ENDROOT
BRANCH   1   2
ATOM      2  C   UNL     1       4.436   0.242  -1.187  1.00  0.00     0.118 C 
BRANCH   2   3
ATOM      3  N   UNL     1       2.993   0.328  -1.009  1.00  0.00    -0.352 N 
ATOM      4  O   UNL     1       0.999  -0.146  -0.041  1.00  0.00    -0.269 OA
ATOM      5  C   UNL     1       2.218  -0.234  -0.015  1.00  0.00     0.251 C 
ATOM      6  H   UNL     1       2.508   0.856  -1.684  1.00  0.00     0.163 HD
BRANCH   5   7
ATOM      7  C   UNL     1       2.895  -0.995   1.056  1.00  0.00     0.039 A 
ATOM      8  C   UNL     1       3.993  -0.440   1.711  1.00  0.00     0.014 A 
ATOM      9  C   UNL     1       2.505  -2.311   1.315  1.00  0.00     0.014 A 
ATOM     10  C   UNL     1       4.829  -1.265   2.447  1.00  0.00     0.010 A 
ATOM     11  C   UNL     1       3.281  -3.105   2.166  1.00  0.00     0.010 A 
ATOM     12  C   UNL     1       4.479  -2.606   2.697  1.00  0.00    -0.014 A 
BRANCH  12  13
ATOM     13  C   UNL     1       5.377  -3.424   3.554  1.00  0.00     0.031 A 
ATOM     14  C   UNL     1       6.059  -4.662   3.039  1.00  0.00     0.074 A 
ATOM     15  C   UNL     1       5.634  -2.982   4.801  1.00  0.00     0.049 A 
ATOM     16  N   UNL     1       6.908  -5.450   3.655  1.00  0.00    -0.248 NA
ATOM     17  C   UNL     1       5.748  -5.085   1.665  1.00  0.00     0.031 C 
ATOM     18  C   UNL     1       5.014  -1.805   5.416  1.00  0.00     0.029 A 
ATOM     19  N   UNL     1       6.508  -3.431   5.756  1.00  0.00    -0.354 N 
ATOM     20  C   UNL     1       7.206  -6.470   2.761  1.00  0.00     0.074 A 
ATOM     21  C   UNL     1       6.439  -6.213   1.561  1.00  0.00     0.031 C 
ATOM     22  C   UNL     1       5.588  -1.574   6.603  1.00  0.00     0.029 A 
ATOM     23  C   UNL     1       6.556  -2.630   6.870  1.00  0.00     0.049 A 
ATOM     24  H   UNL     1       7.049  -4.247   5.653  1.00  0.00     0.167 HD
ATOM     25  C   UNL     1       8.046  -7.521   2.929  1.00  0.00     0.037 A 
ATOM     26  C   UNL     1       7.289  -2.735   7.993  1.00  0.00     0.037 A 
ATOM     27  C   UNL     1       8.828  -7.756   4.117  1.00  0.00     0.049 A 
ATOM     28  C   UNL     1       8.238  -3.886   8.132  1.00  0.00     0.074 A 
ATOM     29  C   UNL     1       9.706  -8.793   4.384  1.00  0.00     0.029 A 
ATOM     30  N   UNL     1       8.836  -6.932   5.233  1.00  0.00    -0.354 N 
ATOM     31  N   UNL     1       8.493  -4.851   7.283  1.00  0.00    -0.248 NA
ATOM     32  C   UNL     1       8.992  -3.970   9.388  1.00  0.00     0.031 C 
ATOM     33  C   UNL     1      10.225  -8.611   5.671  1.00  0.00     0.029 A 
ATOM     34  C   UNL     1       9.700  -7.440   6.192  1.00  0.00     0.049 A 
ATOM     35  H   UNL     1       8.307  -6.108   5.330  1.00  0.00     0.167 HD
ATOM     36  C   UNL     1       9.425  -5.665   7.905  1.00  0.00     0.074 A 
ATOM     37  C   UNL     1       9.726  -5.055   9.184  1.00  0.00     0.031 C 
ATOM     38  C   UNL     1       9.970  -6.825   7.465  1.00  0.00     0.037 A 
BRANCH  25  39
ATOM     39  C   UNL     1       8.161  -8.514   1.808  1.00  0.00     0.064 A 
ATOM     40  C   UNL     1       8.868  -8.219   0.634  1.00  0.00     0.173 A 
ATOM     41  C   UNL     1       7.617  -9.802   1.940  1.00  0.00     0.173 A 
ATOM     42  F   UNL     1       9.397  -7.000   0.453  1.00  0.00    -0.203 F 
ATOM     43  C   UNL     1       9.017  -9.172  -0.372  1.00  0.00     0.198 A 
ATOM     44  C   UNL     1       7.787 -10.759   0.943  1.00  0.00     0.198 A 
ATOM     45  F   UNL     1       6.937 -10.138   3.047  1.00  0.00    -0.203 F 
ATOM     46  F   UNL     1       9.673  -8.859  -1.498  1.00  0.00    -0.200 F 
ATOM     47  C   UNL     1       8.484 -10.443  -0.213  1.00  0.00     0.200 A 
ATOM     48  F   UNL     1       7.281 -11.990   1.103  1.00  0.00    -0.200 F 
ATOM     49  F   UNL     1       8.639 -11.362  -1.176  1.00  0.00    -0.200 F 
ENDBRANCH  25  39
BRANCH  26  50
ATOM     50  C   UNL     1       7.133  -1.722   9.066  1.00  0.00     0.064 A 
ATOM     51  C   UNL     1       8.156  -0.810   9.355  1.00  0.00     0.173 A 
ATOM     52  C   UNL     1       5.941  -1.623   9.799  1.00  0.00     0.173 A 
ATOM     53  F   UNL     1       9.320  -0.877   8.692  1.00  0.00    -0.203 F 
ATOM     54  C   UNL     1       7.996   0.157  10.345  1.00  0.00     0.198 A 
ATOM     55  C   UNL     1       5.770  -0.636  10.765  1.00  0.00     0.198 A 
ATOM     56  F   UNL     1       4.929  -2.468   9.552  1.00  0.00    -0.203 F 
ATOM     57  F   UNL     1       9.002   0.996  10.627  1.00  0.00    -0.200 F 
ATOM     58  C   UNL     1       6.800   0.250  11.042  1.00  0.00     0.200 A 
ATOM     59  F   UNL     1       4.605  -0.538  11.420  1.00  0.00    -0.200 F 
ATOM     60  F   UNL     1       6.641   1.190  11.982  1.00  0.00    -0.200 F 
ENDBRANCH  26  50
BRANCH  38  61
ATOM     61  C   UNL     1      10.935  -7.503   8.389  1.00  0.00     0.064 A 
ATOM     62  C   UNL     1      10.492  -8.168   9.542  1.00  0.00     0.173 A 
ATOM     63  C   UNL     1      12.312  -7.485   8.124  1.00  0.00     0.173 A 
ATOM     64  F   UNL     1       9.185  -8.194   9.845  1.00  0.00    -0.203 F 
ATOM     65  C   UNL     1      11.397  -8.763  10.415  1.00  0.00     0.198 A 
ATOM     66  C   UNL     1      13.212  -8.103   8.987  1.00  0.00     0.198 A 
ATOM     67  F   UNL     1      12.782  -6.864   7.032  1.00  0.00    -0.203 F 
ATOM     68  F   UNL     1      10.957  -9.346  11.539  1.00  0.00    -0.200 F 
ATOM     69  C   UNL     1      12.755  -8.733  10.135  1.00  0.00     0.200 A 
ATOM     70  F   UNL     1      14.524  -8.079   8.714  1.00  0.00    -0.200 F 
ATOM     71  F   UNL     1      13.626  -9.300  10.981  1.00  0.00    -0.200 F 
ENDBRANCH  38  61
ENDBRANCH  12  13
ENDBRANCH   5   7
ENDBRANCH   2   3
ENDBRANCH   1   2
BRANCH   1  72
ATOM     72  C   UNL     1       4.830   0.658  -3.654  1.00  0.00     0.118 C 
BRANCH  72  73
ATOM     73  N   UNL     1       5.774   1.740  -3.426  1.00  0.00    -0.352 N 
ATOM     74  C   UNL     1       6.524   2.457  -4.308  1.00  0.00     0.253 C 
ATOM     75  H   UNL     1       5.889   1.995  -2.482  1.00  0.00     0.163 HD
ATOM     76  O   UNL     1       7.348   3.259  -3.875  1.00  0.00    -0.269 OA
BRANCH  74  77
ATOM     77  C   UNL     1       6.422   2.255  -5.755  1.00  0.00     0.070 A 
ATOM     78  C   UNL     1       7.645   2.015  -6.379  1.00  0.00     0.125 A 
ATOM     79  C   UNL     1       5.272   2.267  -6.546  1.00  0.00     0.056 A 
ATOM     80  N   UNL     1       7.788   1.710  -7.689  1.00  0.00    -0.264 NA
ATOM     81  C   UNL     1       5.407   1.928  -7.905  1.00  0.00     0.035 A 
ATOM     82  C   UNL     1       6.662   1.653  -8.420  1.00  0.00     0.112 A 
BRANCH  79  83
ATOM     83  C   UNL     1       3.868   2.452  -6.097  1.00  0.00     0.256 C 
ATOM     84  O   UNL     1       3.020   1.710  -6.603  1.00  0.00    -0.269 OA
ATOM     85  N   UNL     1       3.440   3.288  -5.096  1.00  0.00    -0.322 N 
ATOM     86  H   UNL     1       2.505   3.130  -4.830  1.00  0.00     0.170 HD
BRANCH  85  87
ATOM     87  C   UNL     1       4.054   4.314  -4.377  1.00  0.00     0.043 A 
ATOM     88  C   UNL     1       5.025   5.156  -4.911  1.00  0.00     0.028 A 
ATOM     89  C   UNL     1       3.672   4.453  -3.037  1.00  0.00     0.048 A 
ATOM     90  C   UNL     1       5.672   6.079  -4.081  1.00  0.00     0.024 A 
ATOM     91  C   UNL     1       4.347   5.343  -2.198  1.00  0.00     0.061 A 
ATOM     92  C   UNL     1       5.356   6.156  -2.720  1.00  0.00     0.059 A 
ATOM     93  Cl  UNL     1       3.920   5.341  -0.524  1.00  0.00    -0.083 Cl
ATOM     94  Cl  UNL     1       6.253   7.258  -1.739  1.00  0.00    -0.083 Cl
ENDBRANCH  85  87
ENDBRANCH  79  83
ENDBRANCH  74  77
ENDBRANCH  72  73
ENDBRANCH   1  72
TORSDOF 12
