REMARK SMILES CC(C)C[C@H](C(=O)NCCCNC(=O)c1ccc(-c2c3nc(c(-c4c(F)c(F)c(F)c(F)c4F)c4ccc([nH]4)c(-c4c(F)c(F)c(F)c(F)c4F)c4nc(c(-c5c(F)c(F)c(F)c(F)c5F)c5ccc2[nH]5)C=C4)C=C3)cc1)N1C(=O)/C(=C2\C(=O)Nc3ccc(Br)cc32)SC1=S
REMARK SMILES IDX 10 1 9 2 8 3 6 4 7 5 5 7 4 8 2 9 1 10 3 11 78 12 79 13 94 14
REMARK SMILES IDX 80 15 81 16 93 17 95 18 82 19 83 20 92 21 84 22 85 23 86 24
REMARK SMILES IDX 91 25 87 27 89 28 88 29 90 30 11 31 12 32 13 33 14 35 15 36
REMARK SMILES IDX 16 37 77 38 17 39 76 40 18 41 19 42 20 43 70 44 21 45 75 46
REMARK SMILES IDX 69 47 71 48 22 49 74 50 68 51 67 52 23 54 55 55 35 56 54 57
REMARK SMILES IDX 36 58 39 59 53 60 72 61 37 62 38 63 52 65 73 66 40 67 24 68
REMARK SMILES IDX 25 69 33 70 26 71 27 72 31 73 34 74 28 75 29 76 32 77 30 78
REMARK SMILES IDX 56 79 57 80 65 81 58 82 59 83 63 84 66 85 60 86 61 87 64 88
REMARK SMILES IDX 62 89 41 90 42 91 50 92 43 93 44 94 48 95 51 96 45 97 46 98
REMARK SMILES IDX 49 99 47 100
REMARK H PARENT 8 6 85 26 12 34 71 53 39 64
REMARK Flexibility Score: inf
ROOT
ATOM      1  C   UNL     1      -3.222  -0.218  -2.687  1.00  0.00     0.042 C 
ENDROOT
BRANCH   1   2
ATOM      2  C   UNL     1      -2.022  -0.596  -1.827  1.00  0.00     0.117 C 
BRANCH   2   3
ATOM      3  N   UNL     1      -1.238   0.569  -1.472  1.00  0.00    -0.354 N 
ATOM      4  C   UNL     1      -1.201   1.345  -0.356  1.00  0.00     0.243 C 
ATOM      5  O   UNL     1      -0.285   2.176  -0.345  1.00  0.00    -0.273 OA
ATOM      6  H   UNL     1      -0.610   0.854  -2.175  1.00  0.00     0.163 HD
BRANCH   4   7
ATOM      7  C   UNL     1      -2.124   1.117   0.887  1.00  0.00     0.181 C 
BRANCH   7   8
ATOM      8  C   UNL     1      -1.704   2.101   2.012  1.00  0.00     0.038 C 
BRANCH   8   9
ATOM      9  C   UNL     1      -2.651   2.528   3.143  1.00  0.00    -0.015 C 
ATOM     10  C   UNL     1      -3.246   1.387   3.956  1.00  0.00     0.007 C 
ATOM     11  C   UNL     1      -1.864   3.452   4.092  1.00  0.00     0.007 C 
ENDBRANCH   8   9
ENDBRANCH   7   8
BRANCH   7  12
ATOM     12  N   UNL     1      -3.554   1.007   0.532  1.00  0.00    -0.280 N 
ATOM     13  C   UNL     1      -4.187  -0.193   0.803  1.00  0.00     0.267 C 
ATOM     14  C   UNL     1      -4.373   1.972  -0.008  1.00  0.00     0.149 C 
ATOM     15  O   UNL     1      -3.868  -0.973   1.686  1.00  0.00    -0.268 OA
ATOM     16  C   UNL     1      -5.414  -0.336  -0.033  1.00  0.00     0.093 C 
ATOM     17  S   UNL     1      -5.972   1.260  -0.370  1.00  0.00    -0.053 SA
ATOM     18  S   UNL     1      -4.005   3.545  -0.407  1.00  0.00    -0.052 S 
ATOM     19  C   UNL     1      -5.869  -1.508  -0.507  1.00  0.00     0.069 C 
ATOM     20  C   UNL     1      -5.069  -2.784  -0.297  1.00  0.00     0.257 C 
ATOM     21  C   UNL     1      -7.052  -1.909  -1.308  1.00  0.00     0.013 A 
ATOM     22  O   UNL     1      -3.901  -2.912   0.001  1.00  0.00    -0.269 OA
ATOM     23  N   UNL     1      -5.883  -3.805  -0.726  1.00  0.00    -0.321 N 
ATOM     24  C   UNL     1      -7.015  -3.315  -1.351  1.00  0.00     0.049 A 
ATOM     25  C   UNL     1      -8.063  -1.252  -1.994  1.00  0.00     0.026 A 
ATOM     26  H   UNL     1      -5.686  -4.762  -0.604  1.00  0.00     0.170 HD
ATOM     27  C   UNL     1      -7.940  -4.100  -2.010  1.00  0.00     0.028 A 
ATOM     28  C   UNL     1      -9.011  -2.039  -2.679  1.00  0.00     0.018 A 
ATOM     29  C   UNL     1      -8.955  -3.442  -2.686  1.00  0.00     0.018 A 
ATOM     30  Br  UNL     1     -10.438  -1.248  -3.632  1.00  0.00    -0.051 Br
ENDBRANCH   7  12
ENDBRANCH   4   7
ENDBRANCH   2   3
ENDBRANCH   1   2
BRANCH   1  31
ATOM     31  C   UNL     1      -2.856   0.338  -4.059  1.00  0.00     0.118 C 
BRANCH  31  32
ATOM     32  N   UNL     1      -2.871  -0.697  -5.077  1.00  0.00    -0.352 N 
ATOM     33  C   UNL     1      -3.862  -1.048  -5.962  1.00  0.00     0.251 C 
ATOM     34  H   UNL     1      -2.045  -1.228  -5.144  1.00  0.00     0.163 HD
ATOM     35  O   UNL     1      -3.780  -2.116  -6.564  1.00  0.00    -0.269 OA
BRANCH  33  36
ATOM     36  C   UNL     1      -5.036  -0.173  -6.194  1.00  0.00     0.039 A 
ATOM     37  C   UNL     1      -6.294  -0.765  -6.362  1.00  0.00     0.014 A 
ATOM     38  C   UNL     1      -4.901   1.211  -6.337  1.00  0.00     0.014 A 
ATOM     39  C   UNL     1      -7.414   0.029  -6.628  1.00  0.00     0.010 A 
ATOM     40  C   UNL     1      -6.026   2.010  -6.536  1.00  0.00     0.010 A 
ATOM     41  C   UNL     1      -7.288   1.425  -6.702  1.00  0.00    -0.014 A 
BRANCH  41  42
ATOM     42  C   UNL     1      -8.453   2.289  -7.019  1.00  0.00     0.031 A 
ATOM     43  C   UNL     1      -8.514   3.005  -8.334  1.00  0.00     0.074 A 
ATOM     44  C   UNL     1      -9.418   2.485  -6.103  1.00  0.00     0.049 A 
ATOM     45  N   UNL     1      -9.373   3.899  -8.748  1.00  0.00    -0.248 NA
ATOM     46  C   UNL     1      -7.432   2.719  -9.287  1.00  0.00     0.031 C 
ATOM     47  C   UNL     1      -9.419   1.907  -4.765  1.00  0.00     0.029 A 
ATOM     48  N   UNL     1     -10.582   3.208  -6.157  1.00  0.00    -0.354 N 
ATOM     49  C   UNL     1      -8.887   4.349  -9.966  1.00  0.00     0.074 A 
ATOM     50  C   UNL     1      -7.672   3.611 -10.236  1.00  0.00     0.031 C 
ATOM     51  C   UNL     1     -10.573   2.223  -4.155  1.00  0.00     0.029 A 
ATOM     52  C   UNL     1     -11.369   3.063  -5.041  1.00  0.00     0.049 A 
ATOM     53  H   UNL     1     -10.830   3.776  -6.923  1.00  0.00     0.167 HD
ATOM     54  C   UNL     1      -9.398   5.315 -10.765  1.00  0.00     0.037 A 
ATOM     55  C   UNL     1     -12.598   3.545  -4.772  1.00  0.00     0.037 A 
ATOM     56  C   UNL     1     -10.634   6.005 -10.505  1.00  0.00     0.049 A 
ATOM     57  C   UNL     1     -13.233   4.485  -5.759  1.00  0.00     0.074 A 
ATOM     58  C   UNL     1     -11.250   6.991 -11.255  1.00  0.00     0.029 A 
ATOM     59  N   UNL     1     -11.453   5.764  -9.411  1.00  0.00    -0.354 N 
ATOM     60  N   UNL     1     -12.762   4.916  -6.903  1.00  0.00    -0.248 NA
ATOM     61  C   UNL     1     -14.547   5.039  -5.403  1.00  0.00     0.031 C 
ATOM     62  C   UNL     1     -12.433   7.361 -10.603  1.00  0.00     0.029 A 
ATOM     63  C   UNL     1     -12.571   6.580  -9.466  1.00  0.00     0.049 A 
ATOM     64  H   UNL     1     -11.267   5.109  -8.699  1.00  0.00     0.167 HD
ATOM     65  C   UNL     1     -13.703   5.808  -7.393  1.00  0.00     0.074 A 
ATOM     66  C   UNL     1     -14.800   5.820  -6.445  1.00  0.00     0.031 C 
ATOM     67  C   UNL     1     -13.649   6.571  -8.511  1.00  0.00     0.037 A 
BRANCH  54  68
ATOM     68  C   UNL     1      -8.580   5.717 -11.955  1.00  0.00     0.064 A 
ATOM     69  C   UNL     1      -8.428   4.883 -13.072  1.00  0.00     0.173 A 
ATOM     70  C   UNL     1      -7.910   6.951 -11.961  1.00  0.00     0.173 A 
ATOM     71  F   UNL     1      -9.029   3.685 -13.106  1.00  0.00    -0.203 F 
ATOM     72  C   UNL     1      -7.603   5.252 -14.133  1.00  0.00     0.198 A 
ATOM     73  C   UNL     1      -7.111   7.329 -13.035  1.00  0.00     0.198 A 
ATOM     74  F   UNL     1      -8.023   7.786 -10.917  1.00  0.00    -0.203 F 
ATOM     75  F   UNL     1      -7.419   4.410 -15.159  1.00  0.00    -0.200 F 
ATOM     76  C   UNL     1      -6.948   6.474 -14.114  1.00  0.00     0.200 A 
ATOM     77  F   UNL     1      -6.484   8.513 -13.018  1.00  0.00    -0.200 F 
ATOM     78  F   UNL     1      -6.146   6.822 -15.131  1.00  0.00    -0.200 F 
ENDBRANCH  54  68
BRANCH  55  79
ATOM     79  C   UNL     1     -13.315   3.115  -3.542  1.00  0.00     0.064 A 
ATOM     80  C   UNL     1     -14.438   2.278  -3.633  1.00  0.00     0.173 A 
ATOM     81  C   UNL     1     -12.884   3.484  -2.260  1.00  0.00     0.173 A 
ATOM     82  F   UNL     1     -14.904   1.913  -4.837  1.00  0.00    -0.203 F 
ATOM     83  C   UNL     1     -15.101   1.831  -2.492  1.00  0.00     0.198 A 
ATOM     84  C   UNL     1     -13.530   3.013  -1.119  1.00  0.00     0.198 A 
ATOM     85  F   UNL     1     -11.813   4.278  -2.115  1.00  0.00    -0.203 F 
ATOM     86  F   UNL     1     -16.188   1.056  -2.611  1.00  0.00    -0.200 F 
ATOM     87  C   UNL     1     -14.640   2.190  -1.235  1.00  0.00     0.200 A 
ATOM     88  F   UNL     1     -13.070   3.346   0.095  1.00  0.00    -0.200 F 
ATOM     89  F   UNL     1     -15.266   1.744  -0.137  1.00  0.00    -0.200 F 
ENDBRANCH  55  79
BRANCH  67  90
ATOM     90  C   UNL     1     -14.802   7.493  -8.766  1.00  0.00     0.064 A 
ATOM     91  C   UNL     1     -14.943   8.691  -8.052  1.00  0.00     0.173 A 
ATOM     92  C   UNL     1     -15.728   7.212  -9.780  1.00  0.00     0.173 A 
ATOM     93  F   UNL     1     -14.087   8.995  -7.065  1.00  0.00    -0.203 F 
ATOM     94  C   UNL     1     -15.979   9.575  -8.340  1.00  0.00     0.198 A 
ATOM     95  C   UNL     1     -16.752   8.107 -10.077  1.00  0.00     0.198 A 
ATOM     96  F   UNL     1     -15.630   6.079 -10.491  1.00  0.00    -0.203 F 
ATOM     97  F   UNL     1     -16.111  10.704  -7.631  1.00  0.00    -0.200 F 
ATOM     98  C   UNL     1     -16.877   9.286  -9.357  1.00  0.00     0.200 A 
ATOM     99  F   UNL     1     -17.615   7.831 -11.065  1.00  0.00    -0.200 F 
ATOM    100  F   UNL     1     -17.867  10.143  -9.641  1.00  0.00    -0.200 F 
ENDBRANCH  67  90
ENDBRANCH  41  42
ENDBRANCH  33  36
ENDBRANCH  31  32
ENDBRANCH   1  31
TORSDOF 13
