REMARK SMILES Cc1ccc(NC(=O)C[C@@H](C(=O)NCCCNC(=O)c2ccc(-c3c4nc(c(-c5c(F)c(F)c(F)c(F)c5F)c5ccc([nH]5)c(-c5c(F)c(F)c(F)c(F)c5F)c5nc(c(-c6c(F)c(F)c(F)c(F)c6F)c6ccc3[nH]6)C=C5)C=C4)cc2)[NH+]2CCOCC2)cc1
REMARK SMILES IDX 14 1 13 2 11 3 12 4 10 6 9 7 7 8 6 9 8 11 5 12 1 13 2 14
REMARK SMILES IDX 3 15 90 16 4 17 89 18 83 19 84 20 88 21 85 23 87 24 86 25
REMARK SMILES IDX 15 26 16 27 17 28 18 29 19 31 20 32 21 33 82 34 22 35 81 36
REMARK SMILES IDX 23 37 24 38 25 39 75 40 26 41 80 42 74 43 76 44 27 45 79 46
REMARK SMILES IDX 73 47 72 48 28 50 60 51 40 52 59 53 41 54 44 55 58 56 77 57
REMARK SMILES IDX 42 58 43 59 57 61 78 62 45 63 29 64 30 65 38 66 31 67 32 68
REMARK SMILES IDX 36 69 39 70 33 71 34 72 37 73 35 74 61 75 62 76 70 77 63 78
REMARK SMILES IDX 64 79 68 80 71 81 65 82 66 83 69 84 67 85 46 86 47 87 55 88
REMARK SMILES IDX 48 89 49 90 53 91 56 92 50 93 51 94 54 95 52 96
REMARK H PARENT 13 5 6 10 83 22 17 30 76 49 44 60
REMARK Flexibility Score: inf
ROOT
ATOM      1  C   UNL     1      -4.096  -0.157  -2.217  1.00  0.00     0.118 C 
ENDROOT
BRANCH   1   2
ATOM      2  N   UNL     1      -2.679  -0.234  -1.931  1.00  0.00    -0.351 N 
ATOM      3  C   UNL     1      -1.842  -1.294  -1.757  1.00  0.00     0.278 C 
ATOM      4  O   UNL     1      -0.643  -1.017  -1.878  1.00  0.00    -0.268 OA
ATOM      5  H   UNL     1      -2.239   0.643  -1.846  1.00  0.00     0.163 HD
BRANCH   3   6
ATOM      6  C   UNL     1      -2.356  -2.750  -1.478  1.00  0.00     0.283 C 
BRANCH   6   7
ATOM      7  C   UNL     1      -2.901  -2.963  -0.047  1.00  0.00     0.175 C 
BRANCH   7   8
ATOM      8  C   UNL     1      -3.423  -1.793   0.748  1.00  0.00     0.230 C 
ATOM      9  N   UNL     1      -2.618  -0.835   1.289  1.00  0.00    -0.326 N 
ATOM     10  H   UNL     1      -3.101  -0.143   1.796  1.00  0.00     0.169 HD
ATOM     11  O   UNL     1      -4.643  -1.678   0.913  1.00  0.00    -0.274 OA
BRANCH   9  12
ATOM     12  C   UNL     1      -1.225  -0.655   1.254  1.00  0.00     0.041 A 
ATOM     13  C   UNL     1       2.875   0.175   0.255  1.00  0.00     0.044 C 
ATOM     14  C   UNL     1       1.479  -0.092   0.732  1.00  0.00    -0.051 A 
ATOM     15  C   UNL     1       1.050  -1.408   0.911  1.00  0.00     0.005 A 
ATOM     16  C   UNL     1       0.567   0.948   0.926  1.00  0.00     0.005 A 
ATOM     17  C   UNL     1      -0.292  -1.686   1.186  1.00  0.00     0.026 A 
ATOM     18  C   UNL     1      -0.772   0.667   1.206  1.00  0.00     0.026 A 
ENDBRANCH   9  12
ENDBRANCH   7   8
ENDBRANCH   6   7
BRANCH   6  19
ATOM     19  N   UNL     1      -1.257  -3.724  -1.795  1.00  0.00    -0.320 N 
ATOM     20  C   UNL     1      -0.832  -3.719  -3.215  1.00  0.00     0.291 C 
ATOM     21  C   UNL     1      -1.385  -5.121  -1.344  1.00  0.00     0.291 C 
ATOM     22  H   UNL     1      -0.535  -3.321  -1.197  1.00  0.00     0.348 HD
ATOM     23  C   UNL     1      -1.637  -4.669  -4.116  1.00  0.00     0.221 C 
ATOM     24  C   UNL     1      -2.170  -6.041  -2.288  1.00  0.00     0.221 C 
ATOM     25  O   UNL     1      -1.631  -6.008  -3.611  1.00  0.00    -0.370 OA
ENDBRANCH   6  19
ENDBRANCH   3   6
ENDBRANCH   1   2
BRANCH   1  26
ATOM     26  C   UNL     1      -4.873   0.811  -1.321  1.00  0.00     0.042 C 
BRANCH  26  27
ATOM     27  C   UNL     1      -4.247   2.197  -1.149  1.00  0.00     0.118 C 
BRANCH  27  28
ATOM     28  N   UNL     1      -5.251   3.263  -1.177  1.00  0.00    -0.352 N 
ATOM     29  C   UNL     1      -5.164   4.584  -0.788  1.00  0.00     0.251 C 
ATOM     30  H   UNL     1      -6.130   2.994  -1.530  1.00  0.00     0.163 HD
ATOM     31  O   UNL     1      -6.051   5.379  -1.084  1.00  0.00    -0.269 OA
BRANCH  29  32
ATOM     32  C   UNL     1      -3.947   5.060  -0.107  1.00  0.00     0.039 A 
ATOM     33  C   UNL     1      -3.273   6.167  -0.633  1.00  0.00     0.014 A 
ATOM     34  C   UNL     1      -3.401   4.331   0.946  1.00  0.00     0.014 A 
ATOM     35  C   UNL     1      -1.947   6.391  -0.271  1.00  0.00     0.010 A 
ATOM     36  C   UNL     1      -2.067   4.514   1.261  1.00  0.00     0.010 A 
ATOM     37  C   UNL     1      -1.320   5.489   0.591  1.00  0.00    -0.014 A 
BRANCH  37  38
ATOM     38  C   UNL     1       0.132   5.413   0.726  1.00  0.00     0.031 A 
ATOM     39  C   UNL     1       0.822   5.953   1.914  1.00  0.00     0.074 A 
ATOM     40  C   UNL     1       0.849   4.779  -0.229  1.00  0.00     0.049 A 
ATOM     41  N   UNL     1       2.065   6.303   1.937  1.00  0.00    -0.248 NA
ATOM     42  C   UNL     1       0.141   6.168   3.182  1.00  0.00     0.031 C 
ATOM     43  C   UNL     1       2.258   4.398  -0.173  1.00  0.00     0.029 A 
ATOM     44  N   UNL     1       0.475   4.523  -1.561  1.00  0.00    -0.354 N 
ATOM     45  C   UNL     1       2.419   6.533   3.247  1.00  0.00     0.074 A 
ATOM     46  C   UNL     1       1.169   6.492   3.974  1.00  0.00     0.031 C 
ATOM     47  C   UNL     1       2.720   4.278  -1.427  1.00  0.00     0.029 A 
ATOM     48  C   UNL     1       1.658   4.707  -2.319  1.00  0.00     0.049 A 
ATOM     49  H   UNL     1      -0.417   4.271  -1.895  1.00  0.00     0.167 HD
ATOM     50  C   UNL     1       3.742   6.614   3.578  1.00  0.00     0.037 A 
ATOM     51  C   UNL     1       1.754   5.717  -3.232  1.00  0.00     0.037 A 
ATOM     52  C   UNL     1       4.599   6.550   2.394  1.00  0.00     0.049 A 
ATOM     53  C   UNL     1       2.833   6.737  -2.941  1.00  0.00     0.074 A 
ATOM     54  C   UNL     1       5.333   5.545   1.785  1.00  0.00     0.029 A 
ATOM     55  N   UNL     1       4.559   7.596   1.488  1.00  0.00    -0.354 N 
ATOM     56  N   UNL     1       3.571   6.739  -1.867  1.00  0.00    -0.248 NA
ATOM     57  C   UNL     1       3.091   7.899  -3.795  1.00  0.00     0.031 C 
ATOM     58  C   UNL     1       5.705   5.991   0.485  1.00  0.00     0.029 A 
ATOM     59  C   UNL     1       5.196   7.264   0.308  1.00  0.00     0.049 A 
ATOM     60  H   UNL     1       4.132   8.465   1.663  1.00  0.00     0.167 HD
ATOM     61  C   UNL     1       4.333   7.874  -1.846  1.00  0.00     0.074 A 
ATOM     62  C   UNL     1       4.006   8.569  -3.075  1.00  0.00     0.031 C 
ATOM     63  C   UNL     1       5.152   8.191  -0.806  1.00  0.00     0.037 A 
BRANCH  50  64
ATOM     64  C   UNL     1       4.278   6.505   4.991  1.00  0.00     0.064 A 
ATOM     65  C   UNL     1       5.563   5.972   5.237  1.00  0.00     0.173 A 
ATOM     66  C   UNL     1       3.562   6.856   6.149  1.00  0.00     0.173 A 
ATOM     67  F   UNL     1       6.417   5.708   4.239  1.00  0.00    -0.203 F 
ATOM     68  C   UNL     1       6.028   5.688   6.524  1.00  0.00     0.198 A 
ATOM     69  C   UNL     1       3.999   6.518   7.435  1.00  0.00     0.198 A 
ATOM     70  F   UNL     1       2.449   7.596   6.083  1.00  0.00    -0.203 F 
ATOM     71  F   UNL     1       7.255   5.175   6.690  1.00  0.00    -0.200 F 
ATOM     72  C   UNL     1       5.227   5.920   7.622  1.00  0.00     0.200 A 
ATOM     73  F   UNL     1       3.218   6.784   8.493  1.00  0.00    -0.200 F 
ATOM     74  F   UNL     1       5.649   5.600   8.852  1.00  0.00    -0.200 F 
ENDBRANCH  50  64
BRANCH  51  75
ATOM     75  C   UNL     1       0.462   6.012  -3.903  1.00  0.00     0.064 A 
ATOM     76  C   UNL     1      -0.136   4.998  -4.676  1.00  0.00     0.173 A 
ATOM     77  C   UNL     1      -0.340   7.089  -3.513  1.00  0.00     0.173 A 
ATOM     78  F   UNL     1       0.592   3.943  -5.078  1.00  0.00    -0.203 F 
ATOM     79  C   UNL     1      -1.503   5.000  -4.938  1.00  0.00     0.198 A 
ATOM     80  C   UNL     1      -1.706   7.099  -3.796  1.00  0.00     0.198 A 
ATOM     81  F   UNL     1       0.167   8.075  -2.759  1.00  0.00    -0.203 F 
ATOM     82  F   UNL     1      -2.065   3.961  -5.571  1.00  0.00    -0.200 F 
ATOM     83  C   UNL     1      -2.292   6.039  -4.473  1.00  0.00     0.200 A 
ATOM     84  F   UNL     1      -2.473   8.095  -3.332  1.00  0.00    -0.200 F 
ATOM     85  F   UNL     1      -3.620   5.998  -4.642  1.00  0.00    -0.200 F 
ENDBRANCH  51  75
BRANCH  63  86
ATOM     86  C   UNL     1       6.000   9.420  -0.788  1.00  0.00     0.064 A 
ATOM     87  C   UNL     1       6.879   9.725  -1.837  1.00  0.00     0.173 A 
ATOM     88  C   UNL     1       6.048  10.254   0.345  1.00  0.00     0.173 A 
ATOM     89  F   UNL     1       6.913   8.963  -2.941  1.00  0.00    -0.203 F 
ATOM     90  C   UNL     1       7.749  10.812  -1.762  1.00  0.00     0.198 A 
ATOM     91  C   UNL     1       6.948  11.313   0.435  1.00  0.00     0.198 A 
ATOM     92  F   UNL     1       5.211  10.067   1.377  1.00  0.00    -0.203 F 
ATOM     93  F   UNL     1       8.552  11.095  -2.797  1.00  0.00    -0.200 F 
ATOM     94  C   UNL     1       7.795  11.595  -0.620  1.00  0.00     0.200 A 
ATOM     95  F   UNL     1       6.991  12.056   1.550  1.00  0.00    -0.200 F 
ATOM     96  F   UNL     1       8.651  12.622  -0.539  1.00  0.00    -0.200 F 
ENDBRANCH  63  86
ENDBRANCH  37  38
ENDBRANCH  29  32
ENDBRANCH  27  28
ENDBRANCH  26  27
ENDBRANCH   1  26
TORSDOF 14
