REMARK SMILES CCCC[C@@H](C(=O)NCCCNC(=O)c1ccc(-c2c3nc(c(-c4c(F)c(F)c(F)c(F)c4F)c4ccc([nH]4)c(-c4c(F)c(F)c(F)c(F)c4F)c4nc(c(-c5c(F)c(F)c(F)c(F)c5F)c5ccc2[nH]5)C=C4)C=C3)cc1)[C@]1(O)COc2cc(O)ccc21
REMARK SMILES IDX 9 1 8 2 6 3 7 4 5 6 4 7 3 8 2 9 1 10 78 11 80 12 88 13 81 14
REMARK SMILES IDX 82 15 87 16 83 17 86 18 84 19 79 20 85 22 10 24 11 25 12 26
REMARK SMILES IDX 13 27 14 29 15 30 16 31 77 32 17 33 76 34 18 35 19 36 20 37
REMARK SMILES IDX 70 38 21 39 75 40 69 41 71 42 22 43 74 44 68 45 67 46 23 48
REMARK SMILES IDX 55 49 35 50 54 51 36 52 39 53 53 54 72 55 37 56 38 57 52 59
REMARK SMILES IDX 73 60 40 61 24 62 25 63 33 64 26 65 27 66 31 67 34 68 28 69
REMARK SMILES IDX 29 70 32 71 30 72 56 73 57 74 65 75 58 76 59 77 63 78 66 79
REMARK SMILES IDX 60 80 61 81 64 82 62 83 41 84 42 85 50 86 43 87 44 88 48 89
REMARK SMILES IDX 51 90 45 91 46 92 49 93 47 94
REMARK H PARENT 8 5 79 21 85 23 12 28 71 47 39 58
REMARK Flexibility Score: inf
ROOT
ATOM      1  C   UNL     1      -1.078  -0.594   3.703  1.00  0.00     0.117 C 
ENDROOT
BRANCH   1   2
ATOM      2  N   UNL     1      -1.522   0.651   4.303  1.00  0.00    -0.356 N 
ATOM      3  C   UNL     1      -1.130   1.908   3.922  1.00  0.00     0.226 C 
ATOM      4  O   UNL     1      -0.780   2.682   4.810  1.00  0.00    -0.275 OA
ATOM      5  H   UNL     1      -2.162   0.587   5.049  1.00  0.00     0.163 HD
BRANCH   3   6
ATOM      6  C   UNL     1      -1.191   2.294   2.444  1.00  0.00     0.118 C 
BRANCH   6   7
ATOM      7  C   UNL     1       0.221   2.504   1.832  1.00  0.00     0.017 C 
BRANCH   7   8
ATOM      8  C   UNL     1       1.155   1.307   1.657  1.00  0.00     0.001 C 
BRANCH   8   9
ATOM      9  C   UNL     1       0.692   0.217   0.691  1.00  0.00    -0.003 C 
ATOM     10  C   UNL     1       1.299   0.371  -0.693  1.00  0.00     0.004 C 
ENDBRANCH   8   9
ENDBRANCH   7   8
ENDBRANCH   6   7
BRANCH   6  11
ATOM     11  C   UNL     1      -2.074   3.582   2.226  1.00  0.00     0.139 C 
ATOM     12  C   UNL     1      -1.358   4.948   2.414  1.00  0.00     0.270 C 
ATOM     13  C   UNL     1      -3.181   3.839   3.212  1.00  0.00     0.030 A 
ATOM     14  O   UNL     1      -1.557   5.404   3.766  1.00  0.00    -0.490 OA
ATOM     15  C   UNL     1      -2.773   4.853   4.082  1.00  0.00     0.129 A 
ATOM     16  C   UNL     1      -4.428   3.255   3.380  1.00  0.00     0.014 A 
ATOM     17  C   UNL     1      -3.519   5.255   5.170  1.00  0.00     0.093 A 
ATOM     18  C   UNL     1      -5.228   3.684   4.451  1.00  0.00     0.047 A 
ATOM     19  C   UNL     1      -4.757   4.657   5.346  1.00  0.00     0.119 A 
BRANCH  11  20
ATOM     20  O   UNL     1      -2.574   3.511   0.879  1.00  0.00    -0.381 OA
ATOM     21  H   UNL     1      -1.838   3.345   0.270  1.00  0.00     0.212 HD
ENDBRANCH  11  20
BRANCH  19  22
ATOM     22  O   UNL     1      -5.500   5.054   6.420  1.00  0.00    -0.508 OA
ATOM     23  H   UNL     1      -5.166   5.705   7.006  1.00  0.00     0.293 HD
ENDBRANCH  19  22
ENDBRANCH   6  11
ENDBRANCH   3   6
ENDBRANCH   1   2
BRANCH   1  24
ATOM     24  C   UNL     1       0.290  -0.990   4.261  1.00  0.00     0.042 C 
BRANCH  24  25
ATOM     25  C   UNL     1       0.258  -1.450   5.708  1.00  0.00     0.118 C 
BRANCH  25  26
ATOM     26  N   UNL     1      -0.334  -2.767   5.853  1.00  0.00    -0.352 N 
ATOM     27  C   UNL     1       0.219  -3.916   6.362  1.00  0.00     0.251 C 
ATOM     28  H   UNL     1      -1.264  -2.849   5.541  1.00  0.00     0.163 HD
ATOM     29  O   UNL     1      -0.354  -4.988   6.203  1.00  0.00    -0.269 OA
BRANCH  27  30
ATOM     30  C   UNL     1       1.510  -3.869   7.086  1.00  0.00     0.039 A 
ATOM     31  C   UNL     1       2.430  -4.902   6.888  1.00  0.00     0.014 A 
ATOM     32  C   UNL     1       1.807  -2.833   7.977  1.00  0.00     0.014 A 
ATOM     33  C   UNL     1       3.659  -4.873   7.550  1.00  0.00     0.010 A 
ATOM     34  C   UNL     1       3.068  -2.755   8.559  1.00  0.00     0.010 A 
ATOM     35  C   UNL     1       3.999  -3.786   8.371  1.00  0.00    -0.014 A 
BRANCH  35  36
ATOM     36  C   UNL     1       5.307  -3.729   9.073  1.00  0.00     0.031 A 
ATOM     37  C   UNL     1       5.352  -3.721  10.577  1.00  0.00     0.074 A 
ATOM     38  C   UNL     1       6.445  -3.635   8.360  1.00  0.00     0.049 A 
ATOM     39  N   UNL     1       6.384  -3.620  11.376  1.00  0.00    -0.248 NA
ATOM     40  C   UNL     1       4.061  -3.807  11.279  1.00  0.00     0.031 C 
ATOM     41  C   UNL     1       6.526  -3.584   6.900  1.00  0.00     0.029 A 
ATOM     42  N   UNL     1       7.754  -3.558   8.768  1.00  0.00    -0.354 N 
ATOM     43  C   UNL     1       5.866  -3.612  12.665  1.00  0.00     0.074 A 
ATOM     44  C   UNL     1       4.426  -3.655  12.543  1.00  0.00     0.031 C 
ATOM     45  C   UNL     1       7.816  -3.513   6.533  1.00  0.00     0.029 A 
ATOM     46  C   UNL     1       8.649  -3.471   7.730  1.00  0.00     0.049 A 
ATOM     47  H   UNL     1       8.024  -3.563   9.714  1.00  0.00     0.167 HD
ATOM     48  C   UNL     1       6.531  -3.600  13.845  1.00  0.00     0.037 A 
ATOM     49  C   UNL     1       9.992  -3.364   7.745  1.00  0.00     0.037 A 
ATOM     50  C   UNL     1       7.965  -3.585  13.958  1.00  0.00     0.049 A 
ATOM     51  C   UNL     1      10.707  -3.347   9.070  1.00  0.00     0.074 A 
ATOM     52  C   UNL     1       8.741  -3.633  15.103  1.00  0.00     0.029 A 
ATOM     53  N   UNL     1       8.840  -3.514  12.884  1.00  0.00    -0.354 N 
ATOM     54  N   UNL     1      10.210  -3.415  10.281  1.00  0.00    -0.248 NA
ATOM     55  C   UNL     1      12.172  -3.246   9.028  1.00  0.00     0.031 C 
ATOM     56  C   UNL     1      10.084  -3.537  14.724  1.00  0.00     0.029 A 
ATOM     57  C   UNL     1      10.148  -3.491  13.340  1.00  0.00     0.049 A 
ATOM     58  H   UNL     1       8.572  -3.483  11.937  1.00  0.00     0.167 HD
ATOM     59  C   UNL     1      11.299  -3.396  11.143  1.00  0.00     0.074 A 
ATOM     60  C   UNL     1      12.484  -3.326  10.314  1.00  0.00     0.031 C 
ATOM     61  C   UNL     1      11.316  -3.431  12.498  1.00  0.00     0.037 A 
BRANCH  48  62
ATOM     62  C   UNL     1       5.713  -3.605  15.106  1.00  0.00     0.064 A 
ATOM     63  C   UNL     1       4.956  -4.723  15.490  1.00  0.00     0.173 A 
ATOM     64  C   UNL     1       5.711  -2.490  15.958  1.00  0.00     0.173 A 
ATOM     65  F   UNL     1       4.913  -5.811  14.707  1.00  0.00    -0.203 F 
ATOM     66  C   UNL     1       4.201  -4.711  16.660  1.00  0.00     0.198 A 
ATOM     67  C   UNL     1       4.983  -2.495  17.145  1.00  0.00     0.198 A 
ATOM     68  F   UNL     1       6.422  -1.397  15.644  1.00  0.00    -0.203 F 
ATOM     69  F   UNL     1       3.442  -5.770  16.976  1.00  0.00    -0.200 F 
ATOM     70  C   UNL     1       4.221  -3.602  17.490  1.00  0.00     0.200 A 
ATOM     71  F   UNL     1       5.015  -1.427  17.954  1.00  0.00    -0.200 F 
ATOM     72  F   UNL     1       3.501  -3.595  18.620  1.00  0.00    -0.200 F 
ENDBRANCH  48  62
BRANCH  49  73
ATOM     73  C   UNL     1      10.747  -3.291   6.467  1.00  0.00     0.064 A 
ATOM     74  C   UNL     1      11.581  -4.342   6.061  1.00  0.00     0.173 A 
ATOM     75  C   UNL     1      10.657  -2.171   5.627  1.00  0.00     0.173 A 
ATOM     76  F   UNL     1      11.716  -5.427   6.838  1.00  0.00    -0.203 F 
ATOM     77  C   UNL     1      12.313  -4.267   4.877  1.00  0.00     0.198 A 
ATOM     78  C   UNL     1      11.365  -2.110   4.428  1.00  0.00     0.198 A 
ATOM     79  F   UNL     1       9.869  -1.139   5.964  1.00  0.00    -0.203 F 
ATOM     80  F   UNL     1      13.139  -5.266   4.539  1.00  0.00    -0.200 F 
ATOM     81  C   UNL     1      12.200  -3.153   4.059  1.00  0.00     0.200 A 
ATOM     82  F   UNL     1      11.239  -1.039   3.632  1.00  0.00    -0.200 F 
ATOM     83  F   UNL     1      12.900  -3.083   2.919  1.00  0.00    -0.200 F 
ENDBRANCH  49  73
BRANCH  61  84
ATOM     84  C   UNL     1      12.659  -3.435  13.169  1.00  0.00     0.064 A 
ATOM     85  C   UNL     1      13.482  -2.299  13.184  1.00  0.00     0.173 A 
ATOM     86  C   UNL     1      13.110  -4.581  13.843  1.00  0.00     0.173 A 
ATOM     87  F   UNL     1      13.103  -1.183  12.542  1.00  0.00    -0.203 F 
ATOM     88  C   UNL     1      14.718  -2.320  13.824  1.00  0.00     0.198 A 
ATOM     89  C   UNL     1      14.330  -4.587  14.511  1.00  0.00     0.198 A 
ATOM     90  F   UNL     1      12.358  -5.692  13.867  1.00  0.00    -0.203 F 
ATOM     91  F   UNL     1      15.510  -1.239  13.780  1.00  0.00    -0.200 F 
ATOM     92  C   UNL     1      15.137  -3.459  14.494  1.00  0.00     0.200 A 
ATOM     93  F   UNL     1      14.726  -5.683  15.172  1.00  0.00    -0.200 F 
ATOM     94  F   UNL     1      16.323  -3.473  15.117  1.00  0.00    -0.200 F 
ENDBRANCH  61  84
ENDBRANCH  35  36
ENDBRANCH  27  30
ENDBRANCH  25  26
ENDBRANCH  24  25
ENDBRANCH   1  24
TORSDOF 16
