REMARK SMILES Cc1cccc2c(C(F)(F)F)cc(C(=O)NCCCNC(=O)c3ccc(-c4c5nc(c(-c6c(F)c(F)c(F)c(F)c6F)c6ccc([nH]6)c(-c6c(F)c(F)c(F)c(F)c6F)c6nc(c(-c7c(F)c(F)c(F)c(F)c7F)c7ccc4[nH]7)C=C6)C=C5)cc3)nc12
REMARK SMILES IDX 18 1 17 2 16 3 14 4 15 5 13 7 1 8 2 9 3 10 87 11 4 12 6 13
REMARK SMILES IDX 86 14 5 15 7 16 12 17 8 18 9 19 10 20 11 21 19 22 20 23
REMARK SMILES IDX 21 24 22 26 23 27 24 28 85 29 25 30 84 31 26 32 27 33 28 34
REMARK SMILES IDX 78 35 29 36 83 37 77 38 79 39 30 40 82 41 76 42 75 43 31 45
REMARK SMILES IDX 63 46 43 47 62 48 44 49 47 50 61 51 80 52 45 53 46 54 60 56
REMARK SMILES IDX 81 57 48 58 32 59 33 60 41 61 34 62 35 63 39 64 42 65 36 66
REMARK SMILES IDX 37 67 40 68 38 69 64 70 65 71 73 72 66 73 67 74 71 75 74 76
REMARK SMILES IDX 68 77 69 78 72 79 70 80 49 81 50 82 58 83 51 84 52 85 56 86
REMARK SMILES IDX 59 87 53 88 54 89 57 90 55 91
REMARK H PARENT 16 6 20 25 79 44 47 55
REMARK Flexibility Score: inf
ROOT
ATOM      1  C   UNL     1      -1.268   4.670  -0.806  1.00  0.00     0.042 C 
ENDROOT
BRANCH   1   2
ATOM      2  C   UNL     1      -1.706   3.937   0.457  1.00  0.00     0.118 C 
BRANCH   2   3
ATOM      3  N   UNL     1      -2.970   3.250   0.262  1.00  0.00    -0.351 N 
ATOM      4  C   UNL     1      -3.252   1.922   0.038  1.00  0.00     0.269 C 
ATOM      5  O   UNL     1      -4.438   1.606  -0.080  1.00  0.00    -0.268 OA
ATOM      6  H   UNL     1      -3.762   3.834   0.297  1.00  0.00     0.163 HD
BRANCH   4   7
ATOM      7  C   UNL     1      -2.197   0.858  -0.037  1.00  0.00     0.129 A 
ATOM      8  C   UNL     1       1.733   2.163  -0.060  1.00  0.00     0.047 C 
ATOM      9  C   UNL     1       1.395   0.694  -0.067  1.00  0.00    -0.025 A 
ATOM     10  C   UNL     1       2.442  -0.236  -0.033  1.00  0.00     0.005 A 
ATOM     11  C   UNL     1       0.057   0.275  -0.074  1.00  0.00     0.075 A 
ATOM     12  C   UNL     1       2.163  -1.591  -0.015  1.00  0.00     0.001 A 
ATOM     13  C   UNL     1      -0.244  -1.112  -0.047  1.00  0.00     0.013 A 
ATOM     14  N   UNL     1      -0.900   1.218  -0.088  1.00  0.00    -0.242 NA
ATOM     15  C   UNL     1       0.839  -2.024  -0.024  1.00  0.00     0.011 A 
ATOM     16  C   UNL     1      -1.618  -1.479  -0.035  1.00  0.00     0.067 A 
ATOM     17  C   UNL     1      -2.591  -0.465  -0.026  1.00  0.00     0.048 A 
BRANCH  16  18
ATOM     18  C   UNL     1      -2.155  -2.891  -0.009  1.00  0.00     0.417 C 
ATOM     19  F   UNL     1      -2.933  -3.114   1.088  1.00  0.00    -0.166 F 
ATOM     20  F   UNL     1      -2.957  -3.145  -1.083  1.00  0.00    -0.166 F 
ATOM     21  F   UNL     1      -1.234  -3.888  -0.005  1.00  0.00    -0.166 F 
ENDBRANCH  16  18
ENDBRANCH   4   7
ENDBRANCH   2   3
ENDBRANCH   1   2
BRANCH   1  22
ATOM     22  C   UNL     1      -2.091   5.929  -1.070  1.00  0.00     0.118 C 
BRANCH  22  23
ATOM     23  N   UNL     1      -1.899   6.941  -0.034  1.00  0.00    -0.352 N 
ATOM     24  C   UNL     1      -1.422   8.223  -0.127  1.00  0.00     0.251 C 
ATOM     25  H   UNL     1      -2.151   6.658   0.874  1.00  0.00     0.163 HD
ATOM     26  O   UNL     1      -1.127   8.846   0.890  1.00  0.00    -0.269 OA
BRANCH  24  27
ATOM     27  C   UNL     1      -1.251   8.853  -1.449  1.00  0.00     0.039 A 
ATOM     28  C   UNL     1      -0.094   9.594  -1.707  1.00  0.00     0.014 A 
ATOM     29  C   UNL     1      -2.235   8.719  -2.430  1.00  0.00     0.014 A 
ATOM     30  C   UNL     1       0.112  10.132  -2.979  1.00  0.00     0.010 A 
ATOM     31  C   UNL     1      -1.993   9.185  -3.716  1.00  0.00     0.010 A 
ATOM     32  C   UNL     1      -0.816   9.892  -4.005  1.00  0.00    -0.014 A 
BRANCH  32  33
ATOM     33  C   UNL     1      -0.581  10.356  -5.395  1.00  0.00     0.031 A 
ATOM     34  C   UNL     1      -1.532  11.330  -6.030  1.00  0.00     0.074 A 
ATOM     35  C   UNL     1       0.426   9.822  -6.113  1.00  0.00     0.049 A 
ATOM     36  N   UNL     1      -1.589  11.744  -7.270  1.00  0.00    -0.248 NA
ATOM     37  C   UNL     1      -2.579  11.890  -5.160  1.00  0.00     0.031 C 
ATOM     38  C   UNL     1       1.392   8.841  -5.617  1.00  0.00     0.029 A 
ATOM     39  N   UNL     1       0.789  10.012  -7.423  1.00  0.00    -0.354 N 
ATOM     40  C   UNL     1      -2.685  12.594  -7.333  1.00  0.00     0.074 A 
ATOM     41  C   UNL     1      -3.296  12.597  -6.021  1.00  0.00     0.031 C 
ATOM     42  C   UNL     1       2.244   8.525  -6.605  1.00  0.00     0.029 A 
ATOM     43  C   UNL     1       1.854   9.239  -7.816  1.00  0.00     0.049 A 
ATOM     44  H   UNL     1       0.331  10.643  -8.024  1.00  0.00     0.167 HD
ATOM     45  C   UNL     1      -3.129  13.320  -8.386  1.00  0.00     0.037 A 
ATOM     46  C   UNL     1       2.435   9.103  -9.024  1.00  0.00     0.037 A 
ATOM     47  C   UNL     1      -2.504  13.325  -9.683  1.00  0.00     0.049 A 
ATOM     48  C   UNL     1       1.903   9.899 -10.186  1.00  0.00     0.074 A 
ATOM     49  C   UNL     1      -2.842  14.068 -10.800  1.00  0.00     0.029 A 
ATOM     50  N   UNL     1      -1.415  12.542 -10.037  1.00  0.00    -0.354 N 
ATOM     51  N   UNL     1       0.905  10.747 -10.220  1.00  0.00    -0.248 NA
ATOM     52  C   UNL     1       2.581   9.720 -11.477  1.00  0.00     0.031 C 
ATOM     53  C   UNL     1      -1.996  13.693 -11.847  1.00  0.00     0.029 A 
ATOM     54  C   UNL     1      -1.086  12.765 -11.365  1.00  0.00     0.049 A 
ATOM     55  H   UNL     1      -0.945  11.921  -9.435  1.00  0.00     0.167 HD
ATOM     56  C   UNL     1       0.857  11.230 -11.521  1.00  0.00     0.074 A 
ATOM     57  C   UNL     1       1.933  10.585 -12.244  1.00  0.00     0.031 C 
ATOM     58  C   UNL     1       0.000  12.128 -12.066  1.00  0.00     0.037 A 
BRANCH  45  59
ATOM     59  C   UNL     1      -4.353  14.167  -8.183  1.00  0.00     0.064 A 
ATOM     60  C   UNL     1      -4.339  15.298  -7.351  1.00  0.00     0.173 A 
ATOM     61  C   UNL     1      -5.546  13.867  -8.858  1.00  0.00     0.173 A 
ATOM     62  F   UNL     1      -3.228  15.625  -6.674  1.00  0.00    -0.203 F 
ATOM     63  C   UNL     1      -5.481  16.076  -7.179  1.00  0.00     0.198 A 
ATOM     64  C   UNL     1      -6.676  14.668  -8.711  1.00  0.00     0.198 A 
ATOM     65  F   UNL     1      -5.614  12.802  -9.671  1.00  0.00    -0.203 F 
ATOM     66  F   UNL     1      -5.458  17.119  -6.338  1.00  0.00    -0.200 F 
ATOM     67  C   UNL     1      -6.645  15.766  -7.865  1.00  0.00     0.200 A 
ATOM     68  F   UNL     1      -7.795  14.376  -9.388  1.00  0.00    -0.200 F 
ATOM     69  F   UNL     1      -7.740  16.522  -7.707  1.00  0.00    -0.200 F 
ENDBRANCH  45  59
BRANCH  46  70
ATOM     70  C   UNL     1       3.591   8.184  -9.195  1.00  0.00     0.064 A 
ATOM     71  C   UNL     1       4.872   8.682  -9.473  1.00  0.00     0.173 A 
ATOM     72  C   UNL     1       3.443   6.792  -9.092  1.00  0.00     0.173 A 
ATOM     73  F   UNL     1       5.062  10.004  -9.599  1.00  0.00    -0.203 F 
ATOM     74  C   UNL     1       5.953   7.825  -9.666  1.00  0.00     0.198 A 
ATOM     75  C   UNL     1       4.532   5.938  -9.254  1.00  0.00     0.198 A 
ATOM     76  F   UNL     1       2.241   6.262  -8.821  1.00  0.00    -0.203 F 
ATOM     77  F   UNL     1       7.155   8.328  -9.982  1.00  0.00    -0.200 F 
ATOM     78  C   UNL     1       5.784   6.454  -9.550  1.00  0.00     0.200 A 
ATOM     79  F   UNL     1       4.367   4.614  -9.124  1.00  0.00    -0.200 F 
ATOM     80  F   UNL     1       6.825   5.630  -9.733  1.00  0.00    -0.200 F 
ENDBRANCH  46  70
BRANCH  58  81
ATOM     81  C   UNL     1       0.218  12.513 -13.501  1.00  0.00     0.064 A 
ATOM     82  C   UNL     1      -0.059  11.632 -14.556  1.00  0.00     0.173 A 
ATOM     83  C   UNL     1       0.651  13.809 -13.825  1.00  0.00     0.173 A 
ATOM     84  F   UNL     1      -0.461  10.377 -14.300  1.00  0.00    -0.203 F 
ATOM     85  C   UNL     1       0.108  12.027 -15.880  1.00  0.00     0.198 A 
ATOM     86  C   UNL     1       0.785  14.211 -15.150  1.00  0.00     0.198 A 
ATOM     87  F   UNL     1       0.924  14.693 -12.853  1.00  0.00    -0.203 F 
ATOM     88  F   UNL     1      -0.121  11.154 -16.872  1.00  0.00    -0.200 F 
ATOM     89  C   UNL     1       0.519  13.318 -16.177  1.00  0.00     0.200 A 
ATOM     90  F   UNL     1       1.165  15.464 -15.434  1.00  0.00    -0.200 F 
ATOM     91  F   UNL     1       0.663  13.701 -17.453  1.00  0.00    -0.200 F 
ENDBRANCH  58  81
ENDBRANCH  32  33
ENDBRANCH  24  27
ENDBRANCH  22  23
ENDBRANCH   1  22
TORSDOF 11
