REMARK SMILES Cc1nc2cc(SCC(=O)NCCCNC(=O)c3ccc(-c4c5nc(c(-c6c(F)c(F)c(F)c(F)c6F)c6ccc([nH]6)c(-c6c(F)c(F)c(F)c(F)c6F)c6nc(c(-c7c(F)c(F)c(F)c(F)c7F)c7ccc4[nH]7)C=C6)C=C5)cc3)ccc2s1
REMARK SMILES IDX 13 1 12 2 11 3 9 4 10 5 8 7 7 8 6 9 1 10 2 11 3 12 84 13
REMARK SMILES IDX 4 14 83 15 5 16 82 17 81 18 14 19 15 20 16 21 17 23 18 24
REMARK SMILES IDX 19 25 80 26 20 27 79 28 21 29 22 30 23 31 73 32 24 33 78 34
REMARK SMILES IDX 72 35 74 36 25 37 77 38 71 39 70 40 26 42 58 43 38 44 57 45
REMARK SMILES IDX 39 46 42 47 56 48 75 49 40 50 41 51 55 53 76 54 43 55 27 56
REMARK SMILES IDX 28 57 36 58 29 59 30 60 34 61 37 62 31 63 32 64 35 65 33 66
REMARK SMILES IDX 59 67 60 68 68 69 61 70 62 71 66 72 69 73 63 74 64 75 67 76
REMARK SMILES IDX 65 77 44 78 45 79 53 80 46 81 47 82 51 83 54 84 48 85 49 86
REMARK SMILES IDX 52 87 50 88
REMARK H PARENT 11 6 15 22 74 41 42 52
REMARK Flexibility Score: inf
ROOT
ATOM      1  C   UNL     1       5.020   2.360   3.322  1.00  0.00     0.042 C 
ENDROOT
BRANCH   1   2
ATOM      2  C   UNL     1       6.208   1.703   2.622  1.00  0.00     0.117 C 
BRANCH   2   3
ATOM      3  N   UNL     1       5.977   0.295   2.358  1.00  0.00    -0.355 N 
ATOM      4  C   UNL     1       5.680  -0.338   1.188  1.00  0.00     0.230 C 
ATOM      5  O   UNL     1       5.507  -1.560   1.231  1.00  0.00    -0.274 OA
ATOM      6  H   UNL     1       6.045  -0.293   3.144  1.00  0.00     0.163 HD
BRANCH   4   7
ATOM      7  C   UNL     1       5.649   0.411  -0.130  1.00  0.00     0.174 C 
BRANCH   7   8
ATOM      8  S   UNL     1       4.284   1.605  -0.278  1.00  0.00    -0.116 SA
BRANCH   8   9
ATOM      9  C   UNL     1       2.782   0.638  -0.199  1.00  0.00     0.010 A 
ATOM     10  C   UNL     1      -3.305   0.767   0.077  1.00  0.00     0.079 C 
ATOM     11  C   UNL     1      -1.852   0.448   0.040  1.00  0.00     0.091 A 
ATOM     12  N   UNL     1      -0.896   1.350   0.033  1.00  0.00    -0.241 NA
ATOM     13  S   UNL     1      -1.333  -1.187  -0.005  1.00  0.00    -0.119 S 
ATOM     14  C   UNL     1       0.339   0.728  -0.046  1.00  0.00     0.083 A 
ATOM     15  C   UNL     1       0.305  -0.665  -0.084  1.00  0.00     0.055 A 
ATOM     16  C   UNL     1       1.590   1.376  -0.097  1.00  0.00     0.045 A 
ATOM     17  C   UNL     1       1.478  -1.425  -0.182  1.00  0.00     0.022 A 
ATOM     18  C   UNL     1       2.707  -0.752  -0.256  1.00  0.00     0.016 A 
ENDBRANCH   8   9
ENDBRANCH   7   8
ENDBRANCH   4   7
ENDBRANCH   2   3
ENDBRANCH   1   2
BRANCH   1  19
ATOM     19  C   UNL     1       4.674   1.764   4.685  1.00  0.00     0.118 C 
BRANCH  19  20
ATOM     20  N   UNL     1       5.735   1.935   5.667  1.00  0.00    -0.352 N 
ATOM     21  C   UNL     1       5.712   2.514   6.910  1.00  0.00     0.251 C 
ATOM     22  H   UNL     1       6.611   1.578   5.394  1.00  0.00     0.163 HD
ATOM     23  O   UNL     1       6.771   2.690   7.512  1.00  0.00    -0.269 OA
BRANCH  21  24
ATOM     24  C   UNL     1       4.442   2.952   7.532  1.00  0.00     0.039 A 
ATOM     25  C   UNL     1       4.423   4.167   8.224  1.00  0.00     0.014 A 
ATOM     26  C   UNL     1       3.289   2.163   7.483  1.00  0.00     0.014 A 
ATOM     27  C   UNL     1       3.239   4.621   8.810  1.00  0.00     0.010 A 
ATOM     28  C   UNL     1       2.092   2.645   8.013  1.00  0.00     0.010 A 
ATOM     29  C   UNL     1       2.054   3.879   8.681  1.00  0.00    -0.014 A 
BRANCH  29  30
ATOM     30  C   UNL     1       0.769   4.388   9.225  1.00  0.00     0.031 A 
ATOM     31  C   UNL     1       0.077   3.668  10.348  1.00  0.00     0.074 A 
ATOM     32  C   UNL     1       0.192   5.467   8.663  1.00  0.00     0.049 A 
ATOM     33  N   UNL     1      -1.081   3.921  10.906  1.00  0.00    -0.248 NA
ATOM     34  C   UNL     1       0.767   2.495  10.905  1.00  0.00     0.031 C 
ATOM     35  C   UNL     1       0.738   6.228   7.538  1.00  0.00     0.029 A 
ATOM     36  N   UNL     1      -0.990   6.104   8.953  1.00  0.00    -0.354 N 
ATOM     37  C   UNL     1      -1.264   2.933  11.864  1.00  0.00     0.074 A 
ATOM     38  C   UNL     1      -0.119   2.051  11.785  1.00  0.00     0.031 C 
ATOM     39  C   UNL     1      -0.098   7.236   7.243  1.00  0.00     0.029 A 
ATOM     40  C   UNL     1      -1.253   7.174   8.133  1.00  0.00     0.049 A 
ATOM     41  H   UNL     1      -1.591   5.821   9.680  1.00  0.00     0.167 HD
ATOM     42  C   UNL     1      -2.286   2.785  12.742  1.00  0.00     0.037 A 
ATOM     43  C   UNL     1      -2.311   8.006   8.097  1.00  0.00     0.037 A 
ATOM     44  C   UNL     1      -3.412   3.678  12.838  1.00  0.00     0.049 A 
ATOM     45  C   UNL     1      -3.428   7.825   9.086  1.00  0.00     0.074 A 
ATOM     46  C   UNL     1      -4.465   3.645  13.736  1.00  0.00     0.029 A 
ATOM     47  N   UNL     1      -3.631   4.765  12.006  1.00  0.00    -0.354 N 
ATOM     48  N   UNL     1      -3.560   6.923  10.028  1.00  0.00    -0.248 NA
ATOM     49  C   UNL     1      -4.540   8.782   9.012  1.00  0.00     0.031 C 
ATOM     50  C   UNL     1      -5.341   4.690  13.424  1.00  0.00     0.029 A 
ATOM     51  C   UNL     1      -4.812   5.400  12.358  1.00  0.00     0.049 A 
ATOM     52  H   UNL     1      -3.036   5.045  11.273  1.00  0.00     0.167 HD
ATOM     53  C   UNL     1      -4.754   7.216  10.672  1.00  0.00     0.074 A 
ATOM     54  C   UNL     1      -5.302   8.389  10.023  1.00  0.00     0.031 C 
ATOM     55  C   UNL     1      -5.343   6.569  11.707  1.00  0.00     0.037 A 
BRANCH  42  56
ATOM     56  C   UNL     1      -2.232   1.613  13.676  1.00  0.00     0.064 A 
ATOM     57  C   UNL     1      -1.316   1.562  14.738  1.00  0.00     0.173 A 
ATOM     58  C   UNL     1      -3.132   0.546  13.535  1.00  0.00     0.173 A 
ATOM     59  F   UNL     1      -0.427   2.553  14.910  1.00  0.00    -0.203 F 
ATOM     60  C   UNL     1      -1.285   0.475  15.607  1.00  0.00     0.198 A 
ATOM     61  C   UNL     1      -3.116  -0.527  14.422  1.00  0.00     0.198 A 
ATOM     62  F   UNL     1      -4.033   0.548  12.541  1.00  0.00    -0.203 F 
ATOM     63  F   UNL     1      -0.372   0.428  16.587  1.00  0.00    -0.200 F 
ATOM     64  C   UNL     1      -2.189  -0.565  15.452  1.00  0.00     0.200 A 
ATOM     65  F   UNL     1      -3.998  -1.526  14.279  1.00  0.00    -0.200 F 
ATOM     66  F   UNL     1      -2.162  -1.608  16.293  1.00  0.00    -0.200 F 
ENDBRANCH  42  56
BRANCH  43  67
ATOM     67  C   UNL     1      -2.351   9.105   7.098  1.00  0.00     0.064 A 
ATOM     68  C   UNL     1      -2.191  10.440   7.493  1.00  0.00     0.173 A 
ATOM     69  C   UNL     1      -2.548   8.845   5.735  1.00  0.00     0.173 A 
ATOM     70  F   UNL     1      -2.022  10.738   8.790  1.00  0.00    -0.203 F 
ATOM     71  C   UNL     1      -2.242  11.476   6.564  1.00  0.00     0.198 A 
ATOM     72  C   UNL     1      -2.574   9.880   4.803  1.00  0.00     0.198 A 
ATOM     73  F   UNL     1      -2.704   7.583   5.307  1.00  0.00    -0.203 F 
ATOM     74  F   UNL     1      -2.127  12.747   6.973  1.00  0.00    -0.200 F 
ATOM     75  C   UNL     1      -2.428  11.195   5.218  1.00  0.00     0.200 A 
ATOM     76  F   UNL     1      -2.742   9.604   3.502  1.00  0.00    -0.200 F 
ATOM     77  F   UNL     1      -2.473  12.191   4.324  1.00  0.00    -0.200 F 
ENDBRANCH  43  67
BRANCH  55  78
ATOM     78  C   UNL     1      -6.635   7.133  12.220  1.00  0.00     0.064 A 
ATOM     79  C   UNL     1      -7.831   7.002  11.499  1.00  0.00     0.173 A 
ATOM     80  C   UNL     1      -6.683   7.781  13.463  1.00  0.00     0.173 A 
ATOM     81  F   UNL     1      -7.833   6.405  10.298  1.00  0.00    -0.203 F 
ATOM     82  C   UNL     1      -9.024   7.521  11.994  1.00  0.00     0.198 A 
ATOM     83  C   UNL     1      -7.883   8.276  13.967  1.00  0.00     0.198 A 
ATOM     84  F   UNL     1      -5.567   7.927  14.194  1.00  0.00    -0.203 F 
ATOM     85  F   UNL     1     -10.147   7.425  11.269  1.00  0.00    -0.200 F 
ATOM     86  C   UNL     1      -9.050   8.151  13.230  1.00  0.00     0.200 A 
ATOM     87  F   UNL     1      -7.908   8.875  15.166  1.00  0.00    -0.200 F 
ATOM     88  F   UNL     1     -10.201   8.646  13.707  1.00  0.00    -0.200 F 
ENDBRANCH  55  78
ENDBRANCH  29  30
ENDBRANCH  21  24
ENDBRANCH  19  20
ENDBRANCH   1  19
TORSDOF 12
