REMARK SMILES O=C(C[C@H](NS(=O)(=O)c1cccs1)c1ccccc1Cl)NCCCNC(=O)c1ccc(-c2c3nc(c(-c4c(F)c(F)c(F)c(F)c4F)c4ccc([nH]4)c(-c4c(F)c(F)c(F)c(F)c4F)c4nc(c(-c5c(F)c(F)c(F)c(F)c5F)c5ccc2[nH]5)C=C4)C=C3)cc1
REMARK SMILES IDX 22 1 21 2 1 3 2 4 3 6 4 7 14 8 15 9 19 10 16 11 18 12 20 13
REMARK SMILES IDX 17 14 5 15 6 17 7 18 8 19 9 20 10 21 13 22 11 23 12 24 23 25
REMARK SMILES IDX 24 26 25 27 26 28 27 30 28 31 29 32 90 33 30 34 89 35 31 36
REMARK SMILES IDX 32 37 33 38 83 39 34 40 88 41 82 42 84 43 35 44 87 45 81 46
REMARK SMILES IDX 80 47 36 49 68 50 48 51 67 52 49 53 52 54 66 55 85 56 50 57
REMARK SMILES IDX 51 58 65 60 86 61 53 62 37 63 38 64 46 65 39 66 40 67 44 68
REMARK SMILES IDX 47 69 41 70 42 71 45 72 43 73 69 74 70 75 78 76 71 77 72 78
REMARK SMILES IDX 76 79 79 80 73 81 74 82 77 83 75 84 54 85 55 86 63 87 56 88
REMARK SMILES IDX 57 89 61 90 64 91 58 92 59 93 62 94 60 95
REMARK H PARENT 21 5 5 16 25 29 84 48 52 59
REMARK Flexibility Score: inf
ROOT
ATOM      1  C   UNL     1       3.494  -0.305   4.370  1.00  0.00     0.117 C 
ENDROOT
BRANCH   1   2
ATOM      2  N   UNL     1       4.056   0.406   3.238  1.00  0.00    -0.356 N 
ATOM      3  O   UNL     1       3.917  -1.335   1.740  1.00  0.00    -0.275 OA
ATOM      4  C   UNL     1       4.246  -0.186   2.010  1.00  0.00     0.221 C 
ATOM      5  H   UNL     1       4.313   1.350   3.352  1.00  0.00     0.163 HD
BRANCH   4   6
ATOM      6  C   UNL     1       4.930   0.702   1.000  1.00  0.00     0.125 C 
BRANCH   6   7
ATOM      7  C   UNL     1       3.987   1.800   0.481  1.00  0.00     0.111 C 
BRANCH   7   8
ATOM      8  C   UNL     1       4.835   2.997   0.082  1.00  0.00    -0.011 A 
ATOM      9  C   UNL     1       5.703   2.887  -1.024  1.00  0.00     0.007 A 
ATOM     10  C   UNL     1       4.812   4.213   0.786  1.00  0.00     0.045 A 
ATOM     11  C   UNL     1       6.489   3.964  -1.434  1.00  0.00     0.000 A 
ATOM     12  C   UNL     1       5.590   5.296   0.362  1.00  0.00     0.021 A 
ATOM     13  Cl  UNL     1       3.855   4.439   2.207  1.00  0.00    -0.084 Cl
ATOM     14  C   UNL     1       6.423   5.173  -0.749  1.00  0.00     0.002 A 
ENDBRANCH   7   8
BRANCH   7  15
ATOM     15  N   UNL     1       3.180   1.265  -0.653  1.00  0.00    -0.202 NA
ATOM     16  H   UNL     1       2.825   0.350  -0.376  1.00  0.00     0.142 HD
BRANCH  15  17
ATOM     17  S   UNL     1       1.854   2.204  -1.154  1.00  0.00     0.250 S 
ATOM     18  O   UNL     1       1.105   1.360  -2.062  1.00  0.00    -0.206 OA
ATOM     19  O   UNL     1       1.247   2.775   0.024  1.00  0.00    -0.206 OA
BRANCH  17  20
ATOM     20  C   UNL     1       2.466   3.523  -2.180  1.00  0.00     0.134 A 
ATOM     21  C   UNL     1       3.132   3.494  -3.392  1.00  0.00     0.033 A 
ATOM     22  S   UNL     1       2.225   5.129  -1.642  1.00  0.00    -0.131 S 
ATOM     23  C   UNL     1       3.511   4.793  -3.838  1.00  0.00     0.013 A 
ATOM     24  C   UNL     1       3.099   5.774  -2.965  1.00  0.00     0.066 A 
ENDBRANCH  17  20
ENDBRANCH  15  17
ENDBRANCH   7  15
ENDBRANCH   6   7
ENDBRANCH   4   6
ENDBRANCH   1   2
BRANCH   1  25
ATOM     25  C   UNL     1       4.346  -0.139   5.624  1.00  0.00     0.042 C 
BRANCH  25  26
ATOM     26  C   UNL     1       4.461   1.296   6.135  1.00  0.00     0.118 C 
BRANCH  26  27
ATOM     27  N   UNL     1       3.191   1.854   6.574  1.00  0.00    -0.352 N 
ATOM     28  C   UNL     1       2.838   2.413   7.778  1.00  0.00     0.251 C 
ATOM     29  H   UNL     1       2.472   1.827   5.902  1.00  0.00     0.163 HD
ATOM     30  O   UNL     1       1.665   2.700   7.996  1.00  0.00    -0.269 OA
BRANCH  28  31
ATOM     31  C   UNL     1       3.851   2.642   8.832  1.00  0.00     0.039 A 
ATOM     32  C   UNL     1       3.535   2.294  10.149  1.00  0.00     0.014 A 
ATOM     33  C   UNL     1       5.095   3.208   8.540  1.00  0.00     0.014 A 
ATOM     34  C   UNL     1       4.492   2.433  11.156  1.00  0.00     0.010 A 
ATOM     35  C   UNL     1       6.072   3.288   9.533  1.00  0.00     0.010 A 
ATOM     36  C   UNL     1       5.785   2.886  10.847  1.00  0.00    -0.014 A 
BRANCH  36  37
ATOM     37  C   UNL     1       6.859   2.905  11.873  1.00  0.00     0.031 A 
ATOM     38  C   UNL     1       7.471   4.202  12.319  1.00  0.00     0.074 A 
ATOM     39  C   UNL     1       7.340   1.738  12.346  1.00  0.00     0.049 A 
ATOM     40  N   UNL     1       8.482   4.406  13.125  1.00  0.00    -0.248 NA
ATOM     41  C   UNL     1       6.881   5.432  11.770  1.00  0.00     0.031 C 
ATOM     42  C   UNL     1       6.858   0.409  11.965  1.00  0.00     0.029 A 
ATOM     43  N   UNL     1       8.353   1.480  13.236  1.00  0.00    -0.354 N 
ATOM     44  C   UNL     1       8.659   5.782  13.170  1.00  0.00     0.074 A 
ATOM     45  C   UNL     1       7.677   6.363  12.278  1.00  0.00     0.031 C 
ATOM     46  C   UNL     1       7.566  -0.521  12.624  1.00  0.00     0.029 A 
ATOM     47  C   UNL     1       8.578   0.141  13.441  1.00  0.00     0.049 A 
ATOM     48  H   UNL     1       8.870   2.188  13.685  1.00  0.00     0.167 HD
ATOM     49  C   UNL     1       9.548   6.496  13.902  1.00  0.00     0.037 A 
ATOM     50  C   UNL     1       9.505  -0.485  14.190  1.00  0.00     0.037 A 
ATOM     51  C   UNL     1      10.510   5.919  14.805  1.00  0.00     0.049 A 
ATOM     52  C   UNL     1      10.495   0.331  14.974  1.00  0.00     0.074 A 
ATOM     53  C   UNL     1      11.408   6.566  15.638  1.00  0.00     0.029 A 
ATOM     54  N   UNL     1      10.704   4.559  14.990  1.00  0.00    -0.354 N 
ATOM     55  N   UNL     1      10.613   1.634  15.055  1.00  0.00    -0.248 NA
ATOM     56  C   UNL     1      11.482  -0.411  15.772  1.00  0.00     0.031 C 
ATOM     57  C   UNL     1      12.175   5.596  16.293  1.00  0.00     0.029 A 
ATOM     58  C   UNL     1      11.726   4.346  15.903  1.00  0.00     0.049 A 
ATOM     59  H   UNL     1      10.192   3.849  14.540  1.00  0.00     0.167 HD
ATOM     60  C   UNL     1      11.669   1.868  15.925  1.00  0.00     0.074 A 
ATOM     61  C   UNL     1      12.148   0.572  16.360  1.00  0.00     0.031 C 
ATOM     62  C   UNL     1      12.195   3.051  16.326  1.00  0.00     0.037 A 
BRANCH  49  63
ATOM     63  C   UNL     1       9.525   7.990  13.757  1.00  0.00     0.064 A 
ATOM     64  C   UNL     1       8.478   8.763  14.280  1.00  0.00     0.173 A 
ATOM     65  C   UNL     1      10.585   8.660  13.128  1.00  0.00     0.173 A 
ATOM     66  F   UNL     1       7.437   8.169  14.882  1.00  0.00    -0.203 F 
ATOM     67  C   UNL     1       8.480  10.150  14.156  1.00  0.00     0.198 A 
ATOM     68  C   UNL     1      10.598  10.049  13.030  1.00  0.00     0.198 A 
ATOM     69  F   UNL     1      11.615   7.969  12.616  1.00  0.00    -0.203 F 
ATOM     70  F   UNL     1       7.448  10.864  14.626  1.00  0.00    -0.200 F 
ATOM     71  C   UNL     1       9.542  10.792  13.538  1.00  0.00     0.200 A 
ATOM     72  F   UNL     1      11.630  10.669  12.443  1.00  0.00    -0.200 F 
ATOM     73  F   UNL     1       9.546  12.127  13.426  1.00  0.00    -0.200 F 
ENDBRANCH  49  63
BRANCH  50  74
ATOM     74  C   UNL     1       9.539  -1.970  14.239  1.00  0.00     0.064 A 
ATOM     75  C   UNL     1       9.169  -2.658  15.402  1.00  0.00     0.173 A 
ATOM     76  C   UNL     1       9.942  -2.728  13.130  1.00  0.00     0.173 A 
ATOM     77  F   UNL     1       8.800  -1.975  16.495  1.00  0.00    -0.203 F 
ATOM     78  C   UNL     1       9.219  -4.049  15.461  1.00  0.00     0.198 A 
ATOM     79  C   UNL     1       9.965  -4.120  13.181  1.00  0.00     0.198 A 
ATOM     80  F   UNL     1      10.302  -2.115  11.992  1.00  0.00    -0.203 F 
ATOM     81  F   UNL     1       8.902  -4.681  16.599  1.00  0.00    -0.200 F 
ATOM     82  C   UNL     1       9.611  -4.779  14.348  1.00  0.00     0.200 A 
ATOM     83  F   UNL     1      10.332  -4.821  12.100  1.00  0.00    -0.200 F 
ATOM     84  F   UNL     1       9.655  -6.117  14.404  1.00  0.00    -0.200 F 
ENDBRANCH  50  74
BRANCH  62  85
ATOM     85  C   UNL     1      13.336   3.000  17.298  1.00  0.00     0.064 A 
ATOM     86  C   UNL     1      14.618   2.590  16.903  1.00  0.00     0.173 A 
ATOM     87  C   UNL     1      13.155   3.398  18.631  1.00  0.00     0.173 A 
ATOM     88  F   UNL     1      14.838   2.183  15.644  1.00  0.00    -0.203 F 
ATOM     89  C   UNL     1      15.672   2.559  17.813  1.00  0.00     0.198 A 
ATOM     90  C   UNL     1      14.217   3.393  19.531  1.00  0.00     0.198 A 
ATOM     91  F   UNL     1      11.949   3.803  19.058  1.00  0.00    -0.203 F 
ATOM     92  F   UNL     1      16.878   2.122  17.425  1.00  0.00    -0.200 F 
ATOM     93  C   UNL     1      15.472   2.968  19.123  1.00  0.00     0.200 A 
ATOM     94  F   UNL     1      14.025   3.798  20.794  1.00  0.00    -0.200 F 
ATOM     95  F   UNL     1      16.489   2.944  19.996  1.00  0.00    -0.200 F 
ENDBRANCH  62  85
ENDBRANCH  36  37
ENDBRANCH  28  31
ENDBRANCH  26  27
ENDBRANCH  25  26
ENDBRANCH   1  25
TORSDOF 15
