REMARK SMILES O=C(NCCCNC(=O)c1ccc2c(=O)[nH][nH]c(=O)c2c1)c1ccc(-c2c3nc(c(-c4c(F)c(F)c(F)c(F)c4F)c4ccc([nH]4)c(-c4c(F)c(F)c(F)c(F)c4F)c4nc(c(-c5c(F)c(F)c(F)c(F)c5F)c5ccc2[nH]5)C=C4)C=C3)cc1
REMARK SMILES IDX 4 1 3 2 1 3 2 4 22 6 23 7 84 8 24 9 83 10 25 11 26 12 27 13
REMARK SMILES IDX 77 14 28 15 82 16 76 17 78 18 29 19 81 20 75 21 74 22 30 24
REMARK SMILES IDX 62 25 42 26 61 27 43 28 46 29 60 30 79 31 44 32 45 33 59 35
REMARK SMILES IDX 80 36 47 37 31 38 32 39 40 40 33 41 34 42 38 43 41 44 35 45
REMARK SMILES IDX 36 46 39 47 37 48 63 49 64 50 72 51 65 52 66 53 70 54 73 55
REMARK SMILES IDX 67 56 68 57 71 58 69 59 48 60 49 61 57 62 50 63 51 64 55 65
REMARK SMILES IDX 58 66 52 67 53 68 56 69 54 70 5 71 6 72 7 73 8 74 9 76 10 77
REMARK SMILES IDX 11 78 21 79 12 80 20 81 13 82 18 83 14 84 17 85 19 86 15 87
REMARK SMILES IDX 16 88
REMARK H PARENT 3 5 78 23 46 34 7 75 17 89 16 90
REMARK Flexibility Score: inf
ROOT
ATOM      1  C   UNL     1       4.541  -1.202   0.703  1.00  0.00     0.118 C 
ENDROOT
BRANCH   1   2
ATOM      2  N   UNL     1       3.100  -1.104   0.526  1.00  0.00    -0.352 N 
ATOM      3  O   UNL     1       1.107  -0.121   0.216  1.00  0.00    -0.269 OA
ATOM      4  C   UNL     1       2.325  -0.067   0.075  1.00  0.00     0.251 C 
ATOM      5  H   UNL     1       2.599  -1.916   0.771  1.00  0.00     0.163 HD
BRANCH   4   6
ATOM      6  C   UNL     1       2.932   1.107  -0.589  1.00  0.00     0.039 A 
ATOM      7  C   UNL     1       2.349   2.365  -0.395  1.00  0.00     0.014 A 
ATOM      8  C   UNL     1       4.000   0.967  -1.477  1.00  0.00     0.014 A 
ATOM      9  C   UNL     1       2.841   3.477  -1.084  1.00  0.00     0.010 A 
ATOM     10  C   UNL     1       4.548   2.087  -2.093  1.00  0.00     0.010 A 
ATOM     11  C   UNL     1       3.943   3.344  -1.940  1.00  0.00    -0.014 A 
BRANCH  11  12
ATOM     12  C   UNL     1       4.409   4.462  -2.795  1.00  0.00     0.031 A 
ATOM     13  C   UNL     1       4.279   4.340  -4.289  1.00  0.00     0.074 A 
ATOM     14  C   UNL     1       4.979   5.552  -2.254  1.00  0.00     0.049 A 
ATOM     15  N   UNL     1       4.749   5.114  -5.234  1.00  0.00    -0.248 NA
ATOM     16  C   UNL     1       3.542   3.166  -4.785  1.00  0.00     0.031 C 
ATOM     17  C   UNL     1       5.145   5.799  -0.824  1.00  0.00     0.029 A 
ATOM     18  N   UNL     1       5.530   6.655  -2.854  1.00  0.00    -0.354 N 
ATOM     19  C   UNL     1       4.381   4.511  -6.429  1.00  0.00     0.074 A 
ATOM     20  C   UNL     1       3.712   3.274  -6.093  1.00  0.00     0.031 C 
ATOM     21  C   UNL     1       5.736   6.993  -0.654  1.00  0.00     0.029 A 
ATOM     22  C   UNL     1       6.035   7.568  -1.964  1.00  0.00     0.049 A 
ATOM     23  H   UNL     1       5.561   6.780  -3.830  1.00  0.00     0.167 HD
ATOM     24  C   UNL     1       4.557   4.961  -7.695  1.00  0.00     0.037 A 
ATOM     25  C   UNL     1       6.676   8.731  -2.183  1.00  0.00     0.037 A 
ATOM     26  C   UNL     1       5.210   6.200  -8.025  1.00  0.00     0.049 A 
ATOM     27  C   UNL     1       6.926   9.181  -3.597  1.00  0.00     0.074 A 
ATOM     28  C   UNL     1       5.432   6.756  -9.272  1.00  0.00     0.029 A 
ATOM     29  N   UNL     1       5.746   7.081  -7.094  1.00  0.00    -0.354 N 
ATOM     30  N   UNL     1       6.581   8.606  -4.724  1.00  0.00    -0.248 NA
ATOM     31  C   UNL     1       7.660  10.442  -3.765  1.00  0.00     0.031 C 
ATOM     32  C   UNL     1       6.144   7.948  -9.099  1.00  0.00     0.029 A 
ATOM     33  C   UNL     1       6.318   8.166  -7.741  1.00  0.00     0.049 A 
ATOM     34  H   UNL     1       5.722   6.954  -6.118  1.00  0.00     0.167 HD
ATOM     35  C   UNL     1       7.040   9.439  -5.736  1.00  0.00     0.074 A 
ATOM     36  C   UNL     1       7.667  10.573  -5.085  1.00  0.00     0.031 C 
ATOM     37  C   UNL     1       6.956   9.278  -7.080  1.00  0.00     0.037 A 
BRANCH  24  38
ATOM     38  C   UNL     1       4.037   4.095  -8.808  1.00  0.00     0.064 A 
ATOM     39  C   UNL     1       2.662   3.882  -8.995  1.00  0.00     0.173 A 
ATOM     40  C   UNL     1       4.921   3.464  -9.697  1.00  0.00     0.173 A 
ATOM     41  F   UNL     1       1.772   4.447  -8.164  1.00  0.00    -0.203 F 
ATOM     42  C   UNL     1       2.194   3.036  -9.998  1.00  0.00     0.198 A 
ATOM     43  C   UNL     1       4.449   2.650 -10.723  1.00  0.00     0.198 A 
ATOM     44  F   UNL     1       6.246   3.634  -9.569  1.00  0.00    -0.203 F 
ATOM     45  F   UNL     1       0.881   2.792 -10.108  1.00  0.00    -0.200 F 
ATOM     46  C   UNL     1       3.087   2.426 -10.865  1.00  0.00     0.200 A 
ATOM     47  F   UNL     1       5.312   2.071 -11.569  1.00  0.00    -0.200 F 
ATOM     48  F   UNL     1       2.637   1.613 -11.830  1.00  0.00    -0.200 F 
ENDBRANCH  24  38
BRANCH  25  49
ATOM     49  C   UNL     1       7.087   9.565  -1.025  1.00  0.00     0.064 A 
ATOM     50  C   UNL     1       6.418  10.763  -0.740  1.00  0.00     0.173 A 
ATOM     51  C   UNL     1       8.108   9.163  -0.152  1.00  0.00     0.173 A 
ATOM     52  F   UNL     1       5.450  11.199  -1.560  1.00  0.00    -0.203 F 
ATOM     53  C   UNL     1       6.750  11.525   0.377  1.00  0.00     0.198 A 
ATOM     54  C   UNL     1       8.423   9.913   0.979  1.00  0.00     0.198 A 
ATOM     55  F   UNL     1       8.778   8.024  -0.381  1.00  0.00    -0.203 F 
ATOM     56  F   UNL     1       6.107  12.676   0.615  1.00  0.00    -0.200 F 
ATOM     57  C   UNL     1       7.744  11.093   1.242  1.00  0.00     0.200 A 
ATOM     58  F   UNL     1       9.373   9.485   1.822  1.00  0.00    -0.200 F 
ATOM     59  F   UNL     1       8.047  11.814   2.330  1.00  0.00    -0.200 F 
ENDBRANCH  25  49
BRANCH  37  60
ATOM     60  C   UNL     1       7.555  10.357  -7.940  1.00  0.00     0.064 A 
ATOM     61  C   UNL     1       8.943  10.550  -8.014  1.00  0.00     0.173 A 
ATOM     62  C   UNL     1       6.737  11.187  -8.722  1.00  0.00     0.173 A 
ATOM     63  F   UNL     1       9.770   9.791  -7.278  1.00  0.00    -0.203 F 
ATOM     64  C   UNL     1       9.486  11.555  -8.810  1.00  0.00     0.198 A 
ATOM     65  C   UNL     1       7.285  12.167  -9.545  1.00  0.00     0.198 A 
ATOM     66  F   UNL     1       5.404  11.040  -8.698  1.00  0.00    -0.203 F 
ATOM     67  F   UNL     1      10.811  11.757  -8.819  1.00  0.00    -0.200 F 
ATOM     68  C   UNL     1       8.658  12.357  -9.580  1.00  0.00     0.200 A 
ATOM     69  F   UNL     1       6.484  12.930 -10.302  1.00  0.00    -0.200 F 
ATOM     70  F   UNL     1       9.183  13.321 -10.350  1.00  0.00    -0.200 F 
ENDBRANCH  37  60
ENDBRANCH  11  12
ENDBRANCH   4   6
ENDBRANCH   1   2
BRANCH   1  71
ATOM     71  C   UNL     1       4.938  -1.333   2.167  1.00  0.00     0.042 C 
BRANCH  71  72
ATOM     72  C   UNL     1       4.382  -2.573   2.854  1.00  0.00     0.118 C 
BRANCH  72  73
ATOM     73  N   UNL     1       4.868  -3.803   2.246  1.00  0.00    -0.352 N 
ATOM     74  C   UNL     1       5.709  -4.753   2.762  1.00  0.00     0.251 C 
ATOM     75  H   UNL     1       4.546  -3.977   1.332  1.00  0.00     0.163 HD
ATOM     76  O   UNL     1       6.176  -5.629   2.043  1.00  0.00    -0.269 OA
BRANCH  74  77
ATOM     77  C   UNL     1       6.060  -4.715   4.194  1.00  0.00     0.040 A 
ATOM     78  C   UNL     1       5.056  -4.683   5.169  1.00  0.00     0.015 A 
ATOM     79  C   UNL     1       7.408  -4.740   4.560  1.00  0.00     0.028 A 
ATOM     80  C   UNL     1       5.403  -4.596   6.516  1.00  0.00     0.015 A 
ATOM     81  C   UNL     1       7.751  -4.665   5.915  1.00  0.00     0.055 A 
ATOM     82  C   UNL     1       6.754  -4.578   6.888  1.00  0.00     0.054 A 
ATOM     83  C   UNL     1       9.172  -4.665   6.311  1.00  0.00     0.270 A 
ATOM     84  C   UNL     1       7.113  -4.461   8.313  1.00  0.00     0.270 A 
ATOM     85  N   UNL     1       9.442  -4.574   7.653  1.00  0.00    -0.263 N 
ATOM     86  O   UNL     1      10.069  -4.737   5.477  1.00  0.00    -0.267 OA
ATOM     87  O   UNL     1       6.254  -4.353   9.181  1.00  0.00    -0.267 OA
ATOM     88  N   UNL     1       8.451  -4.468   8.617  1.00  0.00    -0.263 N 
ATOM     89  H   UNL     1      10.382  -4.585   7.946  1.00  0.00     0.191 HD
ATOM     90  H   UNL     1       8.720  -4.393   9.561  1.00  0.00     0.191 HD
ENDBRANCH  74  77
ENDBRANCH  72  73
ENDBRANCH  71  72
ENDBRANCH   1  71
TORSDOF 10
