REMARK SMILES O=C(NCCCNC(=O)[C@H]1CC[C@@H](CNc2ccccc2C(F)(F)F)O1)c1ccc(-c2c3nc(c(-c4c(F)c(F)c(F)c(F)c4F)c4ccc([nH]4)c(-c4c(F)c(F)c(F)c(F)c4F)c4nc(c(-c5c(F)c(F)c(F)c(F)c5F)c5ccc2[nH]5)C=C4)C=C3)cc1
REMARK SMILES IDX 6 1 5 2 4 3 3 4 1 5 2 6 27 8 28 9 89 10 29 11 88 12 30 13
REMARK SMILES IDX 31 14 32 15 82 16 33 17 87 18 81 19 83 20 34 21 86 22 80 23
REMARK SMILES IDX 79 24 35 26 67 27 47 28 66 29 48 30 51 31 65 32 84 33 49 34
REMARK SMILES IDX 50 35 64 37 85 38 52 39 36 40 37 41 45 42 38 43 39 44 43 45
REMARK SMILES IDX 46 46 40 47 41 48 44 49 42 50 68 51 69 52 77 53 70 54 71 55
REMARK SMILES IDX 75 56 78 57 72 58 73 59 76 60 74 61 53 62 54 63 62 64 55 65
REMARK SMILES IDX 56 66 60 67 63 68 57 69 58 70 61 71 59 72 7 73 8 74 9 76
REMARK SMILES IDX 10 77 11 78 26 79 12 80 13 81 14 82 15 83 16 85 17 86 21 87
REMARK SMILES IDX 18 88 20 89 19 90 22 91 23 92 24 93 25 94
REMARK H PARENT 3 7 83 25 51 36 7 75 15 84
REMARK Flexibility Score: inf
ROOT
ATOM      1  C   UNL     1       7.976   1.338   4.296  1.00  0.00     0.117 C 
ENDROOT
BRANCH   1   2
ATOM      2  C   UNL     1       9.136   1.718   3.384  1.00  0.00     0.042 C 
BRANCH   2   3
ATOM      3  C   UNL     1      10.511   1.290   3.880  1.00  0.00     0.118 C 
BRANCH   3   4
ATOM      4  N   UNL     1      10.764  -0.123   3.658  1.00  0.00    -0.352 N 
ATOM      5  O   UNL     1      11.459  -1.978   2.612  1.00  0.00    -0.269 OA
ATOM      6  C   UNL     1      11.573  -0.762   2.750  1.00  0.00     0.251 C 
ATOM      7  H   UNL     1      10.273  -0.726   4.261  1.00  0.00     0.163 HD
BRANCH   6   8
ATOM      8  C   UNL     1      12.574  -0.033   1.929  1.00  0.00     0.039 A 
ATOM      9  C   UNL     1      13.321   1.032   2.437  1.00  0.00     0.014 A 
ATOM     10  C   UNL     1      12.856  -0.510   0.642  1.00  0.00     0.014 A 
ATOM     11  C   UNL     1      14.262   1.680   1.635  1.00  0.00     0.010 A 
ATOM     12  C   UNL     1      13.864   0.080  -0.129  1.00  0.00     0.010 A 
ATOM     13  C   UNL     1      14.574   1.186   0.360  1.00  0.00    -0.014 A 
BRANCH  13  14
ATOM     14  C   UNL     1      15.728   1.750  -0.390  1.00  0.00     0.031 A 
ATOM     15  C   UNL     1      15.544   2.438  -1.712  1.00  0.00     0.074 A 
ATOM     16  C   UNL     1      16.965   1.606   0.128  1.00  0.00     0.049 A 
ATOM     17  N   UNL     1      16.451   2.939  -2.513  1.00  0.00    -0.248 NA
ATOM     18  C   UNL     1      14.166   2.571  -2.209  1.00  0.00     0.031 C 
ATOM     19  C   UNL     1      17.274   0.929   1.389  1.00  0.00     0.029 A 
ATOM     20  N   UNL     1      18.191   2.013  -0.336  1.00  0.00    -0.354 N 
ATOM     21  C   UNL     1      15.762   3.426  -3.615  1.00  0.00     0.074 A 
ATOM     22  C   UNL     1      14.359   3.144  -3.391  1.00  0.00     0.031 C 
ATOM     23  C   UNL     1      18.595   0.989   1.611  1.00  0.00     0.029 A 
ATOM     24  C   UNL     1      19.235   1.651   0.481  1.00  0.00     0.049 A 
ATOM     25  H   UNL     1      18.311   2.516  -1.174  1.00  0.00     0.167 HD
ATOM     26  C   UNL     1      16.259   4.054  -4.708  1.00  0.00     0.037 A 
ATOM     27  C   UNL     1      20.563   1.804   0.327  1.00  0.00     0.037 A 
ATOM     28  C   UNL     1      17.653   4.361  -4.909  1.00  0.00     0.049 A 
ATOM     29  C   UNL     1      21.082   2.486  -0.906  1.00  0.00     0.074 A 
ATOM     30  C   UNL     1      18.238   5.076  -5.940  1.00  0.00     0.029 A 
ATOM     31  N   UNL     1      18.681   3.962  -4.067  1.00  0.00    -0.354 N 
ATOM     32  N   UNL     1      20.413   3.002  -1.907  1.00  0.00    -0.248 NA
ATOM     33  C   UNL     1      22.541   2.600  -1.036  1.00  0.00     0.031 C 
ATOM     34  C   UNL     1      19.624   5.063  -5.753  1.00  0.00     0.029 A 
ATOM     35  C   UNL     1      19.900   4.381  -4.579  1.00  0.00     0.049 A 
ATOM     36  H   UNL     1      18.563   3.457  -3.231  1.00  0.00     0.167 HD
ATOM     37  C   UNL     1      21.364   3.508  -2.780  1.00  0.00     0.074 A 
ATOM     38  C   UNL     1      22.658   3.260  -2.179  1.00  0.00     0.031 C 
ATOM     39  C   UNL     1      21.180   4.119  -3.975  1.00  0.00     0.037 A 
BRANCH  26  40
ATOM     40  C   UNL     1      15.300   4.449  -5.793  1.00  0.00     0.064 A 
ATOM     41  C   UNL     1      14.414   5.524  -5.642  1.00  0.00     0.173 A 
ATOM     42  C   UNL     1      15.329   3.792  -7.034  1.00  0.00     0.173 A 
ATOM     43  F   UNL     1      14.341   6.180  -4.474  1.00  0.00    -0.203 F 
ATOM     44  C   UNL     1      13.582   5.919  -6.687  1.00  0.00     0.198 A 
ATOM     45  C   UNL     1      14.514   4.205  -8.084  1.00  0.00     0.198 A 
ATOM     46  F   UNL     1      16.165   2.762  -7.234  1.00  0.00    -0.203 F 
ATOM     47  F   UNL     1      12.721   6.931  -6.510  1.00  0.00    -0.200 F 
ATOM     48  C   UNL     1      13.639   5.266  -7.909  1.00  0.00     0.200 A 
ATOM     49  F   UNL     1      14.579   3.580  -9.268  1.00  0.00    -0.200 F 
ATOM     50  F   UNL     1      12.848   5.657  -8.918  1.00  0.00    -0.200 F 
ENDBRANCH  26  40
BRANCH  27  51
ATOM     51  C   UNL     1      21.492   1.272   1.357  1.00  0.00     0.064 A 
ATOM     52  C   UNL     1      22.246   2.132   2.166  1.00  0.00     0.173 A 
ATOM     53  C   UNL     1      21.642  -0.110   1.553  1.00  0.00     0.173 A 
ATOM     54  F   UNL     1      22.153   3.459   2.000  1.00  0.00    -0.203 F 
ATOM     55  C   UNL     1      23.126   1.630   3.123  1.00  0.00     0.198 A 
ATOM     56  C   UNL     1      22.498  -0.609   2.531  1.00  0.00     0.198 A 
ATOM     57  F   UNL     1      20.941  -0.975   0.806  1.00  0.00    -0.203 F 
ATOM     58  F   UNL     1      23.868   2.473   3.854  1.00  0.00    -0.200 F 
ATOM     59  C   UNL     1      23.246   0.261   3.309  1.00  0.00     0.200 A 
ATOM     60  F   UNL     1      22.599  -1.932   2.718  1.00  0.00    -0.200 F 
ATOM     61  F   UNL     1      24.088  -0.220   4.234  1.00  0.00    -0.200 F 
ENDBRANCH  27  51
BRANCH  39  62
ATOM     62  C   UNL     1      22.408   4.567  -4.710  1.00  0.00     0.064 A 
ATOM     63  C   UNL     1      23.254   3.646  -5.346  1.00  0.00     0.173 A 
ATOM     64  C   UNL     1      22.722   5.930  -4.812  1.00  0.00     0.173 A 
ATOM     65  F   UNL     1      23.006   2.331  -5.260  1.00  0.00    -0.203 F 
ATOM     66  C   UNL     1      24.379   4.074  -6.044  1.00  0.00     0.198 A 
ATOM     67  C   UNL     1      23.834   6.356  -5.533  1.00  0.00     0.198 A 
ATOM     68  F   UNL     1      21.943   6.849  -4.222  1.00  0.00    -0.203 F 
ATOM     69  F   UNL     1      25.196   3.175  -6.611  1.00  0.00    -0.200 F 
ATOM     70  C   UNL     1      24.664   5.428  -6.144  1.00  0.00     0.200 A 
ATOM     71  F   UNL     1      24.101   7.665  -5.638  1.00  0.00    -0.200 F 
ATOM     72  F   UNL     1      25.743   5.839  -6.824  1.00  0.00    -0.200 F 
ENDBRANCH  39  62
ENDBRANCH  13  14
ENDBRANCH   6   8
ENDBRANCH   3   4
ENDBRANCH   2   3
ENDBRANCH   1   2
BRANCH   1  73
ATOM     73  N   UNL     1       8.055   2.058   5.553  1.00  0.00    -0.354 N 
ATOM     74  C   UNL     1       7.392   3.184   5.948  1.00  0.00     0.249 C 
ATOM     75  H   UNL     1       8.676   1.680   6.216  1.00  0.00     0.163 HD
ATOM     76  O   UNL     1       7.758   3.706   7.003  1.00  0.00    -0.272 OA
BRANCH  74  77
ATOM     77  C   UNL     1       6.184   3.700   5.130  1.00  0.00     0.207 C 
ATOM     78  C   UNL     1       5.548   4.926   5.787  1.00  0.00     0.045 C 
ATOM     79  O   UNL     1       6.504   4.085   3.778  1.00  0.00    -0.363 OA
ATOM     80  C   UNL     1       6.116   6.065   4.968  1.00  0.00     0.037 C 
ATOM     81  C   UNL     1       6.057   5.453   3.582  1.00  0.00     0.138 C 
BRANCH  81  82
ATOM     82  C   UNL     1       6.865   6.195   2.495  1.00  0.00     0.145 C 
BRANCH  82  83
ATOM     83  N   UNL     1       8.191   5.602   2.346  1.00  0.00    -0.382 N 
ATOM     84  H   UNL     1       8.749   5.431   3.139  1.00  0.00     0.160 HD
BRANCH  83  85
ATOM     85  C   UNL     1       8.663   5.280   1.077  1.00  0.00     0.046 A 
ATOM     86  C   UNL     1       8.651   3.925   0.703  1.00  0.00     0.026 A 
ATOM     87  C   UNL     1       9.095   6.219   0.132  1.00  0.00     0.079 A 
ATOM     88  C   UNL     1       9.181   3.479  -0.506  1.00  0.00     0.002 A 
ATOM     89  C   UNL     1       9.621   5.760  -1.099  1.00  0.00     0.015 A 
ATOM     90  C   UNL     1       9.691   4.401  -1.403  1.00  0.00     0.001 A 
BRANCH  87  91
ATOM     91  C   UNL     1       8.977   7.707   0.342  1.00  0.00     0.418 C 
ATOM     92  F   UNL     1       9.891   8.416  -0.387  1.00  0.00    -0.166 F 
ATOM     93  F   UNL     1       7.759   8.178  -0.061  1.00  0.00    -0.166 F 
ATOM     94  F   UNL     1       9.136   8.140   1.623  1.00  0.00    -0.166 F 
ENDBRANCH  87  91
ENDBRANCH  83  85
ENDBRANCH  82  83
ENDBRANCH  81  82
ENDBRANCH  74  77
ENDBRANCH   1  73
TORSDOF 14
