REMARK SMILES C[C@@H](C(=O)NCCCNC(=O)c1ccc(-c2c3nc(c(-c4c(F)c(F)c(F)c(F)c4F)c4ccc([nH]4)c(-c4c(F)c(F)c(F)c(F)c4F)c4nc(c(-c5c(F)c(F)c(F)c(F)c5F)c5ccc2[nH]5)C=C4)C=C3)cc1)[C@H](C)[N@@H+](C)[C@@H](C)C1CC1
REMARK SMILES IDX 6 1 5 2 3 3 4 4 2 6 1 7 75 8 76 9 77 10 78 11 79 13 80 14
REMARK SMILES IDX 81 15 82 16 83 17 7 18 8 19 9 20 10 21 11 23 12 24 13 25
REMARK SMILES IDX 74 26 14 27 73 28 15 29 16 30 17 31 67 32 18 33 72 34 66 35
REMARK SMILES IDX 68 36 19 37 71 38 65 39 64 40 20 42 52 43 32 44 51 45 33 46
REMARK SMILES IDX 36 47 50 48 69 49 34 50 35 51 49 53 70 54 37 55 21 56 22 57
REMARK SMILES IDX 30 58 23 59 24 60 28 61 31 62 25 63 26 64 29 65 27 66 53 67
REMARK SMILES IDX 54 68 62 69 55 70 56 71 60 72 63 73 57 74 58 75 61 76 59 77
REMARK SMILES IDX 38 78 39 79 47 80 40 81 41 82 45 83 48 84 42 85 43 86 46 87
REMARK SMILES IDX 44 88
REMARK H PARENT 5 5 77 12 9 22 68 41 36 52
REMARK Flexibility Score: inf
ROOT
ATOM      1  C   UNL     1      -2.954   0.861   3.590  1.00  0.00     0.117 C 
ENDROOT
BRANCH   1   2
ATOM      2  N   UNL     1      -3.493   0.823   2.248  1.00  0.00    -0.356 N 
ATOM      3  C   UNL     1      -2.922   0.903   1.020  1.00  0.00     0.228 C 
ATOM      4  O   UNL     1      -3.706   0.717   0.086  1.00  0.00    -0.275 OA
ATOM      5  H   UNL     1      -4.472   0.717   2.220  1.00  0.00     0.163 HD
BRANCH   3   6
ATOM      6  C   UNL     1      -1.406   1.032   0.812  1.00  0.00     0.133 C 
ATOM      7  C   UNL     1      -0.620   1.932   1.762  1.00  0.00     0.024 C 
BRANCH   6   8
ATOM      8  C   UNL     1      -1.028   1.222  -0.700  1.00  0.00     0.193 C 
ATOM      9  C   UNL     1       0.443   0.803  -0.907  1.00  0.00     0.076 C 
BRANCH   8  10
ATOM     10  N   UNL     1      -1.351   2.439  -1.487  1.00  0.00    -0.332 N 
ATOM     11  C   UNL     1      -2.738   2.458  -1.968  1.00  0.00     0.333 C 
ATOM     12  H   UNL     1      -0.643   2.235  -2.193  1.00  0.00     0.348 HD
BRANCH  10  13
ATOM     13  C   UNL     1      -0.897   3.800  -1.173  1.00  0.00     0.184 C 
ATOM     14  C   UNL     1      -1.639   4.515  -0.034  1.00  0.00     0.075 C 
BRANCH  13  15
ATOM     15  C   UNL     1       0.603   3.963  -1.086  1.00  0.00     0.047 C 
ATOM     16  C   UNL     1       1.506   3.536  -2.222  1.00  0.00     0.010 C 
ATOM     17  C   UNL     1       1.297   4.994  -1.956  1.00  0.00     0.010 C 
ENDBRANCH  13  15
ENDBRANCH  10  13
ENDBRANCH   8  10
ENDBRANCH   6   8
ENDBRANCH   3   6
ENDBRANCH   1   2
BRANCH   1  18
ATOM     18  C   UNL     1      -3.272   2.184   4.283  1.00  0.00     0.042 C 
BRANCH  18  19
ATOM     19  C   UNL     1      -4.766   2.480   4.396  1.00  0.00     0.118 C 
BRANCH  19  20
ATOM     20  N   UNL     1      -5.472   1.475   5.176  1.00  0.00    -0.352 N 
ATOM     21  C   UNL     1      -6.098   1.581   6.391  1.00  0.00     0.251 C 
ATOM     22  H   UNL     1      -5.505   0.579   4.767  1.00  0.00     0.163 HD
ATOM     23  O   UNL     1      -6.425   0.567   7.000  1.00  0.00    -0.269 OA
BRANCH  21  24
ATOM     24  C   UNL     1      -6.375   2.910   6.974  1.00  0.00     0.039 A 
ATOM     25  C   UNL     1      -6.172   3.101   8.343  1.00  0.00     0.014 A 
ATOM     26  C   UNL     1      -6.871   3.951   6.186  1.00  0.00     0.014 A 
ATOM     27  C   UNL     1      -6.413   4.354   8.910  1.00  0.00     0.010 A 
ATOM     28  C   UNL     1      -7.036   5.219   6.735  1.00  0.00     0.010 A 
ATOM     29  C   UNL     1      -6.816   5.431   8.104  1.00  0.00    -0.014 A 
BRANCH  29  30
ATOM     30  C   UNL     1      -7.019   6.786   8.675  1.00  0.00     0.031 A 
ATOM     31  C   UNL     1      -8.383   7.417   8.658  1.00  0.00     0.074 A 
ATOM     32  C   UNL     1      -5.960   7.472   9.148  1.00  0.00     0.049 A 
ATOM     33  N   UNL     1      -8.746   8.617   9.035  1.00  0.00    -0.248 NA
ATOM     34  C   UNL     1      -9.482   6.600   8.118  1.00  0.00     0.031 C 
ATOM     35  C   UNL     1      -4.581   6.984   9.176  1.00  0.00     0.029 A 
ATOM     36  N   UNL     1      -5.877   8.733   9.684  1.00  0.00    -0.354 N 
ATOM     37  C   UNL     1     -10.106   8.702   8.764  1.00  0.00     0.074 A 
ATOM     38  C   UNL     1     -10.493   7.455   8.143  1.00  0.00     0.031 C 
ATOM     39  C   UNL     1      -3.792   7.924   9.719  1.00  0.00     0.029 A 
ATOM     40  C   UNL     1      -4.601   9.095  10.041  1.00  0.00     0.049 A 
ATOM     41  H   UNL     1      -6.657   9.321   9.802  1.00  0.00     0.167 HD
ATOM     42  C   UNL     1     -10.957   9.721   9.032  1.00  0.00     0.037 A 
ATOM     43  C   UNL     1      -4.136  10.248  10.559  1.00  0.00     0.037 A 
ATOM     44  C   UNL     1     -10.569  10.950   9.674  1.00  0.00     0.049 A 
ATOM     45  C   UNL     1      -5.103  11.366  10.842  1.00  0.00     0.074 A 
ATOM     46  C   UNL     1     -11.366  12.020  10.043  1.00  0.00     0.029 A 
ATOM     47  N   UNL     1      -9.271  11.273  10.041  1.00  0.00    -0.354 N 
ATOM     48  N   UNL     1      -6.398  11.410  10.645  1.00  0.00    -0.248 NA
ATOM     49  C   UNL     1      -4.544  12.592  11.427  1.00  0.00     0.031 C 
ATOM     50  C   UNL     1     -10.543  13.009  10.590  1.00  0.00     0.029 A 
ATOM     51  C   UNL     1      -9.241  12.534  10.613  1.00  0.00     0.049 A 
ATOM     52  H   UNL     1      -8.486  10.691   9.915  1.00  0.00     0.167 HD
ATOM     53  C   UNL     1      -6.813  12.650  11.109  1.00  0.00     0.074 A 
ATOM     54  C   UNL     1      -5.633  13.324  11.610  1.00  0.00     0.031 C 
ATOM     55  C   UNL     1      -8.059  13.184  11.119  1.00  0.00     0.037 A 
BRANCH  42  56
ATOM     56  C   UNL     1     -12.395   9.551   8.634  1.00  0.00     0.064 A 
ATOM     57  C   UNL     1     -13.237   8.639   9.289  1.00  0.00     0.173 A 
ATOM     58  C   UNL     1     -12.950  10.339   7.614  1.00  0.00     0.173 A 
ATOM     59  F   UNL     1     -12.754   7.854  10.264  1.00  0.00    -0.203 F 
ATOM     60  C   UNL     1     -14.573   8.503   8.919  1.00  0.00     0.198 A 
ATOM     61  C   UNL     1     -14.294  10.222   7.269  1.00  0.00     0.198 A 
ATOM     62  F   UNL     1     -12.192  11.230   6.959  1.00  0.00    -0.203 F 
ATOM     63  F   UNL     1     -15.345   7.591   9.527  1.00  0.00    -0.200 F 
ATOM     64  C   UNL     1     -15.102   9.299   7.916  1.00  0.00     0.200 A 
ATOM     65  F   UNL     1     -14.808  11.003   6.308  1.00  0.00    -0.200 F 
ATOM     66  F   UNL     1     -16.390   9.174   7.568  1.00  0.00    -0.200 F 
ENDBRANCH  42  56
BRANCH  43  67
ATOM     67  C   UNL     1      -2.689  10.395  10.866  1.00  0.00     0.064 A 
ATOM     68  C   UNL     1      -2.239  10.475  12.191  1.00  0.00     0.173 A 
ATOM     69  C   UNL     1      -1.729  10.465   9.846  1.00  0.00     0.173 A 
ATOM     70  F   UNL     1      -3.121  10.432  13.201  1.00  0.00    -0.203 F 
ATOM     71  C   UNL     1      -0.888  10.645  12.485  1.00  0.00     0.198 A 
ATOM     72  C   UNL     1      -0.374  10.604  10.141  1.00  0.00     0.198 A 
ATOM     73  F   UNL     1      -2.105  10.386   8.562  1.00  0.00    -0.203 F 
ATOM     74  F   UNL     1      -0.491  10.768  13.759  1.00  0.00    -0.200 F 
ATOM     75  C   UNL     1       0.044  10.703  11.460  1.00  0.00     0.200 A 
ATOM     76  F   UNL     1       0.525  10.644   9.149  1.00  0.00    -0.200 F 
ATOM     77  F   UNL     1       1.344  10.863  11.742  1.00  0.00    -0.200 F 
ENDBRANCH  43  67
BRANCH  55  78
ATOM     78  C   UNL     1      -8.220  14.546  11.730  1.00  0.00     0.064 A 
ATOM     79  C   UNL     1      -7.739  15.701  11.096  1.00  0.00     0.173 A 
ATOM     80  C   UNL     1      -8.902  14.699  12.947  1.00  0.00     0.173 A 
ATOM     81  F   UNL     1      -7.068  15.606   9.938  1.00  0.00    -0.203 F 
ATOM     82  C   UNL     1      -7.913  16.957  11.671  1.00  0.00     0.198 A 
ATOM     83  C   UNL     1      -9.101  15.959  13.503  1.00  0.00     0.198 A 
ATOM     84  F   UNL     1      -9.387  13.627  13.590  1.00  0.00    -0.203 F 
ATOM     85  F   UNL     1      -7.403  18.042  11.072  1.00  0.00    -0.200 F 
ATOM     86  C   UNL     1      -8.601  17.086  12.869  1.00  0.00     0.200 A 
ATOM     87  F   UNL     1      -9.779  16.083  14.653  1.00  0.00    -0.200 F 
ATOM     88  F   UNL     1      -8.774  18.297  13.416  1.00  0.00    -0.200 F 
ENDBRANCH  55  78
ENDBRANCH  29  30
ENDBRANCH  21  24
ENDBRANCH  19  20
ENDBRANCH  18  19
ENDBRANCH   1  18
TORSDOF 14
