REMARK SMILES O=C(NCCCNC(=O)c1nnn(-c2cccc(C(F)(F)F)c2)c1[C@@H]1COc2ccccc2O1)c1ccc(-c2c3nc(c(-c4c(F)c(F)c(F)c(F)c4F)c4ccc([nH]4)c(-c4c(F)c(F)c(F)c(F)c4F)c4nc(c(-c5c(F)c(F)c(F)c(F)c5F)c5ccc2[nH]5)C=C4)C=C3)cc1
REMARK SMILES IDX 5 1 4 2 3 3 1 4 2 5 35 7 36 8 97 9 37 10 96 11 38 12 39 13
REMARK SMILES IDX 40 14 90 15 41 16 95 17 89 18 91 19 42 20 94 21 88 22 87 23
REMARK SMILES IDX 43 25 75 26 55 27 74 28 56 29 59 30 73 31 92 32 57 33 58 34
REMARK SMILES IDX 72 36 93 37 60 38 44 39 45 40 53 41 46 42 47 43 51 44 54 45
REMARK SMILES IDX 48 46 49 47 52 48 50 49 76 50 77 51 85 52 78 53 79 54 83 55
REMARK SMILES IDX 86 56 80 57 81 58 84 59 82 60 61 61 62 62 70 63 63 64 64 65
REMARK SMILES IDX 68 66 71 67 65 68 66 69 69 70 67 71 6 72 7 73 8 74 9 76
REMARK SMILES IDX 10 77 11 78 24 79 12 80 13 81 25 82 26 83 34 84 27 85 33 86
REMARK SMILES IDX 28 87 32 88 29 89 31 90 30 91 14 92 15 93 23 94 16 95 18 96
REMARK SMILES IDX 17 97 19 98 20 99 21 100 22 101
REMARK H PARENT 3 6 91 24 59 35 7 75
REMARK Flexibility Score: inf
ROOT
ATOM      1  C   UNL     1       5.143  -1.726  -0.869  1.00  0.00     0.042 C 
ENDROOT
BRANCH   1   2
ATOM      2  C   UNL     1       4.834  -0.237  -1.035  1.00  0.00     0.118 C 
BRANCH   2   3
ATOM      3  N   UNL     1       3.428   0.050  -1.258  1.00  0.00    -0.352 N 
ATOM      4  O   UNL     1       1.276   0.471  -1.098  1.00  0.00    -0.269 OA
ATOM      5  C   UNL     1       2.310   0.189  -0.485  1.00  0.00     0.251 C 
ATOM      6  H   UNL     1       3.229   0.178  -2.214  1.00  0.00     0.163 HD
BRANCH   5   7
ATOM      7  C   UNL     1       2.230   0.011   0.993  1.00  0.00     0.039 A 
ATOM      8  C   UNL     1       3.283  -0.337   1.838  1.00  0.00     0.014 A 
ATOM      9  C   UNL     1       0.957   0.210   1.567  1.00  0.00     0.014 A 
ATOM     10  C   UNL     1       3.067  -0.516   3.209  1.00  0.00     0.010 A 
ATOM     11  C   UNL     1       0.740   0.049   2.935  1.00  0.00     0.010 A 
ATOM     12  C   UNL     1       1.795  -0.333   3.760  1.00  0.00    -0.014 A 
BRANCH  12  13
ATOM     13  C   UNL     1       1.631  -0.449   5.213  1.00  0.00     0.031 A 
ATOM     14  C   UNL     1       2.272   0.607   6.058  1.00  0.00     0.074 A 
ATOM     15  C   UNL     1       0.785  -1.319   5.803  1.00  0.00     0.049 A 
ATOM     16  N   UNL     1       3.039   0.462   7.094  1.00  0.00    -0.248 NA
ATOM     17  C   UNL     1       2.014   2.010   5.702  1.00  0.00     0.031 C 
ATOM     18  C   UNL     1      -0.194  -2.192   5.154  1.00  0.00     0.029 A 
ATOM     19  N   UNL     1       0.545  -1.512   7.136  1.00  0.00    -0.354 N 
ATOM     20  C   UNL     1       3.246   1.742   7.611  1.00  0.00     0.074 A 
ATOM     21  C   UNL     1       2.657   2.661   6.672  1.00  0.00     0.031 C 
ATOM     22  C   UNL     1      -1.055  -2.659   6.085  1.00  0.00     0.029 A 
ATOM     23  C   UNL     1      -0.618  -2.218   7.400  1.00  0.00     0.049 A 
ATOM     24  H   UNL     1       1.144  -1.180   7.843  1.00  0.00     0.167 HD
ATOM     25  C   UNL     1       3.745   1.954   8.862  1.00  0.00     0.037 A 
ATOM     26  C   UNL     1      -1.225  -2.376   8.600  1.00  0.00     0.037 A 
ATOM     27  C   UNL     1       4.458   0.810   9.360  1.00  0.00     0.049 A 
ATOM     28  C   UNL     1      -0.244  -2.079   9.669  1.00  0.00     0.074 A 
ATOM     29  C   UNL     1       5.550   0.076   8.938  1.00  0.00     0.029 A 
ATOM     30  N   UNL     1       3.911   0.079  10.383  1.00  0.00    -0.354 N 
ATOM     31  N   UNL     1       0.766  -2.838   9.986  1.00  0.00    -0.248 NA
ATOM     32  C   UNL     1      -0.208  -0.730  10.214  1.00  0.00     0.031 C 
ATOM     33  C   UNL     1       5.304  -1.256   9.386  1.00  0.00     0.029 A 
ATOM     34  C   UNL     1       4.080  -1.238  10.053  1.00  0.00     0.049 A 
ATOM     35  H   UNL     1       3.480   0.432  11.194  1.00  0.00     0.167 HD
ATOM     36  C   UNL     1       1.744  -1.957  10.415  1.00  0.00     0.074 A 
ATOM     37  C   UNL     1       1.047  -0.703  10.665  1.00  0.00     0.031 C 
ATOM     38  C   UNL     1       3.068  -2.244  10.252  1.00  0.00     0.037 A 
BRANCH  25  39
ATOM     39  C   UNL     1       3.338   3.094   9.772  1.00  0.00     0.064 A 
ATOM     40  C   UNL     1       4.027   3.291  10.989  1.00  0.00     0.173 A 
ATOM     41  C   UNL     1       2.117   3.790   9.650  1.00  0.00     0.173 A 
ATOM     42  F   UNL     1       5.194   2.671  11.223  1.00  0.00    -0.203 F 
ATOM     43  C   UNL     1       3.487   4.045  12.035  1.00  0.00     0.198 A 
ATOM     44  C   UNL     1       1.608   4.588  10.677  1.00  0.00     0.198 A 
ATOM     45  F   UNL     1       1.319   3.640   8.586  1.00  0.00    -0.203 F 
ATOM     46  F   UNL     1       4.114   4.084  13.219  1.00  0.00    -0.200 F 
ATOM     47  C   UNL     1       2.273   4.685  11.881  1.00  0.00     0.200 A 
ATOM     48  F   UNL     1       0.422   5.193  10.514  1.00  0.00    -0.200 F 
ATOM     49  F   UNL     1       1.721   5.351  12.903  1.00  0.00    -0.200 F 
ENDBRANCH  25  39
BRANCH  26  50
ATOM     50  C   UNL     1      -2.665  -2.562   8.889  1.00  0.00     0.064 A 
ATOM     51  C   UNL     1      -3.102  -3.101  10.109  1.00  0.00     0.173 A 
ATOM     52  C   UNL     1      -3.654  -1.983   8.070  1.00  0.00     0.173 A 
ATOM     53  F   UNL     1      -2.218  -3.624  10.972  1.00  0.00    -0.203 F 
ATOM     54  C   UNL     1      -4.446  -3.054  10.492  1.00  0.00     0.198 A 
ATOM     55  C   UNL     1      -4.996  -1.950   8.445  1.00  0.00     0.198 A 
ATOM     56  F   UNL     1      -3.323  -1.357   6.931  1.00  0.00    -0.203 F 
ATOM     57  F   UNL     1      -4.816  -3.526  11.690  1.00  0.00    -0.200 F 
ATOM     58  C   UNL     1      -5.391  -2.475   9.661  1.00  0.00     0.200 A 
ATOM     59  F   UNL     1      -5.894  -1.355   7.647  1.00  0.00    -0.200 F 
ATOM     60  F   UNL     1      -6.671  -2.385  10.048  1.00  0.00    -0.200 F 
ENDBRANCH  26  50
BRANCH  38  61
ATOM     61  C   UNL     1       3.447  -3.660   9.942  1.00  0.00     0.064 A 
ATOM     62  C   UNL     1       3.057  -4.330   8.771  1.00  0.00     0.173 A 
ATOM     63  C   UNL     1       4.348  -4.311  10.795  1.00  0.00     0.173 A 
ATOM     64  F   UNL     1       2.287  -3.727   7.854  1.00  0.00    -0.203 F 
ATOM     65  C   UNL     1       3.508  -5.620   8.498  1.00  0.00     0.198 A 
ATOM     66  C   UNL     1       4.826  -5.584  10.501  1.00  0.00     0.198 A 
ATOM     67  F   UNL     1       4.803  -3.689  11.895  1.00  0.00    -0.203 F 
ATOM     68  F   UNL     1       3.112  -6.248   7.380  1.00  0.00    -0.200 F 
ATOM     69  C   UNL     1       4.396  -6.242   9.360  1.00  0.00     0.200 A 
ATOM     70  F   UNL     1       5.725  -6.163  11.309  1.00  0.00    -0.200 F 
ATOM     71  F   UNL     1       4.862  -7.467   9.074  1.00  0.00    -0.200 F 
ENDBRANCH  38  61
ENDBRANCH  12  13
ENDBRANCH   5   7
ENDBRANCH   2   3
ENDBRANCH   1   2
BRANCH   1  72
ATOM     72  C   UNL     1       4.577  -2.607  -1.982  1.00  0.00     0.118 C 
BRANCH  72  73
ATOM     73  N   UNL     1       5.550  -2.997  -2.978  1.00  0.00    -0.351 N 
ATOM     74  C   UNL     1       6.151  -4.126  -3.474  1.00  0.00     0.273 C 
ATOM     75  H   UNL     1       5.889  -2.201  -3.449  1.00  0.00     0.163 HD
ATOM     76  O   UNL     1       6.875  -3.861  -4.446  1.00  0.00    -0.267 OA
BRANCH  74  77
ATOM     77  C   UNL     1       6.063  -5.525  -3.007  1.00  0.00     0.178 A 
ATOM     78  N   UNL     1       6.999  -6.389  -3.562  1.00  0.00    -0.124 NA
ATOM     79  C   UNL     1       5.316  -6.271  -2.087  1.00  0.00     0.122 A 
ATOM     80  N   UNL     1       6.893  -7.579  -3.007  1.00  0.00    -0.061 NA
ATOM     81  N   UNL     1       5.820  -7.561  -2.205  1.00  0.00    -0.213 N 
BRANCH  79  82
ATOM     82  C   UNL     1       4.359  -5.857  -1.019  1.00  0.00     0.262 C 
ATOM     83  C   UNL     1       5.124  -5.272   0.181  1.00  0.00     0.281 C 
ATOM     84  O   UNL     1       3.394  -6.857  -0.672  1.00  0.00    -0.477 OA
ATOM     85  O   UNL     1       5.604  -6.306   1.048  1.00  0.00    -0.485 OA
ATOM     86  C   UNL     1       3.409  -7.223   0.647  1.00  0.00     0.162 A 
ATOM     87  C   UNL     1       4.519  -7.028   1.471  1.00  0.00     0.161 A 
ATOM     88  C   UNL     1       2.281  -7.870   1.141  1.00  0.00     0.050 A 
ATOM     89  C   UNL     1       4.547  -7.557   2.756  1.00  0.00     0.050 A 
ATOM     90  C   UNL     1       2.280  -8.348   2.452  1.00  0.00     0.004 A 
ATOM     91  C   UNL     1       3.419  -8.212   3.250  1.00  0.00     0.004 A 
ENDBRANCH  79  82
BRANCH  81  92
ATOM     92  C   UNL     1       5.365  -8.760  -1.631  1.00  0.00     0.067 A 
ATOM     93  C   UNL     1       6.131  -9.378  -0.641  1.00  0.00     0.028 A 
ATOM     94  C   UNL     1       4.111  -9.259  -1.999  1.00  0.00     0.041 A 
ATOM     95  C   UNL     1       5.585 -10.454   0.058  1.00  0.00     0.003 A 
ATOM     96  C   UNL     1       3.569 -10.353  -1.311  1.00  0.00     0.058 A 
ATOM     97  C   UNL     1       4.309 -10.929  -0.265  1.00  0.00     0.013 A 
BRANCH  96  98
ATOM     98  C   UNL     1       2.182 -10.849  -1.631  1.00  0.00     0.416 C 
ATOM     99  F   UNL     1       2.102 -12.207  -1.677  1.00  0.00    -0.166 F 
ATOM    100  F   UNL     1       1.261 -10.451  -0.710  1.00  0.00    -0.166 F 
ATOM    101  F   UNL     1       1.714 -10.409  -2.834  1.00  0.00    -0.166 F 
ENDBRANCH  96  98
ENDBRANCH  81  92
ENDBRANCH  74  77
ENDBRANCH  72  73
ENDBRANCH   1  72
TORSDOF 13
