REMARK SMILES CC(C)c1cc(C(=O)N[C@@H](Cc2c[nH]c3ccccc23)C(=O)NCCCNC(=O)c2ccc(-c3c4nc(c(-c5c(F)c(F)c(F)c(F)c5F)c5ccc([nH]5)c(-c5c(F)c(F)c(F)c(F)c5F)c5nc(c(-c6c(F)c(F)c(F)c(F)c6F)c6ccc3[nH]6)C=C5)C=C4)cc2)n(C)n1
REMARK SMILES IDX 24 1 23 2 21 3 22 4 10 6 9 7 7 8 8 9 6 11 4 12 5 13 95 14
REMARK SMILES IDX 93 15 94 16 2 17 1 18 3 19 11 20 12 21 13 22 20 23 14 24
REMARK SMILES IDX 15 25 19 26 16 28 18 29 17 30 25 31 26 32 27 33 28 34 29 36
REMARK SMILES IDX 30 37 31 38 92 39 32 40 91 41 33 42 34 43 35 44 85 45 36 46
REMARK SMILES IDX 90 47 84 48 86 49 37 50 89 51 83 52 82 53 38 55 70 56 50 57
REMARK SMILES IDX 69 58 51 59 54 60 68 61 87 62 52 63 53 64 67 66 88 67 55 68
REMARK SMILES IDX 39 69 40 70 48 71 41 72 42 73 46 74 49 75 43 76 44 77 47 78
REMARK SMILES IDX 45 79 71 80 72 81 80 82 73 83 74 84 78 85 81 86 75 87 76 88
REMARK SMILES IDX 79 89 77 90 56 91 57 92 65 93 58 94 59 95 63 96 66 97 60 98
REMARK SMILES IDX 61 99 64 100 62 101
REMARK H PARENT 23 5 9 10 14 27 27 35 86 54 54 65
REMARK Flexibility Score: inf
ROOT
ATOM      1  C   UNL     1      -8.517  -0.177   2.249  1.00  0.00     0.117 C 
ENDROOT
BRANCH   1   2
ATOM      2  N   UNL     1      -7.738   0.794   2.970  1.00  0.00    -0.354 N 
ATOM      3  C   UNL     1      -6.768   1.606   2.472  1.00  0.00     0.242 C 
ATOM      4  O   UNL     1      -6.548   2.655   3.088  1.00  0.00    -0.273 OA
ATOM      5  H   UNL     1      -7.928   0.881   3.932  1.00  0.00     0.163 HD
BRANCH   3   6
ATOM      6  C   UNL     1      -5.999   1.302   1.171  1.00  0.00     0.176 C 
BRANCH   6   7
ATOM      7  N   UNL     1      -5.418  -0.026   1.059  1.00  0.00    -0.339 N 
ATOM      8  C   UNL     1      -4.138  -0.497   1.004  1.00  0.00     0.270 C 
ATOM      9  O   UNL     1      -4.091  -1.734   0.961  1.00  0.00    -0.268 OA
ATOM     10  H   UNL     1      -6.094  -0.741   1.014  1.00  0.00     0.164 HD
BRANCH   8  11
ATOM     11  C   UNL     1      -2.909   0.283   1.026  1.00  0.00     0.126 A 
ATOM     12  C   UNL     1      -0.686   0.672   1.158  1.00  0.00     0.066 A 
ATOM     13  C   UNL     1      -1.669  -0.326   1.245  1.00  0.00     0.059 A 
ATOM     14  N   UNL     1      -1.254   1.857   0.967  1.00  0.00    -0.177 NA
ATOM     15  N   UNL     1      -2.562   1.599   0.787  1.00  0.00    -0.263 N 
ATOM     16  C   UNL     1      -3.289   2.719   0.244  1.00  0.00     0.174 C 
BRANCH  12  17
ATOM     17  C   UNL     1       0.808   0.531   1.200  1.00  0.00     0.034 C 
ATOM     18  C   UNL     1       1.313  -0.172  -0.065  1.00  0.00     0.014 C 
ATOM     19  C   UNL     1       1.530   1.877   1.358  1.00  0.00     0.014 C 
ENDBRANCH  12  17
ENDBRANCH   8  11
ENDBRANCH   6   7
BRANCH   6  20
ATOM     20  C   UNL     1      -6.644   1.774  -0.150  1.00  0.00     0.072 C 
BRANCH  20  21
ATOM     21  C   UNL     1      -7.974   1.195  -0.524  1.00  0.00    -0.020 A 
ATOM     22  C   UNL     1      -8.237  -0.066  -1.033  1.00  0.00     0.087 A 
ATOM     23  C   UNL     1      -9.237   1.865  -0.423  1.00  0.00     0.003 A 
ATOM     24  N   UNL     1      -9.598  -0.221  -1.119  1.00  0.00    -0.361 N 
ATOM     25  C   UNL     1     -10.232   0.934  -0.724  1.00  0.00     0.046 A 
ATOM     26  C   UNL     1      -9.623   3.165  -0.041  1.00  0.00     0.010 A 
ATOM     27  H   UNL     1     -10.055  -1.040  -1.419  1.00  0.00     0.166 HD
ATOM     28  C   UNL     1     -11.596   1.220  -0.593  1.00  0.00     0.026 A 
ATOM     29  C   UNL     1     -10.981   3.479   0.055  1.00  0.00     0.001 A 
ATOM     30  C   UNL     1     -11.951   2.513  -0.196  1.00  0.00     0.002 A 
ENDBRANCH  20  21
ENDBRANCH   6  20
ENDBRANCH   3   6
ENDBRANCH   1   2
BRANCH   1  31
ATOM     31  C   UNL     1      -9.002  -1.337   3.078  1.00  0.00     0.042 C 
BRANCH  31  32
ATOM     32  C   UNL     1     -10.005  -0.921   4.135  1.00  0.00     0.118 C 
BRANCH  32  33
ATOM     33  N   UNL     1     -11.234  -0.353   3.581  1.00  0.00    -0.352 N 
ATOM     34  C   UNL     1     -12.514  -0.851   3.531  1.00  0.00     0.251 C 
ATOM     35  H   UNL     1     -11.126   0.537   3.175  1.00  0.00     0.163 HD
ATOM     36  O   UNL     1     -13.375  -0.276   2.870  1.00  0.00    -0.269 OA
BRANCH  34  37
ATOM     37  C   UNL     1     -12.846  -2.106   4.234  1.00  0.00     0.039 A 
ATOM     38  C   UNL     1     -13.704  -3.028   3.629  1.00  0.00     0.014 A 
ATOM     39  C   UNL     1     -12.279  -2.395   5.473  1.00  0.00     0.014 A 
ATOM     40  C   UNL     1     -13.908  -4.272   4.228  1.00  0.00     0.010 A 
ATOM     41  C   UNL     1     -12.344  -3.683   5.975  1.00  0.00     0.010 A 
ATOM     42  C   UNL     1     -13.186  -4.629   5.378  1.00  0.00    -0.014 A 
BRANCH  42  43
ATOM     43  C   UNL     1     -13.326  -5.964   6.007  1.00  0.00     0.031 A 
ATOM     44  C   UNL     1     -13.770  -6.072   7.442  1.00  0.00     0.074 A 
ATOM     45  C   UNL     1     -12.984  -7.068   5.316  1.00  0.00     0.049 A 
ATOM     46  N   UNL     1     -13.906  -7.137   8.191  1.00  0.00    -0.248 NA
ATOM     47  C   UNL     1     -14.050  -4.810   8.147  1.00  0.00     0.031 C 
ATOM     48  C   UNL     1     -12.461  -7.086   3.949  1.00  0.00     0.029 A 
ATOM     49  N   UNL     1     -13.030  -8.392   5.670  1.00  0.00    -0.354 N 
ATOM     50  C   UNL     1     -14.254  -6.667   9.451  1.00  0.00     0.074 A 
ATOM     51  C   UNL     1     -14.219  -5.224   9.391  1.00  0.00     0.031 C 
ATOM     52  C   UNL     1     -12.292  -8.360   3.559  1.00  0.00     0.029 A 
ATOM     53  C   UNL     1     -12.659  -9.244   4.660  1.00  0.00     0.049 A 
ATOM     54  H   UNL     1     -13.304  -8.702   6.564  1.00  0.00     0.167 HD
ATOM     55  C   UNL     1     -14.616  -7.371  10.549  1.00  0.00     0.037 A 
ATOM     56  C   UNL     1     -12.637 -10.589   4.625  1.00  0.00     0.037 A 
ATOM     57  C   UNL     1     -14.694  -8.806  10.586  1.00  0.00     0.049 A 
ATOM     58  C   UNL     1     -13.074 -11.354   5.843  1.00  0.00     0.074 A 
ATOM     59  C   UNL     1     -15.119  -9.624  11.615  1.00  0.00     0.029 A 
ATOM     60  N   UNL     1     -14.336  -9.636   9.532  1.00  0.00    -0.354 N 
ATOM     61  N   UNL     1     -13.485 -10.901   7.003  1.00  0.00    -0.248 NA
ATOM     62  C   UNL     1     -13.056 -12.818   5.740  1.00  0.00     0.031 C 
ATOM     63  C   UNL     1     -14.977 -10.954  11.200  1.00  0.00     0.029 A 
ATOM     64  C   UNL     1     -14.513 -10.962   9.894  1.00  0.00     0.049 A 
ATOM     65  H   UNL     1     -14.005  -9.329   8.658  1.00  0.00     0.167 HD
ATOM     66  C   UNL     1     -13.800 -12.021   7.761  1.00  0.00     0.074 A 
ATOM     67  C   UNL     1     -13.550 -13.174   6.918  1.00  0.00     0.031 C 
ATOM     68  C   UNL     1     -14.255 -12.092   9.037  1.00  0.00     0.037 A 
BRANCH  55  69
ATOM     69  C   UNL     1     -14.959  -6.585  11.784  1.00  0.00     0.064 A 
ATOM     70  C   UNL     1     -16.083  -5.744  11.838  1.00  0.00     0.173 A 
ATOM     71  C   UNL     1     -14.139  -6.650  12.921  1.00  0.00     0.173 A 
ATOM     72  F   UNL     1     -16.893  -5.630  10.774  1.00  0.00    -0.203 F 
ATOM     73  C   UNL     1     -16.340  -4.957  12.958  1.00  0.00     0.198 A 
ATOM     74  C   UNL     1     -14.422  -5.891  14.054  1.00  0.00     0.198 A 
ATOM     75  F   UNL     1     -13.054  -7.439  12.929  1.00  0.00    -0.203 F 
ATOM     76  F   UNL     1     -17.371  -4.101  12.950  1.00  0.00    -0.200 F 
ATOM     77  C   UNL     1     -15.512  -5.035  14.066  1.00  0.00     0.200 A 
ATOM     78  F   UNL     1     -13.627  -5.976  15.130  1.00  0.00    -0.200 F 
ATOM     79  F   UNL     1     -15.756  -4.272  15.141  1.00  0.00    -0.200 F 
ENDBRANCH  55  69
BRANCH  56  80
ATOM     80  C   UNL     1     -12.261 -11.289   3.370  1.00  0.00     0.064 A 
ATOM     81  C   UNL     1     -13.232 -11.957   2.609  1.00  0.00     0.173 A 
ATOM     82  C   UNL     1     -10.944 -11.287   2.890  1.00  0.00     0.173 A 
ATOM     83  F   UNL     1     -14.503 -11.999   3.035  1.00  0.00    -0.203 F 
ATOM     84  C   UNL     1     -12.897 -12.608   1.424  1.00  0.00     0.198 A 
ATOM     85  C   UNL     1     -10.615 -11.918   1.691  1.00  0.00     0.198 A 
ATOM     86  F   UNL     1      -9.981 -10.654   3.575  1.00  0.00    -0.203 F 
ATOM     87  F   UNL     1     -13.839 -13.267   0.735  1.00  0.00    -0.200 F 
ATOM     88  C   UNL     1     -11.590 -12.582   0.963  1.00  0.00     0.200 A 
ATOM     89  F   UNL     1      -9.354 -11.877   1.239  1.00  0.00    -0.200 F 
ATOM     90  F   UNL     1     -11.270 -13.200  -0.183  1.00  0.00    -0.200 F 
ENDBRANCH  56  80
BRANCH  68  91
ATOM     91  C   UNL     1     -14.540 -13.461   9.582  1.00  0.00     0.064 A 
ATOM     92  C   UNL     1     -13.510 -14.365   9.880  1.00  0.00     0.173 A 
ATOM     93  C   UNL     1     -15.862 -13.865   9.825  1.00  0.00     0.173 A 
ATOM     94  F   UNL     1     -12.231 -14.030   9.652  1.00  0.00    -0.203 F 
ATOM     95  C   UNL     1     -13.795 -15.637  10.367  1.00  0.00     0.198 A 
ATOM     96  C   UNL     1     -16.141 -15.126  10.344  1.00  0.00     0.198 A 
ATOM     97  F   UNL     1     -16.883 -13.035   9.564  1.00  0.00    -0.203 F 
ATOM     98  F   UNL     1     -12.799 -16.506  10.587  1.00  0.00    -0.200 F 
ATOM     99  C   UNL     1     -15.108 -16.015  10.603  1.00  0.00     0.200 A 
ATOM    100  F   UNL     1     -17.409 -15.483  10.586  1.00  0.00    -0.200 F 
ATOM    101  F   UNL     1     -15.381 -17.240  11.072  1.00  0.00    -0.200 F 
ENDBRANCH  68  91
ENDBRANCH  42  43
ENDBRANCH  34  37
ENDBRANCH  32  33
ENDBRANCH  31  32
ENDBRANCH   1  31
TORSDOF 15
