REMARK SMILES C[C@@H](NC(=O)/C(=C/c1ccc(Cl)cc1)NC(=O)c1ccc(C(C)(C)C)cc1)C(=O)NCCCNC(=O)c1ccc(-c2c3nc(c(-c4c(F)c(F)c(F)c(F)c4F)c4ccc([nH]4)c(-c4c(F)c(F)c(F)c(F)c4F)c4nc(c(-c5c(F)c(F)c(F)c(F)c5F)c5ccc2[nH]5)C=C4)C=C3)cc1
REMARK SMILES IDX 28 1 29 2 30 3 2 5 1 6 3 7 4 8 5 10 6 11 7 12 15 13 16 14
REMARK SMILES IDX 17 16 18 17 19 18 27 19 20 20 26 21 21 22 22 23 23 24 24 25
REMARK SMILES IDX 25 26 8 27 9 28 14 29 10 30 13 31 11 32 12 33 31 34 32 35
REMARK SMILES IDX 33 36 34 37 35 38 36 40 37 41 38 42 99 43 39 44 98 45 40 46
REMARK SMILES IDX 41 47 42 48 92 49 43 50 97 51 91 52 93 53 44 54 96 55 90 56
REMARK SMILES IDX 89 57 45 59 77 60 57 61 76 62 58 63 61 64 75 65 94 66 59 67
REMARK SMILES IDX 60 68 74 70 95 71 62 72 46 73 47 74 55 75 48 76 49 77 53 78
REMARK SMILES IDX 56 79 50 80 51 81 54 82 52 83 78 84 79 85 87 86 80 87 81 88
REMARK SMILES IDX 85 89 88 90 82 91 83 92 86 93 84 94 63 95 64 96 72 97 65 98
REMARK SMILES IDX 66 99 70 100 73 101 67 102 68 103 71 104 69 105
REMARK H PARENT 30 4 3 9 15 15 34 39 93 58 61 69
REMARK Flexibility Score: inf
ROOT
ATOM      1  C   UNL     1      -0.754  -0.621  -0.449  1.00  0.00     0.242 C 
ATOM      2  O   UNL     1      -1.192  -0.194  -1.521  1.00  0.00    -0.273 OA
ATOM      3  N   UNL     1      -1.320  -0.151   0.693  1.00  0.00    -0.354 N 
ATOM      4  H   UNL     1      -2.071   0.473   0.567  1.00  0.00     0.163 HD
ENDROOT
BRANCH   1   5
ATOM      5  C   UNL     1       0.483  -1.534  -0.420  1.00  0.00     0.168 C 
ATOM      6  C   UNL     1       1.700  -0.619  -0.240  1.00  0.00     0.041 C 
BRANCH   5   7
ATOM      7  N   UNL     1       0.532  -2.650   0.542  1.00  0.00    -0.339 N 
ATOM      8  C   UNL     1      -0.240  -3.791   0.493  1.00  0.00     0.268 C 
ATOM      9  H   UNL     1       1.173  -2.574   1.286  1.00  0.00     0.164 HD
ATOM     10  O   UNL     1       0.305  -4.888   0.417  1.00  0.00    -0.268 OA
BRANCH   8  11
ATOM     11  C   UNL     1      -1.718  -3.670   0.737  1.00  0.00     0.107 C 
ATOM     12  C   UNL     1      -2.442  -3.083  -0.236  1.00  0.00     0.040 C 
BRANCH  11  13
ATOM     13  N   UNL     1      -2.319  -4.216   1.855  1.00  0.00    -0.317 N 
ATOM     14  C   UNL     1      -1.871  -4.846   2.991  1.00  0.00     0.255 C 
ATOM     15  H   UNL     1      -3.300  -4.136   1.831  1.00  0.00     0.170 HD
ATOM     16  O   UNL     1      -2.694  -5.326   3.770  1.00  0.00    -0.269 OA
BRANCH  14  17
ATOM     17  C   UNL     1      -0.449  -4.973   3.326  1.00  0.00     0.040 A 
ATOM     18  C   UNL     1       0.101  -6.251   3.383  1.00  0.00     0.014 A 
ATOM     19  C   UNL     1       0.324  -3.860   3.649  1.00  0.00     0.014 A 
ATOM     20  C   UNL     1       1.461  -6.404   3.654  1.00  0.00     0.005 A 
ATOM     21  C   UNL     1       1.689  -4.019   3.911  1.00  0.00     0.005 A 
ATOM     22  C   UNL     1       2.295  -5.289   3.875  1.00  0.00    -0.043 A 
BRANCH  22  23
ATOM     23  C   UNL     1       3.810  -5.493   4.048  1.00  0.00    -0.013 C 
ATOM     24  C   UNL     1       4.085  -6.225   5.375  1.00  0.00     0.016 C 
ATOM     25  C   UNL     1       4.361  -6.340   2.876  1.00  0.00     0.016 C 
ATOM     26  C   UNL     1       4.613  -4.174   4.057  1.00  0.00     0.016 C 
ENDBRANCH  22  23
ENDBRANCH  14  17
ENDBRANCH  11  13
BRANCH  12  27
ATOM     27  C   UNL     1      -3.853  -2.636  -0.228  1.00  0.00    -0.023 A 
ATOM     28  C   UNL     1      -4.533  -2.244   0.937  1.00  0.00     0.010 A 
ATOM     29  C   UNL     1      -4.491  -2.442  -1.461  1.00  0.00     0.010 A 
ATOM     30  C   UNL     1      -5.835  -1.737   0.877  1.00  0.00     0.021 A 
ATOM     31  C   UNL     1      -5.785  -1.913  -1.527  1.00  0.00     0.021 A 
ATOM     32  C   UNL     1      -6.455  -1.571  -0.357  1.00  0.00     0.041 A 
ATOM     33  Cl  UNL     1      -8.041  -0.912  -0.435  1.00  0.00    -0.084 Cl
ENDBRANCH  12  27
ENDBRANCH   8  11
ENDBRANCH   5   7
ENDBRANCH   1   5
BRANCH   3  34
ATOM     34  C   UNL     1      -0.975  -0.439   2.069  1.00  0.00     0.117 C 
BRANCH  34  35
ATOM     35  C   UNL     1      -1.275   0.744   2.972  1.00  0.00     0.042 C 
BRANCH  35  36
ATOM     36  C   UNL     1      -2.765   0.968   3.179  1.00  0.00     0.118 C 
BRANCH  36  37
ATOM     37  N   UNL     1      -3.365  -0.003   4.083  1.00  0.00    -0.352 N 
ATOM     38  C   UNL     1      -4.174   0.230   5.173  1.00  0.00     0.251 C 
ATOM     39  H   UNL     1      -3.166  -0.948   3.892  1.00  0.00     0.163 HD
ATOM     40  O   UNL     1      -4.503  -0.683   5.913  1.00  0.00    -0.269 OA
BRANCH  38  41
ATOM     41  C   UNL     1      -4.600   1.616   5.461  1.00  0.00     0.039 A 
ATOM     42  C   UNL     1      -4.399   2.127   6.744  1.00  0.00     0.014 A 
ATOM     43  C   UNL     1      -5.126   2.422   4.448  1.00  0.00     0.014 A 
ATOM     44  C   UNL     1      -4.651   3.478   6.990  1.00  0.00     0.010 A 
ATOM     45  C   UNL     1      -5.293   3.783   4.673  1.00  0.00     0.010 A 
ATOM     46  C   UNL     1      -5.056   4.325   5.945  1.00  0.00    -0.014 A 
BRANCH  46  47
ATOM     47  C   UNL     1      -5.231   5.782   6.165  1.00  0.00     0.031 A 
ATOM     48  C   UNL     1      -6.585   6.411   5.996  1.00  0.00     0.074 A 
ATOM     49  C   UNL     1      -4.160   6.547   6.453  1.00  0.00     0.049 A 
ATOM     50  N   UNL     1      -6.931   7.670   6.094  1.00  0.00    -0.248 NA
ATOM     51  C   UNL     1      -7.692   5.511   5.637  1.00  0.00     0.031 C 
ATOM     52  C   UNL     1      -2.784   6.064   6.580  1.00  0.00     0.029 A 
ATOM     53  N   UNL     1      -4.059   7.896   6.684  1.00  0.00    -0.354 N 
ATOM     54  C   UNL     1      -8.286   7.712   5.793  1.00  0.00     0.074 A 
ATOM     55  C   UNL     1      -8.688   6.365   5.452  1.00  0.00     0.031 C 
ATOM     56  C   UNL     1      -1.982   7.094   6.894  1.00  0.00     0.029 A 
ATOM     57  C   UNL     1      -2.780   8.314   6.960  1.00  0.00     0.049 A 
ATOM     58  H   UNL     1      -4.831   8.507   6.655  1.00  0.00     0.167 HD
ATOM     59  C   UNL     1      -9.126   8.774   5.827  1.00  0.00     0.037 A 
ATOM     60  C   UNL     1      -2.307   9.544   7.237  1.00  0.00     0.037 A 
ATOM     61  C   UNL     1      -8.730  10.106   6.200  1.00  0.00     0.049 A 
ATOM     62  C   UNL     1      -3.265  10.703   7.289  1.00  0.00     0.074 A 
ATOM     63  C   UNL     1      -9.517  11.236   6.331  1.00  0.00     0.029 A 
ATOM     64  N   UNL     1      -7.431  10.485   6.503  1.00  0.00    -0.354 N 
ATOM     65  N   UNL     1      -4.558  10.717   7.079  1.00  0.00    -0.248 NA
ATOM     66  C   UNL     1      -2.697  12.016   7.627  1.00  0.00     0.031 C 
ATOM     67  C   UNL     1      -8.688  12.308   6.676  1.00  0.00     0.029 A 
ATOM     68  C   UNL     1      -7.391  11.837   6.805  1.00  0.00     0.049 A 
ATOM     69  H   UNL     1      -6.652   9.883   6.505  1.00  0.00     0.167 HD
ATOM     70  C   UNL     1      -4.964  12.028   7.283  1.00  0.00     0.074 A 
ATOM     71  C   UNL     1      -3.781  12.778   7.651  1.00  0.00     0.031 C 
ATOM     72  C   UNL     1      -6.205  12.564   7.175  1.00  0.00     0.037 A 
BRANCH  59  73
ATOM     73  C   UNL     1     -10.561   8.531   5.461  1.00  0.00     0.064 A 
ATOM     74  C   UNL     1     -11.417   7.795   6.295  1.00  0.00     0.173 A 
ATOM     75  C   UNL     1     -11.095   9.064   4.279  1.00  0.00     0.173 A 
ATOM     76  F   UNL     1     -10.951   7.252   7.430  1.00  0.00    -0.203 F 
ATOM     77  C   UNL     1     -12.746   7.575   5.943  1.00  0.00     0.198 A 
ATOM     78  C   UNL     1     -12.433   8.868   3.945  1.00  0.00     0.198 A 
ATOM     79  F   UNL     1     -10.321   9.780   3.449  1.00  0.00    -0.203 F 
ATOM     80  F   UNL     1     -13.530   6.825   6.729  1.00  0.00    -0.200 F 
ATOM     81  C   UNL     1     -13.254   8.117   4.772  1.00  0.00     0.200 A 
ATOM     82  F   UNL     1     -12.926   9.403   2.820  1.00  0.00    -0.200 F 
ATOM     83  F   UNL     1     -14.536   7.910   4.438  1.00  0.00    -0.200 F 
ENDBRANCH  59  73
BRANCH  60  84
ATOM     84  C   UNL     1      -0.862   9.737   7.524  1.00  0.00     0.064 A 
ATOM     85  C   UNL     1      -0.422  10.049   8.819  1.00  0.00     0.173 A 
ATOM     86  C   UNL     1       0.107   9.618   6.518  1.00  0.00     0.173 A 
ATOM     87  F   UNL     1      -1.313  10.193   9.811  1.00  0.00    -0.203 F 
ATOM     88  C   UNL     1       0.929  10.255   9.091  1.00  0.00     0.198 A 
ATOM     89  C   UNL     1       1.460   9.797   6.797  1.00  0.00     0.198 A 
ATOM     90  F   UNL     1      -0.261   9.314   5.264  1.00  0.00    -0.203 F 
ATOM     91  F   UNL     1       1.316  10.595  10.328  1.00  0.00    -0.200 F 
ATOM     92  C   UNL     1       1.869  10.124   8.081  1.00  0.00     0.200 A 
ATOM     93  F   UNL     1       2.368   9.655   5.821  1.00  0.00    -0.200 F 
ATOM     94  F   UNL     1       3.169  10.318   8.344  1.00  0.00    -0.200 F 
ENDBRANCH  60  84
BRANCH  72  95
ATOM     95  C   UNL     1      -6.350  14.024   7.489  1.00  0.00     0.064 A 
ATOM     96  C   UNL     1      -5.866  15.014   6.622  1.00  0.00     0.173 A 
ATOM     97  C   UNL     1      -7.014  14.436   8.655  1.00  0.00     0.173 A 
ATOM     98  F   UNL     1      -5.211  14.670   5.503  1.00  0.00    -0.203 F 
ATOM     99  C   UNL     1      -6.017  16.364   6.924  1.00  0.00     0.198 A 
ATOM    100  C   UNL     1      -7.189  15.787   8.939  1.00  0.00     0.198 A 
ATOM    101  F   UNL     1      -7.501  13.527   9.513  1.00  0.00    -0.203 F 
ATOM    102  F   UNL     1      -5.504  17.293   6.106  1.00  0.00    -0.200 F 
ATOM    103  C   UNL     1      -6.684  16.750   8.078  1.00  0.00     0.200 A 
ATOM    104  F   UNL     1      -7.844  16.157  10.048  1.00  0.00    -0.200 F 
ATOM    105  F   UNL     1      -6.833  18.050   8.364  1.00  0.00    -0.200 F 
ENDBRANCH  72  95
ENDBRANCH  46  47
ENDBRANCH  38  41
ENDBRANCH  36  37
ENDBRANCH  35  36
ENDBRANCH  34  35
ENDBRANCH   3  34
TORSDOF 16
