REMARK SMILES Cn1cc(-c2ccn(Cc3ccc(C(=O)NCCCNC(=O)c4ccc(-c5c6nc(c(-c7c(F)c(F)c(F)c(F)c7F)c7ccc([nH]7)c(-c7c(F)c(F)c(F)c(F)c7F)c7nc(c(-c8c(F)c(F)c(F)c(F)c8F)c8ccc5[nH]8)C=C7)C=C6)cc4)cc3)n2)cn1
REMARK SMILES IDX 17 1 16 2 14 3 15 4 13 6 10 7 11 8 87 9 12 10 86 11 9 12
REMARK SMILES IDX 8 13 5 14 6 15 88 16 7 17 4 18 1 19 2 20 3 21 90 22 89 23
REMARK SMILES IDX 18 24 19 25 20 26 21 27 22 29 23 30 24 31 85 32 25 33 84 34
REMARK SMILES IDX 26 35 27 36 28 37 78 38 29 39 83 40 77 41 79 42 30 43 82 44
REMARK SMILES IDX 76 45 75 46 31 48 63 49 43 50 62 51 44 52 47 53 61 54 80 55
REMARK SMILES IDX 45 56 46 57 60 59 81 60 48 61 32 62 33 63 41 64 34 65 35 66
REMARK SMILES IDX 39 67 42 68 36 69 37 70 40 71 38 72 64 73 65 74 73 75 66 76
REMARK SMILES IDX 67 77 71 78 74 79 68 80 69 81 72 82 70 83 49 84 50 85 58 86
REMARK SMILES IDX 51 87 52 88 56 89 59 90 53 91 54 92 57 93 55 94
REMARK H PARENT 16 5 20 28 79 47 47 58
REMARK Flexibility Score: inf
ROOT
ATOM      1  C   UNL     1       6.643   3.253   3.074  1.00  0.00     0.118 C 
ENDROOT
BRANCH   1   2
ATOM      2  N   UNL     1       8.064   2.921   3.054  1.00  0.00    -0.352 N 
ATOM      3  C   UNL     1       8.712   1.752   2.722  1.00  0.00     0.251 C 
ATOM      4  O   UNL     1       9.941   1.758   2.666  1.00  0.00    -0.269 OA
ATOM      5  H   UNL     1       8.660   3.656   3.323  1.00  0.00     0.163 HD
BRANCH   3   6
ATOM      6  C   UNL     1       7.971   0.507   2.378  1.00  0.00     0.039 A 
ATOM      7  C   UNL     1       6.543  -1.766   1.512  1.00  0.00    -0.026 A 
ATOM      8  C   UNL     1       7.819  -1.493   1.002  1.00  0.00     0.006 A 
ATOM      9  C   UNL     1       6.037  -0.943   2.522  1.00  0.00     0.006 A 
ATOM     10  C   UNL     1       8.528  -0.363   1.432  1.00  0.00     0.014 A 
ATOM     11  C   UNL     1       6.755   0.163   2.963  1.00  0.00     0.014 A 
BRANCH   7  12
ATOM     12  C   UNL     1       5.712  -2.923   1.020  1.00  0.00     0.179 C 
BRANCH  12  13
ATOM     13  N   UNL     1       4.549  -2.513   0.229  1.00  0.00    -0.268 N 
ATOM     14  C   UNL     1       2.660  -1.648  -0.195  1.00  0.00     0.095 A 
ATOM     15  C   UNL     1       2.948  -2.506  -1.274  1.00  0.00     0.050 A 
ATOM     16  N   UNL     1       3.624  -1.659   0.730  1.00  0.00    -0.172 NA
ATOM     17  C   UNL     1       4.179  -3.042  -0.979  1.00  0.00     0.110 A 
BRANCH  14  18
ATOM     18  C   UNL     1       1.450  -0.853  -0.089  1.00  0.00     0.040 A 
ATOM     19  C   UNL     1      -2.049  -0.030  -0.033  1.00  0.00     0.173 C 
ATOM     20  N   UNL     1      -0.609  -0.126  -0.023  1.00  0.00    -0.275 N 
ATOM     21  C   UNL     1       0.137  -1.263  -0.138  1.00  0.00     0.118 A 
ATOM     22  N   UNL     1       0.131   0.996   0.087  1.00  0.00    -0.181 NA
ATOM     23  C   UNL     1       1.391   0.543   0.063  1.00  0.00     0.145 A 
ENDBRANCH  14  18
ENDBRANCH  12  13
ENDBRANCH   7  12
ENDBRANCH   3   6
ENDBRANCH   1   2
BRANCH   1  24
ATOM     24  C   UNL     1       6.037   3.135   4.481  1.00  0.00     0.042 C 
BRANCH  24  25
ATOM     25  C   UNL     1       6.256   4.383   5.306  1.00  0.00     0.118 C 
BRANCH  25  26
ATOM     26  N   UNL     1       5.439   5.521   4.861  1.00  0.00    -0.352 N 
ATOM     27  C   UNL     1       5.375   6.804   5.392  1.00  0.00     0.251 C 
ATOM     28  H   UNL     1       4.861   5.352   4.082  1.00  0.00     0.163 HD
ATOM     29  O   UNL     1       4.441   7.546   5.158  1.00  0.00    -0.269 OA
BRANCH  27  30
ATOM     30  C   UNL     1       6.492   7.247   6.246  1.00  0.00     0.039 A 
ATOM     31  C   UNL     1       6.341   8.052   7.379  1.00  0.00     0.014 A 
ATOM     32  C   UNL     1       7.734   6.749   5.901  1.00  0.00     0.014 A 
ATOM     33  C   UNL     1       7.472   8.310   8.153  1.00  0.00     0.010 A 
ATOM     34  C   UNL     1       8.685   6.659   6.860  1.00  0.00     0.010 A 
ATOM     35  C   UNL     1       8.646   7.605   7.862  1.00  0.00    -0.014 A 
BRANCH  35  36
ATOM     36  C   UNL     1       9.908   7.775   8.555  1.00  0.00     0.031 A 
ATOM     37  C   UNL     1       9.893   7.324   9.964  1.00  0.00     0.074 A 
ATOM     38  C   UNL     1      11.047   8.005   7.859  1.00  0.00     0.049 A 
ATOM     39  N   UNL     1      10.035   8.046  11.023  1.00  0.00    -0.248 NA
ATOM     40  C   UNL     1       9.517   5.928  10.238  1.00  0.00     0.031 C 
ATOM     41  C   UNL     1      11.248   8.102   6.402  1.00  0.00     0.029 A 
ATOM     42  N   UNL     1      12.318   8.090   8.330  1.00  0.00    -0.354 N 
ATOM     43  C   UNL     1       9.957   7.166  12.098  1.00  0.00     0.074 A 
ATOM     44  C   UNL     1       9.432   5.937  11.569  1.00  0.00     0.031 C 
ATOM     45  C   UNL     1      12.565   8.003   6.112  1.00  0.00     0.029 A 
ATOM     46  C   UNL     1      13.309   8.005   7.354  1.00  0.00     0.049 A 
ATOM     47  H   UNL     1      12.523   8.201   9.286  1.00  0.00     0.167 HD
ATOM     48  C   UNL     1      10.561   7.458  13.284  1.00  0.00     0.037 A 
ATOM     49  C   UNL     1      14.639   7.890   7.597  1.00  0.00     0.037 A 
ATOM     50  C   UNL     1      10.930   8.854  13.332  1.00  0.00     0.049 A 
ATOM     51  C   UNL     1      14.854   8.341   9.002  1.00  0.00     0.074 A 
ATOM     52  C   UNL     1      10.223  10.040  13.282  1.00  0.00     0.029 A 
ATOM     53  N   UNL     1      12.229   9.186  13.023  1.00  0.00    -0.354 N 
ATOM     54  N   UNL     1      14.654   9.571   9.398  1.00  0.00    -0.248 NA
ATOM     55  C   UNL     1      14.763   7.326  10.044  1.00  0.00     0.031 C 
ATOM     56  C   UNL     1      11.008  10.899  12.457  1.00  0.00     0.029 A 
ATOM     57  C   UNL     1      12.185  10.225  12.127  1.00  0.00     0.049 A 
ATOM     58  H   UNL     1      13.041   8.757  13.380  1.00  0.00     0.167 HD
ATOM     59  C   UNL     1      14.013   9.453  10.625  1.00  0.00     0.074 A 
ATOM     60  C   UNL     1      14.147   8.042  10.989  1.00  0.00     0.031 C 
ATOM     61  C   UNL     1      13.168  10.424  11.086  1.00  0.00     0.037 A 
BRANCH  48  62
ATOM     62  C   UNL     1      11.149   6.445  14.239  1.00  0.00     0.064 A 
ATOM     63  C   UNL     1      11.700   6.907  15.453  1.00  0.00     0.173 A 
ATOM     64  C   UNL     1      11.463   5.109  13.907  1.00  0.00     0.173 A 
ATOM     65  F   UNL     1      11.460   8.154  15.885  1.00  0.00    -0.203 F 
ATOM     66  C   UNL     1      12.586   6.134  16.207  1.00  0.00     0.198 A 
ATOM     67  C   UNL     1      12.306   4.323  14.690  1.00  0.00     0.198 A 
ATOM     68  F   UNL     1      11.062   4.535  12.768  1.00  0.00    -0.203 F 
ATOM     69  F   UNL     1      13.190   6.669  17.277  1.00  0.00    -0.200 F 
ATOM     70  C   UNL     1      12.900   4.846  15.817  1.00  0.00     0.200 A 
ATOM     71  F   UNL     1      12.601   3.077  14.290  1.00  0.00    -0.200 F 
ATOM     72  F   UNL     1      13.803   4.128  16.496  1.00  0.00    -0.200 F 
ENDBRANCH  48  62
BRANCH  49  73
ATOM     73  C   UNL     1      15.627   7.073   6.847  1.00  0.00     0.064 A 
ATOM     74  C   UNL     1      17.009   7.272   6.992  1.00  0.00     0.173 A 
ATOM     75  C   UNL     1      15.236   5.898   6.173  1.00  0.00     0.173 A 
ATOM     76  F   UNL     1      17.468   8.337   7.665  1.00  0.00    -0.203 F 
ATOM     77  C   UNL     1      17.942   6.346   6.504  1.00  0.00     0.198 A 
ATOM     78  C   UNL     1      16.166   4.977   5.684  1.00  0.00     0.198 A 
ATOM     79  F   UNL     1      13.941   5.572   6.057  1.00  0.00    -0.203 F 
ATOM     80  F   UNL     1      19.252   6.544   6.707  1.00  0.00    -0.200 F 
ATOM     81  C   UNL     1      17.518   5.196   5.859  1.00  0.00     0.200 A 
ATOM     82  F   UNL     1      15.739   3.848   5.100  1.00  0.00    -0.200 F 
ATOM     83  F   UNL     1      18.407   4.281   5.445  1.00  0.00    -0.200 F 
ENDBRANCH  49  73
BRANCH  61  84
ATOM     84  C   UNL     1      13.083  11.719  10.321  1.00  0.00     0.064 A 
ATOM     85  C   UNL     1      12.613  11.824   8.999  1.00  0.00     0.173 A 
ATOM     86  C   UNL     1      13.309  12.917  11.010  1.00  0.00     0.173 A 
ATOM     87  F   UNL     1      12.272  10.736   8.301  1.00  0.00    -0.203 F 
ATOM     88  C   UNL     1      12.415  13.063   8.389  1.00  0.00     0.198 A 
ATOM     89  C   UNL     1      13.078  14.154  10.412  1.00  0.00     0.198 A 
ATOM     90  F   UNL     1      13.700  12.887  12.294  1.00  0.00    -0.203 F 
ATOM     91  F   UNL     1      11.965  13.127   7.126  1.00  0.00    -0.200 F 
ATOM     92  C   UNL     1      12.640  14.227   9.100  1.00  0.00     0.200 A 
ATOM     93  F   UNL     1      13.246  15.277  11.123  1.00  0.00    -0.200 F 
ATOM     94  F   UNL     1      12.406  15.419   8.533  1.00  0.00    -0.200 F 
ENDBRANCH  61  84
ENDBRANCH  35  36
ENDBRANCH  27  30
ENDBRANCH  25  26
ENDBRANCH  24  25
ENDBRANCH   1  24
TORSDOF 13
