REMARK SMILES [NH3+][C@]1(C(=O)NCCCNC(=O)c2ccc(-c3c4nc(c(-c5c(F)c(F)c(F)c(F)c5F)c5ccc([nH]5)c(-c5c(F)c(F)c(F)c(F)c5F)c5nc(c(-c6c(F)c(F)c(F)c(F)c6F)c6ccc3[nH]6)C=C5)C=C4)cc2)CCC[C@@H](Oc2ccc3c(c2)CCC3)C1
REMARK SMILES IDX 7 1 6 2 5 3 3 4 4 5 2 7 75 8 89 9 76 10 78 11 77 12 1 13
REMARK SMILES IDX 79 17 80 18 81 19 85 20 82 21 84 22 83 23 86 24 88 25 87 26
REMARK SMILES IDX 8 27 9 28 10 29 11 31 12 32 13 33 74 34 14 35 73 36 15 37
REMARK SMILES IDX 16 38 17 39 67 40 18 41 72 42 66 43 68 44 19 45 71 46 65 47
REMARK SMILES IDX 64 48 20 50 52 51 32 52 51 53 33 54 36 55 50 56 69 57 34 58
REMARK SMILES IDX 35 59 49 61 70 62 37 63 21 64 22 65 30 66 23 67 24 68 28 69
REMARK SMILES IDX 31 70 25 71 26 72 29 73 27 74 53 75 54 76 62 77 55 78 56 79
REMARK SMILES IDX 60 80 63 81 57 82 58 83 61 84 59 85 38 86 39 87 47 88 40 89
REMARK SMILES IDX 41 90 45 91 48 92 42 93 43 94 46 95 44 96
REMARK H PARENT 5 6 1 14 1 15 1 16 9 30 68 49 36 60
REMARK Flexibility Score: inf
ROOT
ATOM      1  C   UNL     1      -1.956   3.472  -1.957  1.00  0.00     0.042 C 
ENDROOT
BRANCH   1   2
ATOM      2  C   UNL     1      -2.822   2.487  -1.152  1.00  0.00     0.118 C 
BRANCH   2   3
ATOM      3  N   UNL     1      -2.642   1.054  -1.373  1.00  0.00    -0.351 N 
ATOM      4  C   UNL     1      -1.969   0.035  -0.734  1.00  0.00     0.281 C 
ATOM      5  O   UNL     1      -2.252  -1.108  -1.112  1.00  0.00    -0.268 OA
ATOM      6  H   UNL     1      -3.117   0.740  -2.175  1.00  0.00     0.163 HD
BRANCH   4   7
ATOM      7  C   UNL     1      -0.984   0.268   0.463  1.00  0.00     0.177 C 
ATOM      8  C   UNL     1      -0.314  -1.055   0.934  1.00  0.00     0.079 C 
ATOM      9  C   UNL     1       0.093   1.343   0.213  1.00  0.00     0.124 C 
ATOM     10  C   UNL     1       0.927  -1.485   0.150  1.00  0.00     0.011 C 
ATOM     11  C   UNL     1       1.399   0.915  -0.505  1.00  0.00     0.180 C 
ATOM     12  C   UNL     1       1.969  -0.379   0.062  1.00  0.00     0.046 C 
BRANCH   7  13
ATOM     13  N   UNL     1      -1.865   0.646   1.607  1.00  0.00    -0.345 N 
ATOM     14  H   UNL     1      -2.566  -0.081   1.751  1.00  0.00     0.345 HD
ATOM     15  H   UNL     1      -2.329   1.530   1.401  1.00  0.00     0.345 HD
ATOM     16  H   UNL     1      -1.301   0.746   2.451  1.00  0.00     0.345 HD
ENDBRANCH   7  13
BRANCH  11  17
ATOM     17  O   UNL     1       1.471   1.078  -1.938  1.00  0.00    -0.490 OA
BRANCH  17  18
ATOM     18  C   UNL     1       0.958   0.110  -2.747  1.00  0.00     0.120 A 
ATOM     19  C   UNL     1       1.698  -0.982  -3.204  1.00  0.00     0.047 A 
ATOM     20  C   UNL     1      -0.323   0.303  -3.231  1.00  0.00     0.050 A 
ATOM     21  C   UNL     1       1.092  -1.959  -4.016  1.00  0.00     0.008 A 
ATOM     22  C   UNL     1      -0.940  -0.668  -3.996  1.00  0.00    -0.041 A 
ATOM     23  C   UNL     1      -0.240  -1.806  -4.376  1.00  0.00    -0.045 A 
ATOM     24  C   UNL     1      -2.383  -0.753  -4.382  1.00  0.00     0.036 C 
ATOM     25  C   UNL     1      -1.151  -2.767  -5.075  1.00  0.00     0.036 C 
ATOM     26  C   UNL     1      -2.354  -1.872  -5.425  1.00  0.00     0.010 C 
ENDBRANCH  17  18
ENDBRANCH  11  17
ENDBRANCH   4   7
ENDBRANCH   2   3
ENDBRANCH   1   2
BRANCH   1  27
ATOM     27  C   UNL     1      -2.035   3.518  -3.482  1.00  0.00     0.118 C 
BRANCH  27  28
ATOM     28  N   UNL     1      -3.333   3.827  -4.033  1.00  0.00    -0.352 N 
ATOM     29  C   UNL     1      -3.737   4.853  -4.853  1.00  0.00     0.251 C 
ATOM     30  H   UNL     1      -4.048   3.199  -3.780  1.00  0.00     0.163 HD
ATOM     31  O   UNL     1      -4.908   4.894  -5.216  1.00  0.00    -0.269 OA
BRANCH  29  32
ATOM     32  C   UNL     1      -2.817   5.946  -5.261  1.00  0.00     0.039 A 
ATOM     33  C   UNL     1      -3.307   7.255  -5.191  1.00  0.00     0.014 A 
ATOM     34  C   UNL     1      -1.527   5.726  -5.754  1.00  0.00     0.014 A 
ATOM     35  C   UNL     1      -2.493   8.336  -5.544  1.00  0.00     0.010 A 
ATOM     36  C   UNL     1      -0.690   6.812  -6.043  1.00  0.00     0.010 A 
ATOM     37  C   UNL     1      -1.162   8.131  -5.936  1.00  0.00    -0.014 A 
BRANCH  37  38
ATOM     38  C   UNL     1      -0.265   9.288  -6.220  1.00  0.00     0.031 A 
ATOM     39  C   UNL     1       0.294   9.512  -7.599  1.00  0.00     0.074 A 
ATOM     40  C   UNL     1       0.077  10.129  -5.222  1.00  0.00     0.049 A 
ATOM     41  N   UNL     1       1.129  10.433  -8.017  1.00  0.00    -0.248 NA
ATOM     42  C   UNL     1      -0.127   8.569  -8.645  1.00  0.00     0.031 C 
ATOM     43  C   UNL     1      -0.371  10.017  -3.833  1.00  0.00     0.029 A 
ATOM     44  N   UNL     1       0.887  11.239  -5.218  1.00  0.00    -0.354 N 
ATOM     45  C   UNL     1       1.336  10.177  -9.366  1.00  0.00     0.074 A 
ATOM     46  C   UNL     1       0.579   8.985  -9.687  1.00  0.00     0.031 C 
ATOM     47  C   UNL     1       0.157  11.021  -3.117  1.00  0.00     0.029 A 
ATOM     48  C   UNL     1       1.018  11.824  -3.981  1.00  0.00     0.049 A 
ATOM     49  H   UNL     1       1.333  11.584  -6.026  1.00  0.00     0.167 HD
ATOM     50  C   UNL     1       2.071  10.882 -10.262  1.00  0.00     0.037 A 
ATOM     51  C   UNL     1       1.759  12.876  -3.580  1.00  0.00     0.037 A 
ATOM     52  C   UNL     1       2.818  12.073  -9.948  1.00  0.00     0.049 A 
ATOM     53  C   UNL     1       2.598  13.617  -4.587  1.00  0.00     0.074 A 
ATOM     54  C   UNL     1       3.563  12.873 -10.798  1.00  0.00     0.029 A 
ATOM     55  N   UNL     1       2.922  12.634  -8.684  1.00  0.00    -0.354 N 
ATOM     56  N   UNL     1       2.739  13.396  -5.871  1.00  0.00    -0.248 NA
ATOM     57  C   UNL     1       3.377  14.760  -4.090  1.00  0.00     0.031 C 
ATOM     58  C   UNL     1       4.161  13.884 -10.040  1.00  0.00     0.029 A 
ATOM     59  C   UNL     1       3.737  13.755  -8.728  1.00  0.00     0.049 A 
ATOM     60  H   UNL     1       2.481  12.287  -7.874  1.00  0.00     0.167 HD
ATOM     61  C   UNL     1       3.590  14.389  -6.339  1.00  0.00     0.074 A 
ATOM     62  C   UNL     1       3.923  15.223  -5.205  1.00  0.00     0.031 C 
ATOM     63  C   UNL     1       4.052  14.591  -7.598  1.00  0.00     0.037 A 
BRANCH  50  64
ATOM     64  C   UNL     1       2.108  10.383 -11.680  1.00  0.00     0.064 A 
ATOM     65  C   UNL     1       0.982  10.451 -12.513  1.00  0.00     0.173 A 
ATOM     66  C   UNL     1       3.300   9.886 -12.230  1.00  0.00     0.173 A 
ATOM     67  F   UNL     1      -0.184  10.914 -12.036  1.00  0.00    -0.203 F 
ATOM     68  C   UNL     1       1.038  10.013 -13.834  1.00  0.00     0.198 A 
ATOM     69  C   UNL     1       3.361   9.480 -13.561  1.00  0.00     0.198 A 
ATOM     70  F   UNL     1       4.411   9.809 -11.483  1.00  0.00    -0.203 F 
ATOM     71  F   UNL     1      -0.064  10.045 -14.596  1.00  0.00    -0.200 F 
ATOM     72  C   UNL     1       2.229   9.536 -14.359  1.00  0.00     0.200 A 
ATOM     73  F   UNL     1       4.518   9.036 -14.072  1.00  0.00    -0.200 F 
ATOM     74  F   UNL     1       2.285   9.127 -15.634  1.00  0.00    -0.200 F 
ENDBRANCH  50  64
BRANCH  51  75
ATOM     75  C   UNL     1       1.748  13.296  -2.152  1.00  0.00     0.064 A 
ATOM     76  C   UNL     1       1.204  14.528  -1.763  1.00  0.00     0.173 A 
ATOM     77  C   UNL     1       2.308  12.487  -1.151  1.00  0.00     0.173 A 
ATOM     78  F   UNL     1       0.678  15.348  -2.684  1.00  0.00    -0.203 F 
ATOM     79  C   UNL     1       1.247  14.948  -0.434  1.00  0.00     0.198 A 
ATOM     80  C   UNL     1       2.318  12.892   0.182  1.00  0.00     0.198 A 
ATOM     81  F   UNL     1       2.838  11.296  -1.467  1.00  0.00    -0.203 F 
ATOM     82  F   UNL     1       0.774  16.157  -0.101  1.00  0.00    -0.200 F 
ATOM     83  C   UNL     1       1.799  14.127   0.537  1.00  0.00     0.200 A 
ATOM     84  F   UNL     1       2.838  12.089   1.120  1.00  0.00    -0.200 F 
ATOM     85  F   UNL     1       1.841  14.531   1.814  1.00  0.00    -0.200 F 
ENDBRANCH  51  75
BRANCH  63  86
ATOM     86  C   UNL     1       4.928  15.790  -7.833  1.00  0.00     0.064 A 
ATOM     87  C   UNL     1       6.237  15.863  -7.334  1.00  0.00     0.173 A 
ATOM     88  C   UNL     1       4.461  16.865  -8.605  1.00  0.00     0.173 A 
ATOM     89  F   UNL     1       6.727  14.869  -6.577  1.00  0.00    -0.203 F 
ATOM     90  C   UNL     1       7.035  16.978  -7.577  1.00  0.00     0.198 A 
ATOM     91  C   UNL     1       5.274  17.963  -8.875  1.00  0.00     0.198 A 
ATOM     92  F   UNL     1       3.219  16.846  -9.113  1.00  0.00    -0.203 F 
ATOM     93  F   UNL     1       8.264  17.048  -7.047  1.00  0.00    -0.200 F 
ATOM     94  C   UNL     1       6.557  18.022  -8.354  1.00  0.00     0.200 A 
ATOM     95  F   UNL     1       4.814  18.964  -9.639  1.00  0.00    -0.200 F 
ATOM     96  F   UNL     1       7.330  19.090  -8.594  1.00  0.00    -0.200 F 
ENDBRANCH  63  86
ENDBRANCH  37  38
ENDBRANCH  29  32
ENDBRANCH  27  28
ENDBRANCH   1  27
TORSDOF 13
