REMARK SMILES CCCCSCC(=O)Nc1sc(C)c(C)c1C(=O)NCCCNC(=O)c1ccc(-c2c3nc(c(-c4c(F)c(F)c(F)c(F)c4F)c4ccc([nH]4)c(-c4c(F)c(F)c(F)c(F)c4F)c4nc(c(-c5c(F)c(F)c(F)c(F)c5F)c5ccc2[nH]5)C=C4)C=C3)cc1
REMARK SMILES IDX 17 1 18 2 19 3 16 5 10 6 11 7 12 8 14 9 13 10 15 11 9 12
REMARK SMILES IDX 7 13 8 14 6 16 5 17 4 18 3 19 2 20 1 21 20 22 21 23 22 24
REMARK SMILES IDX 23 25 24 26 25 28 26 29 27 30 88 31 28 32 87 33 29 34 30 35
REMARK SMILES IDX 31 36 81 37 32 38 86 39 80 40 82 41 33 42 85 43 79 44 78 45
REMARK SMILES IDX 34 47 66 48 46 49 65 50 47 51 50 52 64 53 83 54 48 55 49 56
REMARK SMILES IDX 63 58 84 59 51 60 35 61 36 62 44 63 37 64 38 65 42 66 45 67
REMARK SMILES IDX 39 68 40 69 43 70 41 71 67 72 68 73 76 74 69 75 70 76 74 77
REMARK SMILES IDX 77 78 71 79 72 80 75 81 73 82 52 83 53 84 61 85 54 86 55 87
REMARK SMILES IDX 59 88 62 89 56 90 57 91 60 92 58 93
REMARK H PARENT 19 4 9 15 23 27 82 46 50 57
REMARK Flexibility Score: inf
ROOT
ATOM      1  C   UNL     1      -3.838  -4.782   0.225  1.00  0.00     0.254 C 
ATOM      2  O   UNL     1      -4.475  -5.821   0.406  1.00  0.00    -0.269 OA
ATOM      3  N   UNL     1      -3.544  -4.089   1.381  1.00  0.00    -0.352 N 
ATOM      4  H   UNL     1      -3.902  -4.498   2.202  1.00  0.00     0.163 HD
ENDROOT
BRANCH   1   5
ATOM      5  C   UNL     1      -3.489  -4.336  -1.149  1.00  0.00     0.077 A 
ATOM      6  C   UNL     1      -2.449  -3.530  -1.589  1.00  0.00     0.108 A 
ATOM      7  S   UNL     1      -2.341  -3.400  -3.277  1.00  0.00    -0.122 S 
ATOM      8  C   UNL     1      -3.791  -4.235  -3.514  1.00  0.00     0.007 A 
ATOM      9  C   UNL     1      -4.290  -4.744  -2.324  1.00  0.00    -0.022 A 
ATOM     10  C   UNL     1      -4.322  -4.367  -4.903  1.00  0.00     0.057 C 
ATOM     11  C   UNL     1      -5.517  -5.606  -2.248  1.00  0.00     0.046 C 
BRANCH   6  12
ATOM     12  N   UNL     1      -1.377  -2.975  -0.934  1.00  0.00    -0.316 N 
ATOM     13  C   UNL     1      -1.203  -1.623  -0.758  1.00  0.00     0.234 C 
ATOM     14  O   UNL     1      -0.470  -1.283   0.178  1.00  0.00    -0.274 OA
ATOM     15  H   UNL     1      -0.693  -3.581  -0.568  1.00  0.00     0.170 HD
BRANCH  13  16
ATOM     16  C   UNL     1      -1.986  -0.573  -1.529  1.00  0.00     0.169 C 
BRANCH  16  17
ATOM     17  S   UNL     1      -1.257  -0.060  -3.116  1.00  0.00    -0.152 SA
BRANCH  17  18
ATOM     18  C   UNL     1       0.527  -0.364  -2.874  1.00  0.00     0.070 C 
BRANCH  18  19
ATOM     19  C   UNL     1       1.306   0.883  -2.455  1.00  0.00     0.011 C 
BRANCH  19  20
ATOM     20  C   UNL     1       1.085   1.358  -1.018  1.00  0.00    -0.003 C 
ATOM     21  C   UNL     1       1.837   0.521   0.007  1.00  0.00     0.004 C 
ENDBRANCH  19  20
ENDBRANCH  18  19
ENDBRANCH  17  18
ENDBRANCH  16  17
ENDBRANCH  13  16
ENDBRANCH   6  12
ENDBRANCH   1   5
BRANCH   3  22
ATOM     22  C   UNL     1      -2.806  -2.873   1.595  1.00  0.00     0.118 C 
BRANCH  22  23
ATOM     23  C   UNL     1      -3.259  -1.954   2.709  1.00  0.00     0.042 C 
BRANCH  23  24
ATOM     24  C   UNL     1      -3.277  -2.541   4.105  1.00  0.00     0.118 C 
BRANCH  24  25
ATOM     25  N   UNL     1      -1.964  -2.868   4.640  1.00  0.00    -0.352 N 
ATOM     26  C   UNL     1      -1.180  -2.279   5.608  1.00  0.00     0.251 C 
ATOM     27  H   UNL     1      -1.556  -3.664   4.230  1.00  0.00     0.163 HD
ATOM     28  O   UNL     1      -0.058  -2.732   5.811  1.00  0.00    -0.269 OA
BRANCH  26  29
ATOM     29  C   UNL     1      -1.631  -1.093   6.380  1.00  0.00     0.039 A 
ATOM     30  C   UNL     1      -0.676  -0.147   6.770  1.00  0.00     0.014 A 
ATOM     31  C   UNL     1      -2.959  -0.899   6.753  1.00  0.00     0.014 A 
ATOM     32  C   UNL     1      -1.070   1.014   7.444  1.00  0.00     0.010 A 
ATOM     33  C   UNL     1      -3.371   0.319   7.287  1.00  0.00     0.010 A 
ATOM     34  C   UNL     1      -2.431   1.287   7.657  1.00  0.00    -0.014 A 
BRANCH  34  35
ATOM     35  C   UNL     1      -2.874   2.572   8.262  1.00  0.00     0.031 A 
ATOM     36  C   UNL     1      -3.690   2.595   9.528  1.00  0.00     0.074 A 
ATOM     37  C   UNL     1      -2.586   3.729   7.634  1.00  0.00     0.049 A 
ATOM     38  N   UNL     1      -4.149   3.623  10.200  1.00  0.00    -0.248 NA
ATOM     39  C   UNL     1      -4.079   1.295  10.095  1.00  0.00     0.031 C 
ATOM     40  C   UNL     1      -1.887   3.842   6.352  1.00  0.00     0.029 A 
ATOM     41  N   UNL     1      -2.842   5.031   7.985  1.00  0.00    -0.354 N 
ATOM     42  C   UNL     1      -4.889   3.092  11.249  1.00  0.00     0.074 A 
ATOM     43  C   UNL     1      -4.883   1.656  11.082  1.00  0.00     0.031 C 
ATOM     44  C   UNL     1      -1.727   5.139   6.049  1.00  0.00     0.029 A 
ATOM     45  C   UNL     1      -2.345   5.949   7.093  1.00  0.00     0.049 A 
ATOM     46  H   UNL     1      -3.336   5.283   8.800  1.00  0.00     0.167 HD
ATOM     47  C   UNL     1      -5.494   3.737  12.276  1.00  0.00     0.037 A 
ATOM     48  C   UNL     1      -2.376   7.295   7.114  1.00  0.00     0.037 A 
ATOM     49  C   UNL     1      -5.479   5.168  12.447  1.00  0.00     0.049 A 
ATOM     50  C   UNL     1      -3.014   7.993   8.282  1.00  0.00     0.074 A 
ATOM     51  C   UNL     1      -5.986   5.918  13.493  1.00  0.00     0.029 A 
ATOM     52  N   UNL     1      -4.938   6.066  11.538  1.00  0.00    -0.354 N 
ATOM     53  N   UNL     1      -3.619   7.477   9.325  1.00  0.00    -0.248 NA
ATOM     54  C   UNL     1      -2.956   9.460   8.285  1.00  0.00     0.031 C 
ATOM     55  C   UNL     1      -5.810   7.272  13.185  1.00  0.00     0.029 A 
ATOM     56  C   UNL     1      -5.128   7.366  11.983  1.00  0.00     0.049 A 
ATOM     57  H   UNL     1      -4.485   5.817  10.700  1.00  0.00     0.167 HD
ATOM     58  C   UNL     1      -3.998   8.552  10.117  1.00  0.00     0.074 A 
ATOM     59  C   UNL     1      -3.529   9.747   9.445  1.00  0.00     0.031 C 
ATOM     60  C   UNL     1      -4.674   8.549  11.294  1.00  0.00     0.037 A 
BRANCH  47  61
ATOM     61  C   UNL     1      -6.228   2.897  13.286  1.00  0.00     0.064 A 
ATOM     62  C   UNL     1      -5.560   1.994  14.130  1.00  0.00     0.173 A 
ATOM     63  C   UNL     1      -7.622   2.997  13.416  1.00  0.00     0.173 A 
ATOM     64  F   UNL     1      -4.229   1.848  14.046  1.00  0.00    -0.203 F 
ATOM     65  C   UNL     1      -6.262   1.190  15.025  1.00  0.00     0.198 A 
ATOM     66  C   UNL     1      -8.317   2.221  14.341  1.00  0.00     0.198 A 
ATOM     67  F   UNL     1      -8.315   3.848  12.644  1.00  0.00    -0.203 F 
ATOM     68  F   UNL     1      -5.608   0.283  15.764  1.00  0.00    -0.200 F 
ATOM     69  C   UNL     1      -7.639   1.308  15.133  1.00  0.00     0.200 A 
ATOM     70  F   UNL     1      -9.646   2.348  14.455  1.00  0.00    -0.200 F 
ATOM     71  F   UNL     1      -8.314   0.533  15.994  1.00  0.00    -0.200 F 
ENDBRANCH  47  61
BRANCH  48  72
ATOM     72  C   UNL     1      -1.741   8.058   6.008  1.00  0.00     0.064 A 
ATOM     73  C   UNL     1      -0.554   8.775   6.210  1.00  0.00     0.173 A 
ATOM     74  C   UNL     1      -2.286   8.051   4.715  1.00  0.00     0.173 A 
ATOM     75  F   UNL     1      -0.003   8.828   7.432  1.00  0.00    -0.203 F 
ATOM     76  C   UNL     1       0.058   9.465   5.165  1.00  0.00     0.198 A 
ATOM     77  C   UNL     1      -1.656   8.715   3.664  1.00  0.00     0.198 A 
ATOM     78  F   UNL     1      -3.415   7.371   4.466  1.00  0.00    -0.203 F 
ATOM     79  F   UNL     1       1.173  10.172   5.394  1.00  0.00    -0.200 F 
ATOM     80  C   UNL     1      -0.488   9.426   3.891  1.00  0.00     0.200 A 
ATOM     81  F   UNL     1      -2.177   8.658   2.431  1.00  0.00    -0.200 F 
ATOM     82  F   UNL     1       0.110  10.075   2.883  1.00  0.00    -0.200 F 
ENDBRANCH  48  72
BRANCH  60  83
ATOM     83  C   UNL     1      -4.926   9.884  11.938  1.00  0.00     0.064 A 
ATOM     84  C   UNL     1      -5.800  10.826  11.373  1.00  0.00     0.173 A 
ATOM     85  C   UNL     1      -4.286  10.225  13.140  1.00  0.00     0.173 A 
ATOM     86  F   UNL     1      -6.429  10.557  10.219  1.00  0.00    -0.203 F 
ATOM     87  C   UNL     1      -5.985  12.075  11.961  1.00  0.00     0.198 A 
ATOM     88  C   UNL     1      -4.504  11.459  13.746  1.00  0.00     0.198 A 
ATOM     89  F   UNL     1      -3.448   9.359  13.731  1.00  0.00    -0.203 F 
ATOM     90  F   UNL     1      -6.768  12.984  11.364  1.00  0.00    -0.200 F 
ATOM     91  C   UNL     1      -5.342  12.388  13.149  1.00  0.00     0.200 A 
ATOM     92  F   UNL     1      -3.895  11.753  14.903  1.00  0.00    -0.200 F 
ATOM     93  F   UNL     1      -5.519  13.591  13.711  1.00  0.00    -0.200 F 
ENDBRANCH  60  83
ENDBRANCH  34  35
ENDBRANCH  26  29
ENDBRANCH  24  25
ENDBRANCH  23  24
ENDBRANCH  22  23
ENDBRANCH   3  22
TORSDOF 16
