REMARK SMILES O=C(NCCCNC(=O)c1ccccc1-c1ccccc1C(=O)NCCc1ccccc1)c1ccc(-c2c3nc(c(-c4c(F)c(F)c(F)c(F)c4F)c4ccc([nH]4)c(-c4c(F)c(F)c(F)c(F)c4F)c4nc(c(-c5c(F)c(F)c(F)c(F)c5F)c5ccc2[nH]5)C=C4)C=C3)cc1
REMARK SMILES IDX 7 1 8 2 9 3 6 5 5 6 4 7 3 8 1 9 2 10 33 12 34 13 95 14 35 15
REMARK SMILES IDX 94 16 36 17 37 18 38 19 88 20 39 21 93 22 87 23 89 24 40 25
REMARK SMILES IDX 92 26 86 27 85 28 41 30 73 31 53 32 72 33 54 34 57 35 71 36
REMARK SMILES IDX 90 37 55 38 56 39 70 41 91 42 58 43 42 44 43 45 51 46 44 47
REMARK SMILES IDX 45 48 49 49 52 50 46 51 47 52 50 53 48 54 74 55 75 56 83 57
REMARK SMILES IDX 76 58 77 59 81 60 84 61 78 62 79 63 82 64 80 65 59 66 60 67
REMARK SMILES IDX 68 68 61 69 62 70 66 71 69 72 63 73 64 74 67 75 65 76 10 77
REMARK SMILES IDX 11 78 15 79 12 80 14 81 13 82 16 83 17 84 21 85 18 86 20 87
REMARK SMILES IDX 19 88 22 89 23 90 24 91 25 93 26 94 27 95 28 96 32 97 29 98
REMARK SMILES IDX 31 99 30 100
REMARK H PARENT 7 4 3 11 89 29 57 40 24 92
REMARK Flexibility Score: inf
ROOT
ATOM      1  N   UNL     1       4.982   2.052  -3.420  1.00  0.00    -0.352 N 
ATOM      2  C   UNL     1       6.013   2.367  -4.255  1.00  0.00     0.251 C 
ATOM      3  O   UNL     1       6.652   3.401  -4.091  1.00  0.00    -0.269 OA
ATOM      4  H   UNL     1       4.582   2.805  -2.928  1.00  0.00     0.163 HD
ENDROOT
BRANCH   1   5
ATOM      5  C   UNL     1       4.398   0.747  -3.163  1.00  0.00     0.118 C 
BRANCH   5   6
ATOM      6  C   UNL     1       4.879   0.205  -1.834  1.00  0.00     0.042 C 
BRANCH   6   7
ATOM      7  C   UNL     1       4.441   1.109  -0.696  1.00  0.00     0.118 C 
BRANCH   7   8
ATOM      8  N   UNL     1       3.011   0.990  -0.423  1.00  0.00    -0.352 N 
ATOM      9  O   UNL     1       1.110  -0.036   0.237  1.00  0.00    -0.269 OA
ATOM     10  C   UNL     1       2.322   0.067   0.335  1.00  0.00     0.251 C 
ATOM     11  H   UNL     1       2.450   1.679  -0.848  1.00  0.00     0.163 HD
BRANCH  10  12
ATOM     12  C   UNL     1       3.075  -0.822   1.246  1.00  0.00     0.039 A 
ATOM     13  C   UNL     1       4.170  -0.323   1.939  1.00  0.00     0.014 A 
ATOM     14  C   UNL     1       2.696  -2.157   1.417  1.00  0.00     0.014 A 
ATOM     15  C   UNL     1       5.032  -1.190   2.577  1.00  0.00     0.010 A 
ATOM     16  C   UNL     1       3.465  -2.995   2.236  1.00  0.00     0.010 A 
ATOM     17  C   UNL     1       4.661  -2.525   2.796  1.00  0.00    -0.014 A 
BRANCH  17  18
ATOM     18  C   UNL     1       5.520  -3.325   3.707  1.00  0.00     0.031 A 
ATOM     19  C   UNL     1       6.200  -4.583   3.255  1.00  0.00     0.074 A 
ATOM     20  C   UNL     1       5.763  -2.818   4.934  1.00  0.00     0.049 A 
ATOM     21  N   UNL     1       7.049  -5.335   3.911  1.00  0.00    -0.248 NA
ATOM     22  C   UNL     1       5.884  -5.078   1.907  1.00  0.00     0.031 C 
ATOM     23  C   UNL     1       5.133  -1.611   5.482  1.00  0.00     0.029 A 
ATOM     24  N   UNL     1       6.642  -3.198   5.914  1.00  0.00    -0.354 N 
ATOM     25  C   UNL     1       7.346  -6.399   3.072  1.00  0.00     0.074 A 
ATOM     26  C   UNL     1       6.573  -6.210   1.863  1.00  0.00     0.031 C 
ATOM     27  C   UNL     1       5.725  -1.286   6.637  1.00  0.00     0.029 A 
ATOM     28  C   UNL     1       6.694  -2.319   6.970  1.00  0.00     0.049 A 
ATOM     29  H   UNL     1       7.182  -4.020   5.867  1.00  0.00     0.167 HD
ATOM     30  C   UNL     1       8.193  -7.433   3.296  1.00  0.00     0.037 A 
ATOM     31  C   UNL     1       7.426  -2.347   8.097  1.00  0.00     0.037 A 
ATOM     32  C   UNL     1       8.970  -7.595   4.500  1.00  0.00     0.049 A 
ATOM     33  C   UNL     1       8.366  -3.496   8.304  1.00  0.00     0.074 A 
ATOM     34  C   UNL     1       9.849  -8.612   4.831  1.00  0.00     0.029 A 
ATOM     35  N   UNL     1       8.968  -6.708   5.568  1.00  0.00    -0.354 N 
ATOM     36  N   UNL     1       8.623  -4.503   7.506  1.00  0.00    -0.248 NA
ATOM     37  C   UNL     1       9.104  -3.522   9.571  1.00  0.00     0.031 C 
ATOM     38  C   UNL     1      10.352  -8.358   6.112  1.00  0.00     0.029 A 
ATOM     39  C   UNL     1       9.823  -7.159   6.562  1.00  0.00     0.049 A 
ATOM     40  H   UNL     1       8.436  -5.880   5.613  1.00  0.00     0.167 HD
ATOM     41  C   UNL     1       9.545  -5.290   8.176  1.00  0.00     0.074 A 
ATOM     42  C   UNL     1       9.838  -4.616   9.425  1.00  0.00     0.031 C 
ATOM     43  C   UNL     1      10.086  -6.475   7.802  1.00  0.00     0.037 A 
BRANCH  30  44
ATOM     44  C   UNL     1       8.313  -8.482   2.229  1.00  0.00     0.064 A 
ATOM     45  C   UNL     1       8.982  -8.234   1.022  1.00  0.00     0.173 A 
ATOM     46  C   UNL     1       7.799  -9.772   2.438  1.00  0.00     0.173 A 
ATOM     47  F   UNL     1       9.479  -7.014   0.764  1.00  0.00    -0.203 F 
ATOM     48  C   UNL     1       9.120  -9.231   0.059  1.00  0.00     0.198 A 
ATOM     49  C   UNL     1       7.961 -10.774   1.485  1.00  0.00     0.198 A 
ATOM     50  F   UNL     1       7.152 -10.065   3.577  1.00  0.00    -0.203 F 
ATOM     51  F   UNL     1       9.732  -8.960  -1.102  1.00  0.00    -0.200 F 
ATOM     52  C   UNL     1       8.617 -10.502   0.294  1.00  0.00     0.200 A 
ATOM     53  F   UNL     1       7.484 -12.005   1.720  1.00  0.00    -0.200 F 
ATOM     54  F   UNL     1       8.761 -11.464  -0.628  1.00  0.00    -0.200 F 
ENDBRANCH  30  44
BRANCH  31  55
ATOM     55  C   UNL     1       7.261  -1.277   9.114  1.00  0.00     0.064 A 
ATOM     56  C   UNL     1       8.300  -0.384   9.410  1.00  0.00     0.173 A 
ATOM     57  C   UNL     1       6.047  -1.113   9.800  1.00  0.00     0.173 A 
ATOM     58  F   UNL     1       9.486  -0.508   8.795  1.00  0.00    -0.203 F 
ATOM     59  C   UNL     1       8.135   0.620  10.362  1.00  0.00     0.198 A 
ATOM     60  C   UNL     1       5.871  -0.086  10.723  1.00  0.00     0.198 A 
ATOM     61  F   UNL     1       5.018  -1.936   9.550  1.00  0.00    -0.203 F 
ATOM     62  F   UNL     1       9.159   1.433  10.659  1.00  0.00    -0.200 F 
ATOM     63  C   UNL     1       6.918   0.774  11.011  1.00  0.00     0.200 A 
ATOM     64  F   UNL     1       4.686   0.072  11.327  1.00  0.00    -0.200 F 
ATOM     65  F   UNL     1       6.757   1.748  11.916  1.00  0.00    -0.200 F 
ENDBRANCH  31  55
BRANCH  43  66
ATOM     66  C   UNL     1      11.049  -7.101   8.765  1.00  0.00     0.064 A 
ATOM     67  C   UNL     1      10.610  -7.665   9.973  1.00  0.00     0.173 A 
ATOM     68  C   UNL     1      12.422  -7.129   8.483  1.00  0.00     0.173 A 
ATOM     69  F   UNL     1       9.308  -7.642  10.295  1.00  0.00    -0.203 F 
ATOM     70  C   UNL     1      11.518  -8.200  10.881  1.00  0.00     0.198 A 
ATOM     71  C   UNL     1      13.323  -7.693   9.380  1.00  0.00     0.198 A 
ATOM     72  F   UNL     1      12.888  -6.606   7.339  1.00  0.00    -0.203 F 
ATOM     73  F   UNL     1      11.084  -8.676  12.056  1.00  0.00    -0.200 F 
ATOM     74  C   UNL     1      12.872  -8.218  10.583  1.00  0.00     0.200 A 
ATOM     75  F   UNL     1      14.630  -7.717   9.088  1.00  0.00    -0.200 F 
ATOM     76  F   UNL     1      13.746  -8.728  11.461  1.00  0.00    -0.200 F 
ENDBRANCH  43  66
ENDBRANCH  17  18
ENDBRANCH  10  12
ENDBRANCH   7   8
ENDBRANCH   6   7
ENDBRANCH   5   6
ENDBRANCH   1   5
BRANCH   2  77
ATOM     77  C   UNL     1       6.350   1.461  -5.370  1.00  0.00     0.047 A 
ATOM     78  C   UNL     1       7.718   1.182  -5.539  1.00  0.00     0.014 A 
ATOM     79  C   UNL     1       5.389   0.999  -6.301  1.00  0.00    -0.005 A 
ATOM     80  C   UNL     1       8.152   0.407  -6.611  1.00  0.00     0.001 A 
ATOM     81  C   UNL     1       5.863   0.186  -7.355  1.00  0.00     0.009 A 
ATOM     82  C   UNL     1       7.223  -0.099  -7.513  1.00  0.00     0.001 A 
BRANCH  79  83
ATOM     83  C   UNL     1       3.932   1.302  -6.240  1.00  0.00    -0.005 A 
ATOM     84  C   UNL     1       3.073   0.168  -6.154  1.00  0.00     0.009 A 
ATOM     85  C   UNL     1       3.330   2.583  -6.152  1.00  0.00     0.047 A 
ATOM     86  C   UNL     1       1.704   0.273  -5.910  1.00  0.00     0.001 A 
ATOM     87  C   UNL     1       1.936   2.659  -5.897  1.00  0.00     0.014 A 
ATOM     88  C   UNL     1       1.135   1.525  -5.764  1.00  0.00     0.001 A 
BRANCH  85  89
ATOM     89  C   UNL     1       3.987   3.934  -6.181  1.00  0.00     0.251 C 
ATOM     90  O   UNL     1       3.533   4.811  -5.439  1.00  0.00    -0.269 OA
ATOM     91  N   UNL     1       5.009   4.293  -7.023  1.00  0.00    -0.352 N 
ATOM     92  H   UNL     1       5.236   5.250  -7.009  1.00  0.00     0.163 HD
BRANCH  91  93
ATOM     93  C   UNL     1       5.807   3.497  -7.928  1.00  0.00     0.121 C 
BRANCH  93  94
ATOM     94  C   UNL     1       6.409   4.234  -9.118  1.00  0.00     0.057 C 
BRANCH  94  95
ATOM     95  C   UNL     1       7.587   5.106  -8.760  1.00  0.00    -0.046 A 
ATOM     96  C   UNL     1       8.864   4.550  -8.578  1.00  0.00     0.004 A 
ATOM     97  C   UNL     1       7.422   6.487  -8.615  1.00  0.00     0.004 A 
ATOM     98  C   UNL     1       9.958   5.367  -8.286  1.00  0.00     0.000 A 
ATOM     99  C   UNL     1       8.516   7.302  -8.322  1.00  0.00     0.000 A 
ATOM    100  C   UNL     1       9.784   6.744  -8.164  1.00  0.00     0.000 A 
ENDBRANCH  94  95
ENDBRANCH  93  94
ENDBRANCH  91  93
ENDBRANCH  85  89
ENDBRANCH  79  83
ENDBRANCH   2  77
TORSDOF 15
