REMARK SMILES Cc1noc(C)c1CNc1cnc(C(=O)NCCCNC(=O)c2ccc(-c3c4nc(c(-c5c(F)c(F)c(F)c(F)c5F)c5ccc([nH]5)c(-c5c(F)c(F)c(F)c(F)c5F)c5nc(c(-c6c(F)c(F)c(F)c(F)c6F)c6ccc3[nH]6)C=C5)C=C4)cc2)cn1
REMARK SMILES IDX 17 1 16 2 14 3 15 4 13 6 10 7 11 8 87 9 12 10 86 11 9 12
REMARK SMILES IDX 8 14 7 15 1 16 2 17 3 18 4 19 5 20 6 21 18 22 19 23 20 24
REMARK SMILES IDX 21 25 22 27 23 28 24 29 85 30 25 31 84 32 26 33 27 34 28 35
REMARK SMILES IDX 78 36 29 37 83 38 77 39 79 40 30 41 82 42 76 43 75 44 31 46
REMARK SMILES IDX 63 47 43 48 62 49 44 50 47 51 61 52 80 53 45 54 46 55 60 57
REMARK SMILES IDX 81 58 48 59 32 60 33 61 41 62 34 63 35 64 39 65 42 66 36 67
REMARK SMILES IDX 37 68 40 69 38 70 64 71 65 72 73 73 66 74 67 75 71 76 74 77
REMARK SMILES IDX 68 78 69 79 72 80 70 81 49 82 50 83 58 84 51 85 52 86 56 87
REMARK SMILES IDX 59 88 53 89 54 90 57 91 55 92
REMARK H PARENT 16 5 9 13 20 26 79 45 47 56
REMARK Flexibility Score: inf
ROOT
ATOM      1  C   UNL     1      -4.343   7.568   1.506  1.00  0.00     0.118 C 
ENDROOT
BRANCH   1   2
ATOM      2  N   UNL     1      -5.274   7.159   0.468  1.00  0.00    -0.351 N 
ATOM      3  C   UNL     1      -5.123   6.282  -0.582  1.00  0.00     0.271 C 
ATOM      4  O   UNL     1      -6.087   6.109  -1.329  1.00  0.00    -0.267 OA
ATOM      5  H   UNL     1      -6.162   7.580   0.525  1.00  0.00     0.163 HD
BRANCH   3   6
ATOM      6  C   UNL     1      -3.866   5.517  -0.823  1.00  0.00     0.146 A 
ATOM      7  C   UNL     1      -1.721   3.896  -1.199  1.00  0.00     0.144 A 
ATOM      8  C   UNL     1      -1.703   4.970  -0.310  1.00  0.00     0.158 A 
ATOM      9  N   UNL     1      -2.809   3.669  -1.960  1.00  0.00    -0.235 NA
ATOM     10  N   UNL     1      -2.754   5.800  -0.104  1.00  0.00    -0.246 NA
ATOM     11  C   UNL     1      -3.877   4.486  -1.751  1.00  0.00     0.147 A 
BRANCH   7  12
ATOM     12  N   UNL     1      -0.696   2.992  -1.338  1.00  0.00    -0.365 N 
ATOM     13  H   UNL     1      -0.431   2.690  -2.236  1.00  0.00     0.162 HD
BRANCH  12  14
ATOM     14  C   UNL     1       0.001   2.478  -0.173  1.00  0.00     0.156 C 
BRANCH  14  15
ATOM     15  C   UNL     1       0.039   0.994  -0.073  1.00  0.00     0.037 A 
ATOM     16  C   UNL     1      -2.511   0.405  -0.005  1.00  0.00     0.071 C 
ATOM     17  C   UNL     1      -1.061   0.093   0.005  1.00  0.00     0.086 A 
ATOM     18  N   UNL     1      -0.646  -1.175   0.097  1.00  0.00    -0.085 NA
ATOM     19  O   UNL     1       0.734  -1.123   0.083  1.00  0.00    -0.361 OA
ATOM     20  C   UNL     1       1.140   0.169  -0.015  1.00  0.00     0.138 A 
ATOM     21  C   UNL     1       2.596   0.400  -0.029  1.00  0.00     0.091 C 
ENDBRANCH  14  15
ENDBRANCH  12  14
ENDBRANCH   7  12
ENDBRANCH   3   6
ENDBRANCH   1   2
BRANCH   1  22
ATOM     22  C   UNL     1      -3.683   8.900   1.170  1.00  0.00     0.042 C 
BRANCH  22  23
ATOM     23  C   UNL     1      -4.639  10.081   1.316  1.00  0.00     0.118 C 
BRANCH  23  24
ATOM     24  N   UNL     1      -5.065  10.277   2.700  1.00  0.00    -0.352 N 
ATOM     25  C   UNL     1      -4.906  11.358   3.526  1.00  0.00     0.251 C 
ATOM     26  H   UNL     1      -5.541   9.514   3.100  1.00  0.00     0.163 HD
ATOM     27  O   UNL     1      -5.137  11.254   4.730  1.00  0.00    -0.269 OA
BRANCH  25  28
ATOM     28  C   UNL     1      -4.453  12.648   2.974  1.00  0.00     0.039 A 
ATOM     29  C   UNL     1      -3.504  13.399   3.675  1.00  0.00     0.014 A 
ATOM     30  C   UNL     1      -4.981  13.124   1.772  1.00  0.00     0.014 A 
ATOM     31  C   UNL     1      -3.036  14.598   3.135  1.00  0.00     0.010 A 
ATOM     32  C   UNL     1      -4.454  14.272   1.197  1.00  0.00     0.010 A 
ATOM     33  C   UNL     1      -3.483  15.026   1.876  1.00  0.00    -0.014 A 
BRANCH  33  34
ATOM     34  C   UNL     1      -2.990  16.273   1.243  1.00  0.00     0.031 A 
ATOM     35  C   UNL     1      -3.962  17.381   0.949  1.00  0.00     0.074 A 
ATOM     36  C   UNL     1      -1.709  16.364   0.838  1.00  0.00     0.049 A 
ATOM     37  N   UNL     1      -3.795  18.466   0.236  1.00  0.00    -0.248 NA
ATOM     38  C   UNL     1      -5.318  17.228   1.501  1.00  0.00     0.031 C 
ATOM     39  C   UNL     1      -0.680  15.347   1.048  1.00  0.00     0.029 A 
ATOM     40  N   UNL     1      -1.063  17.353   0.139  1.00  0.00    -0.354 N 
ATOM     41  C   UNL     1      -5.028  19.104   0.231  1.00  0.00     0.074 A 
ATOM     42  C   UNL     1      -5.947  18.263   0.967  1.00  0.00     0.031 C 
ATOM     43  C   UNL     1       0.470  15.765   0.494  1.00  0.00     0.029 A 
ATOM     44  C   UNL     1       0.246  17.053  -0.154  1.00  0.00     0.049 A 
ATOM     45  H   UNL     1      -1.495  18.196  -0.127  1.00  0.00     0.167 HD
ATOM     46  C   UNL     1      -5.358  20.294  -0.324  1.00  0.00     0.037 A 
ATOM     47  C   UNL     1       1.151  17.730  -0.886  1.00  0.00     0.037 A 
ATOM     48  C   UNL     1      -4.429  21.135  -1.030  1.00  0.00     0.049 A 
ATOM     49  C   UNL     1       0.754  19.041  -1.514  1.00  0.00     0.074 A 
ATOM     50  C   UNL     1      -4.647  22.383  -1.586  1.00  0.00     0.029 A 
ATOM     51  N   UNL     1      -3.102  20.811  -1.276  1.00  0.00    -0.354 N 
ATOM     52  N   UNL     1      -0.401  19.660  -1.475  1.00  0.00    -0.248 NA
ATOM     53  C   UNL     1       1.786  19.749  -2.285  1.00  0.00     0.031 C 
ATOM     54  C   UNL     1      -3.468  22.790  -2.217  1.00  0.00     0.029 A 
ATOM     55  C   UNL     1      -2.495  21.828  -1.994  1.00  0.00     0.049 A 
ATOM     56  H   UNL     1      -2.659  19.982  -0.984  1.00  0.00     0.167 HD
ATOM     57  C   UNL     1      -0.223  20.848  -2.173  1.00  0.00     0.074 A 
ATOM     58  C   UNL     1       1.151  20.861  -2.629  1.00  0.00     0.031 C 
ATOM     59  C   UNL     1      -1.115  21.840  -2.408  1.00  0.00     0.037 A 
BRANCH  46  60
ATOM     60  C   UNL     1      -6.782  20.754  -0.194  1.00  0.00     0.064 A 
ATOM     61  C   UNL     1      -7.329  21.126   1.043  1.00  0.00     0.173 A 
ATOM     62  C   UNL     1      -7.601  20.856  -1.329  1.00  0.00     0.173 A 
ATOM     63  F   UNL     1      -6.593  21.037   2.161  1.00  0.00    -0.203 F 
ATOM     64  C   UNL     1      -8.652  21.550   1.144  1.00  0.00     0.198 A 
ATOM     65  C   UNL     1      -8.912  21.315  -1.230  1.00  0.00     0.198 A 
ATOM     66  F   UNL     1      -7.128  20.520  -2.539  1.00  0.00    -0.203 F 
ATOM     67  F   UNL     1      -9.168  21.845   2.345  1.00  0.00    -0.200 F 
ATOM     68  C   UNL     1      -9.439  21.652   0.008  1.00  0.00     0.200 A 
ATOM     69  F   UNL     1      -9.666  21.429  -2.332  1.00  0.00    -0.200 F 
ATOM     70  F   UNL     1     -10.709  22.069   0.106  1.00  0.00    -0.200 F 
ENDBRANCH  46  60
BRANCH  47  71
ATOM     71  C   UNL     1       2.526  17.190  -1.056  1.00  0.00     0.064 A 
ATOM     72  C   UNL     1       3.627  17.831  -0.471  1.00  0.00     0.173 A 
ATOM     73  C   UNL     1       2.772  16.032  -1.808  1.00  0.00     0.173 A 
ATOM     74  F   UNL     1       3.447  18.952   0.243  1.00  0.00    -0.203 F 
ATOM     75  C   UNL     1       4.922  17.350  -0.652  1.00  0.00     0.198 A 
ATOM     76  C   UNL     1       4.064  15.533  -1.963  1.00  0.00     0.198 A 
ATOM     77  F   UNL     1       1.754  15.375  -2.384  1.00  0.00    -0.203 F 
ATOM     78  F   UNL     1       5.960  18.012  -0.124  1.00  0.00    -0.200 F 
ATOM     79  C   UNL     1       5.139  16.198  -1.393  1.00  0.00     0.200 A 
ATOM     80  F   UNL     1       4.267  14.410  -2.665  1.00  0.00    -0.200 F 
ATOM     81  F   UNL     1       6.384  15.733  -1.565  1.00  0.00    -0.200 F 
ENDBRANCH  47  71
BRANCH  59  82
ATOM     82  C   UNL     1      -0.628  23.066  -3.124  1.00  0.00     0.064 A 
ATOM     83  C   UNL     1      -0.348  23.063  -4.497  1.00  0.00     0.173 A 
ATOM     84  C   UNL     1      -0.530  24.285  -2.434  1.00  0.00     0.173 A 
ATOM     85  F   UNL     1      -0.414  21.921  -5.198  1.00  0.00    -0.203 F 
ATOM     86  C   UNL     1       0.023  24.235  -5.152  1.00  0.00     0.198 A 
ATOM     87  C   UNL     1      -0.190  25.459  -3.098  1.00  0.00     0.198 A 
ATOM     88  F   UNL     1      -0.794  24.341  -1.120  1.00  0.00    -0.203 F 
ATOM     89  F   UNL     1       0.317  24.205  -6.459  1.00  0.00    -0.200 F 
ATOM     90  C   UNL     1       0.089  25.433  -4.455  1.00  0.00     0.200 A 
ATOM     91  F   UNL     1      -0.145  26.618  -2.426  1.00  0.00    -0.200 F 
ATOM     92  F   UNL     1       0.422  26.563  -5.093  1.00  0.00    -0.200 F 
ENDBRANCH  59  82
ENDBRANCH  33  34
ENDBRANCH  25  28
ENDBRANCH  23  24
ENDBRANCH  22  23
ENDBRANCH   1  22
TORSDOF 13
