REMARK SMILES O=C(C[NH2+]C[C@@H]1CCCO1)NCCCNC(=O)c1ccc(-c2c3nc(c(-c4c(F)c(F)c(F)c(F)c4F)c4ccc([nH]4)c(-c4c(F)c(F)c(F)c(F)c4F)c4nc(c(-c5c(F)c(F)c(F)c(F)c5F)c5ccc2[nH]5)C=C4)C=C3)cc1
REMARK SMILES IDX 12 1 11 2 1 3 2 4 3 6 4 7 5 10 6 11 7 12 10 13 8 14 9 15
REMARK SMILES IDX 13 16 14 17 15 18 16 19 17 21 18 22 19 23 80 24 20 25 79 26
REMARK SMILES IDX 21 27 22 28 23 29 73 30 24 31 78 32 72 33 74 34 25 35 77 36
REMARK SMILES IDX 71 37 70 38 26 40 58 41 38 42 57 43 39 44 42 45 56 46 75 47
REMARK SMILES IDX 40 48 41 49 55 51 76 52 43 53 27 54 28 55 36 56 29 57 30 58
REMARK SMILES IDX 34 59 37 60 31 61 32 62 35 63 33 64 59 65 60 66 68 67 61 68
REMARK SMILES IDX 62 69 66 70 69 71 63 72 64 73 67 74 65 75 44 76 45 77 53 78
REMARK SMILES IDX 46 79 47 80 51 81 54 82 48 83 49 84 52 85 50 86
REMARK H PARENT 11 5 4 8 4 9 15 20 74 39 42 50
REMARK Flexibility Score: inf
ROOT
ATOM      1  C   UNL     1       2.248   1.148   2.213  1.00  0.00     0.118 C 
ENDROOT
BRANCH   1   2
ATOM      2  N   UNL     1       2.849   0.638   1.002  1.00  0.00    -0.351 N 
ATOM      3  O   UNL     1       1.103  -0.731   0.403  1.00  0.00    -0.269 OA
ATOM      4  C   UNL     1       2.205  -0.245   0.163  1.00  0.00     0.275 C 
ATOM      5  H   UNL     1       3.758   0.934   0.766  1.00  0.00     0.163 HD
BRANCH   4   6
ATOM      6  C   UNL     1       3.021  -0.631  -1.076  1.00  0.00     0.361 C 
BRANCH   6   7
ATOM      7  N   UNL     1       3.780   0.535  -1.578  1.00  0.00    -0.336 N 
ATOM      8  H   UNL     1       4.396   0.871  -0.838  1.00  0.00     0.346 HD
ATOM      9  H   UNL     1       3.111   1.255  -1.852  1.00  0.00     0.346 HD
BRANCH   7  10
ATOM     10  C   UNL     1       4.594   0.189  -2.759  1.00  0.00     0.293 C 
BRANCH  10  11
ATOM     11  C   UNL     1       3.787  -0.171  -4.025  1.00  0.00     0.173 C 
ATOM     12  C   UNL     1       4.050  -1.575  -4.543  1.00  0.00     0.040 C 
ATOM     13  O   UNL     1       4.122   0.706  -5.118  1.00  0.00    -0.372 OA
ATOM     14  C   UNL     1       3.600  -1.450  -5.978  1.00  0.00     0.031 C 
ATOM     15  C   UNL     1       4.061  -0.051  -6.338  1.00  0.00     0.161 C 
ENDBRANCH  10  11
ENDBRANCH   7  10
ENDBRANCH   6   7
ENDBRANCH   4   6
ENDBRANCH   1   2
BRANCH   1  16
ATOM     16  C   UNL     1       2.485   0.254   3.428  1.00  0.00     0.042 C 
BRANCH  16  17
ATOM     17  C   UNL     1       3.948   0.103   3.843  1.00  0.00     0.118 C 
BRANCH  17  18
ATOM     18  N   UNL     1       4.568   1.362   4.230  1.00  0.00    -0.352 N 
ATOM     19  C   UNL     1       5.317   1.703   5.326  1.00  0.00     0.251 C 
ATOM     20  H   UNL     1       4.424   2.098   3.592  1.00  0.00     0.163 HD
ATOM     21  O   UNL     1       5.636   2.884   5.480  1.00  0.00    -0.269 OA
BRANCH  19  22
ATOM     22  C   UNL     1       5.736   0.707   6.341  1.00  0.00     0.039 A 
ATOM     23  C   UNL     1       5.777   1.113   7.680  1.00  0.00     0.014 A 
ATOM     24  C   UNL     1       6.149  -0.585   6.005  1.00  0.00     0.014 A 
ATOM     25  C   UNL     1       6.177   0.220   8.677  1.00  0.00     0.010 A 
ATOM     26  C   UNL     1       6.490  -1.498   7.007  1.00  0.00     0.010 A 
ATOM     27  C   UNL     1       6.510  -1.104   8.353  1.00  0.00    -0.014 A 
BRANCH  27  28
ATOM     28  C   UNL     1       6.858  -2.076   9.425  1.00  0.00     0.031 A 
ATOM     29  C   UNL     1       8.246  -2.641   9.537  1.00  0.00     0.074 A 
ATOM     30  C   UNL     1       5.904  -2.473  10.289  1.00  0.00     0.049 A 
ATOM     31  N   UNL     1       8.728  -3.482  10.420  1.00  0.00    -0.248 NA
ATOM     32  C   UNL     1       9.216  -2.227   8.513  1.00  0.00     0.031 C 
ATOM     33  C   UNL     1       4.504  -2.048  10.254  1.00  0.00     0.029 A 
ATOM     34  N   UNL     1       5.967  -3.321  11.367  1.00  0.00    -0.354 N 
ATOM     35  C   UNL     1      10.048  -3.705  10.052  1.00  0.00     0.074 A 
ATOM     36  C   UNL     1      10.280  -2.947   8.840  1.00  0.00     0.031 C 
ATOM     37  C   UNL     1       3.847  -2.613  11.280  1.00  0.00     0.029 A 
ATOM     38  C   UNL     1       4.773  -3.454  12.032  1.00  0.00     0.049 A 
ATOM     39  H   UNL     1       6.790  -3.789  11.637  1.00  0.00     0.167 HD
ATOM     40  C   UNL     1      10.987  -4.456  10.677  1.00  0.00     0.037 A 
ATOM     41  C   UNL     1       4.462  -4.164  13.133  1.00  0.00     0.037 A 
ATOM     42  C   UNL     1      10.768  -5.191  11.896  1.00  0.00     0.049 A 
ATOM     43  C   UNL     1       5.533  -4.953  13.832  1.00  0.00     0.074 A 
ATOM     44  C   UNL     1      11.674  -5.936  12.632  1.00  0.00     0.029 A 
ATOM     45  N   UNL     1       9.553  -5.271  12.561  1.00  0.00    -0.354 N 
ATOM     46  N   UNL     1       6.796  -5.097  13.514  1.00  0.00    -0.248 NA
ATOM     47  C   UNL     1       5.136  -5.665  15.055  1.00  0.00     0.031 C 
ATOM     48  C   UNL     1      11.000  -6.492  13.726  1.00  0.00     0.029 A 
ATOM     49  C   UNL     1       9.684  -6.061  13.693  1.00  0.00     0.049 A 
ATOM     50  H   UNL     1       8.721  -4.832  12.272  1.00  0.00     0.167 HD
ATOM     51  C   UNL     1       7.350  -5.893  14.506  1.00  0.00     0.074 A 
ATOM     52  C   UNL     1       6.290  -6.186  15.448  1.00  0.00     0.031 C 
ATOM     53  C   UNL     1       8.623  -6.342  14.625  1.00  0.00     0.037 A 
BRANCH  40  54
ATOM     54  C   UNL     1      12.352  -4.516  10.054  1.00  0.00     0.064 A 
ATOM     55  C   UNL     1      13.221  -3.416  10.087  1.00  0.00     0.173 A 
ATOM     56  C   UNL     1      12.811  -5.698   9.453  1.00  0.00     0.173 A 
ATOM     57  F   UNL     1      12.825  -2.260  10.640  1.00  0.00    -0.203 F 
ATOM     58  C   UNL     1      14.490  -3.487   9.518  1.00  0.00     0.198 A 
ATOM     59  C   UNL     1      14.091  -5.774   8.909  1.00  0.00     0.198 A 
ATOM     60  F   UNL     1      12.022  -6.782   9.401  1.00  0.00    -0.203 F 
ATOM     61  F   UNL     1      15.287  -2.409   9.524  1.00  0.00    -0.200 F 
ATOM     62  C   UNL     1      14.926  -4.668   8.936  1.00  0.00     0.200 A 
ATOM     63  F   UNL     1      14.516  -6.919   8.357  1.00  0.00    -0.200 F 
ATOM     64  F   UNL     1      16.150  -4.737   8.395  1.00  0.00    -0.200 F 
ENDBRANCH  40  54
BRANCH  41  65
ATOM     65  C   UNL     1       3.079  -4.118  13.673  1.00  0.00     0.064 A 
ATOM     66  C   UNL     1       2.796  -3.424  14.857  1.00  0.00     0.173 A 
ATOM     67  C   UNL     1       2.019  -4.761  13.020  1.00  0.00     0.173 A 
ATOM     68  F   UNL     1       3.784  -2.811  15.526  1.00  0.00    -0.203 F 
ATOM     69  C   UNL     1       1.505  -3.391  15.379  1.00  0.00     0.198 A 
ATOM     70  C   UNL     1       0.724  -4.707  13.530  1.00  0.00     0.198 A 
ATOM     71  F   UNL     1       2.241  -5.434  11.881  1.00  0.00    -0.203 F 
ATOM     72  F   UNL     1       1.269  -2.756  16.535  1.00  0.00    -0.200 F 
ATOM     73  C   UNL     1       0.469  -4.028  14.713  1.00  0.00     0.200 A 
ATOM     74  F   UNL     1      -0.277  -5.315  12.879  1.00  0.00    -0.200 F 
ATOM     75  F   UNL     1      -0.773  -3.995  15.214  1.00  0.00    -0.200 F 
ENDBRANCH  41  65
BRANCH  53  76
ATOM     76  C   UNL     1       8.943  -7.174  15.832  1.00  0.00     0.064 A 
ATOM     77  C   UNL     1       8.481  -8.492  15.959  1.00  0.00     0.173 A 
ATOM     78  C   UNL     1       9.727  -6.648  16.869  1.00  0.00     0.173 A 
ATOM     79  F   UNL     1       7.715  -9.034  15.001  1.00  0.00    -0.203 F 
ATOM     80  C   UNL     1       8.766  -9.243  17.096  1.00  0.00     0.198 A 
ATOM     81  C   UNL     1      10.032  -7.410  17.994  1.00  0.00     0.198 A 
ATOM     82  F   UNL     1      10.196  -5.394  16.794  1.00  0.00    -0.203 F 
ATOM     83  F   UNL     1       8.271 -10.482  17.221  1.00  0.00    -0.200 F 
ATOM     84  C   UNL     1       9.544  -8.703  18.110  1.00  0.00     0.200 A 
ATOM     85  F   UNL     1      10.790  -6.891  18.969  1.00  0.00    -0.200 F 
ATOM     86  F   UNL     1       9.814  -9.426  19.206  1.00  0.00    -0.200 F 
ENDBRANCH  53  76
ENDBRANCH  27  28
ENDBRANCH  19  22
ENDBRANCH  17  18
ENDBRANCH  16  17
ENDBRANCH   1  16
TORSDOF 13
