REMARK SMILES C[C@]12C[C@@H](O)[C@H]3[C@@H](CCC4=CC(=O)C=C[C@]43C)[C@H]1CC[C@]2(O)C(=O)COC(=O)CCC(=O)NCCCNC(=O)c1ccc(-c2c3nc(c(-c4c(F)c(F)c(F)c(F)c4F)c4ccc([nH]4)c(-c4c(F)c(F)c(F)c(F)c4F)c4nc(c(-c5c(F)c(F)c(F)c(F)c5F)c5ccc2[nH]5)C=C4)C=C3)cc1
REMARK SMILES IDX 31 1 32 2 33 3 30 5 29 6 27 7 28 8 26 9 25 10 23 11 24 12
REMARK SMILES IDX 21 13 17 14 16 15 15 16 10 17 6 18 14 19 11 20 9 21 7 22
REMARK SMILES IDX 4 23 12 24 8 25 18 26 3 27 13 28 2 29 19 30 1 31 20 32 5 33
REMARK SMILES IDX 22 35 34 37 35 38 36 39 37 40 38 41 39 43 40 44 41 45 102 46
REMARK SMILES IDX 42 47 101 48 43 49 44 50 45 51 95 52 46 53 100 54 94 55
REMARK SMILES IDX 96 56 47 57 99 58 93 59 92 60 48 62 80 63 60 64 79 65 61 66
REMARK SMILES IDX 64 67 78 68 97 69 62 70 63 71 77 73 98 74 65 75 49 76 50 77
REMARK SMILES IDX 58 78 51 79 52 80 56 81 59 82 53 83 54 84 57 85 55 86 81 87
REMARK SMILES IDX 82 88 90 89 83 90 84 91 88 92 91 93 85 94 86 95 89 96 87 97
REMARK SMILES IDX 66 98 67 99 75 100 68 101 69 102 73 103 76 104 70 105 71 106
REMARK SMILES IDX 74 107 72 108
REMARK H PARENT 33 4 5 34 22 36 37 42 96 61 64 72
REMARK Flexibility Score: inf
ROOT
ATOM      1  C   UNL     1      -3.544  -5.918  -0.768  1.00  0.00     0.220 C 
ATOM      2  O   UNL     1      -3.440  -6.040  -1.991  1.00  0.00    -0.275 OA
ATOM      3  N   UNL     1      -2.471  -6.260  -0.010  1.00  0.00    -0.356 N 
ATOM      4  H   UNL     1      -1.793  -6.803  -0.474  1.00  0.00     0.163 HD
ENDROOT
BRANCH   1   5
ATOM      5  C   UNL     1      -4.817  -5.362  -0.161  1.00  0.00     0.111 C 
BRANCH   5   6
ATOM      6  C   UNL     1      -5.479  -6.249   0.889  1.00  0.00     0.132 C 
BRANCH   6   7
ATOM      7  C   UNL     1      -5.659  -5.506   2.192  1.00  0.00     0.306 C 
ATOM      8  O   UNL     1      -6.419  -4.551   2.348  1.00  0.00    -0.252 OA
BRANCH   7   9
ATOM      9  O   UNL     1      -4.780  -5.931   3.129  1.00  0.00    -0.458 OA
BRANCH   9  10
ATOM     10  C   UNL     1      -4.784  -5.283   4.393  1.00  0.00     0.311 C 
BRANCH  10  11
ATOM     11  C   UNL     1      -4.218  -3.877   4.745  1.00  0.00     0.202 C 
ATOM     12  O   UNL     1      -4.206  -3.545   5.940  1.00  0.00    -0.293 OA
BRANCH  11  13
ATOM     13  C   UNL     1      -3.735  -2.884   3.651  1.00  0.00     0.132 C 
ATOM     14  C   UNL     1       0.890   0.147  -0.044  1.00  0.00     0.021 C 
ATOM     15  C   UNL     1       0.882   0.241   1.521  1.00  0.00     0.013 C 
ATOM     16  C   UNL     1       2.254  -0.247   2.007  1.00  0.00    -0.012 C 
ATOM     17  C   UNL     1       0.819   1.743   1.872  1.00  0.00    -0.056 C 
ATOM     18  C   UNL     1      -0.371  -0.613   1.998  1.00  0.00     0.035 C 
ATOM     19  C   UNL     1       3.356   0.512   1.869  1.00  0.00     0.048 C 
ATOM     20  C   UNL     1       1.898   2.531   1.674  1.00  0.00     0.052 C 
ATOM     21  C   UNL     1      -0.327   2.336   2.641  1.00  0.00     0.032 C 
ATOM     22  C   UNL     1      -1.125   0.004   3.192  1.00  0.00    -0.000 C 
ATOM     23  C   UNL     1      -0.080  -2.102   2.283  1.00  0.00     0.119 C 
ATOM     24  C   UNL     1       3.212   1.907   1.382  1.00  0.00     0.178 C 
ATOM     25  C   UNL     1      -1.530   1.437   2.835  1.00  0.00     0.009 C 
ATOM     26  C   UNL     1      -2.360  -0.790   3.688  1.00  0.00     0.002 C 
ATOM     27  C   UNL     1      -1.376  -2.846   2.571  1.00  0.00     0.042 C 
ATOM     28  O   UNL     1       4.145   2.531   0.903  1.00  0.00    -0.290 OA
ATOM     29  C   UNL     1      -2.223  -2.339   3.756  1.00  0.00     0.009 C 
ATOM     30  C   UNL     1      -3.695  -0.587   2.973  1.00  0.00     0.008 C 
ATOM     31  C   UNL     1      -1.516  -2.693   5.077  1.00  0.00     0.015 C 
ATOM     32  C   UNL     1      -4.575  -1.596   3.710  1.00  0.00     0.044 C 
BRANCH  23  33
ATOM     33  O   UNL     1       0.491  -2.780   1.161  1.00  0.00    -0.393 OA
ATOM     34  H   UNL     1      -0.138  -2.769   0.422  1.00  0.00     0.210 HD
ENDBRANCH  23  33
BRANCH  13  35
ATOM     35  O   UNL     1      -3.964  -3.383   2.342  1.00  0.00    -0.381 OA
ATOM     36  H   UNL     1      -3.650  -2.737   1.690  1.00  0.00     0.212 HD
ENDBRANCH  13  35
ENDBRANCH  11  13
ENDBRANCH  10  11
ENDBRANCH   9  10
ENDBRANCH   7   9
ENDBRANCH   6   7
ENDBRANCH   5   6
ENDBRANCH   1   5
BRANCH   3  37
ATOM     37  C   UNL     1      -2.165  -5.956   1.371  1.00  0.00     0.117 C 
BRANCH  37  38
ATOM     38  C   UNL     1      -2.030  -7.190   2.252  1.00  0.00     0.042 C 
BRANCH  38  39
ATOM     39  C   UNL     1      -0.720  -7.243   3.030  1.00  0.00     0.118 C 
BRANCH  39  40
ATOM     40  N   UNL     1      -0.527  -6.217   4.054  1.00  0.00    -0.352 N 
ATOM     41  C   UNL     1      -0.307  -6.262   5.410  1.00  0.00     0.251 C 
ATOM     42  H   UNL     1      -0.561  -5.301   3.697  1.00  0.00     0.163 HD
ATOM     43  O   UNL     1      -0.015  -5.229   6.011  1.00  0.00    -0.269 OA
BRANCH  41  44
ATOM     44  C   UNL     1      -0.422  -7.504   6.187  1.00  0.00     0.039 A 
ATOM     45  C   UNL     1      -0.948  -7.451   7.485  1.00  0.00     0.014 A 
ATOM     46  C   UNL     1       0.044  -8.709   5.679  1.00  0.00     0.014 A 
ATOM     47  C   UNL     1      -1.060  -8.621   8.236  1.00  0.00     0.010 A 
ATOM     48  C   UNL     1      -0.210  -9.886   6.355  1.00  0.00     0.010 A 
ATOM     49  C   UNL     1      -0.730  -9.852   7.654  1.00  0.00    -0.014 A 
BRANCH  49  50
ATOM     50  C   UNL     1      -0.849 -11.136   8.377  1.00  0.00     0.031 A 
ATOM     51  C   UNL     1       0.376 -11.991   8.548  1.00  0.00     0.074 A 
ATOM     52  C   UNL     1      -2.064 -11.572   8.755  1.00  0.00     0.049 A 
ATOM     53  N   UNL     1       0.474 -13.233   8.943  1.00  0.00    -0.248 NA
ATOM     54  C   UNL     1       1.664 -11.383   8.166  1.00  0.00     0.031 C 
ATOM     55  C   UNL     1      -3.318 -10.834   8.596  1.00  0.00     0.029 A 
ATOM     56  N   UNL     1      -2.445 -12.756   9.329  1.00  0.00    -0.354 N 
ATOM     57  C   UNL     1       1.818 -13.560   8.821  1.00  0.00     0.074 A 
ATOM     58  C   UNL     1       2.489 -12.414   8.251  1.00  0.00     0.031 C 
ATOM     59  C   UNL     1      -4.327 -11.571   9.083  1.00  0.00     0.029 A 
ATOM     60  C   UNL     1      -3.799 -12.854   9.532  1.00  0.00     0.049 A 
ATOM     61  H   UNL     1      -1.810 -13.467   9.572  1.00  0.00     0.167 HD
ATOM     62  C   UNL     1       2.439 -14.707   9.181  1.00  0.00     0.037 A 
ATOM     63  C   UNL     1      -4.528 -13.878  10.009  1.00  0.00     0.037 A 
ATOM     64  C   UNL     1       1.756 -15.819   9.785  1.00  0.00     0.049 A 
ATOM     65  C   UNL     1      -3.815 -15.142  10.403  1.00  0.00     0.074 A 
ATOM     66  C   UNL     1       2.282 -17.009  10.249  1.00  0.00     0.029 A 
ATOM     67  N   UNL     1       0.386 -15.867  10.013  1.00  0.00    -0.354 N 
ATOM     68  N   UNL     1      -2.536 -15.428  10.331  1.00  0.00    -0.248 NA
ATOM     69  C   UNL     1      -4.644 -16.224  10.947  1.00  0.00     0.031 C 
ATOM     70  C   UNL     1       1.225 -17.799  10.712  1.00  0.00     0.029 A 
ATOM     71  C   UNL     1       0.047 -17.077  10.593  1.00  0.00     0.049 A 
ATOM     72  H   UNL     1      -0.249 -15.148   9.794  1.00  0.00     0.167 HD
ATOM     73  C   UNL     1      -2.402 -16.709  10.848  1.00  0.00     0.074 A 
ATOM     74  C   UNL     1      -3.729 -17.136  11.244  1.00  0.00     0.031 C 
ATOM     75  C   UNL     1      -1.285 -17.466  10.983  1.00  0.00     0.037 A 
BRANCH  62  76
ATOM     76  C   UNL     1       3.918 -14.809   8.937  1.00  0.00     0.064 A 
ATOM     77  C   UNL     1       4.840 -14.010   9.634  1.00  0.00     0.173 A 
ATOM     78  C   UNL     1       4.426 -15.729   8.008  1.00  0.00     0.173 A 
ATOM     79  F   UNL     1       4.411 -13.101  10.522  1.00  0.00    -0.203 F 
ATOM     80  C   UNL     1       6.207 -14.105   9.384  1.00  0.00     0.198 A 
ATOM     81  C   UNL     1       5.796 -15.848   7.788  1.00  0.00     0.198 A 
ATOM     82  F   UNL     1       3.593 -16.518   7.313  1.00  0.00    -0.203 F 
ATOM     83  F   UNL     1       7.060 -13.288  10.018  1.00  0.00    -0.200 F 
ATOM     84  C   UNL     1       6.685 -15.030   8.469  1.00  0.00     0.200 A 
ATOM     85  F   UNL     1       6.257 -16.750   6.911  1.00  0.00    -0.200 F 
ATOM     86  F   UNL     1       8.001 -15.125   8.235  1.00  0.00    -0.200 F 
ENDBRANCH  62  76
BRANCH  63  87
ATOM     87  C   UNL     1      -5.999 -13.736  10.164  1.00  0.00     0.064 A 
ATOM     88  C   UNL     1      -6.582 -13.688  11.438  1.00  0.00     0.173 A 
ATOM     89  C   UNL     1      -6.850 -13.630   9.054  1.00  0.00     0.173 A 
ATOM     90  F   UNL     1      -5.812 -13.797  12.530  1.00  0.00    -0.203 F 
ATOM     91  C   UNL     1      -7.961 -13.563  11.596  1.00  0.00     0.198 A 
ATOM     92  C   UNL     1      -8.226 -13.473   9.213  1.00  0.00     0.198 A 
ATOM     93  F   UNL     1      -6.343 -13.657   7.813  1.00  0.00    -0.203 F 
ATOM     94  F   UNL     1      -8.495 -13.566  12.825  1.00  0.00    -0.200 F 
ATOM     95  C   UNL     1      -8.781 -13.450  10.483  1.00  0.00     0.200 A 
ATOM     96  F   UNL     1      -9.012 -13.343   8.136  1.00  0.00    -0.200 F 
ATOM     97  F   UNL     1     -10.106 -13.323  10.636  1.00  0.00    -0.200 F 
ENDBRANCH  63  87
BRANCH  75  98
ATOM     98  C   UNL     1      -1.450 -18.814  11.623  1.00  0.00     0.064 A 
ATOM     99  C   UNL     1      -2.095 -19.869  10.963  1.00  0.00     0.173 A 
ATOM    100  C   UNL     1      -0.918 -19.059  12.898  1.00  0.00     0.173 A 
ATOM    101  F   UNL     1      -2.632 -19.679   9.748  1.00  0.00    -0.203 F 
ATOM    102  C   UNL     1      -2.228 -21.114  11.569  1.00  0.00     0.198 A 
ATOM    103  C   UNL     1      -1.022 -20.316  13.486  1.00  0.00     0.198 A 
ATOM    104  F   UNL     1      -0.285 -18.084  13.567  1.00  0.00    -0.203 F 
ATOM    105  F   UNL     1      -2.896 -22.093  10.944  1.00  0.00    -0.200 F 
ATOM    106  C   UNL     1      -1.684 -21.339  12.825  1.00  0.00     0.200 A 
ATOM    107  F   UNL     1      -0.480 -20.536  14.692  1.00  0.00    -0.200 F 
ATOM    108  F   UNL     1      -1.805 -22.542  13.403  1.00  0.00    -0.200 F 
ENDBRANCH  75  98
ENDBRANCH  49  50
ENDBRANCH  41  44
ENDBRANCH  39  40
ENDBRANCH  38  39
ENDBRANCH  37  38
ENDBRANCH   3  37
TORSDOF 18
