REMARK SMILES O=C(CNC(=O)[C@@H](CC1=c2ccccc2=NC1)N1C(=O)N=C2C=CC=C[C@H]2C1=O)NCCCNC(=O)c1ccc(-c2c3nc(c(-c4c(F)c(F)c(F)c(F)c4F)c4ccc([nH]4)c(-c4c(F)c(F)c(F)c(F)c4F)c4nc(c(-c5c(F)c(F)c(F)c(F)c5F)c5ccc2[nH]5)C=C4)C=C3)cc1
REMARK SMILES IDX 31 1 30 2 1 3 2 4 3 6 4 7 5 8 6 10 7 11 8 12 9 13 10 14
REMARK SMILES IDX 17 15 11 16 15 17 16 18 12 19 14 20 13 21 18 22 19 23 28 24
REMARK SMILES IDX 21 25 20 26 27 27 29 28 22 29 26 30 23 31 25 32 24 33 32 34
REMARK SMILES IDX 33 35 34 36 35 37 36 39 37 40 38 41 99 42 39 43 98 44 40 45
REMARK SMILES IDX 41 46 42 47 92 48 43 49 97 50 91 51 93 52 44 53 96 54 90 55
REMARK SMILES IDX 89 56 45 58 77 59 57 60 76 61 58 62 61 63 75 64 94 65 59 66
REMARK SMILES IDX 60 67 74 69 95 70 62 71 46 72 47 73 55 74 48 75 49 76 53 77
REMARK SMILES IDX 56 78 50 79 51 80 54 81 52 82 78 83 79 84 87 85 80 86 81 87
REMARK SMILES IDX 85 88 88 89 82 90 83 91 86 92 84 93 63 94 64 95 72 96 65 97
REMARK SMILES IDX 66 98 70 99 73 100 67 101 68 102 71 103 69 104
REMARK H PARENT 30 5 4 9 34 38 93 57 61 68
REMARK Flexibility Score: inf
ROOT
ATOM      1  C   UNL     1       2.453   2.773  -0.408  1.00  0.00     0.117 C 
ENDROOT
BRANCH   1   2
ATOM      2  N   UNL     1       3.037   1.497  -0.793  1.00  0.00    -0.355 N 
ATOM      3  O   UNL     1       1.028   0.452  -1.144  1.00  0.00    -0.273 OA
ATOM      4  C   UNL     1       2.257   0.429  -1.189  1.00  0.00     0.239 C 
ATOM      5  H   UNL     1       4.015   1.392  -0.769  1.00  0.00     0.163 HD
BRANCH   4   6
ATOM      6  C   UNL     1       3.002  -0.723  -1.886  1.00  0.00     0.216 C 
BRANCH   6   7
ATOM      7  N   UNL     1       4.445  -0.859  -1.666  1.00  0.00    -0.345 N 
ATOM      8  C   UNL     1       4.953  -2.057  -1.181  1.00  0.00     0.244 C 
ATOM      9  H   UNL     1       5.049  -0.107  -1.862  1.00  0.00     0.164 HD
ATOM     10  O   UNL     1       5.312  -2.905  -1.994  1.00  0.00    -0.273 OA
BRANCH   8  11
ATOM     11  C   UNL     1       5.368  -2.085   0.307  1.00  0.00     0.188 C 
BRANCH  11  12
ATOM     12  C   UNL     1       4.693  -1.032   1.219  1.00  0.00     0.069 C 
BRANCH  12  13
ATOM     13  C   UNL     1       3.343  -1.216   1.860  1.00  0.00    -0.037 C 
ATOM     14  C   UNL     1       2.252  -1.940   1.603  1.00  0.00     0.001 A 
ATOM     15  C   UNL     1       3.117  -0.386   3.100  1.00  0.00     0.174 C 
ATOM     16  C   UNL     1       1.824  -2.888   0.626  1.00  0.00     0.010 A 
ATOM     17  C   UNL     1       1.321  -1.524   2.677  1.00  0.00     0.065 A 
ATOM     18  N   UNL     1       1.742  -0.656   3.543  1.00  0.00    -0.280 NA
ATOM     19  C   UNL     1       0.596  -3.423   0.700  1.00  0.00     0.001 A 
ATOM     20  C   UNL     1      -0.027  -2.130   2.679  1.00  0.00     0.028 A 
ATOM     21  C   UNL     1      -0.338  -3.033   1.736  1.00  0.00     0.002 A 
ENDBRANCH  12  13
ENDBRANCH  11  12
BRANCH  11  22
ATOM     22  N   UNL     1       5.552  -3.349   1.029  1.00  0.00    -0.249 N 
ATOM     23  C   UNL     1       6.476  -3.334   2.057  1.00  0.00     0.351 C 
ATOM     24  C   UNL     1       4.673  -4.402   0.963  1.00  0.00     0.244 C 
ATOM     25  N   UNL     1       5.921  -3.437   3.307  1.00  0.00    -0.197 NA
ATOM     26  O   UNL     1       7.660  -3.097   1.874  1.00  0.00    -0.246 OA
ATOM     27  C   UNL     1       4.528  -5.176   2.273  1.00  0.00     0.151 C 
ATOM     28  O   UNL     1       4.102  -4.748  -0.069  1.00  0.00    -0.273 OA
ATOM     29  C   UNL     1       4.904  -4.234   3.415  1.00  0.00     0.062 C 
ATOM     30  C   UNL     1       3.137  -5.730   2.428  1.00  0.00    -0.007 C 
ATOM     31  C   UNL     1       4.065  -4.157   4.632  1.00  0.00     0.025 C 
ATOM     32  C   UNL     1       2.373  -5.504   3.505  1.00  0.00    -0.003 C 
ATOM     33  C   UNL     1       2.859  -4.736   4.622  1.00  0.00     0.002 C 
ENDBRANCH  11  22
ENDBRANCH   8  11
ENDBRANCH   6   7
ENDBRANCH   4   6
ENDBRANCH   1   2
BRANCH   1  34
ATOM     34  C   UNL     1       2.434   3.046   1.095  1.00  0.00     0.042 C 
BRANCH  34  35
ATOM     35  C   UNL     1       3.802   3.254   1.742  1.00  0.00     0.118 C 
BRANCH  35  36
ATOM     36  N   UNL     1       4.514   4.421   1.245  1.00  0.00    -0.352 N 
ATOM     37  C   UNL     1       5.196   5.414   1.906  1.00  0.00     0.251 C 
ATOM     38  H   UNL     1       4.506   4.517   0.265  1.00  0.00     0.163 HD
ATOM     39  O   UNL     1       5.646   6.355   1.257  1.00  0.00    -0.269 OA
BRANCH  37  40
ATOM     40  C   UNL     1       5.374   5.401   3.379  1.00  0.00     0.039 A 
ATOM     41  C   UNL     1       5.678   4.237   4.088  1.00  0.00     0.014 A 
ATOM     42  C   UNL     1       5.282   6.619   4.066  1.00  0.00     0.014 A 
ATOM     43  C   UNL     1       5.758   4.268   5.483  1.00  0.00     0.010 A 
ATOM     44  C   UNL     1       5.416   6.660   5.458  1.00  0.00     0.010 A 
ATOM     45  C   UNL     1       5.612   5.477   6.184  1.00  0.00    -0.014 A 
BRANCH  45  46
ATOM     46  C   UNL     1       5.633   5.489   7.671  1.00  0.00     0.031 A 
ATOM     47  C   UNL     1       4.376   5.783   8.445  1.00  0.00     0.074 A 
ATOM     48  C   UNL     1       6.771   5.207   8.334  1.00  0.00     0.049 A 
ATOM     49  N   UNL     1       4.193   5.831   9.742  1.00  0.00    -0.248 NA
ATOM     50  C   UNL     1       3.163   6.062   7.660  1.00  0.00     0.031 C 
ATOM     51  C   UNL     1       8.057   4.901   7.709  1.00  0.00     0.029 A 
ATOM     52  N   UNL     1       7.023   5.117   9.681  1.00  0.00    -0.354 N 
ATOM     53  C   UNL     1       2.855   6.152   9.926  1.00  0.00     0.074 A 
ATOM     54  C   UNL     1       2.276   6.319   8.611  1.00  0.00     0.031 C 
ATOM     55  C   UNL     1       8.953   4.620   8.668  1.00  0.00     0.029 A 
ATOM     56  C   UNL     1       8.317   4.763   9.975  1.00  0.00     0.049 A 
ATOM     57  H   UNL     1       6.341   5.289  10.370  1.00  0.00     0.167 HD
ATOM     58  C   UNL     1       2.166   6.278  11.085  1.00  0.00     0.037 A 
ATOM     59  C   UNL     1       8.923   4.577  11.163  1.00  0.00     0.037 A 
ATOM     60  C   UNL     1       2.726   6.091  12.397  1.00  0.00     0.049 A 
ATOM     61  C   UNL     1       8.145   4.763  12.436  1.00  0.00     0.074 A 
ATOM     62  C   UNL     1       2.091   6.171  13.625  1.00  0.00     0.029 A 
ATOM     63  N   UNL     1       4.053   5.782  12.652  1.00  0.00    -0.354 N 
ATOM     64  N   UNL     1       6.878   5.055  12.594  1.00  0.00    -0.248 NA
ATOM     65  C   UNL     1       8.886   4.603  13.696  1.00  0.00     0.031 C 
ATOM     66  C   UNL     1       3.041   5.941  14.626  1.00  0.00     0.029 A 
ATOM     67  C   UNL     1       4.260   5.685  14.019  1.00  0.00     0.049 A 
ATOM     68  H   UNL     1       4.745   5.651  11.964  1.00  0.00     0.167 HD
ATOM     69  C   UNL     1       6.666   5.103  13.965  1.00  0.00     0.074 A 
ATOM     70  C   UNL     1       7.932   4.794  14.597  1.00  0.00     0.031 C 
ATOM     71  C   UNL     1       5.524   5.381  14.637  1.00  0.00     0.037 A 
BRANCH  58  72
ATOM     72  C   UNL     1       0.713   6.635  10.993  1.00  0.00     0.064 A 
ATOM     73  C   UNL     1      -0.247   5.687  10.611  1.00  0.00     0.173 A 
ATOM     74  C   UNL     1       0.269   7.916  11.355  1.00  0.00     0.173 A 
ATOM     75  F   UNL     1       0.130   4.453  10.248  1.00  0.00    -0.203 F 
ATOM     76  C   UNL     1      -1.601   6.014  10.581  1.00  0.00     0.198 A 
ATOM     77  C   UNL     1      -1.087   8.232  11.343  1.00  0.00     0.198 A 
ATOM     78  F   UNL     1       1.149   8.854  11.734  1.00  0.00    -0.203 F 
ATOM     79  F   UNL     1      -2.500   5.101  10.187  1.00  0.00    -0.200 F 
ATOM     80  C   UNL     1      -2.020   7.282  10.954  1.00  0.00     0.200 A 
ATOM     81  F   UNL     1      -1.492   9.454  11.714  1.00  0.00    -0.200 F 
ATOM     82  F   UNL     1      -3.324   7.590  10.936  1.00  0.00    -0.200 F 
ENDBRANCH  58  72
BRANCH  59  83
ATOM     83  C   UNL     1      10.350   4.172  11.201  1.00  0.00     0.064 A 
ATOM     84  C   UNL     1      10.715   2.869  11.563  1.00  0.00     0.173 A 
ATOM     85  C   UNL     1      11.372   5.070  10.864  1.00  0.00     0.173 A 
ATOM     86  F   UNL     1       9.771   1.984  11.917  1.00  0.00    -0.203 F 
ATOM     87  C   UNL     1      12.052   2.478  11.588  1.00  0.00     0.198 A 
ATOM     88  C   UNL     1      12.707   4.673  10.869  1.00  0.00     0.198 A 
ATOM     89  F   UNL     1      11.071   6.330  10.515  1.00  0.00    -0.203 F 
ATOM     90  F   UNL     1      12.377   1.234  11.963  1.00  0.00    -0.200 F 
ATOM     91  C   UNL     1      13.046   3.378  11.234  1.00  0.00     0.200 A 
ATOM     92  F   UNL     1      13.665   5.542  10.519  1.00  0.00    -0.200 F 
ATOM     93  F   UNL     1      14.331   3.000  11.251  1.00  0.00    -0.200 F 
ENDBRANCH  59  83
BRANCH  71  94
ATOM     94  C   UNL     1       5.578   5.362  16.134  1.00  0.00     0.064 A 
ATOM     95  C   UNL     1       6.157   6.416  16.855  1.00  0.00     0.173 A 
ATOM     96  C   UNL     1       4.991   4.312  16.857  1.00  0.00     0.173 A 
ATOM     97  F   UNL     1       6.742   7.434  16.207  1.00  0.00    -0.203 F 
ATOM     98  C   UNL     1       6.154   6.416  18.247  1.00  0.00     0.198 A 
ATOM     99  C   UNL     1       4.972   4.326  18.248  1.00  0.00     0.198 A 
ATOM    100  F   UNL     1       4.420   3.284  16.211  1.00  0.00    -0.203 F 
ATOM    101  F   UNL     1       6.735   7.421  18.916  1.00  0.00    -0.200 F 
ATOM    102  C   UNL     1       5.555   5.375  18.942  1.00  0.00     0.200 A 
ATOM    103  F   UNL     1       4.385   3.325  18.919  1.00  0.00    -0.200 F 
ATOM    104  F   UNL     1       5.543   5.383  20.282  1.00  0.00    -0.200 F 
ENDBRANCH  71  94
ENDBRANCH  45  46
ENDBRANCH  37  40
ENDBRANCH  35  36
ENDBRANCH  34  35
ENDBRANCH   1  34
TORSDOF 15
