REMARK SMILES O=C(NCCCNC(=O)c1sc2ccccc2c1CSC[C@H](O)CO)c1ccc(-c2c3nc(c(-c4c(F)c(F)c(F)c(F)c4F)c4ccc([nH]4)c(-c4c(F)c(F)c(F)c(F)c4F)c4nc(c(-c5c(F)c(F)c(F)c(F)c5F)c5ccc2[nH]5)C=C4)C=C3)cc1
REMARK SMILES IDX 7 1 8 2 9 3 6 5 5 6 4 7 3 8 1 9 2 10 26 12 27 13 88 14 28 15
REMARK SMILES IDX 87 16 29 17 30 18 31 19 81 20 32 21 86 22 80 23 82 24 33 25
REMARK SMILES IDX 85 26 79 27 78 28 34 30 66 31 46 32 65 33 47 34 50 35 64 36
REMARK SMILES IDX 83 37 48 38 49 39 63 41 84 42 51 43 35 44 36 45 44 46 37 47
REMARK SMILES IDX 38 48 42 49 45 50 39 51 40 52 43 53 41 54 67 55 68 56 76 57
REMARK SMILES IDX 69 58 70 59 74 60 77 61 71 62 72 63 75 64 73 65 52 66 53 67
REMARK SMILES IDX 61 68 54 69 55 70 59 71 62 72 56 73 57 74 60 75 58 76 10 77
REMARK SMILES IDX 11 78 18 79 12 80 17 81 13 82 16 83 14 84 15 85 19 86 20 87
REMARK SMILES IDX 21 88 22 89 24 90 25 91 23 93
REMARK H PARENT 7 4 3 11 82 29 50 40 25 92 23 94
REMARK Flexibility Score: inf
ROOT
ATOM      1  N   UNL     1       6.071  -7.542  -1.441  1.00  0.00    -0.351 N 
ATOM      2  C   UNL     1       6.984  -7.135  -2.387  1.00  0.00     0.261 C 
ATOM      3  O   UNL     1       8.102  -7.647  -2.347  1.00  0.00    -0.268 OA
ATOM      4  H   UNL     1       6.389  -8.253  -0.839  1.00  0.00     0.163 HD
ENDROOT
BRANCH   1   5
ATOM      5  C   UNL     1       4.714  -7.090  -1.189  1.00  0.00     0.118 C 
BRANCH   5   6
ATOM      6  C   UNL     1       3.651  -8.065  -1.687  1.00  0.00     0.042 C 
BRANCH   6   7
ATOM      7  C   UNL     1       3.712  -9.464  -1.075  1.00  0.00     0.118 C 
BRANCH   7   8
ATOM      8  N   UNL     1       3.590  -9.463   0.376  1.00  0.00    -0.352 N 
ATOM      9  O   UNL     1       2.698  -9.655   2.419  1.00  0.00    -0.269 OA
ATOM     10  C   UNL     1       2.616  -9.929   1.222  1.00  0.00     0.251 C 
ATOM     11  H   UNL     1       4.353  -9.047   0.839  1.00  0.00     0.163 HD
BRANCH  10  12
ATOM     12  C   UNL     1       1.465 -10.733   0.749  1.00  0.00     0.039 A 
ATOM     13  C   UNL     1       1.594 -11.732  -0.218  1.00  0.00     0.014 A 
ATOM     14  C   UNL     1       0.224 -10.541   1.373  1.00  0.00     0.014 A 
ATOM     15  C   UNL     1       0.471 -12.445  -0.642  1.00  0.00     0.010 A 
ATOM     16  C   UNL     1      -0.891 -11.294   0.989  1.00  0.00     0.010 A 
ATOM     17  C   UNL     1      -0.784 -12.229  -0.049  1.00  0.00    -0.014 A 
BRANCH  17  18
ATOM     18  C   UNL     1      -1.961 -12.998  -0.524  1.00  0.00     0.031 A 
ATOM     19  C   UNL     1      -3.039 -12.332  -1.331  1.00  0.00     0.074 A 
ATOM     20  C   UNL     1      -2.041 -14.317  -0.267  1.00  0.00     0.049 A 
ATOM     21  N   UNL     1      -4.074 -12.869  -1.928  1.00  0.00    -0.248 NA
ATOM     22  C   UNL     1      -2.952 -10.871  -1.482  1.00  0.00     0.031 C 
ATOM     23  C   UNL     1      -1.088 -15.081   0.538  1.00  0.00     0.029 A 
ATOM     24  N   UNL     1      -2.953 -15.254  -0.686  1.00  0.00    -0.354 N 
ATOM     25  C   UNL     1      -4.772 -11.816  -2.501  1.00  0.00     0.074 A 
ATOM     26  C   UNL     1      -4.048 -10.604  -2.179  1.00  0.00     0.031 C 
ATOM     27  C   UNL     1      -1.429 -16.379   0.505  1.00  0.00     0.029 A 
ATOM     28  C   UNL     1      -2.627 -16.535  -0.317  1.00  0.00     0.049 A 
ATOM     29  H   UNL     1      -3.761 -15.029  -1.201  1.00  0.00     0.167 HD
ATOM     30  C   UNL     1      -5.910 -11.854  -3.233  1.00  0.00     0.037 A 
ATOM     31  C   UNL     1      -3.207 -17.706  -0.634  1.00  0.00     0.037 A 
ATOM     32  C   UNL     1      -6.616 -13.051  -3.599  1.00  0.00     0.049 A 
ATOM     33  C   UNL     1      -4.414 -17.731  -1.523  1.00  0.00     0.074 A 
ATOM     34  C   UNL     1      -7.757 -13.181  -4.373  1.00  0.00     0.029 A 
ATOM     35  N   UNL     1      -6.240 -14.329  -3.223  1.00  0.00    -0.354 N 
ATOM     36  N   UNL     1      -5.041 -16.731  -2.089  1.00  0.00    -0.248 NA
ATOM     37  C   UNL     1      -4.990 -19.051  -1.820  1.00  0.00     0.031 C 
ATOM     38  C   UNL     1      -8.072 -14.542  -4.464  1.00  0.00     0.029 A 
ATOM     39  C   UNL     1      -7.124 -15.256  -3.750  1.00  0.00     0.049 A 
ATOM     40  H   UNL     1      -5.460 -14.547  -2.663  1.00  0.00     0.167 HD
ATOM     41  C   UNL     1      -6.080 -17.296  -2.812  1.00  0.00     0.074 A 
ATOM     42  C   UNL     1      -5.997 -18.730  -2.622  1.00  0.00     0.031 C 
ATOM     43  C   UNL     1      -7.022 -16.677  -3.562  1.00  0.00     0.037 A 
BRANCH  30  44
ATOM     44  C   UNL     1      -6.467 -10.545  -3.693  1.00  0.00     0.064 A 
ATOM     45  C   UNL     1      -6.003  -9.931  -4.863  1.00  0.00     0.173 A 
ATOM     46  C   UNL     1      -7.494  -9.918  -2.974  1.00  0.00     0.173 A 
ATOM     47  F   UNL     1      -5.012 -10.491  -5.572  1.00  0.00    -0.203 F 
ATOM     48  C   UNL     1      -6.547  -8.725  -5.297  1.00  0.00     0.198 A 
ATOM     49  C   UNL     1      -8.040  -8.716  -3.414  1.00  0.00     0.198 A 
ATOM     50  F   UNL     1      -7.963 -10.470  -1.845  1.00  0.00    -0.203 F 
ATOM     51  F   UNL     1      -6.079  -8.142  -6.409  1.00  0.00    -0.200 F 
ATOM     52  C   UNL     1      -7.566  -8.121  -4.574  1.00  0.00     0.200 A 
ATOM     53  F   UNL     1      -9.022  -8.130  -2.715  1.00  0.00    -0.200 F 
ATOM     54  F   UNL     1      -8.086  -6.958  -4.992  1.00  0.00    -0.200 F 
ENDBRANCH  30  44
BRANCH  31  55
ATOM     55  C   UNL     1      -2.598 -18.968  -0.158  1.00  0.00     0.064 A 
ATOM     56  C   UNL     1      -1.719 -19.685  -0.980  1.00  0.00     0.173 A 
ATOM     57  C   UNL     1      -2.863 -19.465   1.123  1.00  0.00     0.173 A 
ATOM     58  F   UNL     1      -1.452 -19.247  -2.218  1.00  0.00    -0.203 F 
ATOM     59  C   UNL     1      -1.124 -20.862  -0.534  1.00  0.00     0.198 A 
ATOM     60  C   UNL     1      -2.263 -20.640   1.570  1.00  0.00     0.198 A 
ATOM     61  F   UNL     1      -3.704 -18.809   1.936  1.00  0.00    -0.203 F 
ATOM     62  F   UNL     1      -0.295 -21.538  -1.340  1.00  0.00    -0.200 F 
ATOM     63  C   UNL     1      -1.395 -21.337   0.741  1.00  0.00     0.200 A 
ATOM     64  F   UNL     1      -2.526 -21.099   2.801  1.00  0.00    -0.200 F 
ATOM     65  F   UNL     1      -0.822 -22.470   1.170  1.00  0.00    -0.200 F 
ENDBRANCH  31  55
BRANCH  43  66
ATOM     66  C   UNL     1      -8.033 -17.546  -4.238  1.00  0.00     0.064 A 
ATOM     67  C   UNL     1      -9.188 -17.964  -3.564  1.00  0.00     0.173 A 
ATOM     68  C   UNL     1      -7.863 -17.934  -5.573  1.00  0.00     0.173 A 
ATOM     69  F   UNL     1      -9.381 -17.623  -2.281  1.00  0.00    -0.203 F 
ATOM     70  C   UNL     1     -10.141 -18.749  -4.206  1.00  0.00     0.198 A 
ATOM     71  C   UNL     1      -8.821 -18.715  -6.213  1.00  0.00     0.198 A 
ATOM     72  F   UNL     1      -6.768 -17.560  -6.251  1.00  0.00    -0.203 F 
ATOM     73  F   UNL     1     -11.233 -19.152  -3.542  1.00  0.00    -0.200 F 
ATOM     74  C   UNL     1      -9.958 -19.122  -5.530  1.00  0.00     0.200 A 
ATOM     75  F   UNL     1      -8.642 -19.079  -7.491  1.00  0.00    -0.200 F 
ATOM     76  F   UNL     1     -10.875 -19.880  -6.146  1.00  0.00    -0.200 F 
ENDBRANCH  43  66
ENDBRANCH  17  18
ENDBRANCH  10  12
ENDBRANCH   7   8
ENDBRANCH   6   7
ENDBRANCH   5   6
ENDBRANCH   1   5
BRANCH   2  77
ATOM     77  C   UNL     1       6.596  -6.138  -3.364  1.00  0.00     0.097 A 
ATOM     78  S   UNL     1       6.527  -4.509  -2.856  1.00  0.00    -0.130 S 
ATOM     79  C   UNL     1       6.384  -6.272  -4.732  1.00  0.00    -0.007 A 
ATOM     80  C   UNL     1       5.971  -3.969  -4.383  1.00  0.00     0.035 A 
ATOM     81  C   UNL     1       5.928  -5.013  -5.309  1.00  0.00    -0.003 A 
ATOM     82  C   UNL     1       5.598  -2.652  -4.722  1.00  0.00     0.019 A 
ATOM     83  C   UNL     1       5.474  -4.698  -6.619  1.00  0.00     0.010 A 
ATOM     84  C   UNL     1       5.164  -2.381  -6.020  1.00  0.00     0.001 A 
ATOM     85  C   UNL     1       5.100  -3.395  -6.962  1.00  0.00     0.001 A 
BRANCH  79  86
ATOM     86  C   UNL     1       6.506  -7.548  -5.525  1.00  0.00     0.107 C 
BRANCH  86  87
ATOM     87  S   UNL     1       8.146  -8.334  -5.524  1.00  0.00    -0.154 SA
BRANCH  87  88
ATOM     88  C   UNL     1       9.250  -6.949  -5.994  1.00  0.00     0.104 C 
BRANCH  88  89
ATOM     89  C   UNL     1       9.306  -6.588  -7.484  1.00  0.00     0.149 C 
BRANCH  89  90
ATOM     90  C   UNL     1       9.602  -7.770  -8.412  1.00  0.00     0.188 C 
BRANCH  90  91
ATOM     91  O   UNL     1       9.754  -7.281  -9.749  1.00  0.00    -0.394 OA
ATOM     92  H   UNL     1       8.936  -6.838 -10.026  1.00  0.00     0.210 HD
ENDBRANCH  90  91
ENDBRANCH  89  90
BRANCH  89  93
ATOM     93  O   UNL     1       8.089  -5.966  -7.923  1.00  0.00    -0.390 OA
ATOM     94  H   UNL     1       7.357  -6.600  -7.851  1.00  0.00     0.211 HD
ENDBRANCH  89  93
ENDBRANCH  88  89
ENDBRANCH  87  88
ENDBRANCH  86  87
ENDBRANCH  79  86
ENDBRANCH   2  77
TORSDOF 17
