REMARK SMILES O=C(CN1C(=O)/C(=C\c2c(F)cccc2Cl)Oc2ccccc21)NCCCNC(=O)c1ccc(-c2c3nc(c(-c4c(F)c(F)c(F)c(F)c4F)c4ccc([nH]4)c(-c4c(F)c(F)c(F)c(F)c4F)c4nc(c(-c5c(F)c(F)c(F)c(F)c5F)c5ccc2[nH]5)C=C4)C=C3)cc1
REMARK SMILES IDX 26 1 25 2 24 3 1 4 2 5 3 7 4 8 5 9 23 10 6 11 7 12 18 13
REMARK SMILES IDX 22 14 8 15 17 16 19 17 21 18 20 19 9 20 10 21 15 22 11 23
REMARK SMILES IDX 12 24 14 25 16 26 13 27 27 28 28 29 29 30 30 32 31 33 32 34
REMARK SMILES IDX 93 35 33 36 92 37 34 38 35 39 36 40 86 41 37 42 91 43 85 44
REMARK SMILES IDX 87 45 38 46 90 47 84 48 83 49 39 51 71 52 51 53 70 54 52 55
REMARK SMILES IDX 55 56 69 57 88 58 53 59 54 60 68 62 89 63 56 64 40 65 41 66
REMARK SMILES IDX 49 67 42 68 43 69 47 70 50 71 44 72 45 73 48 74 46 75 72 76
REMARK SMILES IDX 73 77 81 78 74 79 75 80 79 81 82 82 76 83 77 84 80 85 78 86
REMARK SMILES IDX 57 87 58 88 66 89 59 90 60 91 64 92 67 93 61 94 62 95 65 96
REMARK SMILES IDX 63 97
REMARK H PARENT 24 6 28 31 87 50 55 61
REMARK Flexibility Score: inf
ROOT
ATOM      1  C   UNL     1       2.195   2.929  -1.582  1.00  0.00     0.042 C 
ENDROOT
BRANCH   1   2
ATOM      2  C   UNL     1       2.004   1.470  -2.000  1.00  0.00     0.117 C 
BRANCH   2   3
ATOM      3  N   UNL     1       2.666   0.512  -1.137  1.00  0.00    -0.354 N 
ATOM      4  O   UNL     1       1.397   0.971   0.705  1.00  0.00    -0.273 OA
ATOM      5  C   UNL     1       2.283   0.304   0.170  1.00  0.00     0.240 C 
ATOM      6  H   UNL     1       3.419  -0.010  -1.499  1.00  0.00     0.163 HD
BRANCH   5   7
ATOM      7  C   UNL     1       3.170  -0.635   0.996  1.00  0.00     0.226 C 
BRANCH   7   8
ATOM      8  N   UNL     1       3.947  -1.641   0.274  1.00  0.00    -0.293 N 
ATOM      9  C   UNL     1       3.395  -2.911   0.194  1.00  0.00     0.294 C 
ATOM     10  C   UNL     1       5.234  -1.374  -0.265  1.00  0.00     0.088 A 
ATOM     11  O   UNL     1       2.220  -3.141   0.473  1.00  0.00    -0.265 OA
ATOM     12  C   UNL     1       4.348  -3.998  -0.211  1.00  0.00     0.193 C 
ATOM     13  C   UNL     1       5.922  -2.403  -0.922  1.00  0.00     0.151 A 
ATOM     14  C   UNL     1       5.829  -0.106  -0.211  1.00  0.00     0.030 A 
ATOM     15  C   UNL     1       4.217  -5.257   0.246  1.00  0.00     0.065 C 
ATOM     16  O   UNL     1       5.444  -3.687  -1.002  1.00  0.00    -0.449 OA
ATOM     17  C   UNL     1       7.163  -2.173  -1.521  1.00  0.00     0.049 A 
ATOM     18  C   UNL     1       7.072   0.124  -0.808  1.00  0.00     0.002 A 
ATOM     19  C   UNL     1       7.738  -0.907  -1.464  1.00  0.00     0.004 A 
BRANCH  15  20
ATOM     20  C   UNL     1       3.228  -5.687   1.246  1.00  0.00     0.033 A 
ATOM     21  C   UNL     1       2.009  -6.229   0.826  1.00  0.00     0.132 A 
ATOM     22  C   UNL     1       3.428  -5.499   2.625  1.00  0.00     0.051 A 
ATOM     23  F   UNL     1       1.779  -6.433  -0.481  1.00  0.00    -0.206 F 
ATOM     24  C   UNL     1       1.005  -6.554   1.736  1.00  0.00     0.040 A 
ATOM     25  C   UNL     1       2.426  -5.830   3.545  1.00  0.00     0.021 A 
ATOM     26  Cl  UNL     1       4.905  -4.843   3.249  1.00  0.00    -0.084 Cl
ATOM     27  C   UNL     1       1.211  -6.349   3.099  1.00  0.00     0.005 A 
ENDBRANCH  15  20
ENDBRANCH   7   8
ENDBRANCH   5   7
ENDBRANCH   2   3
ENDBRANCH   1   2
BRANCH   1  28
ATOM     28  C   UNL     1       3.645   3.384  -1.458  1.00  0.00     0.118 C 
BRANCH  28  29
ATOM     29  N   UNL     1       4.355   3.420  -2.728  1.00  0.00    -0.352 N 
ATOM     30  C   UNL     1       5.127   4.412  -3.285  1.00  0.00     0.251 C 
ATOM     31  H   UNL     1       4.269   2.606  -3.275  1.00  0.00     0.163 HD
ATOM     32  O   UNL     1       5.548   4.280  -4.431  1.00  0.00    -0.269 OA
BRANCH  30  33
ATOM     33  C   UNL     1       5.434   5.654  -2.536  1.00  0.00     0.039 A 
ATOM     34  C   UNL     1       5.790   5.628  -1.187  1.00  0.00     0.014 A 
ATOM     35  C   UNL     1       5.387   6.879  -3.215  1.00  0.00     0.014 A 
ATOM     36  C   UNL     1       5.946   6.822  -0.485  1.00  0.00     0.010 A 
ATOM     37  C   UNL     1       5.611   8.075  -2.525  1.00  0.00     0.010 A 
ATOM     38  C   UNL     1       5.842   8.060  -1.142  1.00  0.00    -0.014 A 
BRANCH  38  39
ATOM     39  C   UNL     1       5.952   9.315  -0.352  1.00  0.00     0.031 A 
ATOM     40  C   UNL     1       4.752  10.202  -0.152  1.00  0.00     0.074 A 
ATOM     41  C   UNL     1       7.116   9.621   0.252  1.00  0.00     0.049 A 
ATOM     42  N   UNL     1       4.636  11.281   0.584  1.00  0.00    -0.248 NA
ATOM     43  C   UNL     1       3.522   9.836  -0.871  1.00  0.00     0.031 C 
ATOM     44  C   UNL     1       8.352   8.850   0.133  1.00  0.00     0.029 A 
ATOM     45  N   UNL     1       7.439  10.641   1.113  1.00  0.00    -0.354 N 
ATOM     46  C   UNL     1       3.330  11.721   0.411  1.00  0.00     0.074 A 
ATOM     47  C   UNL     1       2.700  10.816  -0.525  1.00  0.00     0.031 C 
ATOM     48  C   UNL     1       9.282   9.384   0.940  1.00  0.00     0.029 A 
ATOM     49  C   UNL     1       8.719  10.557   1.604  1.00  0.00     0.049 A 
ATOM     50  H   UNL     1       6.814  11.362   1.355  1.00  0.00     0.167 HD
ATOM     51  C   UNL     1       2.707  12.773   0.995  1.00  0.00     0.037 A 
ATOM     52  C   UNL     1       9.364  11.330   2.498  1.00  0.00     0.037 A 
ATOM     53  C   UNL     1       3.318  13.660   1.949  1.00  0.00     0.049 A 
ATOM     54  C   UNL     1       8.655  12.502   3.115  1.00  0.00     0.074 A 
ATOM     55  C   UNL     1       2.749  14.730   2.618  1.00  0.00     0.029 A 
ATOM     56  N   UNL     1       4.635  13.577   2.372  1.00  0.00    -0.354 N 
ATOM     57  N   UNL     1       7.415  12.892   2.959  1.00  0.00    -0.248 NA
ATOM     58  C   UNL     1       9.441  13.348   4.026  1.00  0.00     0.031 C 
ATOM     59  C   UNL     1       3.732  15.315   3.423  1.00  0.00     0.029 A 
ATOM     60  C   UNL     1       4.903  14.589   3.279  1.00  0.00     0.049 A 
ATOM     61  H   UNL     1       5.284  12.900   2.072  1.00  0.00     0.167 HD
ATOM     62  C   UNL     1       7.268  14.021   3.752  1.00  0.00     0.074 A 
ATOM     63  C   UNL     1       8.540  14.244   4.406  1.00  0.00     0.031 C 
ATOM     64  C   UNL     1       6.175  14.805   3.916  1.00  0.00     0.037 A 
BRANCH  51  65
ATOM     65  C   UNL     1       1.277  13.026   0.625  1.00  0.00     0.064 A 
ATOM     66  C   UNL     1       0.240  12.229   1.133  1.00  0.00     0.173 A 
ATOM     67  C   UNL     1       0.933  14.115  -0.189  1.00  0.00     0.173 A 
ATOM     68  F   UNL     1       0.521  11.171   1.908  1.00  0.00    -0.203 F 
ATOM     69  C   UNL     1      -1.089  12.508   0.829  1.00  0.00     0.198 A 
ATOM     70  C   UNL     1      -0.399  14.402  -0.475  1.00  0.00     0.198 A 
ATOM     71  F   UNL     1       1.889  14.910  -0.693  1.00  0.00    -0.203 F 
ATOM     72  F   UNL     1      -2.063  11.719   1.303  1.00  0.00    -0.200 F 
ATOM     73  C   UNL     1      -1.408  13.597   0.032  1.00  0.00     0.200 A 
ATOM     74  F   UNL     1      -0.706  15.461  -1.236  1.00  0.00    -0.200 F 
ATOM     75  F   UNL     1      -2.689  13.870  -0.251  1.00  0.00    -0.200 F 
ENDBRANCH  51  65
BRANCH  52  76
ATOM     76  C   UNL     1      10.756  10.993   2.885  1.00  0.00     0.064 A 
ATOM     77  C   UNL     1      11.036  10.448   4.146  1.00  0.00     0.173 A 
ATOM     78  C   UNL     1      11.825  11.181   1.999  1.00  0.00     0.173 A 
ATOM     79  F   UNL     1      10.046  10.271   5.033  1.00  0.00    -0.203 F 
ATOM     80  C   UNL     1      12.337  10.104   4.506  1.00  0.00     0.198 A 
ATOM     81  C   UNL     1      13.122  10.817   2.352  1.00  0.00     0.198 A 
ATOM     82  F   UNL     1      11.605  11.699   0.782  1.00  0.00    -0.203 F 
ATOM     83  F   UNL     1      12.582   9.605   5.724  1.00  0.00    -0.200 F 
ATOM     84  C   UNL     1      13.377  10.281   3.606  1.00  0.00     0.200 A 
ATOM     85  F   UNL     1      14.124  10.978   1.476  1.00  0.00    -0.200 F 
ATOM     86  F   UNL     1      14.627   9.937   3.948  1.00  0.00    -0.200 F 
ENDBRANCH  52  76
BRANCH  64  87
ATOM     87  C   UNL     1       6.302  15.983   4.832  1.00  0.00     0.064 A 
ATOM     88  C   UNL     1       6.968  17.148   4.425  1.00  0.00     0.173 A 
ATOM     89  C   UNL     1       5.698  15.974   6.098  1.00  0.00     0.173 A 
ATOM     90  F   UNL     1       7.572  17.197   3.228  1.00  0.00    -0.203 F 
ATOM     91  C   UNL     1       7.031  18.262   5.258  1.00  0.00     0.198 A 
ATOM     92  C   UNL     1       5.747  17.096   6.920  1.00  0.00     0.198 A 
ATOM     93  F   UNL     1       5.046  14.884   6.528  1.00  0.00    -0.203 F 
ATOM     94  F   UNL     1       7.693  19.357   4.861  1.00  0.00    -0.200 F 
ATOM     95  C   UNL     1       6.414  18.238   6.501  1.00  0.00     0.200 A 
ATOM     96  F   UNL     1       5.143  17.076   8.116  1.00  0.00    -0.200 F 
ATOM     97  F   UNL     1       6.467  19.315   7.296  1.00  0.00    -0.200 F 
ENDBRANCH  64  87
ENDBRANCH  38  39
ENDBRANCH  30  33
ENDBRANCH  28  29
ENDBRANCH   1  28
TORSDOF 12
