REMARK SMILES C[C@@H](CCO)Sc1cc(C(=O)NCCCNC(=O)c2ccc(-c3c4nc(c(-c5c(F)c(F)c(F)c(F)c5F)c5ccc([nH]5)c(-c5c(F)c(F)c(F)c(F)c5F)c5nc(c(-c6c(F)c(F)c(F)c(F)c6F)c6ccc3[nH]6)C=C5)C=C4)cc2)c2ccccc2n1
REMARK SMILES IDX 10 1 11 2 12 3 9 5 7 6 8 7 88 8 87 9 82 10 86 11 83 12 85 13
REMARK SMILES IDX 84 14 6 15 2 16 1 17 3 18 4 19 5 20 13 22 14 23 15 24 16 25
REMARK SMILES IDX 17 26 18 28 19 29 20 30 81 31 21 32 80 33 22 34 23 35 24 36
REMARK SMILES IDX 74 37 25 38 79 39 73 40 75 41 26 42 78 43 72 44 71 45 27 47
REMARK SMILES IDX 59 48 39 49 58 50 40 51 43 52 57 53 76 54 41 55 42 56 56 58
REMARK SMILES IDX 77 59 44 60 28 61 29 62 37 63 30 64 31 65 35 66 38 67 32 68
REMARK SMILES IDX 33 69 36 70 34 71 60 72 61 73 69 74 62 75 63 76 67 77 70 78
REMARK SMILES IDX 64 79 65 80 68 81 66 82 45 83 46 84 54 85 47 86 48 87 52 88
REMARK SMILES IDX 55 89 49 90 50 91 53 92 51 93
REMARK H PARENT 12 4 5 21 16 27 75 46 43 57
REMARK Flexibility Score: inf
ROOT
ATOM      1  C   UNL     1      -2.797  -1.830   3.238  1.00  0.00     0.252 C 
ATOM      2  O   UNL     1      -2.405  -0.711   3.581  1.00  0.00    -0.269 OA
ATOM      3  N   UNL     1      -3.630  -2.471   4.117  1.00  0.00    -0.352 N 
ATOM      4  H   UNL     1      -3.912  -1.896   4.865  1.00  0.00     0.163 HD
ENDROOT
BRANCH   1   5
ATOM      5  C   UNL     1      -2.431  -2.309   1.871  1.00  0.00     0.051 A 
ATOM      6  C   UNL     1      -1.987  -1.589  -0.369  1.00  0.00     0.098 A 
ATOM      7  C   UNL     1      -2.335  -1.277   0.926  1.00  0.00     0.050 A 
ATOM      8  N   UNL     1      -1.929  -2.855  -0.816  1.00  0.00    -0.241 NA
ATOM      9  C   UNL     1      -1.997  -3.851   0.076  1.00  0.00     0.072 A 
ATOM     10  C   UNL     1      -2.113  -3.627   1.461  1.00  0.00     0.013 A 
ATOM     11  C   UNL     1      -1.851  -5.147  -0.403  1.00  0.00     0.029 A 
ATOM     12  C   UNL     1      -1.816  -4.720   2.302  1.00  0.00     0.011 A 
ATOM     13  C   UNL     1      -1.704  -6.236   0.452  1.00  0.00     0.002 A 
ATOM     14  C   UNL     1      -1.643  -6.015   1.815  1.00  0.00     0.001 A 
BRANCH   6  15
ATOM     15  S   UNL     1      -1.506  -0.334  -1.523  1.00  0.00    -0.103 SA
BRANCH  15  16
ATOM     16  C   UNL     1       0.321  -0.200  -1.229  1.00  0.00     0.052 C 
ATOM     17  C   UNL     1       0.706   0.007   0.236  1.00  0.00     0.020 C 
BRANCH  16  18
ATOM     18  C   UNL     1       1.192  -1.254  -1.943  1.00  0.00     0.043 C 
BRANCH  18  19
ATOM     19  C   UNL     1       1.195  -2.669  -1.376  1.00  0.00     0.157 C 
BRANCH  19  20
ATOM     20  O   UNL     1       0.390  -3.515  -2.184  1.00  0.00    -0.396 OA
ATOM     21  H   UNL     1      -0.521  -3.180  -2.196  1.00  0.00     0.210 HD
ENDBRANCH  19  20
ENDBRANCH  18  19
ENDBRANCH  16  18
ENDBRANCH  15  16
ENDBRANCH   6  15
ENDBRANCH   1   5
BRANCH   3  22
ATOM     22  C   UNL     1      -4.192  -3.811   4.194  1.00  0.00     0.118 C 
BRANCH  22  23
ATOM     23  C   UNL     1      -3.379  -4.646   5.190  1.00  0.00     0.042 C 
BRANCH  23  24
ATOM     24  C   UNL     1      -3.813  -4.493   6.639  1.00  0.00     0.118 C 
BRANCH  24  25
ATOM     25  N   UNL     1      -4.870  -5.425   6.989  1.00  0.00    -0.352 N 
ATOM     26  C   UNL     1      -4.845  -6.533   7.800  1.00  0.00     0.251 C 
ATOM     27  H   UNL     1      -5.744  -5.232   6.579  1.00  0.00     0.163 HD
ATOM     28  O   UNL     1      -5.795  -7.318   7.760  1.00  0.00    -0.269 OA
BRANCH  26  29
ATOM     29  C   UNL     1      -3.708  -6.818   8.710  1.00  0.00     0.039 A 
ATOM     30  C   UNL     1      -3.365  -8.153   8.956  1.00  0.00     0.014 A 
ATOM     31  C   UNL     1      -3.024  -5.805   9.387  1.00  0.00     0.014 A 
ATOM     32  C   UNL     1      -2.325  -8.466   9.838  1.00  0.00     0.010 A 
ATOM     33  C   UNL     1      -1.927  -6.111  10.193  1.00  0.00     0.010 A 
ATOM     34  C   UNL     1      -1.581  -7.445  10.449  1.00  0.00    -0.014 A 
BRANCH  34  35
ATOM     35  C   UNL     1      -0.473  -7.751  11.393  1.00  0.00     0.031 A 
ATOM     36  C   UNL     1      -0.570  -7.324  12.835  1.00  0.00     0.074 A 
ATOM     37  C   UNL     1       0.640  -8.366  10.951  1.00  0.00     0.049 A 
ATOM     38  N   UNL     1       0.312  -7.434  13.796  1.00  0.00    -0.248 NA
ATOM     39  C   UNL     1      -1.815  -6.654  13.241  1.00  0.00     0.031 C 
ATOM     40  C   UNL     1       0.877  -8.796   9.573  1.00  0.00     0.029 A 
ATOM     41  N   UNL     1       1.785  -8.731  11.616  1.00  0.00    -0.354 N 
ATOM     42  C   UNL     1      -0.261  -6.829  14.908  1.00  0.00     0.074 A 
ATOM     43  C   UNL     1      -1.542  -6.303  14.488  1.00  0.00     0.031 C 
ATOM     44  C   UNL     1       2.076  -9.395   9.501  1.00  0.00     0.029 A 
ATOM     45  C   UNL     1       2.708  -9.360  10.816  1.00  0.00     0.049 A 
ATOM     46  H   UNL     1       1.930  -8.559  12.574  1.00  0.00     0.167 HD
ATOM     47  C   UNL     1       0.222  -6.740  16.171  1.00  0.00     0.037 A 
ATOM     48  C   UNL     1       3.925  -9.853  11.113  1.00  0.00     0.037 A 
ATOM     49  C   UNL     1       1.480  -7.295  16.597  1.00  0.00     0.049 A 
ATOM     50  C   UNL     1       4.440  -9.748  12.522  1.00  0.00     0.074 A 
ATOM     51  C   UNL     1       2.033  -7.313  17.865  1.00  0.00     0.029 A 
ATOM     52  N   UNL     1       2.382  -7.935  15.759  1.00  0.00    -0.354 N 
ATOM     53  N   UNL     1       3.866  -9.221  13.576  1.00  0.00    -0.248 NA
ATOM     54  C   UNL     1       5.772 -10.311  12.782  1.00  0.00     0.031 C 
ATOM     55  C   UNL     1       3.286  -7.931  17.788  1.00  0.00     0.029 A 
ATOM     56  C   UNL     1       3.495  -8.337  16.479  1.00  0.00     0.049 A 
ATOM     57  H   UNL     1       2.250  -8.082  14.794  1.00  0.00     0.167 HD
ATOM     58  C   UNL     1       4.751  -9.411  14.628  1.00  0.00     0.074 A 
ATOM     59  C   UNL     1       5.897 -10.113  14.087  1.00  0.00     0.031 C 
ATOM     60  C   UNL     1       4.625  -9.038  15.925  1.00  0.00     0.037 A 
BRANCH  47  61
ATOM     61  C   UNL     1      -0.621  -6.014  17.181  1.00  0.00     0.064 A 
ATOM     62  C   UNL     1      -1.838  -6.542  17.640  1.00  0.00     0.173 A 
ATOM     63  C   UNL     1      -0.206  -4.779  17.701  1.00  0.00     0.173 A 
ATOM     64  F   UNL     1      -2.287  -7.714  17.166  1.00  0.00    -0.203 F 
ATOM     65  C   UNL     1      -2.628  -5.840  18.547  1.00  0.00     0.198 A 
ATOM     66  C   UNL     1      -0.983  -4.095  18.633  1.00  0.00     0.198 A 
ATOM     67  F   UNL     1       0.953  -4.232  17.304  1.00  0.00    -0.203 F 
ATOM     68  F   UNL     1      -3.817  -6.335  18.919  1.00  0.00    -0.200 F 
ATOM     69  C   UNL     1      -2.199  -4.620  19.046  1.00  0.00     0.200 A 
ATOM     70  F   UNL     1      -0.561  -2.922  19.124  1.00  0.00    -0.200 F 
ATOM     71  F   UNL     1      -2.961  -3.945  19.917  1.00  0.00    -0.200 F 
ENDBRANCH  47  61
BRANCH  48  72
ATOM     72  C   UNL     1       4.720 -10.534  10.059  1.00  0.00     0.064 A 
ATOM     73  C   UNL     1       4.894 -11.924  10.083  1.00  0.00     0.173 A 
ATOM     74  C   UNL     1       5.302  -9.820   9.001  1.00  0.00     0.173 A 
ATOM     75  F   UNL     1       4.373 -12.646  11.086  1.00  0.00    -0.203 F 
ATOM     76  C   UNL     1       5.628 -12.575   9.094  1.00  0.00     0.198 A 
ATOM     77  C   UNL     1       6.016 -10.476   8.000  1.00  0.00     0.198 A 
ATOM     78  F   UNL     1       5.161  -8.489   8.931  1.00  0.00    -0.203 F 
ATOM     79  F   UNL     1       5.805 -13.902   9.159  1.00  0.00    -0.200 F 
ATOM     80  C   UNL     1       6.182 -11.852   8.049  1.00  0.00     0.200 A 
ATOM     81  F   UNL     1       6.539  -9.774   6.984  1.00  0.00    -0.200 F 
ATOM     82  F   UNL     1       6.879 -12.479   7.093  1.00  0.00    -0.200 F 
ENDBRANCH  48  72
BRANCH  60  83
ATOM     83  C   UNL     1       5.742  -9.409  16.856  1.00  0.00     0.064 A 
ATOM     84  C   UNL     1       6.981  -8.753  16.816  1.00  0.00     0.173 A 
ATOM     85  C   UNL     1       5.558 -10.410  17.822  1.00  0.00     0.173 A 
ATOM     86  F   UNL     1       7.210  -7.800  15.900  1.00  0.00    -0.203 F 
ATOM     87  C   UNL     1       8.003  -9.102  17.694  1.00  0.00     0.198 A 
ATOM     88  C   UNL     1       6.573 -10.738  18.716  1.00  0.00     0.198 A 
ATOM     89  F   UNL     1       4.389 -11.064  17.904  1.00  0.00    -0.203 F 
ATOM     90  F   UNL     1       9.194  -8.493  17.609  1.00  0.00    -0.200 F 
ATOM     91  C   UNL     1       7.797 -10.089  18.647  1.00  0.00     0.200 A 
ATOM     92  F   UNL     1       6.368 -11.683  19.643  1.00  0.00    -0.200 F 
ATOM     93  F   UNL     1       8.780 -10.420  19.495  1.00  0.00    -0.200 F 
ENDBRANCH  60  83
ENDBRANCH  34  35
ENDBRANCH  26  29
ENDBRANCH  24  25
ENDBRANCH  23  24
ENDBRANCH  22  23
ENDBRANCH   3  22
TORSDOF 15
