REMARK SMILES CNC(=O)c1cccc(-c2ccc(C(=O)NCCCNC(=O)c3ccc(-c4c5nc(c(-c6c(F)c(F)c(F)c(F)c6F)c6ccc([nH]6)c(-c6c(F)c(F)c(F)c(F)c6F)c6nc(c(-c7c(F)c(F)c(F)c(F)c7F)c7ccc4[nH]7)C=C6)C=C5)cc3)cc2O)c1
REMARK SMILES IDX 18 1 17 2 16 3 14 4 15 5 13 7 10 8 11 9 87 10 12 11 86 12
REMARK SMILES IDX 9 13 5 14 6 15 89 16 7 17 8 18 3 19 1 20 2 21 4 23 88 24
REMARK SMILES IDX 19 26 20 27 21 28 22 30 23 31 24 32 85 33 25 34 84 35 26 36
REMARK SMILES IDX 27 37 28 38 78 39 29 40 83 41 77 42 79 43 30 44 82 45 76 46
REMARK SMILES IDX 75 47 31 49 63 50 43 51 62 52 44 53 47 54 61 55 80 56 45 57
REMARK SMILES IDX 46 58 60 60 81 61 48 62 32 63 33 64 41 65 34 66 35 67 39 68
REMARK SMILES IDX 42 69 36 70 37 71 40 72 38 73 64 74 65 75 73 76 66 77 67 78
REMARK SMILES IDX 71 79 74 80 68 81 69 82 72 83 70 84 49 85 50 86 58 87 51 88
REMARK SMILES IDX 52 89 56 90 59 91 53 92 54 93 57 94 55 95
REMARK H PARENT 16 6 2 22 88 25 20 29 79 48 47 59
REMARK Flexibility Score: inf
ROOT
ATOM      1  C   UNL     1      -6.513   2.169   4.698  1.00  0.00     0.042 C 
ENDROOT
BRANCH   1   2
ATOM      2  C   UNL     1      -5.110   2.313   5.288  1.00  0.00     0.118 C 
BRANCH   2   3
ATOM      3  N   UNL     1      -4.893   1.388   6.386  1.00  0.00    -0.352 N 
ATOM      4  C   UNL     1      -4.210   0.200   6.458  1.00  0.00     0.251 C 
ATOM      5  O   UNL     1      -4.092  -0.331   7.562  1.00  0.00    -0.269 OA
ATOM      6  H   UNL     1      -5.311   1.664   7.234  1.00  0.00     0.163 HD
BRANCH   4   7
ATOM      7  C   UNL     1      -3.583  -0.449   5.276  1.00  0.00     0.043 A 
ATOM      8  C   UNL     1      -2.309  -1.783   3.117  1.00  0.00     0.024 A 
ATOM      9  C   UNL     1      -1.806  -1.882   4.424  1.00  0.00     0.013 A 
ATOM     10  C   UNL     1      -3.477  -1.028   2.928  1.00  0.00     0.124 A 
ATOM     11  C   UNL     1      -2.434  -1.222   5.490  1.00  0.00     0.015 A 
ATOM     12  C   UNL     1      -4.113  -0.387   3.990  1.00  0.00     0.060 A 
BRANCH   8  13
ATOM     13  C   UNL     1      -1.642  -2.477   2.008  1.00  0.00    -0.014 A 
ATOM     14  C   UNL     1      -0.516  -2.419  -0.152  1.00  0.00     0.040 A 
ATOM     15  C   UNL     1      -0.548  -3.816  -0.206  1.00  0.00     0.014 A 
ATOM     16  C   UNL     1      -1.071  -1.753   0.947  1.00  0.00     0.022 A 
ATOM     17  C   UNL     1      -1.095  -4.546   0.848  1.00  0.00     0.001 A 
ATOM     18  C   UNL     1      -1.634  -3.880   1.950  1.00  0.00     0.009 A 
BRANCH  14  19
ATOM     19  C   UNL     1      -0.013  -1.684  -1.336  1.00  0.00     0.251 C 
ATOM     20  C   UNL     1       1.412  -0.033  -0.024  1.00  0.00     0.143 C 
ATOM     21  N   UNL     1       0.773  -0.571  -1.201  1.00  0.00    -0.355 N 
ATOM     22  H   UNL     1       0.925  -0.062  -2.030  1.00  0.00     0.163 HD
ATOM     23  O   UNL     1      -0.314  -2.084  -2.458  1.00  0.00    -0.269 OA
ENDBRANCH  14  19
ENDBRANCH   8  13
BRANCH  10  24
ATOM     24  O   UNL     1      -4.086  -0.884   1.709  1.00  0.00    -0.507 OA
ATOM     25  H   UNL     1      -3.715  -1.288   0.949  1.00  0.00     0.293 HD
ENDBRANCH  10  24
ENDBRANCH   4   7
ENDBRANCH   2   3
ENDBRANCH   1   2
BRANCH   1  26
ATOM     26  C   UNL     1      -7.615   2.732   5.589  1.00  0.00     0.118 C 
BRANCH  26  27
ATOM     27  N   UNL     1      -7.594   4.186   5.636  1.00  0.00    -0.352 N 
ATOM     28  C   UNL     1      -8.582   5.091   5.342  1.00  0.00     0.251 C 
ATOM     29  H   UNL     1      -6.739   4.581   5.922  1.00  0.00     0.163 HD
ATOM     30  O   UNL     1      -8.303   6.282   5.248  1.00  0.00    -0.269 OA
BRANCH  28  31
ATOM     31  C   UNL     1      -9.979   4.649   5.130  1.00  0.00     0.039 A 
ATOM     32  C   UNL     1     -10.729   5.265   4.122  1.00  0.00     0.014 A 
ATOM     33  C   UNL     1     -10.572   3.683   5.947  1.00  0.00     0.014 A 
ATOM     34  C   UNL     1     -12.055   4.883   3.906  1.00  0.00     0.010 A 
ATOM     35  C   UNL     1     -11.873   3.255   5.689  1.00  0.00     0.010 A 
ATOM     36  C   UNL     1     -12.630   3.859   4.674  1.00  0.00    -0.014 A 
BRANCH  36  37
ATOM     37  C   UNL     1     -14.028   3.419   4.443  1.00  0.00     0.031 A 
ATOM     38  C   UNL     1     -15.077   3.647   5.495  1.00  0.00     0.074 A 
ATOM     39  C   UNL     1     -14.340   2.760   3.312  1.00  0.00     0.049 A 
ATOM     40  N   UNL     1     -16.333   3.279   5.508  1.00  0.00    -0.248 NA
ATOM     41  C   UNL     1     -14.648   4.364   6.705  1.00  0.00     0.031 C 
ATOM     42  C   UNL     1     -13.403   2.444   2.234  1.00  0.00     0.029 A 
ATOM     43  N   UNL     1     -15.531   2.228   2.885  1.00  0.00    -0.354 N 
ATOM     44  C   UNL     1     -16.837   3.699   6.732  1.00  0.00     0.074 A 
ATOM     45  C   UNL     1     -15.740   4.309   7.453  1.00  0.00     0.031 C 
ATOM     46  C   UNL     1     -14.059   1.794   1.259  1.00  0.00     0.029 A 
ATOM     47  C   UNL     1     -15.452   1.617   1.659  1.00  0.00     0.049 A 
ATOM     48  H   UNL     1     -16.363   2.279   3.409  1.00  0.00     0.167 HD
ATOM     49  C   UNL     1     -18.103   3.601   7.204  1.00  0.00     0.037 A 
ATOM     50  C   UNL     1     -16.397   0.983   0.940  1.00  0.00     0.037 A 
ATOM     51  C   UNL     1     -19.197   3.018   6.472  1.00  0.00     0.049 A 
ATOM     52  C   UNL     1     -17.794   0.886   1.484  1.00  0.00     0.074 A 
ATOM     53  C   UNL     1     -20.530   2.933   6.832  1.00  0.00     0.029 A 
ATOM     54  N   UNL     1     -19.080   2.416   5.228  1.00  0.00    -0.354 N 
ATOM     55  N   UNL     1     -18.275   1.342   2.615  1.00  0.00    -0.248 NA
ATOM     56  C   UNL     1     -18.781   0.187   0.649  1.00  0.00     0.031 C 
ATOM     57  C   UNL     1     -21.213   2.243   5.823  1.00  0.00     0.029 A 
ATOM     58  C   UNL     1     -20.313   1.936   4.815  1.00  0.00     0.049 A 
ATOM     59  H   UNL     1     -18.244   2.340   4.713  1.00  0.00     0.167 HD
ATOM     60  C   UNL     1     -19.622   1.010   2.618  1.00  0.00     0.074 A 
ATOM     61  C   UNL     1     -19.886   0.321   1.371  1.00  0.00     0.031 C 
ATOM     62  C   UNL     1     -20.557   1.255   3.569  1.00  0.00     0.037 A 
BRANCH  49  63
ATOM     63  C   UNL     1     -18.367   4.134   8.583  1.00  0.00     0.064 A 
ATOM     64  C   UNL     1     -18.342   5.510   8.858  1.00  0.00     0.173 A 
ATOM     65  C   UNL     1     -18.656   3.259   9.641  1.00  0.00     0.173 A 
ATOM     66  F   UNL     1     -18.059   6.388   7.884  1.00  0.00    -0.203 F 
ATOM     67  C   UNL     1     -18.558   5.987  10.148  1.00  0.00     0.198 A 
ATOM     68  C   UNL     1     -18.901   3.742  10.924  1.00  0.00     0.198 A 
ATOM     69  F   UNL     1     -18.699   1.935   9.432  1.00  0.00    -0.203 F 
ATOM     70  F   UNL     1     -18.470   7.301  10.398  1.00  0.00    -0.200 F 
ATOM     71  C   UNL     1     -18.841   5.104  11.179  1.00  0.00     0.200 A 
ATOM     72  F   UNL     1     -19.186   2.888  11.917  1.00  0.00    -0.200 F 
ATOM     73  F   UNL     1     -19.046   5.564  12.421  1.00  0.00    -0.200 F 
ENDBRANCH  49  63
BRANCH  50  74
ATOM     74  C   UNL     1     -16.054   0.430  -0.395  1.00  0.00     0.064 A 
ATOM     75  C   UNL     1     -16.517   1.049  -1.564  1.00  0.00     0.173 A 
ATOM     76  C   UNL     1     -15.242  -0.704  -0.531  1.00  0.00     0.173 A 
ATOM     77  F   UNL     1     -17.313   2.125  -1.480  1.00  0.00    -0.203 F 
ATOM     78  C   UNL     1     -16.185   0.551  -2.821  1.00  0.00     0.198 A 
ATOM     79  C   UNL     1     -14.892  -1.189  -1.790  1.00  0.00     0.198 A 
ATOM     80  F   UNL     1     -14.771  -1.329   0.558  1.00  0.00    -0.203 F 
ATOM     81  F   UNL     1     -16.664   1.145  -3.922  1.00  0.00    -0.200 F 
ATOM     82  C   UNL     1     -15.367  -0.563  -2.933  1.00  0.00     0.200 A 
ATOM     83  F   UNL     1     -14.091  -2.258  -1.895  1.00  0.00    -0.200 F 
ATOM     84  F   UNL     1     -15.039  -1.037  -4.143  1.00  0.00    -0.200 F 
ENDBRANCH  50  74
BRANCH  62  85
ATOM     85  C   UNL     1     -21.958   0.800   3.285  1.00  0.00     0.064 A 
ATOM     86  C   UNL     1     -22.315  -0.556   3.336  1.00  0.00     0.173 A 
ATOM     87  C   UNL     1     -22.963   1.735   2.995  1.00  0.00     0.173 A 
ATOM     88  F   UNL     1     -21.386  -1.489   3.593  1.00  0.00    -0.203 F 
ATOM     89  C   UNL     1     -23.623  -0.960   3.085  1.00  0.00     0.198 A 
ATOM     90  C   UNL     1     -24.275   1.329   2.771  1.00  0.00     0.198 A 
ATOM     91  F   UNL     1     -22.673   3.043   2.939  1.00  0.00    -0.203 F 
ATOM     92  F   UNL     1     -23.933  -2.264   3.097  1.00  0.00    -0.200 F 
ATOM     93  C   UNL     1     -24.603  -0.018   2.810  1.00  0.00     0.200 A 
ATOM     94  F   UNL     1     -25.223   2.241   2.515  1.00  0.00    -0.200 F 
ATOM     95  F   UNL     1     -25.863  -0.409   2.575  1.00  0.00    -0.200 F 
ENDBRANCH  62  85
ENDBRANCH  36  37
ENDBRANCH  28  31
ENDBRANCH  26  27
ENDBRANCH   1  26
TORSDOF 13
