REMARK SMILES Cc1nccn1C1(C(=O)NCCCNC(=O)c2ccc(-c3c4nc(c(-c5c(F)c(F)c(F)c(F)c5F)c5ccc([nH]5)c(-c5c(F)c(F)c(F)c(F)c5F)c5nc(c(-c6c(F)c(F)c(F)c(F)c6F)c6ccc3[nH]6)C=C5)C=C4)cc2)CCN(C(=O)[C@@H]2C[C@H]2c2ccccc2)CC1
REMARK SMILES IDX 12 1 11 2 10 3 8 4 9 5 7 7 80 8 95 9 81 10 94 11 82 12 83 13
REMARK SMILES IDX 84 14 6 15 1 16 2 17 3 18 4 19 5 20 85 21 86 22 87 23 88 24
REMARK SMILES IDX 89 25 93 26 90 27 92 28 91 29 13 30 14 31 15 32 16 34 17 35
REMARK SMILES IDX 18 36 79 37 19 38 78 39 20 40 21 41 22 42 72 43 23 44 77 45
REMARK SMILES IDX 71 46 73 47 24 48 76 49 70 50 69 51 25 53 57 54 37 55 56 56
REMARK SMILES IDX 38 57 41 58 55 59 74 60 39 61 40 62 54 64 75 65 42 66 26 67
REMARK SMILES IDX 27 68 35 69 28 70 29 71 33 72 36 73 30 74 31 75 34 76 32 77
REMARK SMILES IDX 58 78 59 79 67 80 60 81 61 82 65 83 68 84 62 85 63 86 66 87
REMARK SMILES IDX 64 88 43 89 44 90 52 91 45 92 46 93 50 94 53 95 47 96 48 97
REMARK SMILES IDX 51 98 49 99
REMARK H PARENT 10 6 14 33 73 52 41 63
REMARK Flexibility Score: inf
ROOT
ATOM      1  C   UNL     1      -1.937   2.768  -4.936  1.00  0.00     0.042 C 
ENDROOT
BRANCH   1   2
ATOM      2  C   UNL     1      -2.610   1.749  -4.009  1.00  0.00     0.117 C 
BRANCH   2   3
ATOM      3  N   UNL     1      -2.225   0.365  -4.273  1.00  0.00    -0.354 N 
ATOM      4  C   UNL     1      -1.376  -0.526  -3.675  1.00  0.00     0.246 C 
ATOM      5  O   UNL     1      -1.183  -1.538  -4.358  1.00  0.00    -0.272 OA
ATOM      6  H   UNL     1      -2.680  -0.012  -5.060  1.00  0.00     0.163 HD
BRANCH   4   7
ATOM      7  C   UNL     1      -0.620  -0.245  -2.317  1.00  0.00     0.127 C 
ATOM      8  C   UNL     1       0.411   0.861  -2.709  1.00  0.00     0.061 C 
ATOM      9  C   UNL     1      -1.638   0.137  -1.212  1.00  0.00     0.061 C 
ATOM     10  C   UNL     1       0.376   2.200  -1.949  1.00  0.00     0.122 C 
ATOM     11  C   UNL     1      -1.018   1.143  -0.272  1.00  0.00     0.122 C 
ATOM     12  N   UNL     1      -0.720   2.350  -1.002  1.00  0.00    -0.342 N 
ATOM     13  C   UNL     1      -1.226   3.636  -0.782  1.00  0.00     0.226 C 
ATOM     14  O   UNL     1      -0.688   4.609  -1.310  1.00  0.00    -0.275 OA
BRANCH   7  15
ATOM     15  N   UNL     1       0.074  -1.486  -1.785  1.00  0.00    -0.320 N 
ATOM     16  C   UNL     1       1.868  -0.574  -0.114  1.00  0.00     0.087 C 
ATOM     17  C   UNL     1       1.095  -1.619  -0.835  1.00  0.00     0.106 A 
ATOM     18  N   UNL     1       1.304  -2.890  -0.544  1.00  0.00    -0.242 NA
ATOM     19  C   UNL     1       0.391  -3.608  -1.239  1.00  0.00     0.131 A 
ATOM     20  C   UNL     1      -0.410  -2.772  -1.966  1.00  0.00     0.108 A 
ENDBRANCH   7  15
BRANCH  13  21
ATOM     21  C   UNL     1      -2.468   3.929   0.004  1.00  0.00     0.087 C 
ATOM     22  C   UNL     1      -2.422   3.923   1.515  1.00  0.00     0.023 C 
ATOM     23  C   UNL     1      -3.347   2.993   0.782  1.00  0.00     0.032 C 
BRANCH  23  24
ATOM     24  C   UNL     1      -4.839   3.073   0.830  1.00  0.00    -0.044 A 
ATOM     25  C   UNL     1      -5.497   2.881   2.055  1.00  0.00     0.004 A 
ATOM     26  C   UNL     1      -5.595   2.987  -0.349  1.00  0.00     0.004 A 
ATOM     27  C   UNL     1      -6.838   2.506   2.098  1.00  0.00     0.000 A 
ATOM     28  C   UNL     1      -6.938   2.615  -0.310  1.00  0.00     0.000 A 
ATOM     29  C   UNL     1      -7.550   2.346   0.912  1.00  0.00     0.000 A 
ENDBRANCH  23  24
ENDBRANCH  13  21
ENDBRANCH   4   7
ENDBRANCH   2   3
ENDBRANCH   1   2
BRANCH   1  30
ATOM     30  C   UNL     1      -2.359   2.642  -6.388  1.00  0.00     0.118 C 
BRANCH  30  31
ATOM     31  N   UNL     1      -3.731   3.088  -6.656  1.00  0.00    -0.352 N 
ATOM     32  C   UNL     1      -4.332   3.236  -7.893  1.00  0.00     0.251 C 
ATOM     33  H   UNL     1      -4.283   3.304  -5.870  1.00  0.00     0.163 HD
ATOM     34  O   UNL     1      -5.350   3.919  -8.033  1.00  0.00    -0.269 OA
BRANCH  32  35
ATOM     35  C   UNL     1      -3.734   2.550  -9.047  1.00  0.00     0.039 A 
ATOM     36  C   UNL     1      -3.611   3.147 -10.304  1.00  0.00     0.014 A 
ATOM     37  C   UNL     1      -3.224   1.278  -8.811  1.00  0.00     0.014 A 
ATOM     38  C   UNL     1      -2.903   2.468 -11.293  1.00  0.00     0.010 A 
ATOM     39  C   UNL     1      -2.339   0.732  -9.693  1.00  0.00     0.010 A 
ATOM     40  C   UNL     1      -2.255   1.264 -10.967  1.00  0.00    -0.014 A 
BRANCH  40  41
ATOM     41  C   UNL     1      -1.401   0.569 -11.917  1.00  0.00     0.031 A 
ATOM     42  C   UNL     1      -0.296   1.408 -12.436  1.00  0.00     0.074 A 
ATOM     43  C   UNL     1      -1.474  -0.766 -12.124  1.00  0.00     0.049 A 
ATOM     44  N   UNL     1      -0.206   1.940 -13.607  1.00  0.00    -0.248 NA
ATOM     45  C   UNL     1       0.745   1.862 -11.498  1.00  0.00     0.031 C 
ATOM     46  C   UNL     1      -2.279  -1.753 -11.387  1.00  0.00     0.029 A 
ATOM     47  N   UNL     1      -0.763  -1.552 -12.983  1.00  0.00    -0.354 N 
ATOM     48  C   UNL     1       1.034   2.573 -13.637  1.00  0.00     0.074 A 
ATOM     49  C   UNL     1       1.454   2.693 -12.268  1.00  0.00     0.031 C 
ATOM     50  C   UNL     1      -1.841  -3.001 -11.659  1.00  0.00     0.029 A 
ATOM     51  C   UNL     1      -0.874  -2.917 -12.733  1.00  0.00     0.049 A 
ATOM     52  H   UNL     1      -0.219  -1.185 -13.717  1.00  0.00     0.167 HD
ATOM     53  C   UNL     1       1.737   2.621 -14.803  1.00  0.00     0.037 A 
ATOM     54  C   UNL     1      -0.216  -3.911 -13.377  1.00  0.00     0.037 A 
ATOM     55  C   UNL     1       0.895   2.218 -15.903  1.00  0.00     0.049 A 
ATOM     56  C   UNL     1       0.215  -3.371 -14.686  1.00  0.00     0.074 A 
ATOM     57  C   UNL     1      -0.116   2.775 -16.653  1.00  0.00     0.029 A 
ATOM     58  N   UNL     1       0.811   0.858 -16.047  1.00  0.00    -0.354 N 
ATOM     59  N   UNL     1      -0.621  -3.015 -15.623  1.00  0.00    -0.248 NA
ATOM     60  C   UNL     1       1.573  -2.861 -14.830  1.00  0.00     0.031 C 
ATOM     61  C   UNL     1      -0.899   1.683 -17.140  1.00  0.00     0.029 A 
ATOM     62  C   UNL     1      -0.317   0.488 -16.725  1.00  0.00     0.049 A 
ATOM     63  H   UNL     1       1.482   0.225 -15.704  1.00  0.00     0.167 HD
ATOM     64  C   UNL     1      -0.023  -1.919 -16.213  1.00  0.00     0.074 A 
ATOM     65  C   UNL     1       1.378  -1.981 -15.816  1.00  0.00     0.031 C 
ATOM     66  C   UNL     1      -0.776  -0.882 -16.679  1.00  0.00     0.037 A 
BRANCH  53  67
ATOM     67  C   UNL     1       3.245   2.505 -14.929  1.00  0.00     0.064 A 
ATOM     68  C   UNL     1       3.828   2.629 -16.210  1.00  0.00     0.173 A 
ATOM     69  C   UNL     1       4.091   1.968 -13.935  1.00  0.00     0.173 A 
ATOM     70  F   UNL     1       3.118   3.113 -17.240  1.00  0.00    -0.203 F 
ATOM     71  C   UNL     1       5.124   2.178 -16.484  1.00  0.00     0.198 A 
ATOM     72  C   UNL     1       5.400   1.565 -14.202  1.00  0.00     0.198 A 
ATOM     73  F   UNL     1       3.664   1.702 -12.697  1.00  0.00    -0.203 F 
ATOM     74  F   UNL     1       5.588   2.207 -17.741  1.00  0.00    -0.200 F 
ATOM     75  C   UNL     1       5.906   1.640 -15.481  1.00  0.00     0.200 A 
ATOM     76  F   UNL     1       6.134   1.024 -13.219  1.00  0.00    -0.200 F 
ATOM     77  F   UNL     1       7.125   1.154 -15.750  1.00  0.00    -0.200 F 
ENDBRANCH  53  67
BRANCH  54  78
ATOM     78  C   UNL     1       0.299  -5.189 -12.836  1.00  0.00     0.064 A 
ATOM     79  C   UNL     1       0.630  -6.258 -13.685  1.00  0.00     0.173 A 
ATOM     80  C   UNL     1       0.767  -5.271 -11.511  1.00  0.00     0.173 A 
ATOM     81  F   UNL     1       0.253  -6.237 -14.971  1.00  0.00    -0.203 F 
ATOM     82  C   UNL     1       1.421  -7.325 -13.245  1.00  0.00     0.198 A 
ATOM     83  C   UNL     1       1.556  -6.336 -11.072  1.00  0.00     0.198 A 
ATOM     84  F   UNL     1       0.553  -4.266 -10.648  1.00  0.00    -0.203 F 
ATOM     85  F   UNL     1       1.776  -8.293 -14.102  1.00  0.00    -0.200 F 
ATOM     86  C   UNL     1       1.896  -7.355 -11.944  1.00  0.00     0.200 A 
ATOM     87  F   UNL     1       2.043  -6.333  -9.824  1.00  0.00    -0.200 F 
ATOM     88  F   UNL     1       2.717  -8.336 -11.544  1.00  0.00    -0.200 F 
ENDBRANCH  54  78
BRANCH  66  89
ATOM     89  C   UNL     1      -2.205  -1.163 -17.026  1.00  0.00     0.064 A 
ATOM     90  C   UNL     1      -3.207  -1.495 -16.100  1.00  0.00     0.173 A 
ATOM     91  C   UNL     1      -2.586  -1.010 -18.365  1.00  0.00     0.173 A 
ATOM     92  F   UNL     1      -2.935  -1.589 -14.793  1.00  0.00    -0.203 F 
ATOM     93  C   UNL     1      -4.525  -1.698 -16.510  1.00  0.00     0.198 A 
ATOM     94  C   UNL     1      -3.906  -1.177 -18.766  1.00  0.00     0.198 A 
ATOM     95  F   UNL     1      -1.674  -0.658 -19.285  1.00  0.00    -0.203 F 
ATOM     96  F   UNL     1      -5.465  -2.031 -15.613  1.00  0.00    -0.200 F 
ATOM     97  C   UNL     1      -4.874  -1.531 -17.841  1.00  0.00     0.200 A 
ATOM     98  F   UNL     1      -4.242  -0.975 -20.047  1.00  0.00    -0.200 F 
ATOM     99  F   UNL     1      -6.146  -1.693 -18.230  1.00  0.00    -0.200 F 
ENDBRANCH  66  89
ENDBRANCH  40  41
ENDBRANCH  32  35
ENDBRANCH  30  31
ENDBRANCH   1  30
TORSDOF 13
