REMARK SMILES C[C@]([NH3+])(C(=O)N[C@H]1CCCCC[C@@H]1C(=O)NCCCNC(=O)c1ccc(-c2c3nc(c(-c4c(F)c(F)c(F)c(F)c4F)c4ccc([nH]4)c(-c4c(F)c(F)c(F)c(F)c4F)c4nc(c(-c5c(F)c(F)c(F)c(F)c5F)c5ccc2[nH]5)C=C4)C=C3)cc1)C(F)(F)F
REMARK SMILES IDX 17 1 16 2 14 3 15 4 13 6 7 7 6 8 4 9 5 10 2 12 1 13 86 14
REMARK SMILES IDX 87 15 88 16 89 17 3 18 8 22 12 24 11 25 10 26 9 27 18 29
REMARK SMILES IDX 19 30 20 31 21 32 22 34 23 35 24 36 85 37 25 38 84 39 26 40
REMARK SMILES IDX 27 41 28 42 78 43 29 44 83 45 77 46 79 47 30 48 82 49 76 50
REMARK SMILES IDX 75 51 31 53 63 54 43 55 62 56 44 57 47 58 61 59 80 60 45 61
REMARK SMILES IDX 46 62 60 64 81 65 48 66 32 67 33 68 41 69 34 70 35 71 39 72
REMARK SMILES IDX 42 73 36 74 37 75 40 76 38 77 64 78 65 79 73 80 66 81 67 82
REMARK SMILES IDX 71 83 74 84 68 85 69 86 72 87 70 88 49 89 50 90 58 91 51 92
REMARK SMILES IDX 52 93 56 94 59 95 53 96 54 97 57 98 55 99
REMARK H PARENT 16 5 6 11 3 19 3 20 3 21 20 33 79 52 47 63
REMARK Flexibility Score: 100.00
ROOT
ATOM      1  C   UNL     1      -3.724   0.298   1.170  1.00  0.00     0.117 C 
ENDROOT
BRANCH   1   2
ATOM      2  N   UNL     1      -2.370   0.815   1.231  1.00  0.00    -0.356 N 
ATOM      3  C   UNL     1      -1.225   0.273   1.727  1.00  0.00     0.225 C 
ATOM      4  O   UNL     1      -0.196   0.946   1.638  1.00  0.00    -0.275 OA
ATOM      5  H   UNL     1      -2.260   1.714   0.847  1.00  0.00     0.163 HD
BRANCH   3   6
ATOM      6  C   UNL     1      -1.181  -1.119   2.356  1.00  0.00     0.101 C 
BRANCH   6   7
ATOM      7  C   UNL     1      -1.326  -2.217   1.254  1.00  0.00     0.094 C 
BRANCH   7   8
ATOM      8  N   UNL     1       0.024  -2.651   0.812  1.00  0.00    -0.347 N 
ATOM      9  C   UNL     1       0.574  -3.419  -0.172  1.00  0.00     0.290 C 
ATOM     10  O   UNL     1       1.807  -3.339  -0.223  1.00  0.00    -0.267 OA
ATOM     11  H   UNL     1       0.722  -2.278   1.397  1.00  0.00     0.164 HD
BRANCH   9  12
ATOM     12  C   UNL     1      -0.210  -4.377  -1.099  1.00  0.00     0.266 C 
ATOM     13  C   UNL     1      -1.321  -3.648  -1.864  1.00  0.00     0.100 C 
BRANCH  12  14
ATOM     14  C   UNL     1       0.811  -4.906  -2.158  1.00  0.00     0.453 C 
ATOM     15  F   UNL     1       1.823  -5.621  -1.617  1.00  0.00    -0.164 F 
ATOM     16  F   UNL     1       0.182  -5.739  -3.036  1.00  0.00    -0.164 F 
ATOM     17  F   UNL     1       1.341  -3.909  -2.905  1.00  0.00    -0.164 F 
ENDBRANCH  12  14
BRANCH  12  18
ATOM     18  N   UNL     1      -0.778  -5.510  -0.295  1.00  0.00    -0.337 N 
ATOM     19  H   UNL     1      -0.026  -5.983   0.206  1.00  0.00     0.345 HD
ATOM     20  H   UNL     1      -1.239  -6.172  -0.920  1.00  0.00     0.345 HD
ATOM     21  H   UNL     1      -1.456  -5.146   0.374  1.00  0.00     0.345 HD
ENDBRANCH  12  18
ENDBRANCH   9  12
ENDBRANCH   7   8
BRANCH   7  22
ATOM     22  C   UNL     1      -2.223  -3.376   1.703  1.00  0.00     0.026 CG0
ATOM     23  G   UNL     1      -1.666  -4.183   2.874  1.00  0.00     0.000 G0
ENDBRANCH   7  22
ENDBRANCH   6   7
BRANCH   6  24
ATOM     24  C   UNL     1      -2.088  -1.190   3.600  1.00  0.00     0.015 C 
BRANCH  24  25
ATOM     25  C   UNL     1      -1.694  -2.283   4.596  1.00  0.00     0.001 C 
BRANCH  25  26
ATOM     26  C   UNL     1      -2.167  -3.683   4.222  1.00  0.00     0.000 C 
BRANCH  26  27
ATOM     27  C   UNL     1      -1.666  -4.183   2.874  1.00  0.00     0.002 CG0
ATOM     28  G   UNL     1      -2.223  -3.376   1.703  1.00  0.00     0.000 G0
ENDBRANCH  26  27
ENDBRANCH  25  26
ENDBRANCH  24  25
ENDBRANCH   6  24
ENDBRANCH   3   6
ENDBRANCH   1   2
BRANCH   1  29
ATOM     29  C   UNL     1      -4.624   0.891   2.252  1.00  0.00     0.042 C 
BRANCH  29  30
ATOM     30  C   UNL     1      -4.956   2.366   2.046  1.00  0.00     0.118 C 
BRANCH  30  31
ATOM     31  N   UNL     1      -5.802   2.587   0.880  1.00  0.00    -0.352 N 
ATOM     32  C   UNL     1      -7.087   3.060   0.792  1.00  0.00     0.251 C 
ATOM     33  H   UNL     1      -5.384   2.361   0.018  1.00  0.00     0.163 HD
ATOM     34  O   UNL     1      -7.695   2.965  -0.273  1.00  0.00    -0.269 OA
BRANCH  32  35
ATOM     35  C   UNL     1      -7.758   3.662   1.964  1.00  0.00     0.039 A 
ATOM     36  C   UNL     1      -9.095   3.337   2.217  1.00  0.00     0.014 A 
ATOM     37  C   UNL     1      -7.091   4.565   2.796  1.00  0.00     0.014 A 
ATOM     38  C   UNL     1      -9.734   3.847   3.349  1.00  0.00     0.010 A 
ATOM     39  C   UNL     1      -7.708   5.023   3.959  1.00  0.00     0.010 A 
ATOM     40  C   UNL     1      -9.029   4.656   4.255  1.00  0.00    -0.014 A 
BRANCH  40  41
ATOM     41  C   UNL     1      -9.631   5.084   5.543  1.00  0.00     0.031 A 
ATOM     42  C   UNL     1      -9.885   6.537   5.822  1.00  0.00     0.074 A 
ATOM     43  C   UNL     1      -9.859   4.162   6.498  1.00  0.00     0.049 A 
ATOM     44  N   UNL     1     -10.284   7.109   6.930  1.00  0.00    -0.248 NA
ATOM     45  C   UNL     1      -9.637   7.474   4.716  1.00  0.00     0.031 C 
ATOM     46  C   UNL     1      -9.622   2.724   6.357  1.00  0.00     0.029 A 
ATOM     47  N   UNL     1     -10.318   4.298   7.785  1.00  0.00    -0.354 N 
ATOM     48  C   UNL     1     -10.324   8.470   6.660  1.00  0.00     0.074 A 
ATOM     49  C   UNL     1      -9.869   8.643   5.297  1.00  0.00     0.031 C 
ATOM     50  C   UNL     1      -9.942   2.111   7.507  1.00  0.00     0.029 A 
ATOM     51  C   UNL     1     -10.360   3.114   8.481  1.00  0.00     0.049 A 
ATOM     52  H   UNL     1     -10.591   5.161   8.173  1.00  0.00     0.167 HD
ATOM     53  C   UNL     1     -10.719   9.479   7.473  1.00  0.00     0.037 A 
ATOM     54  C   UNL     1     -10.675   2.866   9.767  1.00  0.00     0.037 A 
ATOM     55  C   UNL     1     -11.185   9.297   8.823  1.00  0.00     0.049 A 
ATOM     56  C   UNL     1     -11.065   4.010  10.661  1.00  0.00     0.074 A 
ATOM     57  C   UNL     1     -11.679  10.247   9.701  1.00  0.00     0.029 A 
ATOM     58  N   UNL     1     -11.205   8.084   9.496  1.00  0.00    -0.354 N 
ATOM     59  N   UNL     1     -11.166   5.285  10.374  1.00  0.00    -0.248 NA
ATOM     60  C   UNL     1     -11.378   3.683  12.059  1.00  0.00     0.031 C 
ATOM     61  C   UNL     1     -11.947   9.619  10.921  1.00  0.00     0.029 A 
ATOM     62  C   UNL     1     -11.666   8.269  10.791  1.00  0.00     0.049 A 
ATOM     63  H   UNL     1     -10.933   7.220   9.111  1.00  0.00     0.167 HD
ATOM     64  C   UNL     1     -11.568   5.909  11.547  1.00  0.00     0.074 A 
ATOM     65  C   UNL     1     -11.710   4.870  12.546  1.00  0.00     0.031 C 
ATOM     66  C   UNL     1     -11.795   7.225  11.776  1.00  0.00     0.037 A 
BRANCH  53  67
ATOM     67  C   UNL     1     -10.663  10.876   6.928  1.00  0.00     0.064 A 
ATOM     68  C   UNL     1     -11.556  11.317   5.939  1.00  0.00     0.173 A 
ATOM     69  C   UNL     1      -9.737  11.801   7.435  1.00  0.00     0.173 A 
ATOM     70  F   UNL     1     -12.455  10.469   5.416  1.00  0.00    -0.203 F 
ATOM     71  C   UNL     1     -11.507  12.623   5.460  1.00  0.00     0.198 A 
ATOM     72  C   UNL     1      -9.710  13.115   6.973  1.00  0.00     0.198 A 
ATOM     73  F   UNL     1      -8.866  11.434   8.386  1.00  0.00    -0.203 F 
ATOM     74  F   UNL     1     -12.341  13.008   4.484  1.00  0.00    -0.200 F 
ATOM     75  C   UNL     1     -10.589  13.523   5.981  1.00  0.00     0.200 A 
ATOM     76  F   UNL     1      -8.831  13.986   7.487  1.00  0.00    -0.200 F 
ATOM     77  F   UNL     1     -10.549  14.782   5.524  1.00  0.00    -0.200 F 
ENDBRANCH  53  67
BRANCH  54  78
ATOM     78  C   UNL     1     -10.629   1.474  10.284  1.00  0.00     0.064 A 
ATOM     79  C   UNL     1     -11.806   0.793  10.622  1.00  0.00     0.173 A 
ATOM     80  C   UNL     1      -9.412   0.795  10.445  1.00  0.00     0.173 A 
ATOM     81  F   UNL     1     -12.991   1.409  10.505  1.00  0.00    -0.203 F 
ATOM     82  C   UNL     1     -11.768  -0.510  11.113  1.00  0.00     0.198 A 
ATOM     83  C   UNL     1      -9.377  -0.518  10.910  1.00  0.00     0.198 A 
ATOM     84  F   UNL     1      -8.257   1.400  10.132  1.00  0.00    -0.203 F 
ATOM     85  F   UNL     1     -12.905  -1.124  11.464  1.00  0.00    -0.200 F 
ATOM     86  C   UNL     1     -10.554  -1.167  11.250  1.00  0.00     0.200 A 
ATOM     87  F   UNL     1      -8.204  -1.155  11.025  1.00  0.00    -0.200 F 
ATOM     88  F   UNL     1     -10.519  -2.424  11.714  1.00  0.00    -0.200 F 
ENDBRANCH  54  78
BRANCH  66  89
ATOM     89  C   UNL     1     -12.228   7.619  13.157  1.00  0.00     0.064 A 
ATOM     90  C   UNL     1     -11.326   7.624  14.231  1.00  0.00     0.173 A 
ATOM     91  C   UNL     1     -13.542   8.047  13.398  1.00  0.00     0.173 A 
ATOM     92  F   UNL     1     -10.064   7.205  14.054  1.00  0.00    -0.203 F 
ATOM     93  C   UNL     1     -11.729   8.030  15.500  1.00  0.00     0.198 A 
ATOM     94  C   UNL     1     -13.933   8.479  14.662  1.00  0.00     0.198 A 
ATOM     95  F   UNL     1     -14.441   8.064  12.403  1.00  0.00    -0.203 F 
ATOM     96  F   UNL     1     -10.861   7.991  16.520  1.00  0.00    -0.200 F 
ATOM     97  C   UNL     1     -13.028   8.466  15.713  1.00  0.00     0.200 A 
ATOM     98  F   UNL     1     -15.186   8.911  14.863  1.00  0.00    -0.200 F 
ATOM     99  F   UNL     1     -13.410   8.869  16.933  1.00  0.00    -0.200 F 
ENDBRANCH  66  89
ENDBRANCH  40  41
ENDBRANCH  32  35
ENDBRANCH  30  31
ENDBRANCH  29  30
ENDBRANCH   1  29
TORSDOF 14
