REMARK SMILES C[C@]1(C(=O)NCc2ccc(C(=O)NCCCNC(=O)c3ccc(-c4c5nc(c(-c6c(F)c(F)c(F)c(F)c6F)c6ccc([nH]6)c(-c6c(F)c(F)c(F)c(F)c6F)c6nc(c(-c7c(F)c(F)c(F)c(F)c7F)c7ccc4[nH]7)C=C6)C=C5)cc3)o2)CCC[NH2+]C1
REMARK SMILES IDX 14 1 13 2 11 3 12 4 10 6 7 7 8 8 83 9 9 10 6 11 5 12 3 13
REMARK SMILES IDX 4 14 2 16 1 17 84 18 88 19 85 20 87 21 86 22 15 25 16 26
REMARK SMILES IDX 17 27 18 28 19 30 20 31 21 32 82 33 22 34 81 35 23 36 24 37
REMARK SMILES IDX 25 38 75 39 26 40 80 41 74 42 76 43 27 44 79 45 73 46 72 47
REMARK SMILES IDX 28 49 60 50 40 51 59 52 41 53 44 54 58 55 77 56 42 57 43 58
REMARK SMILES IDX 57 60 78 61 45 62 29 63 30 64 38 65 31 66 32 67 36 68 39 69
REMARK SMILES IDX 33 70 34 71 37 72 35 73 61 74 62 75 70 76 63 77 64 78 68 79
REMARK SMILES IDX 71 80 65 81 66 82 69 83 67 84 46 85 47 86 55 87 48 88 49 89
REMARK SMILES IDX 53 90 56 91 50 92 51 93 54 94 52 95
REMARK H PARENT 13 5 5 15 87 23 87 24 17 29 76 48 44 59
REMARK Flexibility Score: inf
ROOT
ATOM      1  C   UNL     1       7.639   3.837   2.525  1.00  0.00     0.118 C 
ENDROOT
BRANCH   1   2
ATOM      2  N   UNL     1       6.473   3.389   3.258  1.00  0.00    -0.349 N 
ATOM      3  C   UNL     1       5.410   2.605   2.862  1.00  0.00     0.286 C 
ATOM      4  O   UNL     1       4.673   2.213   3.769  1.00  0.00    -0.266 OA
ATOM      5  H   UNL     1       6.432   3.694   4.193  1.00  0.00     0.163 HD
BRANCH   3   6
ATOM      6  C   UNL     1       5.205   2.268   1.465  1.00  0.00     0.191 A 
ATOM      7  C   UNL     1       4.365   1.009  -0.159  1.00  0.00     0.124 A 
ATOM      8  C   UNL     1       5.019   2.054  -0.774  1.00  0.00     0.048 A 
ATOM      9  O   UNL     1       4.500   1.119   1.195  1.00  0.00    -0.454 OA
ATOM     10  C   UNL     1       5.527   2.875   0.264  1.00  0.00     0.056 A 
BRANCH   7  11
ATOM     11  C   UNL     1       3.592  -0.152  -0.674  1.00  0.00     0.191 C 
BRANCH  11  12
ATOM     12  N   UNL     1       2.408  -0.364   0.124  1.00  0.00    -0.348 N 
ATOM     13  C   UNL     1       1.130   0.068   0.056  1.00  0.00     0.232 C 
ATOM     14  O   UNL     1       0.403  -0.352   0.969  1.00  0.00    -0.274 OA
ATOM     15  H   UNL     1       2.568  -0.958   0.893  1.00  0.00     0.163 HD
BRANCH  13  16
ATOM     16  C   UNL     1       0.508   0.879  -1.108  1.00  0.00     0.095 C 
ATOM     17  C   UNL     1       0.052  -0.144  -2.164  1.00  0.00     0.028 C 
ATOM     18  C   UNL     1      -0.743   1.619  -0.550  1.00  0.00     0.028 C 
ATOM     19  C   UNL     1       1.368   1.958  -1.789  1.00  0.00     0.277 C 
ATOM     20  C   UNL     1      -0.325   2.755   0.391  1.00  0.00     0.063 C 
ATOM     21  N   UNL     1       1.785   3.031  -0.889  1.00  0.00    -0.345 N 
ATOM     22  C   UNL     1       0.643   3.718  -0.291  1.00  0.00     0.260 C 
ATOM     23  H   UNL     1       2.357   2.633  -0.145  1.00  0.00     0.346 HD
ATOM     24  H   UNL     1       2.312   3.713  -1.435  1.00  0.00     0.346 HD
ENDBRANCH  13  16
ENDBRANCH  11  12
ENDBRANCH   7  11
ENDBRANCH   3   6
ENDBRANCH   1   2
BRANCH   1  25
ATOM     25  C   UNL     1       7.590   5.333   2.221  1.00  0.00     0.042 C 
BRANCH  25  26
ATOM     26  C   UNL     1       7.864   6.221   3.437  1.00  0.00     0.118 C 
BRANCH  26  27
ATOM     27  N   UNL     1       9.245   6.127   3.891  1.00  0.00    -0.352 N 
ATOM     28  C   UNL     1      10.210   7.093   4.032  1.00  0.00     0.251 C 
ATOM     29  H   UNL     1       9.534   5.219   4.139  1.00  0.00     0.163 HD
ATOM     30  O   UNL     1      11.371   6.753   4.244  1.00  0.00    -0.269 OA
BRANCH  28  31
ATOM     31  C   UNL     1       9.884   8.533   3.924  1.00  0.00     0.039 A 
ATOM     32  C   UNL     1      10.797   9.378   3.283  1.00  0.00     0.014 A 
ATOM     33  C   UNL     1       8.735   9.073   4.509  1.00  0.00     0.014 A 
ATOM     34  C   UNL     1      10.535  10.747   3.180  1.00  0.00     0.010 A 
ATOM     35  C   UNL     1       8.445  10.429   4.357  1.00  0.00     0.010 A 
ATOM     36  C   UNL     1       9.343  11.281   3.694  1.00  0.00    -0.014 A 
BRANCH  36  37
ATOM     37  C   UNL     1       9.022  12.725   3.555  1.00  0.00     0.031 A 
ATOM     38  C   UNL     1       8.948  13.605   4.772  1.00  0.00     0.074 A 
ATOM     39  C   UNL     1       8.746  13.234   2.339  1.00  0.00     0.049 A 
ATOM     40  N   UNL     1       8.586  14.860   4.867  1.00  0.00    -0.248 NA
ATOM     41  C   UNL     1       9.312  12.987   6.057  1.00  0.00     0.031 C 
ATOM     42  C   UNL     1       8.761  12.481   1.083  1.00  0.00     0.029 A 
ATOM     43  N   UNL     1       8.385  14.503   1.960  1.00  0.00    -0.354 N 
ATOM     44  C   UNL     1       8.666  15.177   6.217  1.00  0.00     0.074 A 
ATOM     45  C   UNL     1       9.071  13.972   6.910  1.00  0.00     0.031 C 
ATOM     46  C   UNL     1       8.438  13.305   0.073  1.00  0.00     0.029 A 
ATOM     47  C   UNL     1       8.156  14.632   0.611  1.00  0.00     0.049 A 
ATOM     48  H   UNL     1       8.298  15.251   2.595  1.00  0.00     0.167 HD
ATOM     49  C   UNL     1       8.442  16.369   6.821  1.00  0.00     0.037 A 
ATOM     50  C   UNL     1       7.753  15.697  -0.107  1.00  0.00     0.037 A 
ATOM     51  C   UNL     1       8.062  17.573   6.130  1.00  0.00     0.049 A 
ATOM     52  C   UNL     1       7.499  17.005   0.594  1.00  0.00     0.074 A 
ATOM     53  C   UNL     1       7.830  18.834   6.654  1.00  0.00     0.029 A 
ATOM     54  N   UNL     1       7.866  17.667   4.761  1.00  0.00    -0.354 N 
ATOM     55  N   UNL     1       7.608  17.297   1.866  1.00  0.00    -0.248 NA
ATOM     56  C   UNL     1       7.070  18.133  -0.246  1.00  0.00     0.031 C 
ATOM     57  C   UNL     1       7.471  19.686   5.605  1.00  0.00     0.029 A 
ATOM     58  C   UNL     1       7.514  18.964   4.423  1.00  0.00     0.049 A 
ATOM     59  H   UNL     1       7.963  16.924   4.124  1.00  0.00     0.167 HD
ATOM     60  C   UNL     1       7.295  18.645   1.975  1.00  0.00     0.074 A 
ATOM     61  C   UNL     1       7.002  19.117   0.639  1.00  0.00     0.031 C 
ATOM     62  C   UNL     1       7.251  19.422   3.084  1.00  0.00     0.037 A 
BRANCH  49  63
ATOM     63  C   UNL     1       8.616  16.437   8.309  1.00  0.00     0.064 A 
ATOM     64  C   UNL     1       9.890  16.407   8.896  1.00  0.00     0.173 A 
ATOM     65  C   UNL     1       7.507  16.592   9.154  1.00  0.00     0.173 A 
ATOM     66  F   UNL     1      10.981  16.249   8.131  1.00  0.00    -0.203 F 
ATOM     67  C   UNL     1      10.046  16.511  10.275  1.00  0.00     0.198 A 
ATOM     68  C   UNL     1       7.669  16.722  10.531  1.00  0.00     0.198 A 
ATOM     69  F   UNL     1       6.268  16.634   8.643  1.00  0.00    -0.203 F 
ATOM     70  F   UNL     1      11.271  16.445  10.816  1.00  0.00    -0.200 F 
ATOM     71  C   UNL     1       8.937  16.676  11.091  1.00  0.00     0.200 A 
ATOM     72  F   UNL     1       6.597  16.893  11.318  1.00  0.00    -0.200 F 
ATOM     73  F   UNL     1       9.090  16.788  12.418  1.00  0.00    -0.200 F 
ENDBRANCH  49  63
BRANCH  50  74
ATOM     74  C   UNL     1       7.577  15.585  -1.578  1.00  0.00     0.064 A 
ATOM     75  C   UNL     1       8.449  16.242  -2.457  1.00  0.00     0.173 A 
ATOM     76  C   UNL     1       6.522  14.847  -2.134  1.00  0.00     0.173 A 
ATOM     77  F   UNL     1       9.459  16.979  -1.971  1.00  0.00    -0.203 F 
ATOM     78  C   UNL     1       8.256  16.189  -3.836  1.00  0.00     0.198 A 
ATOM     79  C   UNL     1       6.347  14.771  -3.514  1.00  0.00     0.198 A 
ATOM     80  F   UNL     1       5.663  14.196  -1.336  1.00  0.00    -0.203 F 
ATOM     81  F   UNL     1       9.073  16.871  -4.650  1.00  0.00    -0.200 F 
ATOM     82  C   UNL     1       7.208  15.451  -4.363  1.00  0.00     0.200 A 
ATOM     83  F   UNL     1       5.340  14.047  -4.021  1.00  0.00    -0.200 F 
ATOM     84  F   UNL     1       7.020  15.402  -5.689  1.00  0.00    -0.200 F 
ENDBRANCH  50  74
BRANCH  62  85
ATOM     85  C   UNL     1       6.924  20.873   2.894  1.00  0.00     0.064 A 
ATOM     86  C   UNL     1       5.622  21.300   2.599  1.00  0.00     0.173 A 
ATOM     87  C   UNL     1       7.921  21.848   3.043  1.00  0.00     0.173 A 
ATOM     88  F   UNL     1       4.639  20.403   2.430  1.00  0.00    -0.203 F 
ATOM     89  C   UNL     1       5.334  22.653   2.437  1.00  0.00     0.198 A 
ATOM     90  C   UNL     1       7.625  23.201   2.905  1.00  0.00     0.198 A 
ATOM     91  F   UNL     1       9.181  21.489   3.329  1.00  0.00    -0.203 F 
ATOM     92  F   UNL     1       4.092  23.037   2.112  1.00  0.00    -0.200 F 
ATOM     93  C   UNL     1       6.333  23.602   2.596  1.00  0.00     0.200 A 
ATOM     94  F   UNL     1       8.589  24.117   3.068  1.00  0.00    -0.200 F 
ATOM     95  F   UNL     1       6.053  24.903   2.443  1.00  0.00    -0.200 F 
ENDBRANCH  62  85
ENDBRANCH  36  37
ENDBRANCH  28  31
ENDBRANCH  26  27
ENDBRANCH  25  26
ENDBRANCH   1  25
TORSDOF 13
