REMARK SMILES CO[C@@H]1C[NH2+][C@@H](O[C@@H]2C[C@@H](C(=O)NCCCNC(=O)c3ccc(-c4c5nc(c(-c6c(F)c(F)c(F)c(F)c6F)c6ccc([nH]6)c(-c6c(F)c(F)c(F)c(F)c6F)c6nc(c(-c7c(F)c(F)c(F)c(F)c7F)c7ccc4[nH]7)C=C6)C=C5)cc3)N(C(=O)OC(C)(C)C)C2)c2cc(Cl)ccc21
REMARK SMILES IDX 14 1 13 2 11 3 12 4 10 6 8 7 9 8 91 9 83 10 7 11 6 12 3 13
REMARK SMILES IDX 4 14 98 15 5 16 92 17 97 18 93 21 96 22 94 23 95 24 2 25
REMARK SMILES IDX 1 26 84 27 85 28 86 29 87 30 88 31 89 32 90 33 15 34 16 35
REMARK SMILES IDX 17 36 18 37 19 39 20 40 21 41 82 42 22 43 81 44 23 45 24 46
REMARK SMILES IDX 25 47 75 48 26 49 80 50 74 51 76 52 27 53 79 54 73 55 72 56
REMARK SMILES IDX 28 58 60 59 40 60 59 61 41 62 44 63 58 64 77 65 42 66 43 67
REMARK SMILES IDX 57 69 78 70 45 71 29 72 30 73 38 74 31 75 32 76 36 77 39 78
REMARK SMILES IDX 33 79 34 80 37 81 35 82 61 83 62 84 70 85 63 86 64 87 68 88
REMARK SMILES IDX 71 89 65 90 66 91 69 92 67 93 46 94 47 95 55 96 48 97 49 98
REMARK SMILES IDX 53 99 56 100 50 101 51 102 54 103 52 104
REMARK H PARENT 13 5 5 19 5 20 17 38 76 57 44 68
REMARK Flexibility Score: inf
ROOT
ATOM      1  C   UNL     1       5.084   2.302   4.149  1.00  0.00     0.117 C 
ENDROOT
BRANCH   1   2
ATOM      2  N   UNL     1       4.777   2.993   2.919  1.00  0.00    -0.354 N 
ATOM      3  C   UNL     1       3.656   2.946   2.162  1.00  0.00     0.243 C 
ATOM      4  O   UNL     1       3.733   3.410   1.019  1.00  0.00    -0.273 OA
ATOM      5  H   UNL     1       5.487   3.586   2.581  1.00  0.00     0.163 HD
BRANCH   3   6
ATOM      6  C   UNL     1       2.313   2.477   2.720  1.00  0.00     0.180 C 
ATOM      7  C   UNL     1       0.690   2.642   4.492  1.00  0.00     0.147 C 
ATOM      8  C   UNL     1       1.806   3.423   3.814  1.00  0.00     0.069 C 
ATOM      9  C   UNL     1       1.128   1.176   4.353  1.00  0.00     0.156 C 
ATOM     10  N   UNL     1       2.078   1.138   3.246  1.00  0.00    -0.293 N 
BRANCH   7  11
ATOM     11  O   UNL     1      -0.657   2.967   4.189  1.00  0.00    -0.320 OA
BRANCH  11  12
ATOM     12  C   UNL     1      -1.289   3.126   2.925  1.00  0.00     0.354 C 
ATOM     13  C   UNL     1      -0.261   1.945   0.407  1.00  0.00     0.203 C 
ATOM     14  C   UNL     1      -1.043   1.151   1.492  1.00  0.00     0.300 C 
ATOM     15  C   UNL     1      -0.172   3.443   0.660  1.00  0.00    -0.002 A 
ATOM     16  N   UNL     1      -1.871   1.899   2.424  1.00  0.00    -0.315 N 
ATOM     17  C   UNL     1      -0.642   3.994   1.870  1.00  0.00     0.046 A 
ATOM     18  C   UNL     1       0.539   4.264  -0.233  1.00  0.00     0.009 A 
ATOM     19  H   UNL     1      -2.070   1.297   3.222  1.00  0.00     0.349 HD
ATOM     20  H   UNL     1      -2.702   2.176   1.901  1.00  0.00     0.349 HD
ATOM     21  C   UNL     1      -0.483   5.374   2.110  1.00  0.00     0.033 A 
ATOM     22  C   UNL     1       0.747   5.617   0.048  1.00  0.00     0.021 A 
ATOM     23  C   UNL     1       0.218   6.171   1.208  1.00  0.00     0.041 A 
ATOM     24  Cl  UNL     1       0.476   7.835   1.563  1.00  0.00    -0.084 Cl
BRANCH  13  25
ATOM     25  O   UNL     1      -0.767   1.670  -0.904  1.00  0.00    -0.371 OA
ATOM     26  C   UNL     1      -0.175   0.482  -1.429  1.00  0.00     0.196 C 
ENDBRANCH  13  25
ENDBRANCH  11  12
ENDBRANCH   7  11
BRANCH  10  27
ATOM     27  C   UNL     1       2.292  -0.059   2.581  1.00  0.00     0.411 C 
ATOM     28  O   UNL     1       1.940  -1.133   3.033  1.00  0.00    -0.224 OA
BRANCH  27  29
ATOM     29  O   UNL     1       2.947   0.100   1.398  1.00  0.00    -0.444 OA
BRANCH  29  30
ATOM     30  C   UNL     1       3.390  -1.051   0.614  1.00  0.00     0.106 C 
ATOM     31  C   UNL     1       4.441  -1.874   1.366  1.00  0.00     0.056 C 
ATOM     32  C   UNL     1       2.250  -1.966   0.147  1.00  0.00     0.056 C 
ATOM     33  C   UNL     1       4.057  -0.438  -0.630  1.00  0.00     0.056 C 
ENDBRANCH  29  30
ENDBRANCH  27  29
ENDBRANCH  10  27
ENDBRANCH   3   6
ENDBRANCH   1   2
BRANCH   1  34
ATOM     34  C   UNL     1       5.554   0.884   3.881  1.00  0.00     0.042 C 
BRANCH  34  35
ATOM     35  C   UNL     1       6.595   0.793   2.777  1.00  0.00     0.118 C 
BRANCH  35  36
ATOM     36  N   UNL     1       7.853   1.424   3.133  1.00  0.00    -0.352 N 
ATOM     37  C   UNL     1       9.052   0.811   3.406  1.00  0.00     0.251 C 
ATOM     38  H   UNL     1       7.846   2.407   3.186  1.00  0.00     0.163 HD
ATOM     39  O   UNL     1       9.969   1.432   3.929  1.00  0.00    -0.269 OA
BRANCH  37  40
ATOM     40  C   UNL     1       9.204  -0.623   3.084  1.00  0.00     0.039 A 
ATOM     41  C   UNL     1       8.806  -1.106   1.833  1.00  0.00     0.014 A 
ATOM     42  C   UNL     1       9.685  -1.496   4.059  1.00  0.00     0.014 A 
ATOM     43  C   UNL     1       8.734  -2.477   1.619  1.00  0.00     0.010 A 
ATOM     44  C   UNL     1       9.714  -2.868   3.799  1.00  0.00     0.010 A 
ATOM     45  C   UNL     1       9.203  -3.374   2.593  1.00  0.00    -0.014 A 
BRANCH  45  46
ATOM     46  C   UNL     1       9.178  -4.835   2.318  1.00  0.00     0.031 A 
ATOM     47  C   UNL     1       8.380  -5.775   3.178  1.00  0.00     0.074 A 
ATOM     48  C   UNL     1       9.874  -5.312   1.267  1.00  0.00     0.049 A 
ATOM     49  N   UNL     1       8.281  -7.080   3.102  1.00  0.00    -0.248 NA
ATOM     50  C   UNL     1       7.597  -5.179   4.271  1.00  0.00     0.031 C 
ATOM     51  C   UNL     1      10.681  -4.499   0.356  1.00  0.00     0.029 A 
ATOM     52  N   UNL     1      10.004  -6.587   0.778  1.00  0.00    -0.354 N 
ATOM     53  C   UNL     1       7.450  -7.460   4.147  1.00  0.00     0.074 A 
ATOM     54  C   UNL     1       7.095  -6.254   4.864  1.00  0.00     0.031 C 
ATOM     55  C   UNL     1      11.180  -5.283  -0.609  1.00  0.00     0.029 A 
ATOM     56  C   UNL     1      10.797  -6.665  -0.341  1.00  0.00     0.049 A 
ATOM     57  H   UNL     1       9.571  -7.370   1.189  1.00  0.00     0.167 HD
ATOM     58  C   UNL     1       7.014  -8.703   4.469  1.00  0.00     0.037 A 
ATOM     59  C   UNL     1      11.196  -7.730  -1.060  1.00  0.00     0.037 A 
ATOM     60  C   UNL     1       7.352  -9.896   3.736  1.00  0.00     0.049 A 
ATOM     61  C   UNL     1      10.738  -9.100  -0.654  1.00  0.00     0.074 A 
ATOM     62  C   UNL     1       6.928 -11.194   3.961  1.00  0.00     0.029 A 
ATOM     63  N   UNL     1       8.198  -9.939   2.636  1.00  0.00    -0.354 N 
ATOM     64  N   UNL     1       9.938  -9.445   0.325  1.00  0.00    -0.248 NA
ATOM     65  C   UNL     1      11.245 -10.229  -1.444  1.00  0.00     0.031 C 
ATOM     66  C   UNL     1       7.563 -12.030   3.038  1.00  0.00     0.029 A 
ATOM     67  C   UNL     1       8.335 -11.247   2.195  1.00  0.00     0.049 A 
ATOM     68  H   UNL     1       8.637  -9.157   2.230  1.00  0.00     0.167 HD
ATOM     69  C   UNL     1       9.835 -10.827   0.264  1.00  0.00     0.074 A 
ATOM     70  C   UNL     1      10.638 -11.256  -0.864  1.00  0.00     0.031 C 
ATOM     71  C   UNL     1       9.141 -11.663   1.074  1.00  0.00     0.037 A 
BRANCH  58  72
ATOM     72  C   UNL     1       6.131  -8.847   5.677  1.00  0.00     0.064 A 
ATOM     73  C   UNL     1       4.812  -8.370   5.691  1.00  0.00     0.173 A 
ATOM     74  C   UNL     1       6.591  -9.527   6.816  1.00  0.00     0.173 A 
ATOM     75  F   UNL     1       4.323  -7.705   4.633  1.00  0.00    -0.203 F 
ATOM     76  C   UNL     1       3.996  -8.546   6.807  1.00  0.00     0.198 A 
ATOM     77  C   UNL     1       5.763  -9.730   7.917  1.00  0.00     0.198 A 
ATOM     78  F   UNL     1       7.841 -10.013   6.855  1.00  0.00    -0.203 F 
ATOM     79  F   UNL     1       2.754  -8.043   6.813  1.00  0.00    -0.200 F 
ATOM     80  C   UNL     1       4.468  -9.234   7.914  1.00  0.00     0.200 A 
ATOM     81  F   UNL     1       6.216 -10.411   8.979  1.00  0.00    -0.200 F 
ATOM     82  F   UNL     1       3.678  -9.414   8.981  1.00  0.00    -0.200 F 
ENDBRANCH  58  72
BRANCH  59  83
ATOM     83  C   UNL     1      12.075  -7.519  -2.239  1.00  0.00     0.064 A 
ATOM     84  C   UNL     1      11.590  -7.710  -3.539  1.00  0.00     0.173 A 
ATOM     85  C   UNL     1      13.392  -7.058  -2.093  1.00  0.00     0.173 A 
ATOM     86  F   UNL     1      10.343  -8.166  -3.728  1.00  0.00    -0.203 F 
ATOM     87  C   UNL     1      12.389  -7.444  -4.649  1.00  0.00     0.198 A 
ATOM     88  C   UNL     1      14.179  -6.763  -3.203  1.00  0.00     0.198 A 
ATOM     89  F   UNL     1      13.900  -6.852  -0.868  1.00  0.00    -0.203 F 
ATOM     90  F   UNL     1      11.908  -7.654  -5.882  1.00  0.00    -0.200 F 
ATOM     91  C   UNL     1      13.677  -6.958  -4.481  1.00  0.00     0.200 A 
ATOM     92  F   UNL     1      15.414  -6.272  -3.035  1.00  0.00    -0.200 F 
ATOM     93  F   UNL     1      14.434  -6.677  -5.550  1.00  0.00    -0.200 F 
ENDBRANCH  59  83
BRANCH  71  94
ATOM     94  C   UNL     1       9.206 -13.133   0.774  1.00  0.00     0.064 A 
ATOM     95  C   UNL     1      10.367 -13.880   1.019  1.00  0.00     0.173 A 
ATOM     96  C   UNL     1       8.072 -13.816   0.307  1.00  0.00     0.173 A 
ATOM     97  F   UNL     1      11.482 -13.272   1.451  1.00  0.00    -0.203 F 
ATOM     98  C   UNL     1      10.394 -15.254   0.797  1.00  0.00     0.198 A 
ATOM     99  C   UNL     1       8.093 -15.194   0.117  1.00  0.00     0.198 A 
ATOM    100  F   UNL     1       6.934 -13.149   0.063  1.00  0.00    -0.203 F 
ATOM    101  F   UNL     1      11.525 -15.942   1.005  1.00  0.00    -0.200 F 
ATOM    102  C   UNL     1       9.255 -15.912   0.358  1.00  0.00     0.200 A 
ATOM    103  F   UNL     1       6.986 -15.830  -0.291  1.00  0.00    -0.200 F 
ATOM    104  F   UNL     1       9.277 -17.238   0.164  1.00  0.00    -0.200 F 
ENDBRANCH  71  94
ENDBRANCH  45  46
ENDBRANCH  37  40
ENDBRANCH  35  36
ENDBRANCH  34  35
ENDBRANCH   1  34
TORSDOF 16
