REMARK SMILES C[N@@H+]1CCN(C(=O)c2ccc3[nH]c4c(c3c2)CSCC4)C[C@H]1C(=O)NCCCNC(=O)c1ccc(-c2c3nc(c(-c4c(F)c(F)c(F)c(F)c4F)c4ccc([nH]4)c(-c4c(F)c(F)c(F)c(F)c4F)c4nc(c(-c5c(F)c(F)c(F)c(F)c5F)c5ccc2[nH]5)C=C4)C=C3)cc1
REMARK SMILES IDX 27 1 26 2 25 3 23 4 24 5 22 7 1 8 2 9 3 10 4 12 21 13 5 14
REMARK SMILES IDX 6 15 7 16 8 17 9 18 16 19 10 20 15 21 11 22 14 23 12 24
REMARK SMILES IDX 13 25 17 26 20 28 18 29 19 30 28 31 29 32 30 33 31 35 32 36
REMARK SMILES IDX 33 37 94 38 34 39 93 40 35 41 36 42 37 43 87 44 38 45 92 46
REMARK SMILES IDX 86 47 88 48 39 49 91 50 85 51 84 52 40 54 72 55 52 56 71 57
REMARK SMILES IDX 53 58 56 59 70 60 89 61 54 62 55 63 69 65 90 66 57 67 41 68
REMARK SMILES IDX 42 69 50 70 43 71 44 72 48 73 51 74 45 75 46 76 49 77 47 78
REMARK SMILES IDX 73 79 74 80 82 81 75 82 76 83 80 84 83 85 77 86 78 87 81 88
REMARK SMILES IDX 79 89 58 90 59 91 67 92 60 93 61 94 65 95 68 96 62 97 63 98
REMARK SMILES IDX 66 99 64 100
REMARK H PARENT 25 6 2 11 12 27 29 34 88 53 56 64
REMARK Flexibility Score: inf
ROOT
ATOM      1  C   UNL     1       1.759  -1.312  -3.792  1.00  0.00     0.042 C 
ENDROOT
BRANCH   1   2
ATOM      2  C   UNL     1       0.635  -1.788  -2.876  1.00  0.00     0.118 C 
BRANCH   2   3
ATOM      3  N   UNL     1       1.101  -2.634  -1.791  1.00  0.00    -0.351 N 
ATOM      4  C   UNL     1       1.035  -2.448  -0.442  1.00  0.00     0.280 C 
ATOM      5  O   UNL     1       1.497  -3.339   0.278  1.00  0.00    -0.268 OA
ATOM      6  H   UNL     1       1.532  -3.472  -2.075  1.00  0.00     0.163 HD
BRANCH   4   7
ATOM      7  C   UNL     1       0.385  -1.203   0.180  1.00  0.00     0.293 C 
ATOM      8  C   UNL     1       2.434   0.123   0.110  1.00  0.00     0.333 C 
ATOM      9  N   UNL     1       1.023   0.066  -0.291  1.00  0.00    -0.324 N 
ATOM     10  C   UNL     1       0.298   1.217   0.298  1.00  0.00     0.284 C 
ATOM     11  H   UNL     1       0.977   0.099  -1.310  1.00  0.00     0.348 HD
ATOM     12  C   UNL     1      -1.212   1.193   0.004  1.00  0.00     0.181 C 
ATOM     13  C   UNL     1      -1.138  -1.269  -0.063  1.00  0.00     0.195 C 
ATOM     14  N   UNL     1      -1.835  -0.067   0.413  1.00  0.00    -0.326 N 
BRANCH  14  15
ATOM     15  C   UNL     1      -3.134  -0.039   0.903  1.00  0.00     0.254 C 
ATOM     16  O   UNL     1      -3.777   1.004   1.066  1.00  0.00    -0.269 OA
BRANCH  15  17
ATOM     17  C   UNL     1      -3.814  -1.313   1.213  1.00  0.00     0.040 A 
ATOM     18  C   UNL     1      -3.281  -2.195   2.156  1.00  0.00     0.016 A 
ATOM     19  C   UNL     1      -5.016  -1.598   0.550  1.00  0.00     0.024 A 
ATOM     20  C   UNL     1      -3.891  -3.428   2.401  1.00  0.00     0.027 A 
ATOM     21  C   UNL     1      -5.660  -2.824   0.803  1.00  0.00     0.004 A 
ATOM     22  C   UNL     1      -5.074  -3.714   1.708  1.00  0.00     0.046 A 
ATOM     23  C   UNL     1      -6.872  -3.422   0.340  1.00  0.00    -0.009 A 
ATOM     24  N   UNL     1      -5.877  -4.830   1.759  1.00  0.00    -0.358 N 
ATOM     25  C   UNL     1      -6.981  -4.646   0.974  1.00  0.00     0.021 A 
ATOM     26  C   UNL     1      -7.875  -2.822  -0.595  1.00  0.00     0.107 C 
ATOM     27  H   UNL     1      -5.686  -5.641   2.284  1.00  0.00     0.166 HD
ATOM     28  C   UNL     1      -8.094  -5.629   0.860  1.00  0.00     0.065 C 
ATOM     29  S   UNL     1      -9.199  -3.983  -1.102  1.00  0.00    -0.157 SA
ATOM     30  C   UNL     1      -9.392  -4.919   0.461  1.00  0.00     0.076 C 
ENDBRANCH  15  17
ENDBRANCH  14  15
ENDBRANCH   4   7
ENDBRANCH   2   3
ENDBRANCH   1   2
BRANCH   1  31
ATOM     31  C   UNL     1       2.523  -2.428  -4.503  1.00  0.00     0.118 C 
BRANCH  31  32
ATOM     32  N   UNL     1       1.682  -3.373  -5.212  1.00  0.00    -0.352 N 
ATOM     33  C   UNL     1       1.216  -3.495  -6.490  1.00  0.00     0.251 C 
ATOM     34  H   UNL     1       1.371  -4.104  -4.631  1.00  0.00     0.163 HD
ATOM     35  O   UNL     1       0.662  -4.566  -6.755  1.00  0.00    -0.269 OA
BRANCH  33  36
ATOM     36  C   UNL     1       1.260  -2.443  -7.542  1.00  0.00     0.039 A 
ATOM     37  C   UNL     1       1.742  -1.147  -7.379  1.00  0.00     0.014 A 
ATOM     38  C   UNL     1       0.667  -2.787  -8.775  1.00  0.00     0.014 A 
ATOM     39  C   UNL     1       1.537  -0.194  -8.377  1.00  0.00     0.010 A 
ATOM     40  C   UNL     1       0.474  -1.844  -9.780  1.00  0.00     0.010 A 
ATOM     41  C   UNL     1       0.861  -0.530  -9.559  1.00  0.00    -0.014 A 
BRANCH  41  42
ATOM     42  C   UNL     1       0.658   0.519 -10.557  1.00  0.00     0.031 A 
ATOM     43  C   UNL     1       1.906   1.174 -11.039  1.00  0.00     0.074 A 
ATOM     44  C   UNL     1      -0.537   0.878 -11.072  1.00  0.00     0.049 A 
ATOM     45  N   UNL     1       2.279   2.397 -10.844  1.00  0.00    -0.248 NA
ATOM     46  C   UNL     1       2.907   0.346 -11.725  1.00  0.00     0.031 C 
ATOM     47  C   UNL     1      -1.836   0.218 -10.934  1.00  0.00     0.029 A 
ATOM     48  N   UNL     1      -0.816   1.925 -11.904  1.00  0.00    -0.354 N 
ATOM     49  C   UNL     1       3.497   2.548 -11.502  1.00  0.00     0.074 A 
ATOM     50  C   UNL     1       3.887   1.229 -11.931  1.00  0.00     0.031 C 
ATOM     51  C   UNL     1      -2.711   0.756 -11.817  1.00  0.00     0.029 A 
ATOM     52  C   UNL     1      -2.082   1.891 -12.473  1.00  0.00     0.049 A 
ATOM     53  H   UNL     1      -0.171   2.646 -12.086  1.00  0.00     0.167 HD
ATOM     54  C   UNL     1       3.995   3.784 -11.790  1.00  0.00     0.037 A 
ATOM     55  C   UNL     1      -2.563   2.719 -13.434  1.00  0.00     0.037 A 
ATOM     56  C   UNL     1       3.373   4.796 -10.976  1.00  0.00     0.049 A 
ATOM     57  C   UNL     1      -1.756   3.963 -13.394  1.00  0.00     0.074 A 
ATOM     58  C   UNL     1       3.303   5.043  -9.619  1.00  0.00     0.029 A 
ATOM     59  N   UNL     1       2.399   5.580 -11.542  1.00  0.00    -0.354 N 
ATOM     60  N   UNL     1      -1.800   4.825 -12.417  1.00  0.00    -0.248 NA
ATOM     61  C   UNL     1      -0.572   4.028 -14.238  1.00  0.00     0.031 C 
ATOM     62  C   UNL     1       1.987   5.546  -9.405  1.00  0.00     0.029 A 
ATOM     63  C   UNL     1       1.362   5.627 -10.650  1.00  0.00     0.049 A 
ATOM     64  H   UNL     1       2.438   6.022 -12.421  1.00  0.00     0.167 HD
ATOM     65  C   UNL     1      -0.486   5.232 -12.255  1.00  0.00     0.074 A 
ATOM     66  C   UNL     1       0.210   4.774 -13.454  1.00  0.00     0.031 C 
ATOM     67  C   UNL     1      -0.024   5.653 -11.043  1.00  0.00     0.037 A 
BRANCH  54  68
ATOM     68  C   UNL     1       4.770   4.140 -13.038  1.00  0.00     0.064 A 
ATOM     69  C   UNL     1       5.244   5.462 -13.191  1.00  0.00     0.173 A 
ATOM     70  C   UNL     1       4.769   3.358 -14.212  1.00  0.00     0.173 A 
ATOM     71  F   UNL     1       5.303   6.295 -12.141  1.00  0.00    -0.203 F 
ATOM     72  C   UNL     1       5.563   5.994 -14.442  1.00  0.00     0.198 A 
ATOM     73  C   UNL     1       5.137   3.880 -15.452  1.00  0.00     0.198 A 
ATOM     74  F   UNL     1       4.311   2.102 -14.233  1.00  0.00    -0.203 F 
ATOM     75  F   UNL     1       5.859   7.295 -14.555  1.00  0.00    -0.200 F 
ATOM     76  C   UNL     1       5.492   5.206 -15.575  1.00  0.00     0.200 A 
ATOM     77  F   UNL     1       5.056   3.102 -16.541  1.00  0.00    -0.200 F 
ATOM     78  F   UNL     1       5.719   5.732 -16.785  1.00  0.00    -0.200 F 
ENDBRANCH  54  68
BRANCH  55  79
ATOM     79  C   UNL     1      -3.465   2.404 -14.569  1.00  0.00     0.064 A 
ATOM     80  C   UNL     1      -4.084   3.421 -15.317  1.00  0.00     0.173 A 
ATOM     81  C   UNL     1      -3.501   1.111 -15.128  1.00  0.00     0.173 A 
ATOM     82  F   UNL     1      -4.057   4.690 -14.883  1.00  0.00    -0.203 F 
ATOM     83  C   UNL     1      -4.674   3.165 -16.561  1.00  0.00     0.198 A 
ATOM     84  C   UNL     1      -4.093   0.857 -16.366  1.00  0.00     0.198 A 
ATOM     85  F   UNL     1      -2.872   0.089 -14.531  1.00  0.00    -0.203 F 
ATOM     86  F   UNL     1      -5.196   4.173 -17.275  1.00  0.00    -0.200 F 
ATOM     87  C   UNL     1      -4.668   1.885 -17.089  1.00  0.00     0.200 A 
ATOM     88  F   UNL     1      -4.044  -0.379 -16.884  1.00  0.00    -0.200 F 
ATOM     89  F   UNL     1      -5.172   1.651 -18.308  1.00  0.00    -0.200 F 
ENDBRANCH  55  79
BRANCH  67  90
ATOM     90  C   UNL     1      -1.017   5.910  -9.949  1.00  0.00     0.064 A 
ATOM     91  C   UNL     1      -1.805   4.907  -9.360  1.00  0.00     0.173 A 
ATOM     92  C   UNL     1      -1.014   7.173  -9.342  1.00  0.00     0.173 A 
ATOM     93  F   UNL     1      -1.789   3.652  -9.827  1.00  0.00    -0.203 F 
ATOM     94  C   UNL     1      -2.566   5.167  -8.221  1.00  0.00     0.198 A 
ATOM     95  C   UNL     1      -1.747   7.420  -8.186  1.00  0.00     0.198 A 
ATOM     96  F   UNL     1      -0.237   8.152  -9.834  1.00  0.00    -0.203 F 
ATOM     97  F   UNL     1      -3.300   4.191  -7.666  1.00  0.00    -0.200 F 
ATOM     98  C   UNL     1      -2.524   6.418  -7.628  1.00  0.00     0.200 A 
ATOM     99  F   UNL     1      -1.663   8.616  -7.587  1.00  0.00    -0.200 F 
ATOM    100  F   UNL     1      -3.205   6.650  -6.497  1.00  0.00    -0.200 F 
ENDBRANCH  67  90
ENDBRANCH  41  42
ENDBRANCH  33  36
ENDBRANCH  31  32
ENDBRANCH   1  31
TORSDOF 12
