REMARK SMILES NC(=O)C[C@H](NC(=O)[C@@H]1CC(=O)N(CC2CC2)C1)C(=O)NCCCNC(=O)c1ccc(-c2c3nc(c(-c4c(F)c(F)c(F)c(F)c4F)c4ccc([nH]4)c(-c4c(F)c(F)c(F)c(F)c4F)c4nc(c(-c5c(F)c(F)c(F)c(F)c5F)c5ccc2[nH]5)C=C4)C=C3)cc1
REMARK SMILES IDX 22 1 21 2 19 3 20 4 5 6 4 7 2 8 1 9 3 12 6 13 7 14 8 16 9 17
REMARK SMILES IDX 10 18 18 19 11 20 13 21 12 22 14 23 15 24 16 25 17 26 23 27
REMARK SMILES IDX 24 28 25 29 26 30 27 32 28 33 29 34 90 35 30 36 89 37 31 38
REMARK SMILES IDX 32 39 33 40 83 41 34 42 88 43 82 44 84 45 35 46 87 47 81 48
REMARK SMILES IDX 80 49 36 51 68 52 48 53 67 54 49 55 52 56 66 57 85 58 50 59
REMARK SMILES IDX 51 60 65 62 86 63 53 64 37 65 38 66 46 67 39 68 40 69 44 70
REMARK SMILES IDX 47 71 41 72 42 73 45 74 43 75 69 76 70 77 78 78 71 79 72 80
REMARK SMILES IDX 76 81 79 82 73 83 74 84 77 85 75 86 54 87 55 88 63 89 56 90
REMARK SMILES IDX 57 91 61 92 64 93 58 94 59 95 62 96 60 97
REMARK H PARENT 21 5 1 10 1 11 6 15 25 31 84 50 52 61
REMARK Flexibility Score: inf
ROOT
ATOM      1  C   UNL     1       4.016   1.635  -3.108  1.00  0.00     0.117 C 
ENDROOT
BRANCH   1   2
ATOM      2  N   UNL     1       3.531   2.988  -3.246  1.00  0.00    -0.354 N 
ATOM      3  C   UNL     1       2.461   3.581  -2.657  1.00  0.00     0.243 C 
ATOM      4  O   UNL     1       2.110   4.685  -3.076  1.00  0.00    -0.273 OA
ATOM      5  H   UNL     1       4.050   3.563  -3.853  1.00  0.00     0.163 HD
BRANCH   3   6
ATOM      6  C   UNL     1       1.806   2.967  -1.407  1.00  0.00     0.180 C 
BRANCH   6   7
ATOM      7  C   UNL     1       2.778   3.155  -0.251  1.00  0.00     0.134 C 
BRANCH   7   8
ATOM      8  C   UNL     1       2.160   3.504   1.088  1.00  0.00     0.220 C 
ATOM      9  N   UNL     1       0.857   3.191   1.310  1.00  0.00    -0.370 N 
ATOM     10  H   UNL     1       0.438   3.410   2.174  1.00  0.00     0.159 HD
ATOM     11  H   UNL     1       0.332   2.744   0.608  1.00  0.00     0.159 HD
ATOM     12  O   UNL     1       2.831   3.996   1.992  1.00  0.00    -0.275 OA
ENDBRANCH   7   8
ENDBRANCH   6   7
BRANCH   6  13
ATOM     13  N   UNL     1       1.081   1.690  -1.657  1.00  0.00    -0.343 N 
ATOM     14  C   UNL     1       1.065   0.354  -1.469  1.00  0.00     0.226 C 
ATOM     15  H   UNL     1       0.276   1.915  -2.177  1.00  0.00     0.164 HD
ATOM     16  O   UNL     1       0.168  -0.205  -2.117  1.00  0.00    -0.275 OA
BRANCH  14  17
ATOM     17  C   UNL     1       2.052  -0.511  -0.688  1.00  0.00     0.107 C 
ATOM     18  C   UNL     1       1.443  -1.875  -0.292  1.00  0.00     0.115 C 
ATOM     19  C   UNL     1       2.551   0.028   0.625  1.00  0.00     0.133 C 
ATOM     20  C   UNL     1       1.120  -1.726   1.176  1.00  0.00     0.223 C 
ATOM     21  N   UNL     1       1.871  -0.675   1.667  1.00  0.00    -0.342 N 
ATOM     22  O   UNL     1       0.350  -2.428   1.802  1.00  0.00    -0.275 OA
BRANCH  21  23
ATOM     23  C   UNL     1       1.731  -0.135   3.011  1.00  0.00     0.123 C 
BRANCH  23  24
ATOM     24  C   UNL     1       2.990   0.069   3.804  1.00  0.00     0.008 C 
ATOM     25  C   UNL     1       4.340  -0.514   3.461  1.00  0.00     0.006 C 
ATOM     26  C   UNL     1       4.117   0.971   3.355  1.00  0.00     0.006 C 
ENDBRANCH  23  24
ENDBRANCH  21  23
ENDBRANCH  14  17
ENDBRANCH   6  13
ENDBRANCH   3   6
ENDBRANCH   1   2
BRANCH   1  27
ATOM     27  C   UNL     1       3.592   0.795  -4.305  1.00  0.00     0.042 C 
BRANCH  27  28
ATOM     28  C   UNL     1       4.238   1.262  -5.605  1.00  0.00     0.118 C 
BRANCH  28  29
ATOM     29  N   UNL     1       5.687   1.107  -5.590  1.00  0.00    -0.352 N 
ATOM     30  C   UNL     1       6.497   0.503  -6.519  1.00  0.00     0.251 C 
ATOM     31  H   UNL     1       6.147   1.486  -4.807  1.00  0.00     0.163 HD
ATOM     32  O   UNL     1       7.677   0.287  -6.266  1.00  0.00    -0.269 OA
BRANCH  30  33
ATOM     33  C   UNL     1       5.925   0.099  -7.816  1.00  0.00     0.039 A 
ATOM     34  C   UNL     1       6.184  -1.183  -8.303  1.00  0.00     0.014 A 
ATOM     35  C   UNL     1       5.108   0.981  -8.529  1.00  0.00     0.014 A 
ATOM     36  C   UNL     1       5.565  -1.607  -9.479  1.00  0.00     0.010 A 
ATOM     37  C   UNL     1       4.431   0.529  -9.654  1.00  0.00     0.010 A 
ATOM     38  C   UNL     1       4.654  -0.768 -10.141  1.00  0.00    -0.014 A 
BRANCH  38  39
ATOM     39  C   UNL     1       3.920  -1.218 -11.349  1.00  0.00     0.031 A 
ATOM     40  C   UNL     1       4.121  -0.500 -12.654  1.00  0.00     0.074 A 
ATOM     41  C   UNL     1       3.007  -2.204 -11.245  1.00  0.00     0.049 A 
ATOM     42  N   UNL     1       3.486  -0.651 -13.788  1.00  0.00    -0.248 NA
ATOM     43  C   UNL     1       5.151   0.552 -12.679  1.00  0.00     0.031 C 
ATOM     44  C   UNL     1       2.686  -2.937 -10.019  1.00  0.00     0.029 A 
ATOM     45  N   UNL     1       2.162  -2.744 -12.183  1.00  0.00    -0.354 N 
ATOM     46  C   UNL     1       4.016   0.303 -14.646  1.00  0.00     0.074 A 
ATOM     47  C   UNL     1       4.995   1.056 -13.895  1.00  0.00     0.031 C 
ATOM     48  C   UNL     1       1.720  -3.832 -10.280  1.00  0.00     0.029 A 
ATOM     49  C   UNL     1       1.323  -3.708 -11.678  1.00  0.00     0.049 A 
ATOM     50  H   UNL     1       2.158  -2.467 -13.128  1.00  0.00     0.167 HD
ATOM     51  C   UNL     1       3.721   0.517 -15.949  1.00  0.00     0.037 A 
ATOM     52  C   UNL     1       0.329  -4.397 -12.273  1.00  0.00     0.037 A 
ATOM     53  C   UNL     1       2.780  -0.268 -16.702  1.00  0.00     0.049 A 
ATOM     54  C   UNL     1       0.038  -4.148 -13.730  1.00  0.00     0.074 A 
ATOM     55  C   UNL     1       2.482  -0.194 -18.051  1.00  0.00     0.029 A 
ATOM     56  N   UNL     1       1.983  -1.270 -16.169  1.00  0.00    -0.354 N 
ATOM     57  N   UNL     1       0.609  -3.304 -14.555  1.00  0.00    -0.248 NA
ATOM     58  C   UNL     1      -1.030  -4.951 -14.341  1.00  0.00     0.031 C 
ATOM     59  C   UNL     1       1.464  -1.111 -18.323  1.00  0.00     0.029 A 
ATOM     60  C   UNL     1       1.171  -1.800 -17.157  1.00  0.00     0.049 A 
ATOM     61  H   UNL     1       1.993  -1.560 -15.228  1.00  0.00     0.167 HD
ATOM     62  C   UNL     1      -0.007  -3.497 -15.785  1.00  0.00     0.074 A 
ATOM     63  C   UNL     1      -0.985  -4.548 -15.602  1.00  0.00     0.031 C 
ATOM     64  C   UNL     1       0.216  -2.860 -16.960  1.00  0.00     0.037 A 
BRANCH  51  65
ATOM     65  C   UNL     1       4.421   1.641 -16.656  1.00  0.00     0.064 A 
ATOM     66  C   UNL     1       5.784   1.577 -16.978  1.00  0.00     0.173 A 
ATOM     67  C   UNL     1       3.697   2.765 -17.082  1.00  0.00     0.173 A 
ATOM     68  F   UNL     1       6.523   0.529 -16.584  1.00  0.00    -0.203 F 
ATOM     69  C   UNL     1       6.401   2.605 -17.686  1.00  0.00     0.198 A 
ATOM     70  C   UNL     1       4.311   3.777 -17.816  1.00  0.00     0.198 A 
ATOM     71  F   UNL     1       2.389   2.874 -16.804  1.00  0.00    -0.203 F 
ATOM     72  F   UNL     1       7.713   2.540 -17.951  1.00  0.00    -0.200 F 
ATOM     73  C   UNL     1       5.662   3.698 -18.114  1.00  0.00     0.200 A 
ATOM     74  F   UNL     1       3.591   4.825 -18.241  1.00  0.00    -0.200 F 
ATOM     75  F   UNL     1       6.254   4.677 -18.812  1.00  0.00    -0.200 F 
ENDBRANCH  51  65
BRANCH  52  76
ATOM     76  C   UNL     1      -0.469  -5.383 -11.497  1.00  0.00     0.064 A 
ATOM     77  C   UNL     1      -0.396  -6.755 -11.779  1.00  0.00     0.173 A 
ATOM     78  C   UNL     1      -1.345  -4.974 -10.481  1.00  0.00     0.173 A 
ATOM     79  F   UNL     1       0.412  -7.196 -12.755  1.00  0.00    -0.203 F 
ATOM     80  C   UNL     1      -1.194  -7.674 -11.100  1.00  0.00     0.198 A 
ATOM     81  C   UNL     1      -2.117  -5.897  -9.779  1.00  0.00     0.198 A 
ATOM     82  F   UNL     1      -1.448  -3.675 -10.165  1.00  0.00    -0.203 F 
ATOM     83  F   UNL     1      -1.149  -8.971 -11.434  1.00  0.00    -0.200 F 
ATOM     84  C   UNL     1      -2.051  -7.245 -10.098  1.00  0.00     0.200 A 
ATOM     85  F   UNL     1      -2.932  -5.480  -8.801  1.00  0.00    -0.200 F 
ATOM     86  F   UNL     1      -2.821  -8.128  -9.448  1.00  0.00    -0.200 F 
ENDBRANCH  52  76
BRANCH  64  87
ATOM     87  C   UNL     1      -0.574  -3.310 -18.153  1.00  0.00     0.064 A 
ATOM     88  C   UNL     1      -1.942  -3.030 -18.281  1.00  0.00     0.173 A 
ATOM     89  C   UNL     1       0.062  -3.980 -19.210  1.00  0.00     0.173 A 
ATOM     90  F   UNL     1      -2.599  -2.405 -17.291  1.00  0.00    -0.203 F 
ATOM     91  C   UNL     1      -2.649  -3.422 -19.414  1.00  0.00     0.198 A 
ATOM     92  C   UNL     1      -0.640  -4.340 -20.356  1.00  0.00     0.198 A 
ATOM     93  F   UNL     1       1.371  -4.264 -19.141  1.00  0.00    -0.203 F 
ATOM     94  F   UNL     1      -3.965  -3.183 -19.496  1.00  0.00    -0.200 F 
ATOM     95  C   UNL     1      -1.996  -4.067 -20.454  1.00  0.00     0.200 A 
ATOM     96  F   UNL     1      -0.004  -4.948 -21.367  1.00  0.00    -0.200 F 
ATOM     97  F   UNL     1      -2.676  -4.431 -21.551  1.00  0.00    -0.200 F 
ENDBRANCH  64  87
ENDBRANCH  38  39
ENDBRANCH  30  33
ENDBRANCH  28  29
ENDBRANCH  27  28
ENDBRANCH   1  27
TORSDOF 16
