REMARK SMILES CCCCCCNC(=O)Oc1cccc(-c2ccc([C@@H](C)C(=O)NCCCNC(=O)c3ccc(-c4c5nc(c(-c6c(F)c(F)c(F)c(F)c6F)c6ccc([nH]6)c(-c6c(F)c(F)c(F)c(F)c6F)c6nc(c(-c7c(F)c(F)c(F)c(F)c7F)c7ccc4[nH]7)C=C6)C=C5)cc3)cc2F)c1
REMARK SMILES IDX 16 1 17 2 18 3 19 4 94 5 95 6 96 7 15 8 11 9 12 10 97 11
REMARK SMILES IDX 13 12 14 13 10 14 8 15 7 16 9 18 6 19 5 20 4 21 3 22 2 23
REMARK SMILES IDX 1 24 20 25 21 26 22 27 23 28 24 29 25 31 26 32 27 33 28 34
REMARK SMILES IDX 29 35 30 37 31 38 32 39 93 40 33 41 92 42 34 43 35 44 36 45
REMARK SMILES IDX 86 46 37 47 91 48 85 49 87 50 38 51 90 52 84 53 83 54 39 56
REMARK SMILES IDX 71 57 51 58 70 59 52 60 55 61 69 62 88 63 53 64 54 65 68 67
REMARK SMILES IDX 89 68 56 69 40 70 41 71 49 72 42 73 43 74 47 75 50 76 44 77
REMARK SMILES IDX 45 78 48 79 46 80 72 81 73 82 81 83 74 84 75 85 79 86 82 87
REMARK SMILES IDX 76 88 77 89 80 90 78 91 57 92 58 93 66 94 59 95 60 96 64 97
REMARK SMILES IDX 67 98 61 99 62 100 65 101 63 102
REMARK H PARENT 7 17 24 30 28 36 87 55 55 66
REMARK Flexibility Score: inf
ROOT
ATOM      1  C   UNL     1      -5.226   5.223  -8.400  1.00  0.00     0.018 A 
ATOM      2  C   UNL     1      -5.704   6.242  -9.241  1.00  0.00     0.012 A 
ATOM      3  C   UNL     1      -5.642   6.138 -10.637  1.00  0.00     0.005 A 
ATOM      4  C   UNL     1      -5.037   5.039 -11.253  1.00  0.00    -0.033 A 
ATOM      5  C   UNL     1      -4.584   4.002 -10.425  1.00  0.00     0.044 A 
ATOM      6  C   UNL     1      -4.698   4.089  -9.034  1.00  0.00     0.131 A 
ATOM      7  F   UNL     1      -4.276   3.037  -8.315  1.00  0.00    -0.206 F 
ENDROOT
BRANCH   1   8
ATOM      8  C   UNL     1      -5.265   5.376  -6.926  1.00  0.00    -0.012 A 
ATOM      9  C   UNL     1      -4.271   5.067  -4.725  1.00  0.00     0.133 A 
ATOM     10  C   UNL     1      -5.324   5.739  -4.114  1.00  0.00     0.047 A 
ATOM     11  C   UNL     1      -4.236   4.877  -6.108  1.00  0.00     0.056 A 
ATOM     12  C   UNL     1      -6.352   6.242  -4.902  1.00  0.00     0.004 A 
ATOM     13  C   UNL     1      -6.324   6.054  -6.288  1.00  0.00     0.009 A 
BRANCH   9  14
ATOM     14  O   UNL     1      -3.317   4.481  -3.880  1.00  0.00    -0.410 OA
BRANCH  14  15
ATOM     15  C   UNL     1      -1.981   4.788  -4.090  1.00  0.00     0.412 C 
ATOM     16  N   UNL     1      -1.144   4.126  -3.233  1.00  0.00    -0.321 N 
ATOM     17  H   UNL     1      -0.181   4.308  -3.328  1.00  0.00     0.167 HD
ATOM     18  O   UNL     1      -1.542   5.568  -4.925  1.00  0.00    -0.224 OA
BRANCH  16  19
ATOM     19  C   UNL     1      -1.529   3.186  -2.199  1.00  0.00     0.119 C 
BRANCH  19  20
ATOM     20  C   UNL     1      -0.922   1.802  -2.429  1.00  0.00     0.021 C 
BRANCH  20  21
ATOM     21  C   UNL     1       0.607   1.747  -2.338  1.00  0.00     0.002 C 
BRANCH  21  22
ATOM     22  C   UNL     1       1.207   2.211  -1.005  1.00  0.00    -0.000 C 
BRANCH  22  23
ATOM     23  C   UNL     1       0.719   1.457   0.234  1.00  0.00    -0.003 C 
ATOM     24  C   UNL     1       1.078  -0.021   0.219  1.00  0.00     0.004 C 
ENDBRANCH  22  23
ENDBRANCH  21  22
ENDBRANCH  20  21
ENDBRANCH  19  20
ENDBRANCH  16  19
ENDBRANCH  14  15
ENDBRANCH   9  14
ENDBRANCH   1   8
BRANCH   4  25
ATOM     25  C   UNL     1      -4.814   4.949 -12.754  1.00  0.00     0.105 C 
ATOM     26  C   UNL     1      -6.004   5.342 -13.629  1.00  0.00     0.023 C 
BRANCH  25  27
ATOM     27  C   UNL     1      -3.468   5.537 -13.204  1.00  0.00     0.227 C 
ATOM     28  O   UNL     1      -2.529   4.781 -13.483  1.00  0.00    -0.274 OA
ATOM     29  N   UNL     1      -3.218   6.869 -13.322  1.00  0.00    -0.356 N 
ATOM     30  H   UNL     1      -2.323   7.079 -13.676  1.00  0.00     0.163 HD
BRANCH  29  31
ATOM     31  C   UNL     1      -4.021   8.038 -13.024  1.00  0.00     0.117 C 
BRANCH  31  32
ATOM     32  C   UNL     1      -3.681   8.646 -11.665  1.00  0.00     0.042 C 
BRANCH  32  33
ATOM     33  C   UNL     1      -2.448   9.541 -11.677  1.00  0.00     0.118 C 
BRANCH  33  34
ATOM     34  N   UNL     1      -2.674  10.780 -12.407  1.00  0.00    -0.352 N 
ATOM     35  C   UNL     1      -2.641  12.088 -11.994  1.00  0.00     0.251 C 
ATOM     36  H   UNL     1      -2.888  10.659 -13.361  1.00  0.00     0.163 HD
ATOM     37  O   UNL     1      -3.076  12.958 -12.745  1.00  0.00    -0.269 OA
BRANCH  35  38
ATOM     38  C   UNL     1      -2.100  12.476 -10.669  1.00  0.00     0.039 A 
ATOM     39  C   UNL     1      -2.672  13.572 -10.012  1.00  0.00     0.014 A 
ATOM     40  C   UNL     1      -0.996  11.835 -10.102  1.00  0.00     0.014 A 
ATOM     41  C   UNL     1      -2.163  13.998  -8.782  1.00  0.00     0.010 A 
ATOM     42  C   UNL     1      -0.544  12.205  -8.836  1.00  0.00     0.010 A 
ATOM     43  C   UNL     1      -1.106  13.305  -8.173  1.00  0.00    -0.014 A 
BRANCH  43  44
ATOM     44  C   UNL     1      -0.555  13.742  -6.864  1.00  0.00     0.031 A 
ATOM     45  C   UNL     1       0.866  14.230  -6.766  1.00  0.00     0.074 A 
ATOM     46  C   UNL     1      -1.316  13.660  -5.756  1.00  0.00     0.049 A 
ATOM     47  N   UNL     1       1.543  14.611  -5.711  1.00  0.00    -0.248 NA
ATOM     48  C   UNL     1       1.639  14.270  -8.018  1.00  0.00     0.031 C 
ATOM     49  C   UNL     1      -2.690  13.157  -5.710  1.00  0.00     0.029 A 
ATOM     50  N   UNL     1      -1.040  13.991  -4.453  1.00  0.00    -0.354 N 
ATOM     51  C   UNL     1       2.820  14.913  -6.168  1.00  0.00     0.074 A 
ATOM     52  C   UNL     1       2.841  14.623  -7.585  1.00  0.00     0.031 C 
ATOM     53  C   UNL     1      -3.144  13.235  -4.449  1.00  0.00     0.029 A 
ATOM     54  C   UNL     1      -2.086  13.761  -3.593  1.00  0.00     0.049 A 
ATOM     55  H   UNL     1      -0.174  14.358  -4.162  1.00  0.00     0.167 HD
ATOM     56  C   UNL     1       3.872  15.409  -5.475  1.00  0.00     0.037 A 
ATOM     57  C   UNL     1      -2.179  13.953  -2.264  1.00  0.00     0.037 A 
ATOM     58  C   UNL     1       3.839  15.727  -4.071  1.00  0.00     0.049 A 
ATOM     59  C   UNL     1      -1.003  14.528  -1.522  1.00  0.00     0.074 A 
ATOM     60  C   UNL     1       4.833  16.286  -3.288  1.00  0.00     0.029 A 
ATOM     61  N   UNL     1       2.748  15.514  -3.241  1.00  0.00    -0.354 N 
ATOM     62  N   UNL     1       0.177  14.872  -1.977  1.00  0.00    -0.248 NA
ATOM     63  C   UNL     1      -1.179  14.756  -0.081  1.00  0.00     0.031 C 
ATOM     64  C   UNL     1       4.357  16.376  -1.975  1.00  0.00     0.029 A 
ATOM     65  C   UNL     1       3.049  15.920  -1.951  1.00  0.00     0.049 A 
ATOM     66  H   UNL     1       1.887  15.131  -3.527  1.00  0.00     0.167 HD
ATOM     67  C   UNL     1       0.873  15.383  -0.890  1.00  0.00     0.074 A 
ATOM     68  C   UNL     1      -0.025  15.320   0.245  1.00  0.00     0.031 C 
ATOM     69  C   UNL     1       2.140  15.861  -0.835  1.00  0.00     0.037 A 
BRANCH  56  70
ATOM     70  C   UNL     1       5.150  15.647  -6.228  1.00  0.00     0.064 A 
ATOM     71  C   UNL     1       5.263  16.670  -7.183  1.00  0.00     0.173 A 
ATOM     72  C   UNL     1       6.286  14.865  -5.970  1.00  0.00     0.173 A 
ATOM     73  F   UNL     1       4.204  17.439  -7.476  1.00  0.00    -0.203 F 
ATOM     74  C   UNL     1       6.455  16.880  -7.872  1.00  0.00     0.198 A 
ATOM     75  C   UNL     1       7.486  15.098  -6.638  1.00  0.00     0.198 A 
ATOM     76  F   UNL     1       6.237  13.878  -5.062  1.00  0.00    -0.203 F 
ATOM     77  F   UNL     1       6.522  17.830  -8.815  1.00  0.00    -0.200 F 
ATOM     78  C   UNL     1       7.566  16.100  -7.594  1.00  0.00     0.200 A 
ATOM     79  F   UNL     1       8.563  14.352  -6.359  1.00  0.00    -0.200 F 
ATOM     80  F   UNL     1       8.715  16.308  -8.253  1.00  0.00    -0.200 F 
ENDBRANCH  56  70
BRANCH  57  81
ATOM     81  C   UNL     1      -3.445  13.635  -1.555  1.00  0.00     0.064 A 
ATOM     82  C   UNL     1      -4.256  14.656  -1.040  1.00  0.00     0.173 A 
ATOM     83  C   UNL     1      -3.869  12.311  -1.374  1.00  0.00     0.173 A 
ATOM     84  F   UNL     1      -3.882  15.938  -1.170  1.00  0.00    -0.203 F 
ATOM     85  C   UNL     1      -5.431  14.364  -0.351  1.00  0.00     0.198 A 
ATOM     86  C   UNL     1      -5.060  12.021  -0.710  1.00  0.00     0.198 A 
ATOM     87  F   UNL     1      -3.132  11.298  -1.852  1.00  0.00    -0.203 F 
ATOM     88  F   UNL     1      -6.163  15.358   0.173  1.00  0.00    -0.200 F 
ATOM     89  C   UNL     1      -5.835  13.047  -0.192  1.00  0.00     0.200 A 
ATOM     90  F   UNL     1      -5.455  10.748  -0.570  1.00  0.00    -0.200 F 
ATOM     91  F   UNL     1      -6.967  12.767   0.468  1.00  0.00    -0.200 F 
ENDBRANCH  57  81
BRANCH  69  92
ATOM     92  C   UNL     1       2.614  16.396   0.485  1.00  0.00     0.064 A 
ATOM     93  C   UNL     1       2.890  15.549   1.568  1.00  0.00     0.173 A 
ATOM     94  C   UNL     1       2.818  17.773   0.658  1.00  0.00     0.173 A 
ATOM     95  F   UNL     1       2.697  14.226   1.458  1.00  0.00    -0.203 F 
ATOM     96  C   UNL     1       3.320  16.066   2.788  1.00  0.00     0.198 A 
ATOM     97  C   UNL     1       3.278  18.283   1.868  1.00  0.00     0.198 A 
ATOM     98  F   UNL     1       2.577  18.625  -0.350  1.00  0.00    -0.203 F 
ATOM     99  F   UNL     1       3.524  15.244   3.826  1.00  0.00    -0.200 F 
ATOM    100  C   UNL     1       3.520  17.430   2.935  1.00  0.00     0.200 A 
ATOM    101  F   UNL     1       3.483  19.600   2.005  1.00  0.00    -0.200 F 
ATOM    102  F   UNL     1       3.936  17.925   4.109  1.00  0.00    -0.200 F 
ENDBRANCH  69  92
ENDBRANCH  43  44
ENDBRANCH  35  38
ENDBRANCH  33  34
ENDBRANCH  32  33
ENDBRANCH  31  32
ENDBRANCH  29  31
ENDBRANCH  25  27
ENDBRANCH   4  25
TORSDOF 19
