REMARK SMILES Cc1c[nH]c(C[N@H+]2C[C@@H]3CN(S(C)(=O)=O)C[C@]3(C(=O)NCCCNC(=O)c3ccc(-c4c5nc(c(-c6c(F)c(F)c(F)c(F)c6F)c6ccc([nH]6)c(-c6c(F)c(F)c(F)c(F)c6F)c6nc(c(-c7c(F)c(F)c(F)c(F)c7F)c7ccc4[nH]7)C=C6)C=C5)cc3)C2)n1
REMARK SMILES IDX 22 1 21 2 20 3 18 4 19 5 17 7 7 8 8 9 90 10 9 12 10 13 16 14
REMARK SMILES IDX 11 15 6 16 5 17 1 18 2 19 3 20 91 21 4 22 12 24 13 25 14 26
REMARK SMILES IDX 15 27 23 28 24 29 25 30 26 32 27 33 28 34 89 35 29 36 88 37
REMARK SMILES IDX 30 38 31 39 32 40 82 41 33 42 87 43 81 44 83 45 34 46 86 47
REMARK SMILES IDX 80 48 79 49 35 51 67 52 47 53 66 54 48 55 51 56 65 57 84 58
REMARK SMILES IDX 49 59 50 60 64 62 85 63 52 64 36 65 37 66 45 67 38 68 39 69
REMARK SMILES IDX 43 70 46 71 40 72 41 73 44 74 42 75 68 76 69 77 77 78 70 79
REMARK SMILES IDX 71 80 75 81 78 82 72 83 73 84 76 85 74 86 53 87 54 88 62 89
REMARK SMILES IDX 55 90 56 91 60 92 63 93 57 94 58 95 61 96 59 97
REMARK H PARENT 20 6 7 11 4 23 24 31 83 50 51 61
REMARK Flexibility Score: inf
ROOT
ATOM      1  C   UNL     1      -0.553   7.128   4.891  1.00  0.00     0.042 C 
ENDROOT
BRANCH   1   2
ATOM      2  C   UNL     1      -1.397   6.505   3.782  1.00  0.00     0.117 C 
BRANCH   2   3
ATOM      3  N   UNL     1      -0.556   6.080   2.676  1.00  0.00    -0.355 N 
ATOM      4  C   UNL     1      -0.087   4.808   2.420  1.00  0.00     0.233 C 
ATOM      5  O   UNL     1       0.955   4.707   1.774  1.00  0.00    -0.274 OA
ATOM      6  H   UNL     1      -0.290   6.779   2.035  1.00  0.00     0.163 HD
BRANCH   4   7
ATOM      7  C   UNL     1      -0.948   3.601   2.962  1.00  0.00     0.121 C 
ATOM      8  N   UNL     1      -2.378   2.356   1.292  1.00  0.00    -0.327 N 
ATOM      9  C   UNL     1      -2.224   1.515   2.453  1.00  0.00     0.268 C 
ATOM     10  C   UNL     1      -1.322   3.386   1.416  1.00  0.00     0.281 C 
ATOM     11  H   UNL     1      -3.310   2.770   1.268  1.00  0.00     0.348 HD
ATOM     12  C   UNL     1      -0.920   1.999   3.054  1.00  0.00     0.082 C 
ATOM     13  C   UNL     1      -0.846   1.512   4.501  1.00  0.00     0.113 C 
ATOM     14  C   UNL     1       0.097   3.591   4.142  1.00  0.00     0.125 C 
ATOM     15  N   UNL     1      -0.463   2.718   5.202  1.00  0.00    -0.200 NA
BRANCH   8  16
ATOM     16  C   UNL     1      -2.314   1.622   0.007  1.00  0.00     0.338 C 
BRANCH  16  17
ATOM     17  C   UNL     1      -1.157   0.670  -0.133  1.00  0.00     0.161 A 
ATOM     18  C   UNL     1       2.288  -0.212  -0.100  1.00  0.00     0.068 C 
ATOM     19  C   UNL     1       0.810  -0.211  -0.141  1.00  0.00     0.056 A 
ATOM     20  C   UNL     1      -0.074  -1.265  -0.116  1.00  0.00     0.107 A 
ATOM     21  N   UNL     1       0.124   0.977  -0.178  1.00  0.00    -0.233 NA
ATOM     22  N   UNL     1      -1.317  -0.696  -0.145  1.00  0.00    -0.344 N 
ATOM     23  H   UNL     1      -2.175  -1.178  -0.170  1.00  0.00     0.167 HD
ENDBRANCH  16  17
ENDBRANCH   8  16
BRANCH  15  24
ATOM     24  S   UNL     1      -1.494   3.325   6.387  1.00  0.00     0.211 S 
ATOM     25  C   UNL     1      -3.079   3.502   5.572  1.00  0.00     0.176 C 
ATOM     26  O   UNL     1      -1.657   2.297   7.389  1.00  0.00    -0.213 OA
ATOM     27  O   UNL     1      -1.028   4.649   6.746  1.00  0.00    -0.213 OA
ENDBRANCH  15  24
ENDBRANCH   4   7
ENDBRANCH   2   3
ENDBRANCH   1   2
BRANCH   1  28
ATOM     28  C   UNL     1      -0.142   8.552   4.570  1.00  0.00     0.118 C 
BRANCH  28  29
ATOM     29  N   UNL     1      -1.260   9.464   4.752  1.00  0.00    -0.352 N 
ATOM     30  C   UNL     1      -1.556  10.274   5.821  1.00  0.00     0.251 C 
ATOM     31  H   UNL     1      -1.896   9.507   4.002  1.00  0.00     0.163 HD
ATOM     32  O   UNL     1      -2.706  10.674   5.974  1.00  0.00    -0.269 OA
BRANCH  30  33
ATOM     33  C   UNL     1      -0.497  10.675   6.776  1.00  0.00     0.039 A 
ATOM     34  C   UNL     1      -0.833  10.911   8.112  1.00  0.00     0.014 A 
ATOM     35  C   UNL     1       0.815  10.885   6.346  1.00  0.00     0.014 A 
ATOM     36  C   UNL     1       0.152  11.329   9.011  1.00  0.00     0.010 A 
ATOM     37  C   UNL     1       1.815  11.170   7.265  1.00  0.00     0.010 A 
ATOM     38  C   UNL     1       1.490  11.441   8.599  1.00  0.00    -0.014 A 
BRANCH  38  39
ATOM     39  C   UNL     1       2.558  11.903   9.521  1.00  0.00     0.031 A 
ATOM     40  C   UNL     1       3.343  13.149   9.190  1.00  0.00     0.074 A 
ATOM     41  C   UNL     1       2.862  11.176  10.614  1.00  0.00     0.049 A 
ATOM     42  N   UNL     1       4.365  13.677   9.816  1.00  0.00    -0.248 NA
ATOM     43  C   UNL     1       2.954  13.881   7.972  1.00  0.00     0.031 C 
ATOM     44  C   UNL     1       2.210   9.925  11.008  1.00  0.00     0.029 A 
ATOM     45  N   UNL     1       3.805  11.379  11.590  1.00  0.00    -0.354 N 
ATOM     46  C   UNL     1       4.754  14.771   9.052  1.00  0.00     0.074 A 
ATOM     47  C   UNL     1       3.900  14.804   7.888  1.00  0.00     0.031 C 
ATOM     48  C   UNL     1       2.748   9.492  12.160  1.00  0.00     0.029 A 
ATOM     49  C   UNL     1       3.814  10.405  12.559  1.00  0.00     0.049 A 
ATOM     50  H   UNL     1       4.417  12.150  11.596  1.00  0.00     0.167 HD
ATOM     51  C   UNL     1       5.720  15.681   9.313  1.00  0.00     0.037 A 
ATOM     52  C   UNL     1       4.602  10.263  13.641  1.00  0.00     0.037 A 
ATOM     53  C   UNL     1       6.529  15.672  10.502  1.00  0.00     0.049 A 
ATOM     54  C   UNL     1       5.661  11.302  13.908  1.00  0.00     0.074 A 
ATOM     55  C   UNL     1       7.473  16.598  10.908  1.00  0.00     0.029 A 
ATOM     56  N   UNL     1       6.488  14.685  11.475  1.00  0.00    -0.354 N 
ATOM     57  N   UNL     1       5.957  12.382  13.226  1.00  0.00    -0.248 NA
ATOM     58  C   UNL     1       6.490  11.105  15.105  1.00  0.00     0.031 C 
ATOM     59  C   UNL     1       8.050  16.138  12.095  1.00  0.00     0.029 A 
ATOM     60  C   UNL     1       7.414  14.965  12.466  1.00  0.00     0.049 A 
ATOM     61  H   UNL     1       5.890  13.903  11.463  1.00  0.00     0.167 HD
ATOM     62  C   UNL     1       6.972  13.014  13.932  1.00  0.00     0.074 A 
ATOM     63  C   UNL     1       7.229  12.204  15.104  1.00  0.00     0.031 C 
ATOM     64  C   UNL     1       7.635  14.159  13.639  1.00  0.00     0.037 A 
BRANCH  51  65
ATOM     65  C   UNL     1       5.962  16.770   8.306  1.00  0.00     0.064 A 
ATOM     66  C   UNL     1       5.032  17.798   8.085  1.00  0.00     0.173 A 
ATOM     67  C   UNL     1       7.176  16.825   7.604  1.00  0.00     0.173 A 
ATOM     68  F   UNL     1       3.851  17.788   8.720  1.00  0.00    -0.203 F 
ATOM     69  C   UNL     1       5.303  18.829   7.188  1.00  0.00     0.198 A 
ATOM     70  C   UNL     1       7.457  17.874   6.733  1.00  0.00     0.198 A 
ATOM     71  F   UNL     1       8.102  15.870   7.778  1.00  0.00    -0.203 F 
ATOM     72  F   UNL     1       4.383  19.778   6.965  1.00  0.00    -0.200 F 
ATOM     73  C   UNL     1       6.518  18.873   6.523  1.00  0.00     0.200 A 
ATOM     74  F   UNL     1       8.639  17.924   6.104  1.00  0.00    -0.200 F 
ATOM     75  F   UNL     1       6.785  19.877   5.677  1.00  0.00    -0.200 F 
ENDBRANCH  51  65
BRANCH  52  76
ATOM     76  C   UNL     1       4.422   9.111  14.566  1.00  0.00     0.064 A 
ATOM     77  C   UNL     1       4.011   9.309  15.892  1.00  0.00     0.173 A 
ATOM     78  C   UNL     1       4.706   7.797  14.164  1.00  0.00     0.173 A 
ATOM     79  F   UNL     1       3.744  10.548  16.332  1.00  0.00    -0.203 F 
ATOM     80  C   UNL     1       3.936   8.247  16.791  1.00  0.00     0.198 A 
ATOM     81  C   UNL     1       4.594   6.731  15.054  1.00  0.00     0.198 A 
ATOM     82  F   UNL     1       5.097   7.548  12.906  1.00  0.00    -0.203 F 
ATOM     83  F   UNL     1       3.617   8.479  18.072  1.00  0.00    -0.200 F 
ATOM     84  C   UNL     1       4.226   6.959  16.371  1.00  0.00     0.200 A 
ATOM     85  F   UNL     1       4.860   5.484  14.640  1.00  0.00    -0.200 F 
ATOM     86  F   UNL     1       4.167   5.940  17.239  1.00  0.00    -0.200 F 
ENDBRANCH  52  76
BRANCH  64  87
ATOM     87  C   UNL     1       8.652  14.641  14.633  1.00  0.00     0.064 A 
ATOM     88  C   UNL     1       9.862  13.965  14.845  1.00  0.00     0.173 A 
ATOM     89  C   UNL     1       8.422  15.820  15.360  1.00  0.00     0.173 A 
ATOM     90  F   UNL     1      10.126  12.828  14.184  1.00  0.00    -0.203 F 
ATOM     91  C   UNL     1      10.786  14.429  15.777  1.00  0.00     0.198 A 
ATOM     92  C   UNL     1       9.365  16.303  16.261  1.00  0.00     0.198 A 
ATOM     93  F   UNL     1       7.286  16.512  15.186  1.00  0.00    -0.203 F 
ATOM     94  F   UNL     1      11.907  13.732  16.010  1.00  0.00    -0.200 F 
ATOM     95  C   UNL     1      10.541  15.601  16.477  1.00  0.00     0.200 A 
ATOM     96  F   UNL     1       9.136  17.446  16.921  1.00  0.00    -0.200 F 
ATOM     97  F   UNL     1      11.435  16.050  17.368  1.00  0.00    -0.200 F 
ENDBRANCH  64  87
ENDBRANCH  38  39
ENDBRANCH  30  33
ENDBRANCH  28  29
ENDBRANCH   1  28
TORSDOF 13
