REMARK SMILES CC(=O)c1cccc(-c2ccc(C(=O)NCCCNC(=O)c3ccc(-c4c5nc(c(-c6c(F)c(F)c(F)c(F)c6F)c6ccc([nH]6)c(-c6c(F)c(F)c(F)c(F)c6F)c6nc(c(-c7c(F)c(F)c(F)c(F)c7F)c7ccc4[nH]7)C=C6)C=C5)cc3)cc2F)c1
REMARK SMILES IDX 17 1 16 2 15 3 13 4 14 5 12 7 9 8 10 9 86 10 11 11 85 12
REMARK SMILES IDX 87 13 8 14 4 15 5 16 88 17 6 18 7 19 2 20 1 21 3 22 18 23
REMARK SMILES IDX 19 24 20 25 21 27 22 28 23 29 84 30 24 31 83 32 25 33 26 34
REMARK SMILES IDX 27 35 77 36 28 37 82 38 76 39 78 40 29 41 81 42 75 43 74 44
REMARK SMILES IDX 30 46 62 47 42 48 61 49 43 50 46 51 60 52 79 53 44 54 45 55
REMARK SMILES IDX 59 57 80 58 47 59 31 60 32 61 40 62 33 63 34 64 38 65 41 66
REMARK SMILES IDX 35 67 36 68 39 69 37 70 63 71 64 72 72 73 65 74 66 75 70 76
REMARK SMILES IDX 73 77 67 78 68 79 71 80 69 81 48 82 49 83 57 84 50 85 51 86
REMARK SMILES IDX 55 87 58 88 52 89 53 90 56 91 54 92
REMARK H PARENT 15 6 19 26 78 45 46 56
REMARK Flexibility Score: inf
ROOT
ATOM      1  C   UNL     1       9.285  -2.017   4.207  1.00  0.00     0.042 C 
ENDROOT
BRANCH   1   2
ATOM      2  C   UNL     1       9.014  -2.621   2.828  1.00  0.00     0.118 C 
BRANCH   2   3
ATOM      3  N   UNL     1       8.944  -4.071   2.886  1.00  0.00    -0.352 N 
ATOM      4  C   UNL     1       7.885  -4.942   2.852  1.00  0.00     0.251 C 
ATOM      5  O   UNL     1       8.127  -6.147   2.816  1.00  0.00    -0.269 OA
ATOM      6  H   UNL     1       9.822  -4.511   2.964  1.00  0.00     0.163 HD
BRANCH   4   7
ATOM      7  C   UNL     1       6.468  -4.492   2.818  1.00  0.00     0.042 A 
ATOM      8  C   UNL     1       3.736  -3.762   2.675  1.00  0.00     0.018 A 
ATOM      9  C   UNL     1       4.189  -4.939   2.067  1.00  0.00     0.012 A 
ATOM     10  C   UNL     1       4.669  -2.989   3.378  1.00  0.00     0.131 A 
ATOM     11  C   UNL     1       5.543  -5.298   2.136  1.00  0.00     0.014 A 
ATOM     12  C   UNL     1       6.008  -3.355   3.475  1.00  0.00     0.053 A 
ATOM     13  F   UNL     1       4.281  -1.861   3.994  1.00  0.00    -0.206 F 
BRANCH   8  14
ATOM     14  C   UNL     1       2.333  -3.345   2.611  1.00  0.00    -0.015 A 
ATOM     15  C   UNL     1       0.642  -1.734   1.909  1.00  0.00     0.018 A 
ATOM     16  C   UNL     1      -0.314  -2.407   2.676  1.00  0.00     0.012 A 
ATOM     17  C   UNL     1       1.960  -2.206   1.875  1.00  0.00     0.020 A 
ATOM     18  C   UNL     1       0.036  -3.557   3.383  1.00  0.00     0.001 A 
ATOM     19  C   UNL     1       1.350  -4.024   3.348  1.00  0.00     0.009 A 
BRANCH  15  20
ATOM     20  C   UNL     1       0.227  -0.507   1.174  1.00  0.00     0.159 C 
ATOM     21  C   UNL     1       1.004  -0.096  -0.049  1.00  0.00     0.093 C 
ATOM     22  O   UNL     1      -0.754   0.128   1.555  1.00  0.00    -0.295 OA
ENDBRANCH  15  20
ENDBRANCH   8  14
ENDBRANCH   4   7
ENDBRANCH   2   3
ENDBRANCH   1   2
BRANCH   1  23
ATOM     23  C   UNL     1      10.719  -2.211   4.690  1.00  0.00     0.118 C 
BRANCH  23  24
ATOM     24  N   UNL     1      11.663  -1.390   3.947  1.00  0.00    -0.352 N 
ATOM     25  C   UNL     1      12.582  -0.475   4.397  1.00  0.00     0.251 C 
ATOM     26  H   UNL     1      11.639  -1.509   2.970  1.00  0.00     0.163 HD
ATOM     27  O   UNL     1      13.142   0.262   3.591  1.00  0.00    -0.269 OA
BRANCH  25  28
ATOM     28  C   UNL     1      12.900  -0.358   5.838  1.00  0.00     0.039 A 
ATOM     29  C   UNL     1      13.102   0.918   6.375  1.00  0.00     0.014 A 
ATOM     30  C   UNL     1      13.063  -1.486   6.646  1.00  0.00     0.014 A 
ATOM     31  C   UNL     1      13.423   1.065   7.727  1.00  0.00     0.010 A 
ATOM     32  C   UNL     1      13.323  -1.337   8.008  1.00  0.00     0.010 A 
ATOM     33  C   UNL     1      13.514  -0.061   8.560  1.00  0.00    -0.014 A 
BRANCH  33  34
ATOM     34  C   UNL     1      13.820   0.077  10.006  1.00  0.00     0.031 A 
ATOM     35  C   UNL     1      15.112  -0.456  10.561  1.00  0.00     0.074 A 
ATOM     36  C   UNL     1      12.909   0.630  10.829  1.00  0.00     0.049 A 
ATOM     37  N   UNL     1      15.527  -0.497  11.802  1.00  0.00    -0.248 NA
ATOM     38  C   UNL     1      16.053  -1.042   9.595  1.00  0.00     0.031 C 
ATOM     39  C   UNL     1      11.604   1.148  10.417  1.00  0.00     0.029 A 
ATOM     40  N   UNL     1      12.937   0.838  12.185  1.00  0.00    -0.354 N 
ATOM     41  C   UNL     1      16.763  -1.127  11.768  1.00  0.00     0.074 A 
ATOM     42  C   UNL     1      17.014  -1.490  10.389  1.00  0.00     0.031 C 
ATOM     43  C   UNL     1      10.962   1.627  11.494  1.00  0.00     0.029 A 
ATOM     44  C   UNL     1      11.795   1.420  12.676  1.00  0.00     0.049 A 
ATOM     45  H   UNL     1      13.703   0.592  12.752  1.00  0.00     0.167 HD
ATOM     46  C   UNL     1      17.619  -1.365  12.790  1.00  0.00     0.037 A 
ATOM     47  C   UNL     1      11.455   1.744  13.938  1.00  0.00     0.037 A 
ATOM     48  C   UNL     1      17.381  -0.977  14.156  1.00  0.00     0.049 A 
ATOM     49  C   UNL     1      12.427   1.476  15.053  1.00  0.00     0.074 A 
ATOM     50  C   UNL     1      18.212  -1.120  15.253  1.00  0.00     0.029 A 
ATOM     51  N   UNL     1      16.221  -0.365  14.610  1.00  0.00    -0.354 N 
ATOM     52  N   UNL     1      13.618   0.932  15.000  1.00  0.00    -0.248 NA
ATOM     53  C   UNL     1      12.009   1.875  16.405  1.00  0.00     0.031 C 
ATOM     54  C   UNL     1      17.541  -0.628  16.378  1.00  0.00     0.029 A 
ATOM     55  C   UNL     1      16.309  -0.140  15.974  1.00  0.00     0.049 A 
ATOM     56  H   UNL     1      15.450  -0.126  14.046  1.00  0.00     0.167 HD
ATOM     57  C   UNL     1      14.102   0.946  16.300  1.00  0.00     0.074 A 
ATOM     58  C   UNL     1      13.082   1.565  17.120  1.00  0.00     0.031 C 
ATOM     59  C   UNL     1      15.286   0.486  16.773  1.00  0.00     0.037 A 
BRANCH  46  60
ATOM     60  C   UNL     1      18.901  -2.078  12.470  1.00  0.00     0.064 A 
ATOM     61  C   UNL     1      19.930  -1.452  11.750  1.00  0.00     0.173 A 
ATOM     62  C   UNL     1      19.118  -3.390  12.919  1.00  0.00     0.173 A 
ATOM     63  F   UNL     1      19.768  -0.203  11.289  1.00  0.00    -0.203 F 
ATOM     64  C   UNL     1      21.117  -2.123  11.468  1.00  0.00     0.198 A 
ATOM     65  C   UNL     1      20.318  -4.047  12.659  1.00  0.00     0.198 A 
ATOM     66  F   UNL     1      18.169  -4.032  13.617  1.00  0.00    -0.203 F 
ATOM     67  F   UNL     1      22.067  -1.521  10.739  1.00  0.00    -0.200 F 
ATOM     68  C   UNL     1      21.313  -3.416  11.928  1.00  0.00     0.200 A 
ATOM     69  F   UNL     1      20.510  -5.293  13.114  1.00  0.00    -0.200 F 
ATOM     70  F   UNL     1      22.459  -4.058  11.660  1.00  0.00    -0.200 F 
ENDBRANCH  46  60
BRANCH  47  71
ATOM     71  C   UNL     1      10.142   2.384  14.208  1.00  0.00     0.064 A 
ATOM     72  C   UNL     1      10.064   3.732  14.581  1.00  0.00     0.173 A 
ATOM     73  C   UNL     1       8.943   1.665  14.098  1.00  0.00     0.173 A 
ATOM     74  F   UNL     1      11.187   4.454  14.720  1.00  0.00    -0.203 F 
ATOM     75  C   UNL     1       8.838   4.335  14.851  1.00  0.00     0.198 A 
ATOM     76  C   UNL     1       7.715   2.276  14.343  1.00  0.00     0.198 A 
ATOM     77  F   UNL     1       8.964   0.373  13.739  1.00  0.00    -0.203 F 
ATOM     78  F   UNL     1       8.795   5.615  15.245  1.00  0.00    -0.200 F 
ATOM     79  C   UNL     1       7.663   3.608  14.726  1.00  0.00     0.200 A 
ATOM     80  F   UNL     1       6.581   1.574  14.208  1.00  0.00    -0.200 F 
ATOM     81  F   UNL     1       6.483   4.189  14.980  1.00  0.00    -0.200 F 
ENDBRANCH  47  71
BRANCH  59  82
ATOM     82  C   UNL     1      15.556   0.665  18.238  1.00  0.00     0.064 A 
ATOM     83  C   UNL     1      14.905  -0.115  19.205  1.00  0.00     0.173 A 
ATOM     84  C   UNL     1      16.502   1.603  18.675  1.00  0.00     0.173 A 
ATOM     85  F   UNL     1      13.980  -1.014  18.836  1.00  0.00    -0.203 F 
ATOM     86  C   UNL     1      15.176   0.054  20.560  1.00  0.00     0.198 A 
ATOM     87  C   UNL     1      16.790   1.752  20.029  1.00  0.00     0.198 A 
ATOM     88  F   UNL     1      17.155   2.370  17.789  1.00  0.00    -0.203 F 
ATOM     89  F   UNL     1      14.511  -0.671  21.470  1.00  0.00    -0.200 F 
ATOM     90  C   UNL     1      16.122   0.982  20.970  1.00  0.00     0.200 A 
ATOM     91  F   UNL     1      17.712   2.640  20.423  1.00  0.00    -0.200 F 
ATOM     92  F   UNL     1      16.386   1.140  22.274  1.00  0.00    -0.200 F 
ENDBRANCH  59  82
ENDBRANCH  33  34
ENDBRANCH  25  28
ENDBRANCH  23  24
ENDBRANCH   1  23
TORSDOF 12
