REMARK SMILES CC(=O)N1CCC[C@H]1COCC(=O)NCCCNC(=O)c1ccc(-c2c3nc(c(-c4c(F)c(F)c(F)c(F)c4F)c4ccc([nH]4)c(-c4c(F)c(F)c(F)c(F)c4F)c4nc(c(-c5c(F)c(F)c(F)c(F)c5F)c5ccc2[nH]5)C=C4)C=C3)cc1
REMARK SMILES IDX 15 1 14 2 12 3 13 4 11 6 10 7 9 8 8 9 4 10 5 11 6 12 7 13
REMARK SMILES IDX 2 14 1 15 3 16 16 17 17 18 18 19 19 20 20 22 21 23 22 24
REMARK SMILES IDX 83 25 23 26 82 27 24 28 25 29 26 30 76 31 27 32 81 33 75 34
REMARK SMILES IDX 77 35 28 36 80 37 74 38 73 39 29 41 61 42 41 43 60 44 42 45
REMARK SMILES IDX 45 46 59 47 78 48 43 49 44 50 58 52 79 53 46 54 30 55 31 56
REMARK SMILES IDX 39 57 32 58 33 59 37 60 40 61 34 62 35 63 38 64 36 65 62 66
REMARK SMILES IDX 63 67 71 68 64 69 65 70 69 71 72 72 66 73 67 74 70 75 68 76
REMARK SMILES IDX 47 77 48 78 56 79 49 80 50 81 54 82 57 83 51 84 52 85 55 86
REMARK SMILES IDX 53 87
REMARK H PARENT 14 5 18 21 77 40 45 51
REMARK Flexibility Score: inf
ROOT
ATOM      1  C   UNL     1       1.306   5.669   5.623  1.00  0.00     0.117 C 
ENDROOT
BRANCH   1   2
ATOM      2  N   UNL     1       1.312   4.516   6.501  1.00  0.00    -0.354 N 
ATOM      3  C   UNL     1       1.607   3.223   6.189  1.00  0.00     0.246 C 
ATOM      4  O   UNL     1       1.507   2.363   7.065  1.00  0.00    -0.272 OA
ATOM      5  H   UNL     1       1.072   4.688   7.440  1.00  0.00     0.163 HD
BRANCH   3   6
ATOM      6  C   UNL     1       2.079   2.885   4.771  1.00  0.00     0.260 C 
BRANCH   6   7
ATOM      7  O   UNL     1       1.175   3.058   3.700  1.00  0.00    -0.370 OA
BRANCH   7   8
ATOM      8  C   UNL     1      -0.057   2.334   3.774  1.00  0.00     0.185 C 
BRANCH   8   9
ATOM      9  C   UNL     1       0.003   0.824   3.435  1.00  0.00     0.111 C 
ATOM     10  N   UNL     1       0.798   0.507   2.255  1.00  0.00    -0.338 N 
ATOM     11  C   UNL     1       2.079  -0.058   2.623  1.00  0.00     0.120 C 
ATOM     12  C   UNL     1       1.827  -0.732   3.959  1.00  0.00     0.024 C 
ATOM     13  C   UNL     1       0.587  -0.055   4.545  1.00  0.00     0.029 C 
BRANCH  10  14
ATOM     14  C   UNL     1       0.326   0.737   0.983  1.00  0.00     0.219 C 
ATOM     15  C   UNL     1       1.170   0.216  -0.152  1.00  0.00     0.114 C 
ATOM     16  O   UNL     1      -0.755   1.284   0.769  1.00  0.00    -0.275 OA
ENDBRANCH  10  14
ENDBRANCH   8   9
ENDBRANCH   7   8
ENDBRANCH   6   7
ENDBRANCH   3   6
ENDBRANCH   1   2
BRANCH   1  17
ATOM     17  C   UNL     1      -0.104   6.192   5.385  1.00  0.00     0.042 C 
BRANCH  17  18
ATOM     18  C   UNL     1      -0.852   6.577   6.658  1.00  0.00     0.118 C 
BRANCH  18  19
ATOM     19  N   UNL     1      -0.142   7.566   7.459  1.00  0.00    -0.352 N 
ATOM     20  C   UNL     1      -0.528   8.816   7.869  1.00  0.00     0.251 C 
ATOM     21  H   UNL     1       0.757   7.294   7.753  1.00  0.00     0.163 HD
ATOM     22  O   UNL     1       0.293   9.569   8.390  1.00  0.00    -0.269 OA
BRANCH  20  23
ATOM     23  C   UNL     1      -1.918   9.271   7.670  1.00  0.00     0.039 A 
ATOM     24  C   UNL     1      -2.143  10.574   7.219  1.00  0.00     0.014 A 
ATOM     25  C   UNL     1      -2.997   8.425   7.939  1.00  0.00     0.014 A 
ATOM     26  C   UNL     1      -3.448  11.005   6.971  1.00  0.00     0.010 A 
ATOM     27  C   UNL     1      -4.288   8.826   7.613  1.00  0.00     0.010 A 
ATOM     28  C   UNL     1      -4.528  10.120   7.128  1.00  0.00    -0.014 A 
BRANCH  28  29
ATOM     29  C   UNL     1      -5.913  10.529   6.786  1.00  0.00     0.031 A 
ATOM     30  C   UNL     1      -6.973  10.573   7.851  1.00  0.00     0.074 A 
ATOM     31  C   UNL     1      -6.230  10.794   5.504  1.00  0.00     0.049 A 
ATOM     32  N   UNL     1      -8.252  10.834   7.737  1.00  0.00    -0.248 NA
ATOM     33  C   UNL     1      -6.547  10.255   9.222  1.00  0.00     0.031 C 
ATOM     34  C   UNL     1      -5.300  10.737   4.375  1.00  0.00     0.029 A 
ATOM     35  N   UNL     1      -7.425  11.152   4.931  1.00  0.00    -0.354 N 
ATOM     36  C   UNL     1      -8.780  10.696   9.013  1.00  0.00     0.074 A 
ATOM     37  C   UNL     1      -7.699  10.274   9.876  1.00  0.00     0.031 C 
ATOM     38  C   UNL     1      -5.952  11.072   3.250  1.00  0.00     0.029 A 
ATOM     39  C   UNL     1      -7.354  11.323   3.570  1.00  0.00     0.049 A 
ATOM     40  H   UNL     1      -8.254  11.275   5.448  1.00  0.00     0.167 HD
ATOM     41  C   UNL     1     -10.049  10.924   9.431  1.00  0.00     0.037 A 
ATOM     42  C   UNL     1      -8.314  11.636   2.679  1.00  0.00     0.037 A 
ATOM     43  C   UNL     1     -11.116  11.363   8.570  1.00  0.00     0.049 A 
ATOM     44  C   UNL     1      -9.718  11.870   3.169  1.00  0.00     0.074 A 
ATOM     45  C   UNL     1     -12.419  11.682   8.907  1.00  0.00     0.029 A 
ATOM     46  N   UNL     1     -11.002  11.540   7.199  1.00  0.00    -0.354 N 
ATOM     47  N   UNL     1     -10.191  11.810   4.390  1.00  0.00    -0.248 NA
ATOM     48  C   UNL     1     -10.721  12.223   2.155  1.00  0.00     0.031 C 
ATOM     49  C   UNL     1     -13.110  11.996   7.732  1.00  0.00     0.029 A 
ATOM     50  C   UNL     1     -12.221  11.936   6.671  1.00  0.00     0.049 A 
ATOM     51  H   UNL     1     -10.178  11.404   6.678  1.00  0.00     0.167 HD
ATOM     52  C   UNL     1     -11.535  12.146   4.296  1.00  0.00     0.074 A 
ATOM     53  C   UNL     1     -11.798  12.425   2.900  1.00  0.00     0.031 C 
ATOM     54  C   UNL     1     -12.466  12.218   5.279  1.00  0.00     0.037 A 
BRANCH  41  55
ATOM     55  C   UNL     1     -10.353  10.701  10.885  1.00  0.00     0.064 A 
ATOM     56  C   UNL     1      -9.829  11.536  11.885  1.00  0.00     0.173 A 
ATOM     57  C   UNL     1     -11.211   9.664  11.282  1.00  0.00     0.173 A 
ATOM     58  F   UNL     1      -8.995  12.536  11.562  1.00  0.00    -0.203 F 
ATOM     59  C   UNL     1     -10.127  11.320  13.229  1.00  0.00     0.198 A 
ATOM     60  C   UNL     1     -11.534   9.473  12.623  1.00  0.00     0.198 A 
ATOM     61  F   UNL     1     -11.746   8.841  10.368  1.00  0.00    -0.203 F 
ATOM     62  F   UNL     1      -9.572  12.098  14.169  1.00  0.00    -0.200 F 
ATOM     63  C   UNL     1     -10.985  10.295  13.596  1.00  0.00     0.200 A 
ATOM     64  F   UNL     1     -12.376   8.491  12.975  1.00  0.00    -0.200 F 
ATOM     65  F   UNL     1     -11.278  10.095  14.888  1.00  0.00    -0.200 F 
ENDBRANCH  41  55
BRANCH  42  66
ATOM     66  C   UNL     1      -7.977  11.764   1.237  1.00  0.00     0.064 A 
ATOM     67  C   UNL     1      -8.019  13.009   0.595  1.00  0.00     0.173 A 
ATOM     68  C   UNL     1      -7.614  10.647   0.469  1.00  0.00     0.173 A 
ATOM     69  F   UNL     1      -8.380  14.104   1.281  1.00  0.00    -0.203 F 
ATOM     70  C   UNL     1      -7.734  13.130  -0.763  1.00  0.00     0.198 A 
ATOM     71  C   UNL     1      -7.298  10.774  -0.882  1.00  0.00     0.198 A 
ATOM     72  F   UNL     1      -7.552   9.433   1.036  1.00  0.00    -0.203 F 
ATOM     73  F   UNL     1      -7.832  14.325  -1.362  1.00  0.00    -0.200 F 
ATOM     74  C   UNL     1      -7.368  12.014  -1.499  1.00  0.00     0.200 A 
ATOM     75  F   UNL     1      -6.929   9.695  -1.585  1.00  0.00    -0.200 F 
ATOM     76  F   UNL     1      -7.091  12.131  -2.805  1.00  0.00    -0.200 F 
ENDBRANCH  42  66
BRANCH  54  77
ATOM     77  C   UNL     1     -13.850  12.652   4.887  1.00  0.00     0.064 A 
ATOM     78  C   UNL     1     -14.698  11.829   4.133  1.00  0.00     0.173 A 
ATOM     79  C   UNL     1     -14.347  13.895   5.309  1.00  0.00     0.173 A 
ATOM     80  F   UNL     1     -14.266  10.637   3.692  1.00  0.00    -0.203 F 
ATOM     81  C   UNL     1     -15.982  12.245   3.792  1.00  0.00     0.198 A 
ATOM     82  C   UNL     1     -15.643  14.293   4.996  1.00  0.00     0.198 A 
ATOM     83  F   UNL     1     -13.580  14.719   6.039  1.00  0.00    -0.203 F 
ATOM     84  F   UNL     1     -16.756  11.463   3.026  1.00  0.00    -0.200 F 
ATOM     85  C   UNL     1     -16.457  13.472   4.230  1.00  0.00     0.200 A 
ATOM     86  F   UNL     1     -16.105  15.472   5.435  1.00  0.00    -0.200 F 
ATOM     87  F   UNL     1     -17.696  13.867   3.909  1.00  0.00    -0.200 F 
ENDBRANCH  54  77
ENDBRANCH  28  29
ENDBRANCH  20  23
ENDBRANCH  18  19
ENDBRANCH  17  18
ENDBRANCH   1  17
TORSDOF 14
