REMARK SMILES CSCC[C@@H](NS(=O)(=O)c1ccc(F)c(C)c1)C(=O)NCCCNC(=O)c1ccc(-c2c3nc(c(-c4c(F)c(F)c(F)c(F)c4F)c4ccc([nH]4)c(-c4c(F)c(F)c(F)c(F)c4F)c4nc(c(-c5c(F)c(F)c(F)c(F)c5F)c5ccc2[nH]5)C=C4)C=C3)cc1
REMARK SMILES IDX 21 1 20 2 18 3 19 4 5 6 4 7 3 8 2 9 1 10 6 11 7 13 8 14 9 15
REMARK SMILES IDX 10 16 11 17 17 18 12 19 15 20 13 21 16 22 14 23 22 24 23 25
REMARK SMILES IDX 24 26 25 27 26 29 27 30 28 31 89 32 29 33 88 34 30 35 31 36
REMARK SMILES IDX 32 37 82 38 33 39 87 40 81 41 83 42 34 43 86 44 80 45 79 46
REMARK SMILES IDX 35 48 67 49 47 50 66 51 48 52 51 53 65 54 84 55 49 56 50 57
REMARK SMILES IDX 64 59 85 60 52 61 36 62 37 63 45 64 38 65 39 66 43 67 46 68
REMARK SMILES IDX 40 69 41 70 44 71 42 72 68 73 69 74 77 75 70 76 71 77 75 78
REMARK SMILES IDX 78 79 72 80 73 81 76 82 74 83 53 84 54 85 62 86 55 87 56 88
REMARK SMILES IDX 60 89 63 90 57 91 58 92 61 93 59 94
REMARK H PARENT 20 5 6 12 24 28 83 47 51 58
REMARK Flexibility Score: inf
ROOT
ATOM      1  C   UNL     1       2.185   5.236  -0.542  1.00  0.00     0.117 C 
ENDROOT
BRANCH   1   2
ATOM      2  N   UNL     1       1.088   5.044   0.405  1.00  0.00    -0.355 N 
ATOM      3  C   UNL     1       0.441   3.901   0.785  1.00  0.00     0.238 C 
ATOM      4  O   UNL     1      -0.524   3.998   1.544  1.00  0.00    -0.273 OA
ATOM      5  H   UNL     1       0.765   5.867   0.838  1.00  0.00     0.163 HD
BRANCH   3   6
ATOM      6  C   UNL     1       0.920   2.546   0.260  1.00  0.00     0.159 C 
BRANCH   6   7
ATOM      7  C   UNL     1       0.495   2.444  -1.214  1.00  0.00     0.041 C 
BRANCH   7   8
ATOM      8  C   UNL     1       0.953   1.255  -2.044  1.00  0.00     0.071 C 
BRANCH   8   9
ATOM      9  S   UNL     1       0.133  -0.306  -1.644  1.00  0.00    -0.165 SA
ATOM     10  C   UNL     1       1.038  -0.755  -0.146  1.00  0.00     0.085 C 
ENDBRANCH   8   9
ENDBRANCH   7   8
ENDBRANCH   6   7
BRANCH   6  11
ATOM     11  N   UNL     1       2.375   2.428   0.446  1.00  0.00    -0.199 NA
ATOM     12  H   UNL     1       2.780   3.260   0.017  1.00  0.00     0.142 HD
BRANCH  11  13
ATOM     13  S   UNL     1       3.099   2.287   1.947  1.00  0.00     0.241 S 
ATOM     14  O   UNL     1       2.510   1.143   2.587  1.00  0.00    -0.207 OA
ATOM     15  O   UNL     1       4.526   2.350   1.668  1.00  0.00    -0.207 OA
BRANCH  13  16
ATOM     16  C   UNL     1       2.696   3.748   2.885  1.00  0.00     0.082 A 
ATOM     17  C   UNL     1       3.313   4.976   2.613  1.00  0.00     0.025 A 
ATOM     18  C   UNL     1       1.791   3.638   3.950  1.00  0.00     0.028 A 
ATOM     19  C   UNL     1       2.937   6.113   3.336  1.00  0.00     0.041 A 
ATOM     20  C   UNL     1       1.446   4.767   4.706  1.00  0.00    -0.014 A 
ATOM     21  C   UNL     1       2.006   6.001   4.367  1.00  0.00     0.126 A 
ATOM     22  C   UNL     1       0.507   4.660   5.869  1.00  0.00     0.047 C 
ATOM     23  F   UNL     1       1.657   7.102   5.048  1.00  0.00    -0.207 F 
ENDBRANCH  13  16
ENDBRANCH  11  13
ENDBRANCH   6  11
ENDBRANCH   3   6
ENDBRANCH   1   2
BRANCH   1  24
ATOM     24  C   UNL     1       1.686   5.714  -1.896  1.00  0.00     0.042 C 
BRANCH  24  25
ATOM     25  C   UNL     1       1.308   7.150  -1.765  1.00  0.00     0.118 C 
BRANCH  25  26
ATOM     26  N   UNL     1       2.451   8.040  -1.762  1.00  0.00    -0.352 N 
ATOM     27  C   UNL     1       2.476   9.360  -2.133  1.00  0.00     0.251 C 
ATOM     28  H   UNL     1       3.305   7.654  -1.460  1.00  0.00     0.163 HD
ATOM     29  O   UNL     1       3.542   9.904  -2.394  1.00  0.00    -0.269 OA
BRANCH  27  30
ATOM     30  C   UNL     1       1.217  10.131  -2.131  1.00  0.00     0.039 A 
ATOM     31  C   UNL     1       1.160  11.399  -2.718  1.00  0.00     0.014 A 
ATOM     32  C   UNL     1       0.139   9.669  -1.381  1.00  0.00     0.014 A 
ATOM     33  C   UNL     1       0.082  12.226  -2.424  1.00  0.00     0.010 A 
ATOM     34  C   UNL     1      -0.997  10.377  -1.264  1.00  0.00     0.010 A 
ATOM     35  C   UNL     1      -0.941  11.701  -1.641  1.00  0.00    -0.014 A 
BRANCH  35  36
ATOM     36  C   UNL     1      -2.080  12.392  -1.108  1.00  0.00     0.031 A 
ATOM     37  C   UNL     1      -3.160  12.615  -2.053  1.00  0.00     0.074 A 
ATOM     38  C   UNL     1      -2.141  12.429   0.243  1.00  0.00     0.049 A 
ATOM     39  N   UNL     1      -3.968  13.603  -2.017  1.00  0.00    -0.248 NA
ATOM     40  C   UNL     1      -3.364  11.735  -3.204  1.00  0.00     0.031 C 
ATOM     41  C   UNL     1      -3.251  12.686   1.141  1.00  0.00     0.029 A 
ATOM     42  N   UNL     1      -1.044  12.272   1.113  1.00  0.00    -0.354 N 
ATOM     43  C   UNL     1      -5.016  13.258  -2.839  1.00  0.00     0.074 A 
ATOM     44  C   UNL     1      -4.493  12.234  -3.707  1.00  0.00     0.031 C 
ATOM     45  C   UNL     1      -2.749  13.045   2.342  1.00  0.00     0.029 A 
ATOM     46  C   UNL     1      -1.298  13.104   2.217  1.00  0.00     0.049 A 
ATOM     47  H   UNL     1      -0.258  11.696   0.975  1.00  0.00     0.167 HD
ATOM     48  C   UNL     1      -6.260  13.700  -2.495  1.00  0.00     0.037 A 
ATOM     49  C   UNL     1      -0.524  14.225   2.343  1.00  0.00     0.037 A 
ATOM     50  C   UNL     1      -6.163  14.470  -1.238  1.00  0.00     0.049 A 
ATOM     51  C   UNL     1      -1.307  15.452   1.957  1.00  0.00     0.074 A 
ATOM     52  C   UNL     1      -6.409  14.117   0.081  1.00  0.00     0.029 A 
ATOM     53  N   UNL     1      -5.340  15.599  -1.184  1.00  0.00    -0.354 N 
ATOM     54  N   UNL     1      -2.361  15.435   1.183  1.00  0.00    -0.248 NA
ATOM     55  C   UNL     1      -1.013  16.774   2.488  1.00  0.00     0.031 C 
ATOM     56  C   UNL     1      -5.645  14.982   0.918  1.00  0.00     0.029 A 
ATOM     57  C   UNL     1      -4.941  15.868   0.117  1.00  0.00     0.049 A 
ATOM     58  H   UNL     1      -5.078  16.134  -1.968  1.00  0.00     0.167 HD
ATOM     59  C   UNL     1      -2.908  16.685   1.132  1.00  0.00     0.074 A 
ATOM     60  C   UNL     1      -2.033  17.484   1.977  1.00  0.00     0.031 C 
ATOM     61  C   UNL     1      -4.036  16.978   0.415  1.00  0.00     0.037 A 
BRANCH  48  62
ATOM     62  C   UNL     1      -7.561  13.159  -3.061  1.00  0.00     0.064 A 
ATOM     63  C   UNL     1      -8.773  13.349  -2.362  1.00  0.00     0.173 A 
ATOM     64  C   UNL     1      -7.699  12.442  -4.269  1.00  0.00     0.173 A 
ATOM     65  F   UNL     1      -8.823  14.080  -1.241  1.00  0.00    -0.203 F 
ATOM     66  C   UNL     1      -9.990  12.810  -2.795  1.00  0.00     0.198 A 
ATOM     67  C   UNL     1      -8.906  11.864  -4.679  1.00  0.00     0.198 A 
ATOM     68  F   UNL     1      -6.698  12.326  -5.144  1.00  0.00    -0.203 F 
ATOM     69  F   UNL     1     -11.104  13.038  -2.087  1.00  0.00    -0.200 F 
ATOM     70  C   UNL     1     -10.053  12.048  -3.942  1.00  0.00     0.200 A 
ATOM     71  F   UNL     1      -8.946  11.144  -5.811  1.00  0.00    -0.200 F 
ATOM     72  F   UNL     1     -11.216  11.524  -4.352  1.00  0.00    -0.200 F 
ENDBRANCH  48  62
BRANCH  49  73
ATOM     73  C   UNL     1       0.914  13.921   2.028  1.00  0.00     0.064 A 
ATOM     74  C   UNL     1       1.501  12.941   2.859  1.00  0.00     0.173 A 
ATOM     75  C   UNL     1       1.423  14.045   0.727  1.00  0.00     0.173 A 
ATOM     76  F   UNL     1       1.114  12.836   4.140  1.00  0.00    -0.203 F 
ATOM     77  C   UNL     1       2.304  11.938   2.324  1.00  0.00     0.198 A 
ATOM     78  C   UNL     1       2.296  13.077   0.217  1.00  0.00     0.198 A 
ATOM     79  F   UNL     1       0.972  15.005  -0.092  1.00  0.00    -0.203 F 
ATOM     80  F   UNL     1       2.633  10.874   3.071  1.00  0.00    -0.200 F 
ATOM     81  C   UNL     1       2.655  11.978   0.987  1.00  0.00     0.200 A 
ATOM     82  F   UNL     1       2.716  13.160  -1.053  1.00  0.00    -0.200 F 
ATOM     83  F   UNL     1       3.294  10.934   0.441  1.00  0.00    -0.200 F 
ENDBRANCH  49  73
BRANCH  61  84
ATOM     84  C   UNL     1      -4.438  18.382   0.031  1.00  0.00     0.064 A 
ATOM     85  C   UNL     1      -3.534  19.456  -0.046  1.00  0.00     0.173 A 
ATOM     86  C   UNL     1      -5.751  18.667  -0.412  1.00  0.00     0.173 A 
ATOM     87  F   UNL     1      -2.221  19.290   0.163  1.00  0.00    -0.203 F 
ATOM     88  C   UNL     1      -3.940  20.741  -0.404  1.00  0.00     0.198 A 
ATOM     89  C   UNL     1      -6.128  19.928  -0.865  1.00  0.00     0.198 A 
ATOM     90  F   UNL     1      -6.707  17.727  -0.451  1.00  0.00    -0.203 F 
ATOM     91  F   UNL     1      -3.056  21.747  -0.363  1.00  0.00    -0.200 F 
ATOM     92  C   UNL     1      -5.233  20.975  -0.823  1.00  0.00     0.200 A 
ATOM     93  F   UNL     1      -7.362  20.115  -1.353  1.00  0.00    -0.200 F 
ATOM     94  F   UNL     1      -5.608  22.200  -1.211  1.00  0.00    -0.200 F 
ENDBRANCH  61  84
ENDBRANCH  35  36
ENDBRANCH  27  30
ENDBRANCH  25  26
ENDBRANCH  24  25
ENDBRANCH   1  24
TORSDOF 16
