REMARK SMILES C[C@@H]1CCCN(c2cc(Br)ccc2/C=C/C(=O)NCCCNC(=O)c2ccc(-c3c4nc(c(-c5c(F)c(F)c(F)c(F)c5F)c5ccc([nH]5)c(-c5c(F)c(F)c(F)c(F)c5F)c5nc(c(-c6c(F)c(F)c(F)c(F)c6F)c6ccc3[nH]6)C=C5)C=C4)cc2)C1
REMARK SMILES IDX 20 1 19 2 18 3 16 4 17 5 15 7 14 8 13 9 7 10 8 11 9 12 12 13
REMARK SMILES IDX 10 14 11 15 6 16 1 17 2 18 3 19 88 20 4 21 5 22 21 23 22 24
REMARK SMILES IDX 23 25 24 27 25 28 26 29 87 30 27 31 86 32 28 33 29 34 30 35
REMARK SMILES IDX 80 36 31 37 85 38 79 39 81 40 32 41 84 42 78 43 77 44 33 46
REMARK SMILES IDX 65 47 45 48 64 49 46 50 49 51 63 52 82 53 47 54 48 55 62 57
REMARK SMILES IDX 83 58 50 59 34 60 35 61 43 62 36 63 37 64 41 65 44 66 38 67
REMARK SMILES IDX 39 68 42 69 40 70 66 71 67 72 75 73 68 74 69 75 73 76 76 77
REMARK SMILES IDX 70 78 71 79 74 80 72 81 51 82 52 83 60 84 53 85 54 86 58 87
REMARK SMILES IDX 61 88 55 89 56 90 59 91 57 92
REMARK H PARENT 18 6 22 26 81 45 49 56
REMARK Flexibility Score: inf
ROOT
ATOM      1  C   UNL     1      -0.002   2.557   3.673  1.00  0.00     0.042 C 
ENDROOT
BRANCH   1   2
ATOM      2  C   UNL     1      -0.536   3.778   2.927  1.00  0.00     0.118 C 
BRANCH   2   3
ATOM      3  N   UNL     1       0.268   4.956   3.186  1.00  0.00    -0.352 N 
ATOM      4  C   UNL     1       1.112   5.629   2.358  1.00  0.00     0.244 C 
ATOM      5  O   UNL     1       1.602   6.694   2.722  1.00  0.00    -0.270 OA
ATOM      6  H   UNL     1       0.191   5.325   4.095  1.00  0.00     0.163 HD
BRANCH   4   7
ATOM      7  C   UNL     1       1.374   5.137   0.989  1.00  0.00     0.072 C 
ATOM      8  C   UNL     1       1.813   3.900   0.708  1.00  0.00     0.016 C 
BRANCH   8   9
ATOM      9  C   UNL     1       2.154   3.433  -0.653  1.00  0.00    -0.002 A 
ATOM     10  C   UNL     1       1.903   2.097  -1.059  1.00  0.00     0.045 A 
ATOM     11  C   UNL     1       2.332   1.692  -2.335  1.00  0.00     0.042 A 
ATOM     12  C   UNL     1       2.996   2.574  -3.186  1.00  0.00     0.020 A 
ATOM     13  C   UNL     1       2.846   4.300  -1.521  1.00  0.00     0.011 A 
ATOM     14  Br  UNL     1       3.551   1.990  -4.896  1.00  0.00    -0.051 Br
ATOM     15  C   UNL     1       3.258   3.876  -2.785  1.00  0.00     0.016 A 
BRANCH  10  16
ATOM     16  N   UNL     1       1.246   1.180  -0.252  1.00  0.00    -0.371 N 
ATOM     17  C   UNL     1      -2.405   0.125  -0.074  1.00  0.00     0.009 C 
ATOM     18  C   UNL     1      -0.935   0.058  -0.489  1.00  0.00     0.005 C 
ATOM     19  C   UNL     1      -0.281  -1.216   0.068  1.00  0.00     0.007 C 
ATOM     20  C   UNL     1      -0.185   1.312  -0.014  1.00  0.00     0.119 C 
ATOM     21  C   UNL     1       1.204  -1.267  -0.289  1.00  0.00     0.022 C 
ATOM     22  C   UNL     1       1.933  -0.021   0.205  1.00  0.00     0.116 C 
ENDBRANCH  10  16
ENDBRANCH   8   9
ENDBRANCH   4   7
ENDBRANCH   2   3
ENDBRANCH   1   2
BRANCH   1  23
ATOM     23  C   UNL     1      -0.328   2.559   5.162  1.00  0.00     0.118 C 
BRANCH  23  24
ATOM     24  N   UNL     1      -1.753   2.381   5.403  1.00  0.00    -0.352 N 
ATOM     25  C   UNL     1      -2.429   1.440   6.136  1.00  0.00     0.251 C 
ATOM     26  H   UNL     1      -2.329   3.050   4.965  1.00  0.00     0.163 HD
ATOM     27  O   UNL     1      -3.647   1.352   6.009  1.00  0.00    -0.269 OA
BRANCH  25  28
ATOM     28  C   UNL     1      -1.725   0.529   7.067  1.00  0.00     0.039 A 
ATOM     29  C   UNL     1      -2.222  -0.770   7.221  1.00  0.00     0.014 A 
ATOM     30  C   UNL     1      -0.641   0.951   7.843  1.00  0.00     0.014 A 
ATOM     31  C   UNL     1      -1.615  -1.649   8.120  1.00  0.00     0.010 A 
ATOM     32  C   UNL     1       0.009   0.051   8.688  1.00  0.00     0.010 A 
ATOM     33  C   UNL     1      -0.481  -1.252   8.845  1.00  0.00    -0.014 A 
BRANCH  33  34
ATOM     34  C   UNL     1       0.189  -2.202   9.768  1.00  0.00     0.031 A 
ATOM     35  C   UNL     1       0.176  -1.971  11.252  1.00  0.00     0.074 A 
ATOM     36  C   UNL     1       0.831  -3.269   9.258  1.00  0.00     0.049 A 
ATOM     37  N   UNL     1       0.665  -2.719  12.210  1.00  0.00    -0.248 NA
ATOM     38  C   UNL     1      -0.445  -0.725  11.723  1.00  0.00     0.031 C 
ATOM     39  C   UNL     1       0.964  -3.571   7.833  1.00  0.00     0.029 A 
ATOM     40  N   UNL     1       1.483  -4.303   9.881  1.00  0.00    -0.354 N 
ATOM     41  C   UNL     1       0.420  -2.031  13.391  1.00  0.00     0.074 A 
ATOM     42  C   UNL     1      -0.213  -0.781  13.026  1.00  0.00     0.031 C 
ATOM     43  C   UNL     1       1.613  -4.737   7.690  1.00  0.00     0.029 A 
ATOM     44  C   UNL     1       1.960  -5.252   9.011  1.00  0.00     0.049 A 
ATOM     45  H   UNL     1       1.598  -4.359  10.857  1.00  0.00     0.167 HD
ATOM     46  C   UNL     1       0.677  -2.416  14.665  1.00  0.00     0.037 A 
ATOM     47  C   UNL     1       2.588  -6.417   9.254  1.00  0.00     0.037 A 
ATOM     48  C   UNL     1       1.288  -3.669  15.026  1.00  0.00     0.049 A 
ATOM     49  C   UNL     1       2.841  -6.834  10.675  1.00  0.00     0.074 A 
ATOM     50  C   UNL     1       1.531  -4.182  16.288  1.00  0.00     0.029 A 
ATOM     51  N   UNL     1       1.759  -4.606  14.118  1.00  0.00    -0.354 N 
ATOM     52  N   UNL     1       2.532  -6.214  11.787  1.00  0.00    -0.248 NA
ATOM     53  C   UNL     1       3.520  -8.121  10.871  1.00  0.00     0.031 C 
ATOM     54  C   UNL     1       2.184  -5.413  16.143  1.00  0.00     0.029 A 
ATOM     55  C   UNL     1       2.310  -5.686  14.791  1.00  0.00     0.049 A 
ATOM     56  H   UNL     1       1.709  -4.518  13.139  1.00  0.00     0.167 HD
ATOM     57  C   UNL     1       2.960  -7.041  12.816  1.00  0.00     0.074 A 
ATOM     58  C   UNL     1       3.533  -8.217  12.193  1.00  0.00     0.031 C 
ATOM     59  C   UNL     1       2.886  -6.844  14.155  1.00  0.00     0.037 A 
BRANCH  46  60
ATOM     60  C   UNL     1       0.297  -1.460  15.760  1.00  0.00     0.064 A 
ATOM     61  C   UNL     1      -1.046  -1.201  16.077  1.00  0.00     0.173 A 
ATOM     62  C   UNL     1       1.285  -0.797  16.503  1.00  0.00     0.173 A 
ATOM     63  F   UNL     1      -2.029  -1.799  15.388  1.00  0.00    -0.203 F 
ATOM     64  C   UNL     1      -1.385  -0.284  17.069  1.00  0.00     0.198 A 
ATOM     65  C   UNL     1       0.942   0.097  17.515  1.00  0.00     0.198 A 
ATOM     66  F   UNL     1       2.584  -1.012  16.246  1.00  0.00    -0.203 F 
ATOM     67  F   UNL     1      -2.674  -0.008  17.312  1.00  0.00    -0.200 F 
ATOM     68  C   UNL     1      -0.391   0.361  17.789  1.00  0.00     0.200 A 
ATOM     69  F   UNL     1       1.903   0.712  18.217  1.00  0.00    -0.200 F 
ATOM     70  F   UNL     1      -0.719   1.246  18.741  1.00  0.00    -0.200 F 
ENDBRANCH  46  60
BRANCH  47  71
ATOM     71  C   UNL     1       2.952  -7.302   8.120  1.00  0.00     0.064 A 
ATOM     72  C   UNL     1       2.232  -8.481   7.879  1.00  0.00     0.173 A 
ATOM     73  C   UNL     1       3.995  -6.979   7.242  1.00  0.00     0.173 A 
ATOM     74  F   UNL     1       1.237  -8.837   8.704  1.00  0.00    -0.203 F 
ATOM     75  C   UNL     1       2.549  -9.308   6.805  1.00  0.00     0.198 A 
ATOM     76  C   UNL     1       4.296  -7.796   6.155  1.00  0.00     0.198 A 
ATOM     77  F   UNL     1       4.706  -5.857   7.428  1.00  0.00    -0.203 F 
ATOM     78  F   UNL     1       1.863 -10.443   6.612  1.00  0.00    -0.200 F 
ATOM     79  C   UNL     1       3.576  -8.962   5.940  1.00  0.00     0.200 A 
ATOM     80  F   UNL     1       5.279  -7.452   5.312  1.00  0.00    -0.200 F 
ATOM     81  F   UNL     1       3.872  -9.752   4.899  1.00  0.00    -0.200 F 
ENDBRANCH  47  71
BRANCH  59  82
ATOM     82  C   UNL     1       3.426  -7.936  15.030  1.00  0.00     0.064 A 
ATOM     83  C   UNL     1       4.805  -8.171  15.143  1.00  0.00     0.173 A 
ATOM     84  C   UNL     1       2.557  -8.756  15.765  1.00  0.00     0.173 A 
ATOM     85  F   UNL     1       5.676  -7.426  14.446  1.00  0.00    -0.203 F 
ATOM     86  C   UNL     1       5.292  -9.210  15.932  1.00  0.00     0.198 A 
ATOM     87  C   UNL     1       3.049  -9.776  16.575  1.00  0.00     0.198 A 
ATOM     88  F   UNL     1       1.231  -8.569  15.696  1.00  0.00    -0.203 F 
ATOM     89  F   UNL     1       6.609  -9.453  15.979  1.00  0.00    -0.200 F 
ATOM     90  C   UNL     1       4.414 -10.009  16.650  1.00  0.00     0.200 A 
ATOM     91  F   UNL     1       2.200 -10.542  17.275  1.00  0.00    -0.200 F 
ATOM     92  F   UNL     1       4.883 -11.012  17.404  1.00  0.00    -0.200 F 
ENDBRANCH  59  82
ENDBRANCH  33  34
ENDBRANCH  25  28
ENDBRANCH  23  24
ENDBRANCH   1  23
TORSDOF 12
