REMARK SMILES Cc1cccc(C[C@H](C(=O)NCCCNC(=O)c2ccc(-c3c4nc(c(-c5c(F)c(F)c(F)c(F)c5F)c5ccc([nH]5)c(-c5c(F)c(F)c(F)c(F)c5F)c5nc(c(-c6c(F)c(F)c(F)c(F)c6F)c6ccc3[nH]6)C=C5)C=C4)cc2)[C@@H]2CCCC[C@@H]2O)c1
REMARK SMILES IDX 13 1 12 2 11 3 9 4 10 5 8 7 7 8 6 9 1 10 2 11 3 12 88 13
REMARK SMILES IDX 4 14 5 15 81 16 82 17 86 18 83 19 85 20 84 21 87 22 14 24
REMARK SMILES IDX 15 25 16 26 17 28 18 29 19 30 80 31 20 32 79 33 21 34 22 35
REMARK SMILES IDX 23 36 73 37 24 38 78 39 72 40 74 41 25 42 77 43 71 44 70 45
REMARK SMILES IDX 26 47 58 48 38 49 57 50 39 51 42 52 56 53 75 54 40 55 41 56
REMARK SMILES IDX 55 58 76 59 43 60 27 61 28 62 36 63 29 64 30 65 34 66 37 67
REMARK SMILES IDX 31 68 32 69 35 70 33 71 59 72 60 73 68 74 61 75 62 76 66 77
REMARK SMILES IDX 69 78 63 79 64 80 67 81 65 82 44 83 45 84 53 85 46 86 47 87
REMARK SMILES IDX 51 88 54 89 48 90 49 91 52 92 50 93
REMARK H PARENT 11 6 87 23 15 27 74 46 42 57
REMARK Flexibility Score: inf
ROOT
ATOM      1  C   UNL     1      -1.878   1.294  -1.114  1.00  0.00     0.042 C 
ENDROOT
BRANCH   1   2
ATOM      2  C   UNL     1      -3.103   1.265  -0.194  1.00  0.00     0.117 C 
BRANCH   2   3
ATOM      3  N   UNL     1      -3.078   2.238   0.889  1.00  0.00    -0.356 N 
ATOM      4  C   UNL     1      -3.692   3.458   0.999  1.00  0.00     0.223 C 
ATOM      5  O   UNL     1      -3.609   4.023   2.093  1.00  0.00    -0.275 OA
ATOM      6  H   UNL     1      -2.533   1.978   1.666  1.00  0.00     0.163 HD
BRANCH   4   7
ATOM      7  C   UNL     1      -4.400   4.119  -0.213  1.00  0.00     0.088 C 
BRANCH   7   8
ATOM      8  C   UNL     1      -5.348   5.221   0.352  1.00  0.00     0.049 C 
BRANCH   8   9
ATOM      9  C   UNL     1      -6.399   5.861  -0.532  1.00  0.00    -0.047 A 
ATOM     10  C   UNL     1      -8.734   8.897  -0.367  1.00  0.00     0.044 C 
ATOM     11  C   UNL     1      -8.007   7.684  -0.869  1.00  0.00    -0.051 A 
ATOM     12  C   UNL     1      -8.286   7.194  -2.146  1.00  0.00     0.003 A 
ATOM     13  C   UNL     1      -7.046   7.029  -0.082  1.00  0.00     0.007 A 
ATOM     14  C   UNL     1      -7.691   6.016  -2.584  1.00  0.00     0.001 A 
ATOM     15  C   UNL     1      -6.795   5.331  -1.759  1.00  0.00     0.004 A 
ENDBRANCH   8   9
ENDBRANCH   7   8
BRANCH   7  16
ATOM     16  C   UNL     1      -3.283   4.565  -1.224  1.00  0.00     0.030 C 
ATOM     17  C   UNL     1      -2.754   6.005  -1.141  1.00  0.00     0.007 C 
ATOM     18  C   UNL     1      -3.410   4.072  -2.689  1.00  0.00     0.118 C 
ATOM     19  C   UNL     1      -3.388   6.975  -2.125  1.00  0.00     0.001 C 
ATOM     20  C   UNL     1      -3.941   5.080  -3.705  1.00  0.00     0.032 C 
ATOM     21  C   UNL     1      -3.324   6.460  -3.556  1.00  0.00     0.003 C 
BRANCH  18  22
ATOM     22  O   UNL     1      -4.125   2.844  -2.782  1.00  0.00    -0.393 OA
ATOM     23  H   UNL     1      -5.049   2.987  -2.524  1.00  0.00     0.210 HD
ENDBRANCH  18  22
ENDBRANCH   7  16
ENDBRANCH   4   7
ENDBRANCH   2   3
ENDBRANCH   1   2
BRANCH   1  24
ATOM     24  C   UNL     1      -0.668   0.531  -0.585  1.00  0.00     0.118 C 
BRANCH  24  25
ATOM     25  N   UNL     1      -0.076  -0.345  -1.603  1.00  0.00    -0.352 N 
ATOM     26  C   UNL     1       1.099  -1.075  -1.551  1.00  0.00     0.251 C 
ATOM     27  H   UNL     1      -0.587  -0.426  -2.441  1.00  0.00     0.163 HD
ATOM     28  O   UNL     1       1.394  -1.876  -2.420  1.00  0.00    -0.269 OA
BRANCH  26  29
ATOM     29  C   UNL     1       1.934  -0.932  -0.344  1.00  0.00     0.039 A 
ATOM     30  C   UNL     1       2.094  -2.050   0.479  1.00  0.00     0.014 A 
ATOM     31  C   UNL     1       2.278   0.344   0.090  1.00  0.00     0.014 A 
ATOM     32  C   UNL     1       2.357  -1.851   1.831  1.00  0.00     0.010 A 
ATOM     33  C   UNL     1       2.446   0.546   1.446  1.00  0.00     0.010 A 
ATOM     34  C   UNL     1       2.405  -0.545   2.324  1.00  0.00    -0.014 A 
BRANCH  34  35
ATOM     35  C   UNL     1       2.268  -0.237   3.745  1.00  0.00     0.031 A 
ATOM     36  C   UNL     1       3.424   0.249   4.527  1.00  0.00     0.074 A 
ATOM     37  C   UNL     1       1.056  -0.333   4.337  1.00  0.00     0.049 A 
ATOM     38  N   UNL     1       3.518   0.174   5.812  1.00  0.00    -0.248 NA
ATOM     39  C   UNL     1       4.601   0.829   3.898  1.00  0.00     0.031 C 
ATOM     40  C   UNL     1       0.677   0.162   5.658  1.00  0.00     0.029 A 
ATOM     41  N   UNL     1      -0.044  -1.110   3.929  1.00  0.00    -0.354 N 
ATOM     42  C   UNL     1       4.613   0.911   6.202  1.00  0.00     0.074 A 
ATOM     43  C   UNL     1       5.283   1.250   4.967  1.00  0.00     0.031 C 
ATOM     44  C   UNL     1      -0.370  -0.551   6.099  1.00  0.00     0.029 A 
ATOM     45  C   UNL     1      -0.618  -1.601   5.129  1.00  0.00     0.049 A 
ATOM     46  H   UNL     1      -0.350  -1.276   3.008  1.00  0.00     0.167 HD
ATOM     47  C   UNL     1       4.757   1.244   7.519  1.00  0.00     0.037 A 
ATOM     48  C   UNL     1      -0.645  -2.938   5.399  1.00  0.00     0.037 A 
ATOM     49  C   UNL     1       3.743   0.598   8.352  1.00  0.00     0.049 A 
ATOM     50  C   UNL     1       0.124  -3.354   6.633  1.00  0.00     0.074 A 
ATOM     51  C   UNL     1       2.545   1.006   8.917  1.00  0.00     0.029 A 
ATOM     52  N   UNL     1       3.771  -0.780   8.477  1.00  0.00    -0.354 N 
ATOM     53  N   UNL     1       0.827  -2.539   7.369  1.00  0.00    -0.248 NA
ATOM     54  C   UNL     1       0.247  -4.746   7.073  1.00  0.00     0.031 C 
ATOM     55  C   UNL     1       1.842  -0.152   9.356  1.00  0.00     0.029 A 
ATOM     56  C   UNL     1       2.612  -1.260   9.054  1.00  0.00     0.049 A 
ATOM     57  H   UNL     1       4.523  -1.347   8.190  1.00  0.00     0.167 HD
ATOM     58  C   UNL     1       1.521  -3.260   8.301  1.00  0.00     0.074 A 
ATOM     59  C   UNL     1       1.120  -4.637   8.088  1.00  0.00     0.031 C 
ATOM     60  C   UNL     1       2.413  -2.692   9.158  1.00  0.00     0.037 A 
BRANCH  47  61
ATOM     61  C   UNL     1       5.669   2.343   8.027  1.00  0.00     0.064 A 
ATOM     62  C   UNL     1       5.354   3.052   9.208  1.00  0.00     0.173 A 
ATOM     63  C   UNL     1       6.831   2.792   7.373  1.00  0.00     0.173 A 
ATOM     64  F   UNL     1       4.354   2.668  10.011  1.00  0.00    -0.203 F 
ATOM     65  C   UNL     1       6.058   4.189   9.615  1.00  0.00     0.198 A 
ATOM     66  C   UNL     1       7.499   3.964   7.743  1.00  0.00     0.198 A 
ATOM     67  F   UNL     1       7.404   2.076   6.400  1.00  0.00    -0.203 F 
ATOM     68  F   UNL     1       5.704   4.821  10.743  1.00  0.00    -0.200 F 
ATOM     69  C   UNL     1       7.103   4.672   8.858  1.00  0.00     0.200 A 
ATOM     70  F   UNL     1       8.537   4.396   7.011  1.00  0.00    -0.200 F 
ATOM     71  F   UNL     1       7.747   5.790   9.218  1.00  0.00    -0.200 F 
ENDBRANCH  47  61
BRANCH  48  72
ATOM     72  C   UNL     1      -0.812  -3.768   4.179  1.00  0.00     0.064 A 
ATOM     73  C   UNL     1      -1.997  -3.622   3.431  1.00  0.00     0.173 A 
ATOM     74  C   UNL     1       0.276  -4.389   3.558  1.00  0.00     0.173 A 
ATOM     75  F   UNL     1      -3.069  -3.031   3.981  1.00  0.00    -0.203 F 
ATOM     76  C   UNL     1      -2.048  -3.969   2.084  1.00  0.00     0.198 A 
ATOM     77  C   UNL     1       0.214  -4.752   2.212  1.00  0.00     0.198 A 
ATOM     78  F   UNL     1       1.436  -4.538   4.212  1.00  0.00    -0.203 F 
ATOM     79  F   UNL     1      -3.150  -3.705   1.367  1.00  0.00    -0.200 F 
ATOM     80  C   UNL     1      -0.931  -4.508   1.468  1.00  0.00     0.200 A 
ATOM     81  F   UNL     1       1.303  -5.252   1.610  1.00  0.00    -0.200 F 
ATOM     82  F   UNL     1      -0.944  -4.753   0.151  1.00  0.00    -0.200 F 
ENDBRANCH  48  72
BRANCH  60  83
ATOM     83  C   UNL     1       3.160  -3.476  10.185  1.00  0.00     0.064 A 
ATOM     84  C   UNL     1       2.499  -4.294  11.112  1.00  0.00     0.173 A 
ATOM     85  C   UNL     1       4.549  -3.321  10.349  1.00  0.00     0.173 A 
ATOM     86  F   UNL     1       1.171  -4.475  11.036  1.00  0.00    -0.203 F 
ATOM     87  C   UNL     1       3.191  -4.927  12.144  1.00  0.00     0.198 A 
ATOM     88  C   UNL     1       5.232  -3.921  11.405  1.00  0.00     0.198 A 
ATOM     89  F   UNL     1       5.272  -2.598   9.480  1.00  0.00    -0.203 F 
ATOM     90  F   UNL     1       2.533  -5.727  12.995  1.00  0.00    -0.200 F 
ATOM     91  C   UNL     1       4.553  -4.728  12.300  1.00  0.00     0.200 A 
ATOM     92  F   UNL     1       6.548  -3.713  11.550  1.00  0.00    -0.200 F 
ATOM     93  F   UNL     1       5.212  -5.315  13.308  1.00  0.00    -0.200 F 
ENDBRANCH  60  83
ENDBRANCH  34  35
ENDBRANCH  26  29
ENDBRANCH  24  25
ENDBRANCH   1  24
TORSDOF 14
