REMARK SMILES O=C(COc1ccccc1/C=N/NC(=O)c1cc(-c2ccc(F)cc2)nc2ccccc12)NCCCNC(=O)c1ccc(-c2c3nc(c(-c4c(F)c(F)c(F)c(F)c4F)c4ccc([nH]4)c(-c4c(F)c(F)c(F)c(F)c4F)c4nc(c(-c5c(F)c(F)c(F)c(F)c5F)c5ccc2[nH]5)C=C4)C=C3)cc1
REMARK SMILES IDX 1 1 2 2 33 3 3 5 4 6 5 7 6 8 10 9 7 10 9 11 8 12 11 13 12 14
REMARK SMILES IDX 13 15 14 16 15 18 16 19 17 20 32 21 18 22 27 23 31 24 26 25
REMARK SMILES IDX 28 26 30 27 29 28 19 29 20 30 25 31 21 32 24 33 22 34 23 35
REMARK SMILES IDX 34 36 35 37 36 38 37 39 38 40 39 42 40 43 41 44 102 45 42 46
REMARK SMILES IDX 101 47 43 48 44 49 45 50 95 51 46 52 100 53 94 54 96 55
REMARK SMILES IDX 47 56 99 57 93 58 92 59 48 61 80 62 60 63 79 64 61 65 64 66
REMARK SMILES IDX 78 67 97 68 62 69 63 70 77 72 98 73 65 74 49 75 50 76 58 77
REMARK SMILES IDX 51 78 52 79 56 80 59 81 53 82 54 83 57 84 55 85 81 86 82 87
REMARK SMILES IDX 90 88 83 89 84 90 88 91 91 92 85 93 86 94 89 95 87 96 66 97
REMARK SMILES IDX 67 98 75 99 68 100 69 101 73 102 76 103 70 104 71 105 74 106
REMARK SMILES IDX 72 107
REMARK H PARENT 33 4 13 17 37 41 96 60 64 71
REMARK Flexibility Score: inf
ROOT
ATOM      1  O   UNL     1       2.359   0.434   1.494  1.00  0.00    -0.271 OA
ATOM      2  C   UNL     1       3.123   0.123   0.597  1.00  0.00     0.257 C 
ATOM      3  N   UNL     1       3.790   0.968  -0.277  1.00  0.00    -0.353 N 
ATOM      4  H   UNL     1       4.772   0.915  -0.293  1.00  0.00     0.163 HD
ENDROOT
BRANCH   2   5
ATOM      5  C   UNL     1       3.445  -1.328   0.425  1.00  0.00     0.329 C 
BRANCH   5   6
ATOM      6  O   UNL     1       3.731  -1.439  -0.954  1.00  0.00    -0.483 OA
BRANCH   6   7
ATOM      7  C   UNL     1       2.740  -2.034  -1.684  1.00  0.00     0.128 A 
ATOM      8  C   UNL     1       3.228  -3.250  -2.210  1.00  0.00     0.047 A 
ATOM      9  C   UNL     1       1.561  -1.434  -2.174  1.00  0.00     0.037 A 
ATOM     10  C   UNL     1       2.627  -3.847  -3.303  1.00  0.00     0.004 A 
ATOM     11  C   UNL     1       1.007  -2.043  -3.322  1.00  0.00     0.013 A 
ATOM     12  C   UNL     1       1.538  -3.219  -3.886  1.00  0.00     0.001 A 
BRANCH   9  13
ATOM     13  C   UNL     1       0.827  -0.153  -1.783  1.00  0.00     0.145 C 
ATOM     14  N   UNL     1       0.567   0.378  -0.601  1.00  0.00    -0.180 NA
BRANCH  14  15
ATOM     15  N   UNL     1      -0.233   1.541  -0.662  1.00  0.00    -0.243 N 
ATOM     16  C   UNL     1      -0.450   2.668   0.169  1.00  0.00     0.272 C 
ATOM     17  H   UNL     1      -0.772   1.577  -1.486  1.00  0.00     0.194 HD
ATOM     18  O   UNL     1      -1.376   3.394  -0.227  1.00  0.00    -0.267 OA
BRANCH  16  19
ATOM     19  C   UNL     1       0.397   3.220   1.302  1.00  0.00     0.053 A 
ATOM     20  C   UNL     1       1.118   2.459   2.209  1.00  0.00     0.043 A 
ATOM     21  C   UNL     1       0.408   4.621   1.637  1.00  0.00     0.013 A 
ATOM     22  C   UNL     1       2.231   3.049   2.818  1.00  0.00     0.072 A 
ATOM     23  C   UNL     1       1.567   5.093   2.279  1.00  0.00     0.072 A 
ATOM     24  C   UNL     1      -0.662   5.549   1.585  1.00  0.00     0.011 A 
ATOM     25  N   UNL     1       2.579   4.310   2.523  1.00  0.00    -0.248 NA
ATOM     26  C   UNL     1       1.653   6.321   2.905  1.00  0.00     0.029 A 
ATOM     27  C   UNL     1      -0.605   6.766   2.294  1.00  0.00     0.001 A 
ATOM     28  C   UNL     1       0.545   7.140   2.977  1.00  0.00     0.002 A 
BRANCH  22  29
ATOM     29  C   UNL     1       2.888   2.752   4.108  1.00  0.00     0.000 A 
ATOM     30  C   UNL     1       2.141   3.079   5.261  1.00  0.00     0.013 A 
ATOM     31  C   UNL     1       4.300   2.849   4.185  1.00  0.00     0.013 A 
ATOM     32  C   UNL     1       2.759   3.674   6.364  1.00  0.00     0.040 A 
ATOM     33  C   UNL     1       4.916   3.426   5.302  1.00  0.00     0.040 A 
ATOM     34  C   UNL     1       4.133   3.873   6.359  1.00  0.00     0.123 A 
ATOM     35  F   UNL     1       4.701   4.568   7.354  1.00  0.00    -0.207 F 
ENDBRANCH  22  29
ENDBRANCH  16  19
ENDBRANCH  14  15
ENDBRANCH   9  13
ENDBRANCH   6   7
ENDBRANCH   5   6
ENDBRANCH   2   5
BRANCH   3  36
ATOM     36  C   UNL     1       3.159   1.927  -1.173  1.00  0.00     0.117 C 
BRANCH  36  37
ATOM     37  C   UNL     1       3.192   3.365  -0.760  1.00  0.00     0.042 C 
BRANCH  37  38
ATOM     38  C   UNL     1       4.596   3.857  -0.617  1.00  0.00     0.118 C 
BRANCH  38  39
ATOM     39  N   UNL     1       5.167   4.121  -1.929  1.00  0.00    -0.352 N 
ATOM     40  C   UNL     1       5.542   5.332  -2.443  1.00  0.00     0.251 C 
ATOM     41  H   UNL     1       5.298   3.339  -2.513  1.00  0.00     0.163 HD
ATOM     42  O   UNL     1       5.663   5.477  -3.655  1.00  0.00    -0.269 OA
BRANCH  40  43
ATOM     43  C   UNL     1       5.802   6.455  -1.517  1.00  0.00     0.039 A 
ATOM     44  C   UNL     1       5.549   7.757  -1.941  1.00  0.00     0.014 A 
ATOM     45  C   UNL     1       6.316   6.220  -0.237  1.00  0.00     0.014 A 
ATOM     46  C   UNL     1       5.833   8.815  -1.083  1.00  0.00     0.010 A 
ATOM     47  C   UNL     1       6.430   7.255   0.671  1.00  0.00     0.010 A 
ATOM     48  C   UNL     1       6.273   8.569   0.230  1.00  0.00    -0.014 A 
BRANCH  48  49
ATOM     49  C   UNL     1       6.687   9.679   1.115  1.00  0.00     0.031 A 
ATOM     50  C   UNL     1       8.111   9.751   1.601  1.00  0.00     0.074 A 
ATOM     51  C   UNL     1       5.788  10.615   1.464  1.00  0.00     0.049 A 
ATOM     52  N   UNL     1       8.688  10.666   2.339  1.00  0.00    -0.248 NA
ATOM     53  C   UNL     1       9.005   8.636   1.240  1.00  0.00     0.031 C 
ATOM     54  C   UNL     1       4.372  10.607   1.095  1.00  0.00     0.029 A 
ATOM     55  N   UNL     1       5.939  11.764   2.194  1.00  0.00    -0.354 N 
ATOM     56  C   UNL     1       9.993  10.230   2.529  1.00  0.00     0.074 A 
ATOM     57  C   UNL     1      10.106   8.932   1.910  1.00  0.00     0.031 C 
ATOM     58  C   UNL     1       3.796  11.731   1.549  1.00  0.00     0.029 A 
ATOM     59  C   UNL     1       4.791  12.509   2.281  1.00  0.00     0.049 A 
ATOM     60  H   UNL     1       6.789  12.029   2.615  1.00  0.00     0.167 HD
ATOM     61  C   UNL     1      11.020  10.873   3.132  1.00  0.00     0.037 A 
ATOM     62  C   UNL     1       4.573  13.692   2.883  1.00  0.00     0.037 A 
ATOM     63  C   UNL     1      10.898  12.173   3.734  1.00  0.00     0.049 A 
ATOM     64  C   UNL     1       5.728  14.379   3.562  1.00  0.00     0.074 A 
ATOM     65  C   UNL     1      11.877  12.939   4.339  1.00  0.00     0.029 A 
ATOM     66  N   UNL     1       9.715  12.895   3.813  1.00  0.00    -0.354 N 
ATOM     67  N   UNL     1       6.977  13.993   3.674  1.00  0.00    -0.248 NA
ATOM     68  C   UNL     1       5.443  15.677   4.184  1.00  0.00     0.031 C 
ATOM     69  C   UNL     1      11.271  14.091   4.849  1.00  0.00     0.029 A 
ATOM     70  C   UNL     1       9.935  14.087   4.482  1.00  0.00     0.049 A 
ATOM     71  H   UNL     1       8.849  12.602   3.447  1.00  0.00     0.167 HD
ATOM     72  C   UNL     1       7.635  15.018   4.342  1.00  0.00     0.074 A 
ATOM     73  C   UNL     1       6.648  16.047   4.591  1.00  0.00     0.031 C 
ATOM     74  C   UNL     1       8.938  15.103   4.712  1.00  0.00     0.037 A 
BRANCH  61  75
ATOM     75  C   UNL     1      12.351  10.175   3.175  1.00  0.00     0.064 A 
ATOM     76  C   UNL     1      13.093   9.916   2.011  1.00  0.00     0.173 A 
ATOM     77  C   UNL     1      12.903   9.776   4.401  1.00  0.00     0.173 A 
ATOM     78  F   UNL     1      12.608  10.261   0.808  1.00  0.00    -0.203 F 
ATOM     79  C   UNL     1      14.317   9.254   2.070  1.00  0.00     0.198 A 
ATOM     80  C   UNL     1      14.146   9.151   4.461  1.00  0.00     0.198 A 
ATOM     81  F   UNL     1      12.241   9.998   5.546  1.00  0.00    -0.203 F 
ATOM     82  F   UNL     1      14.975   8.960   0.940  1.00  0.00    -0.200 F 
ATOM     83  C   UNL     1      14.847   8.880   3.296  1.00  0.00     0.200 A 
ATOM     84  F   UNL     1      14.664   8.806   5.648  1.00  0.00    -0.200 F 
ATOM     85  F   UNL     1      16.029   8.252   3.353  1.00  0.00    -0.200 F 
ENDBRANCH  61  75
BRANCH  62  86
ATOM     86  C   UNL     1       3.221  14.309   2.846  1.00  0.00     0.064 A 
ATOM     87  C   UNL     1       2.989  15.510   2.161  1.00  0.00     0.173 A 
ATOM     88  C   UNL     1       2.135  13.717   3.507  1.00  0.00     0.173 A 
ATOM     89  F   UNL     1       3.997  16.124   1.522  1.00  0.00    -0.203 F 
ATOM     90  C   UNL     1       1.734  16.114   2.172  1.00  0.00     0.198 A 
ATOM     91  C   UNL     1       0.872  14.301   3.485  1.00  0.00     0.198 A 
ATOM     92  F   UNL     1       2.299  12.560   4.167  1.00  0.00    -0.203 F 
ATOM     93  F   UNL     1       1.556  17.296   1.565  1.00  0.00    -0.200 F 
ATOM     94  C   UNL     1       0.675  15.507   2.829  1.00  0.00     0.200 A 
ATOM     95  F   UNL     1      -0.153  13.699   4.103  1.00  0.00    -0.200 F 
ATOM     96  F   UNL     1      -0.532  16.088   2.840  1.00  0.00    -0.200 F 
ENDBRANCH  62  86
BRANCH  74  97
ATOM     97  C   UNL     1       9.383  16.383   5.364  1.00  0.00     0.064 A 
ATOM     98  C   UNL     1       8.926  16.776   6.631  1.00  0.00     0.173 A 
ATOM     99  C   UNL     1      10.293  17.226   4.707  1.00  0.00     0.173 A 
ATOM    100  F   UNL     1       8.051  16.011   7.302  1.00  0.00    -0.203 F 
ATOM    101  C   UNL     1       9.318  17.990   7.188  1.00  0.00     0.198 A 
ATOM    102  C   UNL     1      10.720  18.415   5.287  1.00  0.00     0.198 A 
ATOM    103  F   UNL     1      10.776  16.892   3.500  1.00  0.00    -0.203 F 
ATOM    104  F   UNL     1       8.802  18.384   8.361  1.00  0.00    -0.200 F 
ATOM    105  C   UNL     1      10.218  18.805   6.519  1.00  0.00     0.200 A 
ATOM    106  F   UNL     1      11.610  19.188   4.650  1.00  0.00    -0.200 F 
ATOM    107  F   UNL     1      10.594  19.974   7.056  1.00  0.00    -0.200 F 
ENDBRANCH  74  97
ENDBRANCH  48  49
ENDBRANCH  40  43
ENDBRANCH  38  39
ENDBRANCH  37  38
ENDBRANCH  36  37
ENDBRANCH   3  36
TORSDOF 16
