REMARK SMILES Cc1ccc(NC(=O)NC2CCCC2)cc1/C=C/C(=O)NCCCNC(=O)c1ccc(-c2c3nc(c(-c4c(F)c(F)c(F)c(F)c4F)c4ccc([nH]4)c(-c4c(F)c(F)c(F)c(F)c4F)c4nc(c(-c5c(F)c(F)c(F)c(F)c5F)c5ccc2[nH]5)C=C4)C=C3)cc1
REMARK SMILES IDX 22 1 21 2 19 3 20 4 18 6 17 7 16 8 1 9 2 10 3 11 4 12 15 13
REMARK SMILES IDX 5 14 6 15 7 16 8 18 9 19 10 21 11 22 14 23 12 24 13 25 23 26
REMARK SMILES IDX 24 27 25 28 26 29 27 31 28 32 29 33 90 34 30 35 89 36 31 37
REMARK SMILES IDX 32 38 33 39 83 40 34 41 88 42 82 43 84 44 35 45 87 46 81 47
REMARK SMILES IDX 80 48 36 50 68 51 48 52 67 53 49 54 52 55 66 56 85 57 50 58
REMARK SMILES IDX 51 59 65 61 86 62 53 63 37 64 38 65 46 66 39 67 40 68 44 69
REMARK SMILES IDX 47 70 41 71 42 72 45 73 43 74 69 75 70 76 78 77 71 78 72 79
REMARK SMILES IDX 76 80 79 81 73 82 74 83 77 84 75 85 54 86 55 87 63 88 56 89
REMARK SMILES IDX 57 90 61 91 64 92 58 93 59 94 62 95 60 96
REMARK H PARENT 21 5 6 17 9 20 25 30 84 49 52 60
REMARK Flexibility Score: inf
ROOT
ATOM      1  C   UNL     1       3.489   3.831   0.210  1.00  0.00     0.118 C 
ENDROOT
BRANCH   1   2
ATOM      2  N   UNL     1       2.589   4.903  -0.194  1.00  0.00    -0.352 N 
ATOM      3  C   UNL     1       1.224   4.921  -0.212  1.00  0.00     0.244 C 
ATOM      4  O   UNL     1       0.623   5.954  -0.503  1.00  0.00    -0.270 OA
ATOM      5  H   UNL     1       3.027   5.731  -0.497  1.00  0.00     0.163 HD
BRANCH   3   6
ATOM      6  C   UNL     1       0.477   3.728   0.237  1.00  0.00     0.072 C 
ATOM      7  C   UNL     1       0.628   2.510  -0.305  1.00  0.00     0.014 C 
BRANCH   7   8
ATOM      8  C   UNL     1      -0.004   1.337   0.304  1.00  0.00    -0.020 A 
ATOM      9  C   UNL     1       2.252   0.169   0.612  1.00  0.00     0.045 C 
ATOM     10  C   UNL     1       0.776   0.301   0.862  1.00  0.00    -0.044 A 
ATOM     11  C   UNL     1       0.141  -0.706   1.595  1.00  0.00     0.006 A 
ATOM     12  C   UNL     1      -1.247  -0.798   1.598  1.00  0.00     0.026 A 
ATOM     13  C   UNL     1      -1.400   1.219   0.292  1.00  0.00     0.034 A 
ATOM     14  C   UNL     1      -1.994   0.068   0.809  1.00  0.00     0.043 A 
BRANCH  14  15
ATOM     15  N   UNL     1      -3.309  -0.226   0.439  1.00  0.00    -0.308 N 
ATOM     16  C   UNL     1      -3.897  -1.398   0.098  1.00  0.00     0.319 C 
ATOM     17  H   UNL     1      -3.911   0.553   0.425  1.00  0.00     0.171 HD
ATOM     18  O   UNL     1      -5.130  -1.466   0.111  1.00  0.00    -0.248 OA
ATOM     19  N   UNL     1      -3.218  -2.464  -0.386  1.00  0.00    -0.335 N 
ATOM     20  H   UNL     1      -3.784  -3.256  -0.529  1.00  0.00     0.165 HD
BRANCH  19  21
ATOM     21  C   UNL     1      -1.827  -2.681  -0.738  1.00  0.00     0.083 C 
ATOM     22  C   UNL     1      -1.506  -4.082  -1.260  1.00  0.00     0.025 C 
ATOM     23  C   UNL     1      -1.284  -1.823  -1.876  1.00  0.00     0.025 C 
ATOM     24  C   UNL     1      -0.059  -3.923  -1.731  1.00  0.00     0.002 C 
ATOM     25  C   UNL     1       0.067  -2.465  -2.186  1.00  0.00     0.002 C 
ENDBRANCH  19  21
ENDBRANCH  14  15
ENDBRANCH   7   8
ENDBRANCH   3   6
ENDBRANCH   1   2
BRANCH   1  26
ATOM     26  C   UNL     1       3.966   3.021  -0.996  1.00  0.00     0.042 C 
BRANCH  26  27
ATOM     27  C   UNL     1       5.252   3.566  -1.590  1.00  0.00     0.118 C 
BRANCH  27  28
ATOM     28  N   UNL     1       6.458   2.836  -1.202  1.00  0.00    -0.352 N 
ATOM     29  C   UNL     1       7.779   3.100  -1.533  1.00  0.00     0.251 C 
ATOM     30  H   UNL     1       6.313   2.049  -0.629  1.00  0.00     0.163 HD
ATOM     31  O   UNL     1       8.681   2.363  -1.151  1.00  0.00    -0.269 OA
BRANCH  29  32
ATOM     32  C   UNL     1       8.096   4.381  -2.207  1.00  0.00     0.039 A 
ATOM     33  C   UNL     1       8.973   5.236  -1.532  1.00  0.00     0.014 A 
ATOM     34  C   UNL     1       7.239   4.870  -3.184  1.00  0.00     0.014 A 
ATOM     35  C   UNL     1       8.738   6.603  -1.573  1.00  0.00     0.010 A 
ATOM     36  C   UNL     1       6.916   6.207  -3.129  1.00  0.00     0.010 A 
ATOM     37  C   UNL     1       7.611   7.051  -2.255  1.00  0.00    -0.014 A 
BRANCH  37  38
ATOM     38  C   UNL     1       7.095   8.402  -2.142  1.00  0.00     0.031 A 
ATOM     39  C   UNL     1       7.465   9.360  -3.193  1.00  0.00     0.074 A 
ATOM     40  C   UNL     1       6.253   8.748  -1.144  1.00  0.00     0.049 A 
ATOM     41  N   UNL     1       7.451  10.637  -3.047  1.00  0.00    -0.248 NA
ATOM     42  C   UNL     1       7.963   8.931  -4.493  1.00  0.00     0.031 C 
ATOM     43  C   UNL     1       5.454   9.967  -1.046  1.00  0.00     0.029 A 
ATOM     44  N   UNL     1       6.074   8.120   0.099  1.00  0.00    -0.354 N 
ATOM     45  C   UNL     1       7.668  11.201  -4.282  1.00  0.00     0.074 A 
ATOM     46  C   UNL     1       8.075  10.102  -5.123  1.00  0.00     0.031 C 
ATOM     47  C   UNL     1       5.115  10.165   0.237  1.00  0.00     0.029 A 
ATOM     48  C   UNL     1       5.799   9.161   1.027  1.00  0.00     0.049 A 
ATOM     49  H   UNL     1       6.128   7.155   0.289  1.00  0.00     0.167 HD
ATOM     50  C   UNL     1       7.347  12.515  -4.458  1.00  0.00     0.037 A 
ATOM     51  C   UNL     1       6.652   9.414   2.066  1.00  0.00     0.037 A 
ATOM     52  C   UNL     1       6.941  13.119  -3.182  1.00  0.00     0.049 A 
ATOM     53  C   UNL     1       7.367  10.742   1.958  1.00  0.00     0.074 A 
ATOM     54  C   UNL     1       5.719  13.381  -2.583  1.00  0.00     0.029 A 
ATOM     55  N   UNL     1       7.883  13.221  -2.171  1.00  0.00    -0.354 N 
ATOM     56  N   UNL     1       7.181  11.604   0.997  1.00  0.00    -0.248 NA
ATOM     57  C   UNL     1       8.436  11.143   2.870  1.00  0.00     0.031 C 
ATOM     58  C   UNL     1       5.946  13.632  -1.196  1.00  0.00     0.029 A 
ATOM     59  C   UNL     1       7.306  13.551  -0.957  1.00  0.00     0.049 A 
ATOM     60  H   UNL     1       8.848  13.077  -2.300  1.00  0.00     0.167 HD
ATOM     61  C   UNL     1       8.092  12.618   1.110  1.00  0.00     0.074 A 
ATOM     62  C   UNL     1       8.874  12.269   2.284  1.00  0.00     0.031 C 
ATOM     63  C   UNL     1       8.161  13.653   0.218  1.00  0.00     0.037 A 
BRANCH  50  64
ATOM     64  C   UNL     1       7.151  13.183  -5.805  1.00  0.00     0.064 A 
ATOM     65  C   UNL     1       6.342  14.336  -5.912  1.00  0.00     0.173 A 
ATOM     66  C   UNL     1       7.662  12.721  -7.034  1.00  0.00     0.173 A 
ATOM     67  F   UNL     1       5.869  14.961  -4.827  1.00  0.00    -0.203 F 
ATOM     68  C   UNL     1       5.986  14.897  -7.144  1.00  0.00     0.198 A 
ATOM     69  C   UNL     1       7.266  13.248  -8.268  1.00  0.00     0.198 A 
ATOM     70  F   UNL     1       8.618  11.790  -7.097  1.00  0.00    -0.203 F 
ATOM     71  F   UNL     1       5.206  15.986  -7.176  1.00  0.00    -0.200 F 
ATOM     72  C   UNL     1       6.418  14.330  -8.324  1.00  0.00     0.200 A 
ATOM     73  F   UNL     1       7.726  12.697  -9.402  1.00  0.00    -0.200 F 
ATOM     74  F   UNL     1       6.047  14.842  -9.505  1.00  0.00    -0.200 F 
ENDBRANCH  50  64
BRANCH  51  75
ATOM     75  C   UNL     1       7.240   8.153   2.604  1.00  0.00     0.064 A 
ATOM     76  C   UNL     1       6.315   7.194   3.064  1.00  0.00     0.173 A 
ATOM     77  C   UNL     1       8.474   7.699   2.129  1.00  0.00     0.173 A 
ATOM     78  F   UNL     1       5.149   7.589   3.599  1.00  0.00    -0.203 F 
ATOM     79  C   UNL     1       6.489   5.850   2.757  1.00  0.00     0.198 A 
ATOM     80  C   UNL     1       8.669   6.343   1.885  1.00  0.00     0.198 A 
ATOM     81  F   UNL     1       9.422   8.567   1.750  1.00  0.00    -0.203 F 
ATOM     82  F   UNL     1       5.487   4.984   2.964  1.00  0.00    -0.200 F 
ATOM     83  C   UNL     1       7.642   5.436   2.113  1.00  0.00     0.200 A 
ATOM     84  F   UNL     1       9.811   5.932   1.318  1.00  0.00    -0.200 F 
ATOM     85  F   UNL     1       7.737   4.178   1.663  1.00  0.00    -0.200 F 
ENDBRANCH  51  75
BRANCH  63  86
ATOM     86  C   UNL     1       9.091  14.832   0.381  1.00  0.00     0.064 A 
ATOM     87  C   UNL     1       9.432  15.361   1.637  1.00  0.00     0.173 A 
ATOM     88  C   UNL     1       9.608  15.538  -0.729  1.00  0.00     0.173 A 
ATOM     89  F   UNL     1       8.868  14.895   2.762  1.00  0.00    -0.203 F 
ATOM     90  C   UNL     1      10.338  16.414   1.777  1.00  0.00     0.198 A 
ATOM     91  C   UNL     1      10.463  16.628  -0.589  1.00  0.00     0.198 A 
ATOM     92  F   UNL     1       9.317  15.194  -1.990  1.00  0.00    -0.203 F 
ATOM     93  F   UNL     1      10.702  16.816   3.003  1.00  0.00    -0.200 F 
ATOM     94  C   UNL     1      10.858  17.044   0.664  1.00  0.00     0.200 A 
ATOM     95  F   UNL     1      10.911  17.264  -1.682  1.00  0.00    -0.200 F 
ATOM     96  F   UNL     1      11.723  18.057   0.797  1.00  0.00    -0.200 F 
ENDBRANCH  63  86
ENDBRANCH  37  38
ENDBRANCH  29  32
ENDBRANCH  27  28
ENDBRANCH  26  27
ENDBRANCH   1  26
TORSDOF 13
