REMARK SMILES COc1cc(Br)c(OC)c(C(=O)N2CCC[C@@H]2C(=O)NCCCNC(=O)c2ccc(-c3c4nc(c(-c5c(F)c(F)c(F)c(F)c5F)c5ccc([nH]5)c(-c5c(F)c(F)c(F)c(F)c5F)c5nc(c(-c6c(F)c(F)c(F)c(F)c6F)c6ccc3[nH]6)C=C5)C=C4)cc2)c1
REMARK SMILES IDX 21 1 20 2 18 3 19 4 17 6 13 7 14 8 15 9 16 10 11 11 12 12
REMARK SMILES IDX 10 13 3 14 4 15 90 16 5 17 6 18 7 19 2 20 1 21 8 22 9 23
REMARK SMILES IDX 22 24 23 25 24 26 25 27 26 29 27 30 28 31 89 32 29 33 88 34
REMARK SMILES IDX 30 35 31 36 32 37 82 38 33 39 87 40 81 41 83 42 34 43 86 44
REMARK SMILES IDX 80 45 79 46 35 48 67 49 47 50 66 51 48 52 51 53 65 54 84 55
REMARK SMILES IDX 49 56 50 57 64 59 85 60 52 61 36 62 37 63 45 64 38 65 39 66
REMARK SMILES IDX 43 67 46 68 40 69 41 70 44 71 42 72 68 73 69 74 77 75 70 76
REMARK SMILES IDX 71 77 75 78 78 79 72 80 73 81 76 82 74 83 53 84 54 85 62 86
REMARK SMILES IDX 55 87 56 88 60 89 63 90 57 91 58 92 61 93 59 94
REMARK H PARENT 20 5 24 28 83 47 51 58
REMARK Flexibility Score: inf
ROOT
ATOM      1  C   UNL     1      -1.490  -0.104   4.836  1.00  0.00     0.117 C 
ENDROOT
BRANCH   1   2
ATOM      2  N   UNL     1      -1.614  -0.600   6.185  1.00  0.00    -0.354 N 
ATOM      3  C   UNL     1      -2.213  -1.743   6.633  1.00  0.00     0.242 C 
ATOM      4  O   UNL     1      -2.354  -1.845   7.857  1.00  0.00    -0.273 OA
ATOM      5  H   UNL     1      -1.209  -0.035   6.881  1.00  0.00     0.163 HD
BRANCH   3   6
ATOM      6  C   UNL     1      -2.883  -2.753   5.673  1.00  0.00     0.174 C 
ATOM      7  N   UNL     1      -2.161  -3.054   4.431  1.00  0.00    -0.326 N 
ATOM      8  C   UNL     1      -3.120  -3.280   3.364  1.00  0.00     0.121 C 
ATOM      9  C   UNL     1      -4.221  -2.282   3.673  1.00  0.00     0.024 C 
ATOM     10  C   UNL     1      -4.255  -2.229   5.204  1.00  0.00     0.037 C 
BRANCH   7  11
ATOM     11  C   UNL     1      -0.906  -3.656   4.498  1.00  0.00     0.258 C 
ATOM     12  O   UNL     1      -0.614  -4.340   5.475  1.00  0.00    -0.269 OA
BRANCH  11  13
ATOM     13  C   UNL     1       0.151  -3.218   3.491  1.00  0.00     0.086 A 
ATOM     14  C   UNL     1       0.831  -1.510   1.876  1.00  0.00     0.121 A 
ATOM     15  C   UNL     1       2.139  -1.951   1.963  1.00  0.00     0.066 A 
ATOM     16  C   UNL     1      -0.144  -2.151   2.626  1.00  0.00     0.064 A 
ATOM     17  C   UNL     1       2.468  -3.060   2.767  1.00  0.00     0.064 A 
ATOM     18  Br  UNL     1       4.317  -3.520   2.661  1.00  0.00    -0.047 Br
ATOM     19  C   UNL     1       1.482  -3.717   3.539  1.00  0.00     0.146 A 
BRANCH  14  20
ATOM     20  O   UNL     1       0.392  -0.419   1.183  1.00  0.00    -0.497 OA
ATOM     21  C   UNL     1       1.096  -0.112  -0.014  1.00  0.00     0.278 C 
ENDBRANCH  14  20
BRANCH  19  22
ATOM     22  O   UNL     1       1.629  -4.841   4.299  1.00  0.00    -0.495 OA
ATOM     23  C   UNL     1       2.878  -5.281   4.794  1.00  0.00     0.278 C 
ENDBRANCH  19  22
ENDBRANCH  11  13
ENDBRANCH   7  11
ENDBRANCH   3   6
ENDBRANCH   1   2
BRANCH   1  24
ATOM     24  C   UNL     1      -2.171   1.232   4.627  1.00  0.00     0.042 C 
BRANCH  24  25
ATOM     25  C   UNL     1      -1.383   2.390   5.201  1.00  0.00     0.118 C 
BRANCH  25  26
ATOM     26  N   UNL     1      -0.105   2.584   4.522  1.00  0.00    -0.352 N 
ATOM     27  C   UNL     1       0.370   3.666   3.827  1.00  0.00     0.251 C 
ATOM     28  H   UNL     1       0.512   1.819   4.571  1.00  0.00     0.163 HD
ATOM     29  O   UNL     1       1.395   3.565   3.155  1.00  0.00    -0.269 OA
BRANCH  27  30
ATOM     30  C   UNL     1      -0.361   4.948   3.863  1.00  0.00     0.039 A 
ATOM     31  C   UNL     1      -0.465   5.703   2.693  1.00  0.00     0.014 A 
ATOM     32  C   UNL     1      -0.949   5.403   5.046  1.00  0.00     0.014 A 
ATOM     33  C   UNL     1      -1.218   6.878   2.695  1.00  0.00     0.010 A 
ATOM     34  C   UNL     1      -1.789   6.507   5.019  1.00  0.00     0.010 A 
ATOM     35  C   UNL     1      -1.921   7.265   3.848  1.00  0.00    -0.014 A 
BRANCH  35  36
ATOM     36  C   UNL     1      -2.790   8.466   3.856  1.00  0.00     0.031 A 
ATOM     37  C   UNL     1      -2.488   9.604   4.790  1.00  0.00     0.074 A 
ATOM     38  C   UNL     1      -3.889   8.496   3.080  1.00  0.00     0.049 A 
ATOM     39  N   UNL     1      -3.163  10.706   4.998  1.00  0.00    -0.248 NA
ATOM     40  C   UNL     1      -1.286   9.472   5.628  1.00  0.00     0.031 C 
ATOM     41  C   UNL     1      -4.318   7.423   2.180  1.00  0.00     0.029 A 
ATOM     42  N   UNL     1      -4.855   9.459   2.933  1.00  0.00    -0.354 N 
ATOM     43  C   UNL     1      -2.480  11.382   6.001  1.00  0.00     0.074 A 
ATOM     44  C   UNL     1      -1.377  10.540   6.405  1.00  0.00     0.031 C 
ATOM     45  C   UNL     1      -5.445   7.798   1.556  1.00  0.00     0.029 A 
ATOM     46  C   UNL     1      -5.843   9.115   2.043  1.00  0.00     0.049 A 
ATOM     47  H   UNL     1      -4.841  10.315   3.420  1.00  0.00     0.167 HD
ATOM     48  C   UNL     1      -2.736  12.606   6.519  1.00  0.00     0.037 A 
ATOM     49  C   UNL     1      -6.950   9.783   1.671  1.00  0.00     0.037 A 
ATOM     50  C   UNL     1      -3.825  13.445   6.094  1.00  0.00     0.049 A 
ATOM     51  C   UNL     1      -7.214  11.143   2.259  1.00  0.00     0.074 A 
ATOM     52  C   UNL     1      -4.132  14.732   6.498  1.00  0.00     0.029 A 
ATOM     53  N   UNL     1      -4.795  13.074   5.172  1.00  0.00    -0.354 N 
ATOM     54  N   UNL     1      -6.515  11.811   3.144  1.00  0.00    -0.248 NA
ATOM     55  C   UNL     1      -8.416  11.844   1.789  1.00  0.00     0.031 C 
ATOM     56  C   UNL     1      -5.322  15.114   5.870  1.00  0.00     0.029 A 
ATOM     57  C   UNL     1      -5.720  14.094   5.021  1.00  0.00     0.049 A 
ATOM     58  H   UNL     1      -4.821  12.212   4.696  1.00  0.00     0.167 HD
ATOM     59  C   UNL     1      -7.175  13.020   3.319  1.00  0.00     0.074 A 
ATOM     60  C   UNL     1      -8.322  12.998   2.434  1.00  0.00     0.031 C 
ATOM     61  C   UNL     1      -6.858  14.055   4.136  1.00  0.00     0.037 A 
BRANCH  48  62
ATOM     62  C   UNL     1      -1.828  13.102   7.609  1.00  0.00     0.064 A 
ATOM     63  C   UNL     1      -0.479  13.408   7.370  1.00  0.00     0.173 A 
ATOM     64  C   UNL     1      -2.318  13.287   8.911  1.00  0.00     0.173 A 
ATOM     65  F   UNL     1       0.046  13.240   6.147  1.00  0.00    -0.203 F 
ATOM     66  C   UNL     1       0.354  13.838   8.400  1.00  0.00     0.198 A 
ATOM     67  C   UNL     1      -1.492  13.754   9.931  1.00  0.00     0.198 A 
ATOM     68  F   UNL     1      -3.601  13.016   9.197  1.00  0.00    -0.203 F 
ATOM     69  F   UNL     1       1.654  14.059   8.161  1.00  0.00    -0.200 F 
ATOM     70  C   UNL     1      -0.154  14.017   9.678  1.00  0.00     0.200 A 
ATOM     71  F   UNL     1      -1.989  13.941  11.161  1.00  0.00    -0.200 F 
ATOM     72  F   UNL     1       0.647  14.434  10.667  1.00  0.00    -0.200 F 
ENDBRANCH  48  62
BRANCH  49  73
ATOM     73  C   UNL     1      -7.873   9.181   0.674  1.00  0.00     0.064 A 
ATOM     74  C   UNL     1      -7.988   9.713  -0.617  1.00  0.00     0.173 A 
ATOM     75  C   UNL     1      -8.640   8.047   0.983  1.00  0.00     0.173 A 
ATOM     76  F   UNL     1      -7.288  10.806  -0.955  1.00  0.00    -0.203 F 
ATOM     77  C   UNL     1      -8.846   9.145  -1.557  1.00  0.00     0.198 A 
ATOM     78  C   UNL     1      -9.474   7.462   0.033  1.00  0.00     0.198 A 
ATOM     79  F   UNL     1      -8.559   7.492   2.201  1.00  0.00    -0.203 F 
ATOM     80  F   UNL     1      -8.966   9.698  -2.771  1.00  0.00    -0.200 F 
ATOM     81  C   UNL     1      -9.583   8.015  -1.234  1.00  0.00     0.200 A 
ATOM     82  F   UNL     1     -10.168   6.358   0.343  1.00  0.00    -0.200 F 
ATOM     83  F   UNL     1     -10.398   7.462  -2.142  1.00  0.00    -0.200 F 
ENDBRANCH  49  73
BRANCH  61  84
ATOM     84  C   UNL     1      -7.744  15.267   4.088  1.00  0.00     0.064 A 
ATOM     85  C   UNL     1      -9.051  15.249   4.598  1.00  0.00     0.173 A 
ATOM     86  C   UNL     1      -7.262  16.477   3.564  1.00  0.00     0.173 A 
ATOM     87  F   UNL     1      -9.565  14.114   5.097  1.00  0.00    -0.203 F 
ATOM     88  C   UNL     1      -9.850  16.389   4.560  1.00  0.00     0.198 A 
ATOM     89  C   UNL     1      -8.051  17.623   3.561  1.00  0.00     0.198 A 
ATOM     90  F   UNL     1      -6.016  16.551   3.070  1.00  0.00    -0.203 F 
ATOM     91  F   UNL     1     -11.113  16.334   5.005  1.00  0.00    -0.200 F 
ATOM     92  C   UNL     1      -9.347  17.576   4.050  1.00  0.00     0.200 A 
ATOM     93  F   UNL     1      -7.556  18.773   3.083  1.00  0.00    -0.200 F 
ATOM     94  F   UNL     1     -10.114  18.674   4.024  1.00  0.00    -0.200 F 
ENDBRANCH  61  84
ENDBRANCH  35  36
ENDBRANCH  27  30
ENDBRANCH  25  26
ENDBRANCH  24  25
ENDBRANCH   1  24
TORSDOF 14
