REMARK SMILES CC1(C)[C@H](C(=O)NCCCNC(=O)c2ccc(-c3c4nc(c(-c5c(F)c(F)c(F)c(F)c5F)c5ccc([nH]5)c(-c5c(F)c(F)c(F)c(F)c5F)c5nc(c(-c6c(F)c(F)c(F)c(F)c6F)c6ccc3[nH]6)C=C5)C=C4)cc2)[C@@H]1C(=O)Nc1ccon1
REMARK SMILES IDX 9 1 8 2 7 3 5 4 6 5 4 7 1 8 2 9 3 10 77 11 78 12 79 13 80 14
REMARK SMILES IDX 81 16 82 17 85 18 83 19 84 20 10 21 11 22 12 23 13 25 14 26
REMARK SMILES IDX 15 27 76 28 16 29 75 30 17 31 18 32 19 33 69 34 20 35 74 36
REMARK SMILES IDX 68 37 70 38 21 39 73 40 67 41 66 42 22 44 54 45 34 46 53 47
REMARK SMILES IDX 35 48 38 49 52 50 71 51 36 52 37 53 51 55 72 56 39 57 23 58
REMARK SMILES IDX 24 59 32 60 25 61 26 62 30 63 33 64 27 65 28 66 31 67 29 68
REMARK SMILES IDX 55 69 56 70 64 71 57 72 58 73 62 74 65 75 59 76 60 77 63 78
REMARK SMILES IDX 61 79 40 80 41 81 49 82 42 83 43 84 47 85 50 86 44 87 45 88
REMARK SMILES IDX 48 89 46 90
REMARK H PARENT 7 6 80 15 11 24 70 43 38 54
REMARK Flexibility Score: inf
ROOT
ATOM      1  C   UNL     1      -0.067   4.135  -0.744  1.00  0.00     0.042 C 
ENDROOT
BRANCH   1   2
ATOM      2  C   UNL     1      -1.115   3.091  -0.412  1.00  0.00     0.117 C 
BRANCH   2   3
ATOM      3  N   UNL     1      -1.360   2.206  -1.530  1.00  0.00    -0.356 N 
ATOM      4  C   UNL     1      -1.241   0.869  -1.746  1.00  0.00     0.224 C 
ATOM      5  O   UNL     1      -1.497   0.491  -2.891  1.00  0.00    -0.275 OA
ATOM      6  H   UNL     1      -1.691   2.686  -2.323  1.00  0.00     0.163 HD
BRANCH   4   7
ATOM      7  C   UNL     1      -0.906  -0.191  -0.762  1.00  0.00     0.098 C 
ATOM      8  C   UNL     1       1.053  -1.564   0.135  1.00  0.00     0.013 C 
ATOM      9  C   UNL     1       0.287  -0.256   0.168  1.00  0.00    -0.011 C 
ATOM     10  C   UNL     1       1.208   0.931   0.299  1.00  0.00     0.013 C 
ATOM     11  C   UNL     1      -1.166  -0.291   0.711  1.00  0.00     0.098 C 
BRANCH  11  12
ATOM     12  C   UNL     1      -1.748   0.739   1.598  1.00  0.00     0.230 C 
ATOM     13  O   UNL     1      -1.120   1.089   2.595  1.00  0.00    -0.274 OA
ATOM     14  N   UNL     1      -2.962   1.314   1.327  1.00  0.00    -0.308 N 
ATOM     15  H   UNL     1      -3.237   2.015   1.961  1.00  0.00     0.171 HD
BRANCH  14  16
ATOM     16  C   UNL     1      -3.858   1.069   0.315  1.00  0.00     0.175 A 
ATOM     17  C   UNL     1      -4.056  -0.086  -0.469  1.00  0.00     0.092 A 
ATOM     18  N   UNL     1      -4.700   2.041  -0.056  1.00  0.00    -0.062 NA
ATOM     19  C   UNL     1      -4.962   0.298  -1.422  1.00  0.00     0.233 A 
ATOM     20  O   UNL     1      -5.354   1.571  -1.181  1.00  0.00    -0.363 OA
ENDBRANCH  14  16
ENDBRANCH  11  12
ENDBRANCH   4   7
ENDBRANCH   2   3
ENDBRANCH   1   2
BRANCH   1  21
ATOM     21  C   UNL     1      -0.604   5.208  -1.672  1.00  0.00     0.118 C 
BRANCH  21  22
ATOM     22  N   UNL     1      -1.558   6.087  -1.003  1.00  0.00    -0.352 N 
ATOM     23  C   UNL     1      -1.430   7.410  -0.660  1.00  0.00     0.251 C 
ATOM     24  H   UNL     1      -2.417   5.671  -0.763  1.00  0.00     0.163 HD
ATOM     25  O   UNL     1      -2.235   7.937   0.103  1.00  0.00    -0.269 OA
BRANCH  23  26
ATOM     26  C   UNL     1      -0.302   8.193  -1.202  1.00  0.00     0.039 A 
ATOM     27  C   UNL     1       0.401   9.059  -0.363  1.00  0.00     0.014 A 
ATOM     28  C   UNL     1       0.072   8.048  -2.540  1.00  0.00     0.014 A 
ATOM     29  C   UNL     1       1.530   9.721  -0.851  1.00  0.00     0.010 A 
ATOM     30  C   UNL     1       1.258   8.611  -2.986  1.00  0.00     0.010 A 
ATOM     31  C   UNL     1       1.991   9.468  -2.153  1.00  0.00    -0.014 A 
BRANCH  31  32
ATOM     32  C   UNL     1       3.215  10.111  -2.691  1.00  0.00     0.031 A 
ATOM     33  C   UNL     1       3.115  10.989  -3.909  1.00  0.00     0.074 A 
ATOM     34  C   UNL     1       4.415   9.848  -2.136  1.00  0.00     0.049 A 
ATOM     35  N   UNL     1       4.068  11.548  -4.610  1.00  0.00    -0.248 NA
ATOM     36  C   UNL     1       1.762  11.245  -4.432  1.00  0.00     0.031 C 
ATOM     37  C   UNL     1       4.644   8.980  -0.980  1.00  0.00     0.029 A 
ATOM     38  N   UNL     1       5.672  10.279  -2.480  1.00  0.00    -0.354 N 
ATOM     39  C   UNL     1       3.431  12.201  -5.657  1.00  0.00     0.074 A 
ATOM     40  C   UNL     1       2.020  11.913  -5.545  1.00  0.00     0.031 C 
ATOM     41  C   UNL     1       5.956   8.963  -0.694  1.00  0.00     0.029 A 
ATOM     42  C   UNL     1       6.666   9.779  -1.674  1.00  0.00     0.049 A 
ATOM     43  H   UNL     1       5.845  10.888  -3.234  1.00  0.00     0.167 HD
ATOM     44  C   UNL     1       3.971  12.999  -6.607  1.00  0.00     0.037 A 
ATOM     45  C   UNL     1       8.000   9.953  -1.730  1.00  0.00     0.037 A 
ATOM     46  C   UNL     1       5.373  13.307  -6.696  1.00  0.00     0.049 A 
ATOM     47  C   UNL     1       8.576  10.827  -2.814  1.00  0.00     0.074 A 
ATOM     48  C   UNL     1       6.018  14.136  -7.595  1.00  0.00     0.029 A 
ATOM     49  N   UNL     1       6.345  12.800  -5.846  1.00  0.00    -0.354 N 
ATOM     50  N   UNL     1       7.957  11.487  -3.764  1.00  0.00    -0.248 NA
ATOM     51  C   UNL     1      10.037  10.986  -2.830  1.00  0.00     0.031 C 
ATOM     52  C   UNL     1       7.388  14.096  -7.319  1.00  0.00     0.029 A 
ATOM     53  C   UNL     1       7.588  13.288  -6.211  1.00  0.00     0.049 A 
ATOM     54  H   UNL     1       6.176  12.185  -5.096  1.00  0.00     0.167 HD
ATOM     55  C   UNL     1       8.945  12.169  -4.461  1.00  0.00     0.074 A 
ATOM     56  C   UNL     1      10.203  11.853  -3.818  1.00  0.00     0.031 C 
ATOM     57  C   UNL     1       8.825  12.984  -5.538  1.00  0.00     0.037 A 
BRANCH  44  58
ATOM     58  C   UNL     1       3.042  13.611  -7.615  1.00  0.00     0.064 A 
ATOM     59  C   UNL     1       2.117  14.603  -7.253  1.00  0.00     0.173 A 
ATOM     60  C   UNL     1       3.106  13.238  -8.966  1.00  0.00     0.173 A 
ATOM     61  F   UNL     1       2.005  14.986  -5.972  1.00  0.00    -0.203 F 
ATOM     62  C   UNL     1       1.276  15.180  -8.200  1.00  0.00     0.198 A 
ATOM     63  C   UNL     1       2.286  13.841  -9.916  1.00  0.00     0.198 A 
ATOM     64  F   UNL     1       3.974  12.297  -9.368  1.00  0.00    -0.203 F 
ATOM     65  F   UNL     1       0.368  16.091  -7.821  1.00  0.00    -0.200 F 
ATOM     66  C   UNL     1       1.368  14.807  -9.532  1.00  0.00     0.200 A 
ATOM     67  F   UNL     1       2.386  13.490 -11.206  1.00  0.00    -0.200 F 
ATOM     68  F   UNL     1       0.567  15.374 -10.445  1.00  0.00    -0.200 F 
ENDBRANCH  44  58
BRANCH  45  69
ATOM     69  C   UNL     1       8.889   9.307  -0.727  1.00  0.00     0.064 A 
ATOM     70  C   UNL     1       9.615  10.077   0.193  1.00  0.00     0.173 A 
ATOM     71  C   UNL     1       9.063   7.915  -0.690  1.00  0.00     0.173 A 
ATOM     72  F   UNL     1       9.498  11.414   0.186  1.00  0.00    -0.203 F 
ATOM     73  C   UNL     1      10.508   9.486   1.084  1.00  0.00     0.198 A 
ATOM     74  C   UNL     1       9.931   7.322   0.226  1.00  0.00     0.198 A 
ATOM     75  F   UNL     1       8.389   7.130  -1.542  1.00  0.00    -0.203 F 
ATOM     76  F   UNL     1      11.237  10.253   1.906  1.00  0.00    -0.200 F 
ATOM     77  C   UNL     1      10.663   8.108   1.102  1.00  0.00     0.200 A 
ATOM     78  F   UNL     1      10.066   5.989   0.250  1.00  0.00    -0.200 F 
ATOM     79  F   UNL     1      11.527   7.540   1.954  1.00  0.00    -0.200 F 
ENDBRANCH  45  69
BRANCH  57  80
ATOM     80  C   UNL     1      10.072  13.643  -6.051  1.00  0.00     0.064 A 
ATOM     81  C   UNL     1      11.069  12.920  -6.721  1.00  0.00     0.173 A 
ATOM     82  C   UNL     1      10.243  15.029  -5.914  1.00  0.00     0.173 A 
ATOM     83  F   UNL     1      10.959  11.591  -6.865  1.00  0.00    -0.203 F 
ATOM     84  C   UNL     1      12.204  13.557  -7.213  1.00  0.00     0.198 A 
ATOM     85  C   UNL     1      11.362  15.668  -6.438  1.00  0.00     0.198 A 
ATOM     86  F   UNL     1       9.313  15.767  -5.289  1.00  0.00    -0.203 F 
ATOM     87  F   UNL     1      13.168  12.840  -7.807  1.00  0.00    -0.200 F 
ATOM     88  C   UNL     1      12.346  14.931  -7.080  1.00  0.00     0.200 A 
ATOM     89  F   UNL     1      11.488  16.997  -6.324  1.00  0.00    -0.200 F 
ATOM     90  F   UNL     1      13.433  15.544  -7.566  1.00  0.00    -0.200 F 
ENDBRANCH  57  80
ENDBRANCH  31  32
ENDBRANCH  23  26
ENDBRANCH  21  22
ENDBRANCH   1  21
TORSDOF 12
