REMARK SMILES CC(C)(CC(=O)NCCCNC(=O)c1ccc(-c2c3nc(c(-c4c(F)c(F)c(F)c(F)c4F)c4ccc([nH]4)c(-c4c(F)c(F)c(F)c(F)c4F)c4nc(c(-c5c(F)c(F)c(F)c(F)c5F)c5ccc2[nH]5)C=C4)C=C3)cc1)CC(=O)Nc1cccc(C(=O)NC2CC2)c1
REMARK SMILES IDX 5 1 6 2 7 3 4 5 2 6 1 7 3 8 77 9 78 10 79 11 80 12 81 14
REMARK SMILES IDX 82 15 92 16 83 17 85 18 84 19 86 20 87 21 88 22 89 24 90 25
REMARK SMILES IDX 91 26 8 27 9 28 10 29 11 30 12 31 13 33 14 34 15 35 76 36
REMARK SMILES IDX 16 37 75 38 17 39 18 40 19 41 69 42 20 43 74 44 68 45 70 46
REMARK SMILES IDX 21 47 73 48 67 49 66 50 22 52 54 53 34 54 53 55 35 56 38 57
REMARK SMILES IDX 52 58 71 59 36 60 37 61 51 63 72 64 39 65 23 66 24 67 32 68
REMARK SMILES IDX 25 69 26 70 30 71 33 72 27 73 28 74 31 75 29 76 55 77 56 78
REMARK SMILES IDX 64 79 57 80 58 81 62 82 65 83 59 84 60 85 63 86 61 87 40 88
REMARK SMILES IDX 41 89 49 90 42 91 43 92 47 93 50 94 44 95 45 96 48 97 46 98
REMARK H PARENT 7 4 80 13 88 23 11 32 70 51 38 62
REMARK Flexibility Score: inf
ROOT
ATOM      1  C   UNL     1      -0.958  -0.134  -1.275  1.00  0.00     0.220 C 
ATOM      2  O   UNL     1      -2.121  -0.416  -1.545  1.00  0.00    -0.275 OA
ATOM      3  N   UNL     1      -0.541   1.071  -1.720  1.00  0.00    -0.356 N 
ATOM      4  H   UNL     1      -0.433   1.240  -2.683  1.00  0.00     0.163 HD
ENDROOT
BRANCH   1   5
ATOM      5  C   UNL     1      -0.065  -0.938  -0.337  1.00  0.00     0.107 C 
BRANCH   5   6
ATOM      6  C   UNL     1       1.207  -1.692  -0.758  1.00  0.00    -0.018 C 
ATOM      7  C   UNL     1       2.349  -0.656  -0.851  1.00  0.00     0.012 C 
ATOM      8  C   UNL     1       1.612  -2.635   0.419  1.00  0.00     0.012 C 
BRANCH   6   9
ATOM      9  C   UNL     1       1.121  -2.609  -1.997  1.00  0.00     0.107 C 
BRANCH   9  10
ATOM     10  C   UNL     1       0.109  -2.361  -3.082  1.00  0.00     0.224 C 
ATOM     11  O   UNL     1       0.466  -1.741  -4.094  1.00  0.00    -0.275 OA
ATOM     12  N   UNL     1      -1.173  -2.818  -3.070  1.00  0.00    -0.326 N 
ATOM     13  H   UNL     1      -1.514  -2.979  -3.980  1.00  0.00     0.169 HD
BRANCH  12  14
ATOM     14  C   UNL     1      -2.145  -3.121  -2.079  1.00  0.00     0.041 A 
ATOM     15  C   UNL     1      -3.464  -2.895  -2.519  1.00  0.00     0.026 A 
ATOM     16  C   UNL     1      -1.934  -3.350  -0.711  1.00  0.00     0.040 A 
ATOM     17  C   UNL     1      -4.498  -2.677  -1.611  1.00  0.00     0.003 A 
ATOM     18  C   UNL     1      -2.944  -3.002   0.219  1.00  0.00     0.041 A 
ATOM     19  C   UNL     1      -4.226  -2.679  -0.247  1.00  0.00     0.014 A 
BRANCH  18  20
ATOM     20  C   UNL     1      -2.839  -3.122   1.698  1.00  0.00     0.251 C 
ATOM     21  O   UNL     1      -3.352  -4.125   2.202  1.00  0.00    -0.269 OA
ATOM     22  N   UNL     1      -2.455  -2.102   2.559  1.00  0.00    -0.349 N 
ATOM     23  H   UNL     1      -3.059  -1.999   3.330  1.00  0.00     0.164 HD
BRANCH  22  24
ATOM     24  C   UNL     1      -1.368  -1.168   2.566  1.00  0.00     0.082 C 
ATOM     25  C   UNL     1      -1.415   0.294   2.214  1.00  0.00     0.027 C 
ATOM     26  C   UNL     1      -1.421  -0.089   3.645  1.00  0.00     0.027 C 
ENDBRANCH  22  24
ENDBRANCH  18  20
ENDBRANCH  12  14
ENDBRANCH   9  10
ENDBRANCH   6   9
ENDBRANCH   5   6
ENDBRANCH   1   5
BRANCH   3  27
ATOM     27  C   UNL     1      -0.257   2.101  -0.758  1.00  0.00     0.117 C 
BRANCH  27  28
ATOM     28  C   UNL     1       0.943   2.894  -1.171  1.00  0.00     0.042 C 
BRANCH  28  29
ATOM     29  C   UNL     1       0.531   3.881  -2.235  1.00  0.00     0.118 C 
BRANCH  29  30
ATOM     30  N   UNL     1      -0.175   5.016  -1.641  1.00  0.00    -0.352 N 
ATOM     31  C   UNL     1       0.326   6.256  -1.315  1.00  0.00     0.251 C 
ATOM     32  H   UNL     1      -1.131   4.875  -1.450  1.00  0.00     0.163 HD
ATOM     33  O   UNL     1      -0.258   6.992  -0.538  1.00  0.00    -0.269 OA
BRANCH  31  34
ATOM     34  C   UNL     1       1.609   6.653  -1.923  1.00  0.00     0.039 A 
ATOM     35  C   UNL     1       2.593   7.271  -1.154  1.00  0.00     0.014 A 
ATOM     36  C   UNL     1       1.851   6.312  -3.253  1.00  0.00     0.014 A 
ATOM     37  C   UNL     1       3.851   7.481  -1.716  1.00  0.00     0.010 A 
ATOM     38  C   UNL     1       3.144   6.336  -3.732  1.00  0.00     0.010 A 
ATOM     39  C   UNL     1       4.146   6.976  -2.994  1.00  0.00    -0.014 A 
BRANCH  39  40
ATOM     40  C   UNL     1       5.460   7.178  -3.642  1.00  0.00     0.031 A 
ATOM     41  C   UNL     1       5.508   7.882  -4.974  1.00  0.00     0.074 A 
ATOM     42  C   UNL     1       6.575   6.680  -3.076  1.00  0.00     0.049 A 
ATOM     43  N   UNL     1       6.524   8.072  -5.776  1.00  0.00    -0.248 NA
ATOM     44  C   UNL     1       4.231   8.396  -5.507  1.00  0.00     0.031 C 
ATOM     45  C   UNL     1       6.631   5.924  -1.822  1.00  0.00     0.029 A 
ATOM     46  N   UNL     1       7.882   6.736  -3.485  1.00  0.00    -0.354 N 
ATOM     47  C   UNL     1       5.998   8.698  -6.899  1.00  0.00     0.074 A 
ATOM     48  C   UNL     1       4.568   8.765  -6.731  1.00  0.00     0.031 C 
ATOM     49  C   UNL     1       7.911   5.631  -1.541  1.00  0.00     0.029 A 
ATOM     50  C   UNL     1       8.758   6.134  -2.616  1.00  0.00     0.049 A 
ATOM     51  H   UNL     1       8.166   7.167  -4.324  1.00  0.00     0.167 HD
ATOM     52  C   UNL     1       6.657   9.224  -7.956  1.00  0.00     0.037 A 
ATOM     53  C   UNL     1      10.096   6.007  -2.690  1.00  0.00     0.037 A 
ATOM     54  C   UNL     1       8.087   9.202  -8.084  1.00  0.00     0.049 A 
ATOM     55  C   UNL     1      10.805   6.603  -3.879  1.00  0.00     0.074 A 
ATOM     56  C   UNL     1       8.873   9.744  -9.082  1.00  0.00     0.029 A 
ATOM     57  N   UNL     1       8.944   8.612  -7.166  1.00  0.00    -0.354 N 
ATOM     58  N   UNL     1      10.305   7.253  -4.903  1.00  0.00    -0.248 NA
ATOM     59  C   UNL     1      12.265   6.455  -3.919  1.00  0.00     0.031 C 
ATOM     60  C   UNL     1      10.206   9.444  -8.790  1.00  0.00     0.029 A 
ATOM     61  C   UNL     1      10.253   8.766  -7.582  1.00  0.00     0.049 A 
ATOM     62  H   UNL     1       8.662   8.152  -6.342  1.00  0.00     0.167 HD
ATOM     63  C   UNL     1      11.389   7.624  -5.687  1.00  0.00     0.074 A 
ATOM     64  C   UNL     1      12.575   7.141  -5.009  1.00  0.00     0.031 C 
ATOM     65  C   UNL     1      11.409   8.296  -6.864  1.00  0.00     0.037 A 
BRANCH  52  66
ATOM     66  C   UNL     1       5.844   9.894  -9.025  1.00  0.00     0.064 A 
ATOM     67  C   UNL     1       5.157  11.095  -8.781  1.00  0.00     0.173 A 
ATOM     68  C   UNL     1       5.775   9.352 -10.316  1.00  0.00     0.173 A 
ATOM     69  F   UNL     1       5.171  11.646  -7.557  1.00  0.00    -0.203 F 
ATOM     70  C   UNL     1       4.412  11.712  -9.782  1.00  0.00     0.198 A 
ATOM     71  C   UNL     1       5.058   9.991 -11.324  1.00  0.00     0.198 A 
ATOM     72  F   UNL     1       6.409   8.206 -10.603  1.00  0.00    -0.203 F 
ATOM     73  F   UNL     1       3.722  12.829  -9.509  1.00  0.00    -0.200 F 
ATOM     74  C   UNL     1       4.373  11.166 -11.055  1.00  0.00     0.200 A 
ATOM     75  F   UNL     1       5.030   9.469 -12.558  1.00  0.00    -0.200 F 
ATOM     76  F   UNL     1       3.668  11.770 -12.022  1.00  0.00    -0.200 F 
ENDBRANCH  52  66
BRANCH  53  77
ATOM     77  C   UNL     1      10.856   5.323  -1.609  1.00  0.00     0.064 A 
ATOM     78  C   UNL     1      11.764   6.030  -0.808  1.00  0.00     0.173 A 
ATOM     79  C   UNL     1      10.721   3.946  -1.376  1.00  0.00     0.173 A 
ATOM     80  F   UNL     1      11.940   7.346  -0.997  1.00  0.00    -0.203 F 
ATOM     81  C   UNL     1      12.538   5.381   0.153  1.00  0.00     0.198 A 
ATOM     82  C   UNL     1      11.469   3.305  -0.390  1.00  0.00     0.198 A 
ATOM     83  F   UNL     1       9.858   3.222  -2.103  1.00  0.00    -0.203 F 
ATOM     84  F   UNL     1      13.446   6.072   0.856  1.00  0.00    -0.200 F 
ATOM     85  C   UNL     1      12.388   4.019   0.362  1.00  0.00     0.200 A 
ATOM     86  F   UNL     1      11.307   1.992  -0.178  1.00  0.00    -0.200 F 
ATOM     87  F   UNL     1      13.137   3.394   1.281  1.00  0.00    -0.200 F 
ENDBRANCH  53  77
BRANCH  65  88
ATOM     88  C   UNL     1      12.753   8.597  -7.459  1.00  0.00     0.064 A 
ATOM     89  C   UNL     1      13.554   7.592  -8.017  1.00  0.00     0.173 A 
ATOM     90  C   UNL     1      13.217   9.920  -7.515  1.00  0.00     0.173 A 
ATOM     91  F   UNL     1      13.157   6.311  -7.976  1.00  0.00    -0.203 F 
ATOM     92  C   UNL     1      14.787   7.896  -8.584  1.00  0.00     0.198 A 
ATOM     93  C   UNL     1      14.433  10.225  -8.116  1.00  0.00     0.198 A 
ATOM     94  F   UNL     1      12.481  10.919  -7.005  1.00  0.00    -0.203 F 
ATOM     95  F   UNL     1      15.562   6.913  -9.063  1.00  0.00    -0.200 F 
ATOM     96  C   UNL     1      15.221   9.213  -8.641  1.00  0.00     0.200 A 
ATOM     97  F   UNL     1      14.842  11.499  -8.189  1.00  0.00    -0.200 F 
ATOM     98  F   UNL     1      16.404   9.505  -9.199  1.00  0.00    -0.200 F 
ENDBRANCH  65  88
ENDBRANCH  39  40
ENDBRANCH  31  34
ENDBRANCH  29  30
ENDBRANCH  28  29
ENDBRANCH  27  28
ENDBRANCH   3  27
TORSDOF 16
