REMARK SMILES O=C(NCCCNC(=O)[C@H](Cc1ccc([N+](=O)[O-])cc1)c1ccccc1Br)c1ccc(-c2c3nc(c(-c4c(F)c(F)c(F)c(F)c4F)c4ccc([nH]4)c(-c4c(F)c(F)c(F)c(F)c4F)c4nc(c(-c5c(F)c(F)c(F)c(F)c5F)c5ccc2[nH]5)C=C4)C=C3)cc1
REMARK SMILES IDX 5 1 4 2 3 3 1 4 2 5 28 7 29 8 90 9 30 10 89 11 31 12 32 13
REMARK SMILES IDX 33 14 83 15 34 16 88 17 82 18 84 19 35 20 87 21 81 22 80 23
REMARK SMILES IDX 36 25 68 26 48 27 67 28 49 29 52 30 66 31 85 32 50 33 51 34
REMARK SMILES IDX 65 36 86 37 53 38 37 39 38 40 46 41 39 42 40 43 44 44 47 45
REMARK SMILES IDX 41 46 42 47 45 48 43 49 69 50 70 51 78 52 71 53 72 54 76 55
REMARK SMILES IDX 79 56 73 57 74 58 77 59 75 60 54 61 55 62 63 63 56 64 57 65
REMARK SMILES IDX 61 66 64 67 58 68 59 69 62 70 60 71 6 72 7 73 8 74 9 76
REMARK SMILES IDX 10 77 21 78 22 79 26 80 23 81 25 82 27 83 24 84 11 85 12 86
REMARK SMILES IDX 13 87 20 88 14 89 19 90 15 91 16 92 17 93 18 94
REMARK H PARENT 3 6 84 24 52 35 7 75
REMARK Flexibility Score: inf
ROOT
ATOM      1  C   UNL     1       8.092  -4.888   7.245  1.00  0.00     0.042 C 
ENDROOT
BRANCH   1   2
ATOM      2  C   UNL     1       9.602  -4.716   7.165  1.00  0.00     0.118 C 
BRANCH   2   3
ATOM      3  N   UNL     1      10.130  -4.044   8.342  1.00  0.00    -0.352 N 
ATOM      4  O   UNL     1      10.898  -3.881  10.450  1.00  0.00    -0.269 OA
ATOM      5  C   UNL     1      10.780  -4.564   9.429  1.00  0.00     0.251 C 
ATOM      6  H   UNL     1      10.001  -3.069   8.360  1.00  0.00     0.163 HD
BRANCH   5   7
ATOM      7  C   UNL     1      11.339  -5.931   9.399  1.00  0.00     0.039 A 
ATOM      8  C   UNL     1      12.028  -6.406   8.279  1.00  0.00     0.014 A 
ATOM      9  C   UNL     1      11.239  -6.726  10.545  1.00  0.00     0.014 A 
ATOM     10  C   UNL     1      12.520  -7.709   8.263  1.00  0.00     0.010 A 
ATOM     11  C   UNL     1      11.799  -8.005  10.555  1.00  0.00     0.010 A 
ATOM     12  C   UNL     1      12.428  -8.513   9.408  1.00  0.00    -0.014 A 
BRANCH  12  13
ATOM     13  C   UNL     1      13.047  -9.861   9.426  1.00  0.00     0.031 A 
ATOM     14  C   UNL     1      12.199 -11.091   9.560  1.00  0.00     0.074 A 
ATOM     15  C   UNL     1      14.387  -9.967   9.355  1.00  0.00     0.049 A 
ATOM     16  N   UNL     1      12.567 -12.341   9.687  1.00  0.00    -0.248 NA
ATOM     17  C   UNL     1      10.742 -10.889   9.564  1.00  0.00     0.031 C 
ATOM     18  C   UNL     1      15.314  -8.842   9.228  1.00  0.00     0.029 A 
ATOM     19  N   UNL     1      15.203 -11.069   9.391  1.00  0.00    -0.354 N 
ATOM     20  C   UNL     1      11.393 -13.071   9.810  1.00  0.00     0.074 A 
ATOM     21  C   UNL     1      10.300 -12.123   9.765  1.00  0.00     0.031 C 
ATOM     22  C   UNL     1      16.570  -9.310   9.186  1.00  0.00     0.029 A 
ATOM     23  C   UNL     1      16.540 -10.761   9.342  1.00  0.00     0.049 A 
ATOM     24  H   UNL     1      14.863 -11.991   9.448  1.00  0.00     0.167 HD
ATOM     25  C   UNL     1      11.246 -14.412   9.944  1.00  0.00     0.037 A 
ATOM     26  C   UNL     1      17.623 -11.553   9.442  1.00  0.00     0.037 A 
ATOM     27  C   UNL     1      12.340 -15.348   9.974  1.00  0.00     0.049 A 
ATOM     28  C   UNL     1      17.435 -13.032   9.617  1.00  0.00     0.074 A 
ATOM     29  C   UNL     1      12.293 -16.728  10.068  1.00  0.00     0.029 A 
ATOM     30  N   UNL     1      13.681 -14.997   9.916  1.00  0.00    -0.354 N 
ATOM     31  N   UNL     1      16.321 -13.716   9.705  1.00  0.00    -0.248 NA
ATOM     32  C   UNL     1      18.652 -13.849   9.709  1.00  0.00     0.031 C 
ATOM     33  C   UNL     1      13.606 -17.209  10.114  1.00  0.00     0.029 A 
ATOM     34  C   UNL     1      14.472 -16.133   9.996  1.00  0.00     0.049 A 
ATOM     35  H   UNL     1      14.021 -14.077   9.831  1.00  0.00     0.167 HD
ATOM     36  C   UNL     1      16.698 -15.045   9.836  1.00  0.00     0.074 A 
ATOM     37  C   UNL     1      18.147 -15.071   9.812  1.00  0.00     0.031 C 
ATOM     38  C   UNL     1      15.913 -16.142   9.961  1.00  0.00     0.037 A 
BRANCH  25  39
ATOM     39  C   UNL     1       9.849 -14.942  10.098  1.00  0.00     0.064 A 
ATOM     40  C   UNL     1       8.935 -14.943   9.034  1.00  0.00     0.173 A 
ATOM     41  C   UNL     1       9.426 -15.476  11.325  1.00  0.00     0.173 A 
ATOM     42  F   UNL     1       9.285 -14.433   7.843  1.00  0.00    -0.203 F 
ATOM     43  C   UNL     1       7.640 -15.427   9.202  1.00  0.00     0.198 A 
ATOM     44  C   UNL     1       8.140 -15.985  11.481  1.00  0.00     0.198 A 
ATOM     45  F   UNL     1      10.262 -15.506  12.374  1.00  0.00    -0.203 F 
ATOM     46  F   UNL     1       6.767 -15.367   8.186  1.00  0.00    -0.200 F 
ATOM     47  C   UNL     1       7.245 -15.952  10.423  1.00  0.00     0.200 A 
ATOM     48  F   UNL     1       7.763 -16.503  12.659  1.00  0.00    -0.200 F 
ATOM     49  F   UNL     1       5.998 -16.416  10.583  1.00  0.00    -0.200 F 
ENDBRANCH  25  39
BRANCH  26  50
ATOM     50  C   UNL     1      18.975 -10.944   9.382  1.00  0.00     0.064 A 
ATOM     51  C   UNL     1      19.793 -11.115   8.258  1.00  0.00     0.173 A 
ATOM     52  C   UNL     1      19.455 -10.136  10.424  1.00  0.00     0.173 A 
ATOM     53  F   UNL     1      19.383 -11.892   7.244  1.00  0.00    -0.203 F 
ATOM     54  C   UNL     1      21.042 -10.504   8.180  1.00  0.00     0.198 A 
ATOM     55  C   UNL     1      20.692  -9.505  10.334  1.00  0.00     0.198 A 
ATOM     56  F   UNL     1      18.704  -9.936  11.518  1.00  0.00    -0.203 F 
ATOM     57  F   UNL     1      21.816 -10.702   7.104  1.00  0.00    -0.200 F 
ATOM     58  C   UNL     1      21.487  -9.691   9.213  1.00  0.00     0.200 A 
ATOM     59  F   UNL     1      21.110  -8.707  11.326  1.00  0.00    -0.200 F 
ATOM     60  F   UNL     1      22.680  -9.089   9.128  1.00  0.00    -0.200 F 
ENDBRANCH  26  50
BRANCH  38  61
ATOM     61  C   UNL     1      16.599 -17.474  10.039  1.00  0.00     0.064 A 
ATOM     62  C   UNL     1      17.265 -17.892  11.199  1.00  0.00     0.173 A 
ATOM     63  C   UNL     1      16.537 -18.364   8.956  1.00  0.00     0.173 A 
ATOM     64  F   UNL     1      17.366 -17.070  12.254  1.00  0.00    -0.203 F 
ATOM     65  C   UNL     1      17.855 -19.151  11.268  1.00  0.00     0.198 A 
ATOM     66  C   UNL     1      17.106 -19.631   9.038  1.00  0.00     0.198 A 
ATOM     67  F   UNL     1      15.907 -18.010   7.826  1.00  0.00    -0.203 F 
ATOM     68  F   UNL     1      18.516 -19.520  12.374  1.00  0.00    -0.200 F 
ATOM     69  C   UNL     1      17.768 -20.022  10.192  1.00  0.00     0.200 A 
ATOM     70  F   UNL     1      17.011 -20.475   8.001  1.00  0.00    -0.200 F 
ATOM     71  F   UNL     1      18.326 -21.239  10.265  1.00  0.00    -0.200 F 
ENDBRANCH  38  61
ENDBRANCH  12  13
ENDBRANCH   5   7
ENDBRANCH   2   3
ENDBRANCH   1   2
BRANCH   1  72
ATOM     72  C   UNL     1       7.328  -3.574   7.128  1.00  0.00     0.117 C 
BRANCH  72  73
ATOM     73  N   UNL     1       7.587  -2.863   5.886  1.00  0.00    -0.355 N 
ATOM     74  C   UNL     1       7.028  -3.031   4.648  1.00  0.00     0.227 C 
ATOM     75  H   UNL     1       8.266  -2.154   5.945  1.00  0.00     0.163 HD
ATOM     76  O   UNL     1       7.358  -2.234   3.769  1.00  0.00    -0.274 OA
BRANCH  74  77
ATOM     77  C   UNL     1       6.033  -4.178   4.414  1.00  0.00     0.114 C 
BRANCH  77  78
ATOM     78  C   UNL     1       4.691  -3.969   5.122  1.00  0.00    -0.021 A 
ATOM     79  C   UNL     1       4.218  -2.669   5.382  1.00  0.00     0.006 A 
ATOM     80  C   UNL     1       3.951  -5.055   5.636  1.00  0.00     0.021 A 
ATOM     81  C   UNL     1       3.109  -2.458   6.205  1.00  0.00     0.000 A 
ATOM     82  C   UNL     1       2.834  -4.837   6.450  1.00  0.00     0.016 A 
ATOM     83  Br  UNL     1       4.419  -6.871   5.317  1.00  0.00    -0.051 Br
ATOM     84  C   UNL     1       2.428  -3.540   6.752  1.00  0.00     0.001 A 
ENDBRANCH  77  78
BRANCH  77  85
ATOM     85  C   UNL     1       5.892  -4.503   2.903  1.00  0.00     0.053 C 
BRANCH  85  86
ATOM     86  C   UNL     1       6.558  -5.796   2.434  1.00  0.00    -0.046 A 
ATOM     87  C   UNL     1       6.065  -6.418   1.273  1.00  0.00     0.011 A 
ATOM     88  C   UNL     1       7.649  -6.387   3.092  1.00  0.00     0.011 A 
ATOM     89  C   UNL     1       6.585  -7.640   0.832  1.00  0.00     0.086 A 
ATOM     90  C   UNL     1       8.157  -7.622   2.679  1.00  0.00     0.086 A 
ATOM     91  C   UNL     1       7.611  -8.252   1.558  1.00  0.00     0.269 A 
BRANCH  91  92
ATOM     92  N   UNL     1       8.114  -9.568   1.149  1.00  0.00     0.062 N 
ATOM     93  O   UNL     1       7.734 -10.018   0.059  1.00  0.00    -0.258 OA
ATOM     94  O   UNL     1       8.886 -10.153   1.922  1.00  0.00    -0.258 OA
ENDBRANCH  91  92
ENDBRANCH  85  86
ENDBRANCH  77  85
ENDBRANCH  74  77
ENDBRANCH  72  73
ENDBRANCH   1  72
TORSDOF 14
