REMARK SMILES CC(C)CN(CC(N)=O)C(=O)N1CC[C@H](C(=O)NCCCNC(=O)c2ccc(-c3c4nc(c(-c5c(F)c(F)c(F)c(F)c5F)c5ccc([nH]5)c(-c5c(F)c(F)c(F)c(F)c5F)c5nc(c(-c6c(F)c(F)c(F)c(F)c6F)c6ccc3[nH]6)C=C5)C=C4)cc2)[C@@H]1C
REMARK SMILES IDX 19 1 18 2 16 3 17 4 15 6 12 7 13 8 88 9 14 10 89 11 10 12
REMARK SMILES IDX 11 13 5 14 4 15 2 16 1 17 3 18 6 19 7 20 8 21 9 22 20 25
REMARK SMILES IDX 21 26 22 27 23 28 24 30 25 31 26 32 87 33 27 34 86 35 28 36
REMARK SMILES IDX 29 37 30 38 80 39 31 40 85 41 79 42 81 43 32 44 84 45 78 46
REMARK SMILES IDX 77 47 33 49 65 50 45 51 64 52 46 53 49 54 63 55 82 56 47 57
REMARK SMILES IDX 48 58 62 60 83 61 50 62 34 63 35 64 43 65 36 66 37 67 41 68
REMARK SMILES IDX 44 69 38 70 39 71 42 72 40 73 66 74 67 75 75 76 68 77 69 78
REMARK SMILES IDX 73 79 76 80 70 81 71 82 74 83 72 84 51 85 52 86 60 87 53 88
REMARK SMILES IDX 54 89 58 90 61 91 55 92 56 93 59 94 57 95
REMARK H PARENT 18 5 8 23 8 24 22 29 81 48 49 59
REMARK Flexibility Score: inf
ROOT
ATOM      1  C   UNL     1      -5.758   4.482   0.207  1.00  0.00     0.117 C 
ENDROOT
BRANCH   1   2
ATOM      2  N   UNL     1      -4.703   5.465   0.371  1.00  0.00    -0.356 N 
ATOM      3  C   UNL     1      -3.415   5.526  -0.064  1.00  0.00     0.225 C 
ATOM      4  O   UNL     1      -2.720   6.372   0.509  1.00  0.00    -0.275 OA
ATOM      5  H   UNL     1      -4.974   6.246   0.906  1.00  0.00     0.163 HD
BRANCH   3   6
ATOM      6  C   UNL     1      -2.889   4.753  -1.287  1.00  0.00     0.102 C 
ATOM      7  N   UNL     1      -1.234   2.988  -1.286  1.00  0.00    -0.321 N 
ATOM      8  C   UNL     1      -0.559   4.233  -0.996  1.00  0.00     0.122 C 
ATOM      9  C   UNL     1      -2.682   3.210  -1.289  1.00  0.00     0.096 C 
ATOM     10  C   UNL     1      -1.466   5.262  -1.643  1.00  0.00     0.037 C 
ATOM     11  C   UNL     1      -3.324   2.417  -0.172  1.00  0.00     0.032 C 
BRANCH   7  12
ATOM     12  C   UNL     1      -0.643   1.797  -0.922  1.00  0.00     0.320 C 
ATOM     13  O   UNL     1       0.177   1.794  -0.004  1.00  0.00    -0.248 OA
BRANCH  12  14
ATOM     14  N   UNL     1      -1.043   0.638  -1.569  1.00  0.00    -0.315 N 
BRANCH  14  15
ATOM     15  C   UNL     1      -0.726  -0.651  -0.941  1.00  0.00     0.125 C 
BRANCH  15  16
ATOM     16  C   UNL     1       0.690  -1.195  -1.236  1.00  0.00     0.002 C 
ATOM     17  C   UNL     1       1.769  -0.558  -0.356  1.00  0.00     0.009 C 
ATOM     18  C   UNL     1       0.712  -2.711  -1.010  1.00  0.00     0.009 C 
ENDBRANCH  15  16
ENDBRANCH  14  15
BRANCH  14  19
ATOM     19  C   UNL     1      -1.776   0.583  -2.842  1.00  0.00     0.221 C 
BRANCH  19  20
ATOM     20  C   UNL     1      -3.283   0.282  -2.692  1.00  0.00     0.237 C 
ATOM     21  N   UNL     1      -4.114   0.932  -3.564  1.00  0.00    -0.368 N 
ATOM     22  O   UNL     1      -3.764  -0.497  -1.875  1.00  0.00    -0.273 OA
ATOM     23  H   UNL     1      -3.742   1.560  -4.224  1.00  0.00     0.159 HD
ATOM     24  H   UNL     1      -5.085   0.770  -3.531  1.00  0.00     0.159 HD
ENDBRANCH  19  20
ENDBRANCH  14  19
ENDBRANCH  12  14
ENDBRANCH   7  12
ENDBRANCH   3   6
ENDBRANCH   1   2
BRANCH   1  25
ATOM     25  C   UNL     1      -5.762   3.517   1.401  1.00  0.00     0.042 C 
BRANCH  25  26
ATOM     26  C   UNL     1      -6.451   4.043   2.649  1.00  0.00     0.118 C 
BRANCH  26  27
ATOM     27  N   UNL     1      -7.824   3.586   2.725  1.00  0.00    -0.352 N 
ATOM     28  C   UNL     1      -8.397   2.624   3.524  1.00  0.00     0.251 C 
ATOM     29  H   UNL     1      -8.446   4.034   2.107  1.00  0.00     0.163 HD
ATOM     30  O   UNL     1      -9.511   2.201   3.227  1.00  0.00    -0.269 OA
BRANCH  28  31
ATOM     31  C   UNL     1      -7.714   2.089   4.733  1.00  0.00     0.039 A 
ATOM     32  C   UNL     1      -7.973   0.767   5.117  1.00  0.00     0.014 A 
ATOM     33  C   UNL     1      -6.911   2.887   5.551  1.00  0.00     0.014 A 
ATOM     34  C   UNL     1      -7.422   0.250   6.297  1.00  0.00     0.010 A 
ATOM     35  C   UNL     1      -6.287   2.345   6.676  1.00  0.00     0.010 A 
ATOM     36  C   UNL     1      -6.565   1.032   7.083  1.00  0.00    -0.014 A 
BRANCH  36  37
ATOM     37  C   UNL     1      -6.021   0.539   8.378  1.00  0.00     0.031 A 
ATOM     38  C   UNL     1      -6.401   1.238   9.659  1.00  0.00     0.074 A 
ATOM     39  C   UNL     1      -5.156  -0.493   8.409  1.00  0.00     0.049 A 
ATOM     40  N   UNL     1      -5.951   1.054  10.876  1.00  0.00    -0.248 NA
ATOM     41  C   UNL     1      -7.403   2.312   9.553  1.00  0.00     0.031 C 
ATOM     42  C   UNL     1      -4.685  -1.239   7.243  1.00  0.00     0.029 A 
ATOM     43  N   UNL     1      -4.508  -1.085   9.466  1.00  0.00    -0.354 N 
ATOM     44  C   UNL     1      -6.588   2.004  11.665  1.00  0.00     0.074 A 
ATOM     45  C   UNL     1      -7.420   2.795  10.786  1.00  0.00     0.031 C 
ATOM     46  C   UNL     1      -3.837  -2.199   7.648  1.00  0.00     0.029 A 
ATOM     47  C   UNL     1      -3.675  -2.113   9.097  1.00  0.00     0.049 A 
ATOM     48  H   UNL     1      -4.629  -0.799  10.400  1.00  0.00     0.167 HD
ATOM     49  C   UNL     1      -6.508   2.186  13.005  1.00  0.00     0.037 A 
ATOM     50  C   UNL     1      -2.865  -2.889   9.843  1.00  0.00     0.037 A 
ATOM     51  C   UNL     1      -5.720   1.368  13.887  1.00  0.00     0.049 A 
ATOM     52  C   UNL     1      -2.806  -2.676  11.332  1.00  0.00     0.074 A 
ATOM     53  C   UNL     1      -5.603   1.445  15.264  1.00  0.00     0.029 A 
ATOM     54  N   UNL     1      -4.923   0.310  13.475  1.00  0.00    -0.354 N 
ATOM     55  N   UNL     1      -3.441  -1.796  12.069  1.00  0.00    -0.248 NA
ATOM     56  C   UNL     1      -1.923  -3.569  12.096  1.00  0.00     0.031 C 
ATOM     57  C   UNL     1      -4.716   0.449  15.684  1.00  0.00     0.029 A 
ATOM     58  C   UNL     1      -4.311  -0.273  14.572  1.00  0.00     0.049 A 
ATOM     59  H   UNL     1      -4.810   0.017  12.542  1.00  0.00     0.167 HD
ATOM     60  C   UNL     1      -3.060  -2.050  13.380  1.00  0.00     0.074 A 
ATOM     61  C   UNL     1      -2.148  -3.174  13.341  1.00  0.00     0.031 C 
ATOM     62  C   UNL     1      -3.430  -1.409  14.515  1.00  0.00     0.037 A 
BRANCH  49  63
ATOM     63  C   UNL     1      -7.308   3.306  13.605  1.00  0.00     0.064 A 
ATOM     64  C   UNL     1      -8.707   3.240  13.696  1.00  0.00     0.173 A 
ATOM     65  C   UNL     1      -6.669   4.436  14.137  1.00  0.00     0.173 A 
ATOM     66  F   UNL     1      -9.367   2.187  13.191  1.00  0.00    -0.203 F 
ATOM     67  C   UNL     1      -9.437   4.275  14.274  1.00  0.00     0.198 A 
ATOM     68  C   UNL     1      -7.400   5.455  14.741  1.00  0.00     0.198 A 
ATOM     69  F   UNL     1      -5.333   4.546  14.083  1.00  0.00    -0.203 F 
ATOM     70  F   UNL     1     -10.775   4.210  14.309  1.00  0.00    -0.200 F 
ATOM     71  C   UNL     1      -8.783   5.378  14.803  1.00  0.00     0.200 A 
ATOM     72  F   UNL     1      -6.766   6.515  15.263  1.00  0.00    -0.200 F 
ATOM     73  F   UNL     1      -9.487   6.368  15.368  1.00  0.00    -0.200 F 
ENDBRANCH  49  63
BRANCH  50  74
ATOM     74  C   UNL     1      -2.058  -3.961   9.202  1.00  0.00     0.064 A 
ATOM     75  C   UNL     1      -2.354  -5.313   9.426  1.00  0.00     0.173 A 
ATOM     76  C   UNL     1      -0.965  -3.661   8.377  1.00  0.00     0.173 A 
ATOM     77  F   UNL     1      -3.375  -5.651  10.228  1.00  0.00    -0.203 F 
ATOM     78  C   UNL     1      -1.572  -6.324   8.870  1.00  0.00     0.198 A 
ATOM     79  C   UNL     1      -0.201  -4.673   7.798  1.00  0.00     0.198 A 
ATOM     80  F   UNL     1      -0.640  -2.383   8.130  1.00  0.00    -0.203 F 
ATOM     81  F   UNL     1      -1.845  -7.607   9.145  1.00  0.00    -0.200 F 
ATOM     82  C   UNL     1      -0.499  -6.003   8.053  1.00  0.00     0.200 A 
ATOM     83  F   UNL     1       0.830  -4.359   7.002  1.00  0.00    -0.200 F 
ATOM     84  F   UNL     1       0.255  -6.975   7.522  1.00  0.00    -0.200 F 
ENDBRANCH  50  74
BRANCH  62  85
ATOM     85  C   UNL     1      -2.894  -1.939  15.811  1.00  0.00     0.064 A 
ATOM     86  C   UNL     1      -1.559  -1.743  16.191  1.00  0.00     0.173 A 
ATOM     87  C   UNL     1      -3.743  -2.609  16.705  1.00  0.00     0.173 A 
ATOM     88  F   UNL     1      -0.707  -1.120  15.364  1.00  0.00    -0.203 F 
ATOM     89  C   UNL     1      -1.087  -2.221  17.410  1.00  0.00     0.198 A 
ATOM     90  C   UNL     1      -3.274  -3.062  17.934  1.00  0.00     0.198 A 
ATOM     91  F   UNL     1      -5.031  -2.814  16.390  1.00  0.00    -0.203 F 
ATOM     92  F   UNL     1       0.203  -2.060  17.736  1.00  0.00    -0.200 F 
ATOM     93  C   UNL     1      -1.946  -2.873  18.283  1.00  0.00     0.200 A 
ATOM     94  F   UNL     1      -4.108  -3.681  18.782  1.00  0.00    -0.200 F 
ATOM     95  F   UNL     1      -1.490  -3.325  19.460  1.00  0.00    -0.200 F 
ENDBRANCH  62  85
ENDBRANCH  36  37
ENDBRANCH  28  31
ENDBRANCH  26  27
ENDBRANCH  25  26
ENDBRANCH   1  25
TORSDOF 16
