REMARK SMILES O=C(NCCCNC(=O)c1sccc1S(=O)(=O)Nc1ccc(Cn2cncn2)cc1)c1ccc(-c2c3nc(c(-c4c(F)c(F)c(F)c(F)c4F)c4ccc([nH]4)c(-c4c(F)c(F)c(F)c(F)c4F)c4nc(c(-c5c(F)c(F)c(F)c(F)c5F)c5ccc2[nH]5)C=C4)C=C3)cc1
REMARK SMILES IDX 7 1 8 2 9 3 6 5 5 6 4 7 3 8 1 9 2 10 31 12 32 13 93 14 33 15
REMARK SMILES IDX 92 16 34 17 35 18 36 19 86 20 37 21 91 22 85 23 87 24 38 25
REMARK SMILES IDX 90 26 84 27 83 28 39 30 71 31 51 32 70 33 52 34 55 35 69 36
REMARK SMILES IDX 88 37 53 38 54 39 68 41 89 42 56 43 40 44 41 45 49 46 42 47
REMARK SMILES IDX 43 48 47 49 50 50 44 51 45 52 48 53 46 54 72 55 73 56 81 57
REMARK SMILES IDX 74 58 75 59 79 60 82 61 76 62 77 63 80 64 78 65 57 66 58 67
REMARK SMILES IDX 66 68 59 69 60 70 64 71 67 72 61 73 62 74 65 75 63 76 10 77
REMARK SMILES IDX 11 78 14 79 12 80 13 81 15 82 16 83 17 84 18 85 19 87 20 88
REMARK SMILES IDX 30 89 21 90 29 91 22 92 23 93 24 94 25 95 28 96 26 97 27 98
REMARK H PARENT 7 4 3 11 87 29 55 40 18 86
REMARK Flexibility Score: inf
ROOT
ATOM      1  N   UNL     1       5.724   1.966  -3.005  1.00  0.00    -0.351 N 
ATOM      2  C   UNL     1       6.474   2.576  -3.967  1.00  0.00     0.262 C 
ATOM      3  O   UNL     1       7.295   3.404  -3.565  1.00  0.00    -0.268 OA
ATOM      4  H   UNL     1       5.802   2.366  -2.108  1.00  0.00     0.163 HD
ENDROOT
BRANCH   1   5
ATOM      5  C   UNL     1       4.832   0.832  -3.084  1.00  0.00     0.118 C 
BRANCH   5   6
ATOM      6  C   UNL     1       5.008  -0.081  -1.880  1.00  0.00     0.042 C 
BRANCH   6   7
ATOM      7  C   UNL     1       4.650   0.565  -0.534  1.00  0.00     0.118 C 
BRANCH   7   8
ATOM      8  N   UNL     1       3.249   0.886  -0.359  1.00  0.00    -0.352 N 
ATOM      9  O   UNL     1       1.138   0.803   0.292  1.00  0.00    -0.269 OA
ATOM     10  C   UNL     1       2.159   0.160   0.041  1.00  0.00     0.251 C 
ATOM     11  H   UNL     1       3.035   1.823  -0.572  1.00  0.00     0.163 HD
BRANCH  10  12
ATOM     12  C   UNL     1       2.112  -1.326   0.109  1.00  0.00     0.039 A 
ATOM     13  C   UNL     1       3.202  -2.175  -0.080  1.00  0.00     0.014 A 
ATOM     14  C   UNL     1       0.844  -1.900   0.310  1.00  0.00     0.014 A 
ATOM     15  C   UNL     1       3.021  -3.541  -0.222  1.00  0.00     0.010 A 
ATOM     16  C   UNL     1       0.661  -3.275   0.226  1.00  0.00     0.010 A 
ATOM     17  C   UNL     1       1.746  -4.088  -0.093  1.00  0.00    -0.014 A 
BRANCH  17  18
ATOM     18  C   UNL     1       1.639  -5.540  -0.160  1.00  0.00     0.031 A 
ATOM     19  C   UNL     1       2.385  -6.277   0.904  1.00  0.00     0.074 A 
ATOM     20  C   UNL     1       0.827  -6.173  -1.028  1.00  0.00     0.049 A 
ATOM     21  N   UNL     1       3.246  -7.236   0.780  1.00  0.00    -0.248 NA
ATOM     22  C   UNL     1       2.202  -5.817   2.292  1.00  0.00     0.031 C 
ATOM     23  C   UNL     1      -0.166  -5.580  -1.926  1.00  0.00     0.029 A 
ATOM     24  N   UNL     1       0.641  -7.512  -1.198  1.00  0.00    -0.354 N 
ATOM     25  C   UNL     1       3.599  -7.609   2.078  1.00  0.00     0.074 A 
ATOM     26  C   UNL     1       3.021  -6.629   2.958  1.00  0.00     0.031 C 
ATOM     27  C   UNL     1      -1.000  -6.550  -2.363  1.00  0.00     0.029 A 
ATOM     28  C   UNL     1      -0.523  -7.835  -1.878  1.00  0.00     0.049 A 
ATOM     29  H   UNL     1       1.276  -8.188  -0.869  1.00  0.00     0.167 HD
ATOM     30  C   UNL     1       4.176  -8.812   2.350  1.00  0.00     0.037 A 
ATOM     31  C   UNL     1      -1.100  -9.059  -1.955  1.00  0.00     0.037 A 
ATOM     32  C   UNL     1       4.838  -9.351   1.192  1.00  0.00     0.049 A 
ATOM     33  C   UNL     1      -0.075 -10.070  -1.599  1.00  0.00     0.074 A 
ATOM     34  C   UNL     1       5.881  -8.937   0.386  1.00  0.00     0.029 A 
ATOM     35  N   UNL     1       4.239 -10.379   0.508  1.00  0.00    -0.354 N 
ATOM     36  N   UNL     1       0.957 -10.361  -2.339  1.00  0.00    -0.248 NA
ATOM     37  C   UNL     1       0.021 -10.474  -0.204  1.00  0.00     0.031 C 
ATOM     38  C   UNL     1       5.538  -9.386  -0.924  1.00  0.00     0.029 A 
ATOM     39  C   UNL     1       4.330 -10.073  -0.823  1.00  0.00     0.049 A 
ATOM     40  H   UNL     1       3.825 -11.181   0.899  1.00  0.00     0.167 HD
ATOM     41  C   UNL     1       1.983 -10.590  -1.435  1.00  0.00     0.074 A 
ATOM     42  C   UNL     1       1.326 -10.746  -0.141  1.00  0.00     0.031 C 
ATOM     43  C   UNL     1       3.284 -10.355  -1.774  1.00  0.00     0.037 A 
BRANCH  30  44
ATOM     44  C   UNL     1       3.820  -9.668   3.549  1.00  0.00     0.064 A 
ATOM     45  C   UNL     1       4.489 -10.898   3.733  1.00  0.00     0.173 A 
ATOM     46  C   UNL     1       2.648  -9.500   4.319  1.00  0.00     0.173 A 
ATOM     47  F   UNL     1       5.620 -11.169   3.064  1.00  0.00    -0.203 F 
ATOM     48  C   UNL     1       3.955 -11.921   4.521  1.00  0.00     0.198 A 
ATOM     49  C   UNL     1       2.146 -10.505   5.144  1.00  0.00     0.198 A 
ATOM     50  F   UNL     1       1.881  -8.409   4.229  1.00  0.00    -0.203 F 
ATOM     51  F   UNL     1       4.549 -13.122   4.542  1.00  0.00    -0.200 F 
ATOM     52  C   UNL     1       2.775 -11.730   5.213  1.00  0.00     0.200 A 
ATOM     53  F   UNL     1       0.997 -10.302   5.803  1.00  0.00    -0.200 F 
ATOM     54  F   UNL     1       2.218 -12.733   5.903  1.00  0.00    -0.200 F 
ENDBRANCH  30  44
BRANCH  31  55
ATOM     55  C   UNL     1      -2.545  -9.379  -2.002  1.00  0.00     0.064 A 
ATOM     56  C   UNL     1      -2.996 -10.639  -2.425  1.00  0.00     0.173 A 
ATOM     57  C   UNL     1      -3.497  -8.547  -1.381  1.00  0.00     0.173 A 
ATOM     58  F   UNL     1      -2.141 -11.511  -2.978  1.00  0.00    -0.203 F 
ATOM     59  C   UNL     1      -4.319 -11.048  -2.224  1.00  0.00     0.198 A 
ATOM     60  C   UNL     1      -4.818  -8.951  -1.190  1.00  0.00     0.198 A 
ATOM     61  F   UNL     1      -3.143  -7.364  -0.859  1.00  0.00    -0.203 F 
ATOM     62  F   UNL     1      -4.699 -12.281  -2.585  1.00  0.00    -0.200 F 
ATOM     63  C   UNL     1      -5.226 -10.207  -1.600  1.00  0.00     0.200 A 
ATOM     64  F   UNL     1      -5.675  -8.142  -0.551  1.00  0.00    -0.200 F 
ATOM     65  F   UNL     1      -6.477 -10.619  -1.356  1.00  0.00    -0.200 F 
ENDBRANCH  31  55
BRANCH  43  66
ATOM     66  C   UNL     1       3.596 -10.107  -3.220  1.00  0.00     0.064 A 
ATOM     67  C   UNL     1       3.104  -9.009  -3.946  1.00  0.00     0.173 A 
ATOM     68  C   UNL     1       4.539 -10.929  -3.850  1.00  0.00     0.173 A 
ATOM     69  F   UNL     1       2.285  -8.116  -3.377  1.00  0.00    -0.203 F 
ATOM     70  C   UNL     1       3.501  -8.778  -5.262  1.00  0.00     0.198 A 
ATOM     71  C   UNL     1       4.963 -10.674  -5.151  1.00  0.00     0.198 A 
ATOM     72  F   UNL     1       5.090 -11.955  -3.182  1.00  0.00    -0.203 F 
ATOM     73  F   UNL     1       3.008  -7.730  -5.938  1.00  0.00    -0.200 F 
ATOM     74  C   UNL     1       4.435  -9.606  -5.860  1.00  0.00     0.200 A 
ATOM     75  F   UNL     1       5.907 -11.446  -5.707  1.00  0.00    -0.200 F 
ATOM     76  F   UNL     1       4.851  -9.359  -7.110  1.00  0.00    -0.200 F 
ENDBRANCH  43  66
ENDBRANCH  17  18
ENDBRANCH  10  12
ENDBRANCH   7   8
ENDBRANCH   6   7
ENDBRANCH   5   6
ENDBRANCH   1   5
BRANCH   2  77
ATOM     77  C   UNL     1       6.335   2.194  -5.350  1.00  0.00     0.112 A 
ATOM     78  S   UNL     1       7.826   1.790  -6.129  1.00  0.00    -0.137 S 
ATOM     79  C   UNL     1       5.273   2.122  -6.236  1.00  0.00     0.111 A 
ATOM     80  C   UNL     1       7.056   1.426  -7.598  1.00  0.00     0.067 A 
ATOM     81  C   UNL     1       5.700   1.633  -7.523  1.00  0.00     0.035 A 
BRANCH  79  82
ATOM     82  S   UNL     1       3.595   2.533  -6.034  1.00  0.00     0.263 S 
ATOM     83  O   UNL     1       3.352   3.467  -7.100  1.00  0.00    -0.201 OA
ATOM     84  O   UNL     1       2.960   1.221  -6.035  1.00  0.00    -0.201 OA
BRANCH  82  85
ATOM     85  N   UNL     1       3.113   3.230  -4.613  1.00  0.00    -0.280 N 
ATOM     86  H   UNL     1       2.301   2.862  -4.193  1.00  0.00     0.180 HD
BRANCH  85  87
ATOM     87  C   UNL     1       3.746   4.297  -3.942  1.00  0.00     0.049 A 
ATOM     88  C   UNL     1       3.585   4.301  -2.554  1.00  0.00     0.027 A 
ATOM     89  C   UNL     1       4.630   5.183  -4.544  1.00  0.00     0.027 A 
ATOM     90  C   UNL     1       4.475   5.011  -1.754  1.00  0.00     0.008 A 
ATOM     91  C   UNL     1       5.503   5.923  -3.741  1.00  0.00     0.008 A 
ATOM     92  C   UNL     1       5.492   5.771  -2.344  1.00  0.00    -0.026 A 
BRANCH  92  93
ATOM     93  C   UNL     1       6.647   6.287  -1.519  1.00  0.00     0.181 C 
BRANCH  93  94
ATOM     94  N   UNL     1       6.280   7.386  -0.652  1.00  0.00    -0.249 N 
ATOM     95  C   UNL     1       5.631   7.322   0.543  1.00  0.00     0.220 A 
ATOM     96  N   UNL     1       6.715   8.637  -0.895  1.00  0.00    -0.160 NA
ATOM     97  N   UNL     1       5.590   8.515   1.087  1.00  0.00    -0.224 NA
ATOM     98  C   UNL     1       6.262   9.285   0.181  1.00  0.00     0.246 A 
ENDBRANCH  93  94
ENDBRANCH  92  93
ENDBRANCH  85  87
ENDBRANCH  82  85
ENDBRANCH  79  82
ENDBRANCH   2  77
TORSDOF 15
