REMARK SMILES Cc1coc2c(C)c3oc(=O)c(CCC(=O)N[C@H](CC(C)C)C(=O)NCCCNC(=O)c4ccc(-c5c6nc(c(-c7c(F)c(F)c(F)c(F)c7F)c7ccc([nH]7)c(-c7c(F)c(F)c(F)c(F)c7F)c7nc(c(-c8c(F)c(F)c(F)c(F)c8F)c8ccc5[nH]8)C=C7)C=C6)cc4)c(C)c3cc12
REMARK SMILES IDX 26 1 25 2 23 3 24 4 18 6 17 7 15 8 16 9 14 11 13 12 12 13
REMARK SMILES IDX 1 14 2 15 3 16 99 17 4 18 5 19 98 20 6 21 97 22 7 23 8 24
REMARK SMILES IDX 95 25 9 26 96 27 10 28 11 29 19 30 20 31 21 32 22 33 27 34
REMARK SMILES IDX 28 35 29 36 30 37 31 39 32 40 33 41 94 42 34 43 93 44 35 45
REMARK SMILES IDX 36 46 37 47 87 48 38 49 92 50 86 51 88 52 39 53 91 54 85 55
REMARK SMILES IDX 84 56 40 58 72 59 52 60 71 61 53 62 56 63 70 64 89 65 54 66
REMARK SMILES IDX 55 67 69 69 90 70 57 71 41 72 42 73 50 74 43 75 44 76 48 77
REMARK SMILES IDX 51 78 45 79 46 80 49 81 47 82 73 83 74 84 82 85 75 86 76 87
REMARK SMILES IDX 80 88 83 89 77 90 78 91 81 92 79 93 58 94 59 95 67 96 60 97
REMARK SMILES IDX 61 98 65 99 68 100 62 101 63 102 66 103 64 104
REMARK H PARENT 25 5 17 10 29 38 88 57 56 68
REMARK Flexibility Score: inf
ROOT
ATOM      1  C   UNL     1       2.962   1.950   1.742  1.00  0.00     0.117 C 
ENDROOT
BRANCH   1   2
ATOM      2  N   UNL     1       2.762   2.837   3.118  1.00  0.00    -0.354 N 
ATOM      3  C   UNL     1       1.549   3.604   4.407  1.00  0.00     0.242 C 
ATOM      4  O   UNL     1       1.904   4.269   5.444  1.00  0.00    -0.273 OA
ATOM      5  H   UNL     1       3.667   3.088   3.413  1.00  0.00     0.163 HD
BRANCH   3   6
ATOM      6  C   UNL     1      -0.217   3.589   4.577  1.00  0.00     0.171 C 
BRANCH   6   7
ATOM      7  N   UNL     1      -1.164   2.454   4.588  1.00  0.00    -0.344 N 
ATOM      8  C   UNL     1      -1.129   1.254   5.233  1.00  0.00     0.220 C 
ATOM      9  O   UNL     1      -2.127   0.535   5.159  1.00  0.00    -0.275 OA
ATOM     10  H   UNL     1      -1.963   2.590   4.029  1.00  0.00     0.164 HD
BRANCH   8  11
ATOM     11  C   UNL     1       0.130   0.771   5.926  1.00  0.00     0.105 C 
BRANCH  11  12
ATOM     12  C   UNL     1       1.214   0.325   4.942  1.00  0.00     0.053 C 
BRANCH  12  13
ATOM     13  C   UNL     1       1.647   1.516   4.153  1.00  0.00     0.042 A 
ATOM     14  C   UNL     1       0.018   6.223  -1.493  1.00  0.00     0.048 C 
ATOM     15  C   UNL     1       0.985   6.529  -0.410  1.00  0.00    -0.005 A 
ATOM     16  C   UNL     1       1.706   7.691  -0.264  1.00  0.00     0.199 A 
ATOM     17  C   UNL     1       1.319   5.699   0.718  1.00  0.00     0.024 A 
ATOM     18  O   UNL     1       2.487   7.643   0.834  1.00  0.00    -0.464 OA
ATOM     19  C   UNL     1       2.290   6.438   1.454  1.00  0.00     0.140 A 
ATOM     20  C   UNL     1       0.804   4.407   1.091  1.00  0.00     0.024 A 
ATOM     21  C   UNL     1       3.014   6.104   2.623  1.00  0.00     0.036 A 
ATOM     22  C   UNL     1       1.285   3.898   2.261  1.00  0.00     0.022 A 
ATOM     23  C   UNL     1       3.960   6.968   3.364  1.00  0.00     0.052 C 
ATOM     24  C   UNL     1       2.559   4.870   2.993  1.00  0.00     0.145 A 
ATOM     25  C   UNL     1       0.841   2.155   2.924  1.00  0.00    -0.030 A 
ATOM     26  O   UNL     1       3.553   4.011   4.293  1.00  0.00    -0.422 OA
ATOM     27  C   UNL     1      -0.213   1.409   2.127  1.00  0.00     0.046 C 
ATOM     28  C   UNL     1       3.191   2.370   4.988  1.00  0.00     0.339 A 
ATOM     29  O   UNL     1       3.952   1.848   5.803  1.00  0.00    -0.246 OA
ENDBRANCH  12  13
ENDBRANCH  11  12
ENDBRANCH   8  11
ENDBRANCH   6   7
BRANCH   6  30
ATOM     30  C   UNL     1      -0.854   4.936   4.039  1.00  0.00     0.038 C 
BRANCH  30  31
ATOM     31  C   UNL     1      -1.987   4.833   2.981  1.00  0.00    -0.015 C 
ATOM     32  C   UNL     1      -3.358   4.926   3.656  1.00  0.00     0.007 C 
ATOM     33  C   UNL     1      -1.925   5.921   1.897  1.00  0.00     0.007 C 
ENDBRANCH  30  31
ENDBRANCH   6  30
ENDBRANCH   3   6
ENDBRANCH   1   2
BRANCH   1  34
ATOM     34  C   UNL     1       3.769   2.696   0.668  1.00  0.00     0.042 C 
BRANCH  34  35
ATOM     35  C   UNL     1       5.176   2.163   0.610  1.00  0.00     0.118 C 
BRANCH  35  36
ATOM     36  N   UNL     1       5.210   0.762   0.190  1.00  0.00    -0.352 N 
ATOM     37  C   UNL     1       6.304  -0.075   0.203  1.00  0.00     0.251 C 
ATOM     38  H   UNL     1       4.364   0.378  -0.136  1.00  0.00     0.163 HD
ATOM     39  O   UNL     1       6.324  -1.129  -0.416  1.00  0.00    -0.269 OA
BRANCH  37  40
ATOM     40  C   UNL     1       7.469   0.389   0.965  1.00  0.00     0.039 A 
ATOM     41  C   UNL     1       8.658   0.646   0.293  1.00  0.00     0.014 A 
ATOM     42  C   UNL     1       7.258   0.807   2.280  1.00  0.00     0.014 A 
ATOM     43  C   UNL     1       9.598   1.442   0.927  1.00  0.00     0.010 A 
ATOM     44  C   UNL     1       8.124   1.724   2.837  1.00  0.00     0.010 A 
ATOM     45  C   UNL     1       9.300   2.044   2.172  1.00  0.00    -0.014 A 
BRANCH  45  46
ATOM     46  C   UNL     1      10.180   3.109   2.659  1.00  0.00     0.031 A 
ATOM     47  C   UNL     1      10.612   4.051   1.593  1.00  0.00     0.074 A 
ATOM     48  C   UNL     1      10.569   3.309   3.938  1.00  0.00     0.049 A 
ATOM     49  N   UNL     1      11.722   3.973   0.939  1.00  0.00    -0.248 NA
ATOM     50  C   UNL     1       9.680   5.055   1.057  1.00  0.00     0.031 C 
ATOM     51  C   UNL     1      10.023   2.715   5.160  1.00  0.00     0.029 A 
ATOM     52  N   UNL     1      11.543   4.144   4.419  1.00  0.00    -0.354 N 
ATOM     53  C   UNL     1      11.751   5.081   0.106  1.00  0.00     0.074 A 
ATOM     54  C   UNL     1      10.404   5.586   0.064  1.00  0.00     0.031 C 
ATOM     55  C   UNL     1      10.506   3.366   6.242  1.00  0.00     0.029 A 
ATOM     56  C   UNL     1      11.549   4.273   5.803  1.00  0.00     0.049 A 
ATOM     57  H   UNL     1      12.183   4.612   3.835  1.00  0.00     0.167 HD
ATOM     58  C   UNL     1      12.953   5.658  -0.168  1.00  0.00     0.037 A 
ATOM     59  C   UNL     1      12.388   5.023   6.556  1.00  0.00     0.037 A 
ATOM     60  C   UNL     1      14.035   4.782   0.213  1.00  0.00     0.049 A 
ATOM     61  C   UNL     1      13.642   5.187   5.792  1.00  0.00     0.074 A 
ATOM     62  C   UNL     1      14.668   3.665  -0.284  1.00  0.00     0.029 A 
ATOM     63  N   UNL     1      14.323   4.843   1.548  1.00  0.00    -0.354 N 
ATOM     64  N   UNL     1      14.464   4.206   5.538  1.00  0.00    -0.248 NA
ATOM     65  C   UNL     1      13.856   6.408   5.022  1.00  0.00     0.031 C 
ATOM     66  C   UNL     1      15.302   3.025   0.827  1.00  0.00     0.029 A 
ATOM     67  C   UNL     1      15.079   3.786   1.968  1.00  0.00     0.049 A 
ATOM     68  H   UNL     1      14.019   5.569   2.140  1.00  0.00     0.167 HD
ATOM     69  C   UNL     1      14.992   4.530   4.309  1.00  0.00     0.074 A 
ATOM     70  C   UNL     1      14.738   5.953   4.130  1.00  0.00     0.031 C 
ATOM     71  C   UNL     1      15.247   3.564   3.384  1.00  0.00     0.037 A 
BRANCH  58  72
ATOM     72  C   UNL     1      13.186   7.153  -0.230  1.00  0.00     0.064 A 
ATOM     73  C   UNL     1      14.457   7.628  -0.617  1.00  0.00     0.173 A 
ATOM     74  C   UNL     1      12.345   8.106   0.384  1.00  0.00     0.173 A 
ATOM     75  F   UNL     1      15.356   6.799  -1.169  1.00  0.00    -0.203 F 
ATOM     76  C   UNL     1      14.865   8.942  -0.363  1.00  0.00     0.198 A 
ATOM     77  C   UNL     1      12.737   9.428   0.590  1.00  0.00     0.198 A 
ATOM     78  F   UNL     1      11.166   7.775   0.921  1.00  0.00    -0.203 F 
ATOM     79  F   UNL     1      16.120   9.317  -0.645  1.00  0.00    -0.200 F 
ATOM     80  C   UNL     1      14.004   9.841   0.239  1.00  0.00     0.200 A 
ATOM     81  F   UNL     1      11.900  10.273   1.209  1.00  0.00    -0.200 F 
ATOM     82  F   UNL     1      14.407  11.085   0.528  1.00  0.00    -0.200 F 
ENDBRANCH  58  72
BRANCH  59  83
ATOM     83  C   UNL     1      12.105   5.829   7.766  1.00  0.00     0.064 A 
ATOM     84  C   UNL     1      13.161   6.393   8.504  1.00  0.00     0.173 A 
ATOM     85  C   UNL     1      10.820   6.346   8.012  1.00  0.00     0.173 A 
ATOM     86  F   UNL     1      14.419   5.965   8.320  1.00  0.00    -0.203 F 
ATOM     87  C   UNL     1      12.959   7.473   9.366  1.00  0.00     0.198 A 
ATOM     88  C   UNL     1      10.619   7.421   8.880  1.00  0.00     0.198 A 
ATOM     89  F   UNL     1       9.757   5.894   7.332  1.00  0.00    -0.203 F 
ATOM     90  F   UNL     1      14.007   8.050   9.970  1.00  0.00    -0.200 F 
ATOM     91  C   UNL     1      11.691   8.002   9.534  1.00  0.00     0.200 A 
ATOM     92  F   UNL     1       9.392   7.945   9.015  1.00  0.00    -0.200 F 
ATOM     93  F   UNL     1      11.510   9.096  10.286  1.00  0.00    -0.200 F 
ENDBRANCH  59  83
BRANCH  71  94
ATOM     94  C   UNL     1      15.587   2.196   3.872  1.00  0.00     0.064 A 
ATOM     95  C   UNL     1      14.697   1.324   4.516  1.00  0.00     0.173 A 
ATOM     96  C   UNL     1      16.882   1.731   3.606  1.00  0.00     0.173 A 
ATOM     97  F   UNL     1      13.428   1.683   4.757  1.00  0.00    -0.203 F 
ATOM     98  C   UNL     1      15.103   0.041   4.889  1.00  0.00     0.198 A 
ATOM     99  C   UNL     1      17.273   0.444   3.950  1.00  0.00     0.198 A 
ATOM    100  F   UNL     1      17.764   2.525   2.977  1.00  0.00    -0.203 F 
ATOM    101  F   UNL     1      14.247  -0.781   5.513  1.00  0.00    -0.200 F 
ATOM    102  C   UNL     1      16.386  -0.400   4.596  1.00  0.00     0.200 A 
ATOM    103  F   UNL     1      18.504   0.017   3.636  1.00  0.00    -0.200 F 
ATOM    104  F   UNL     1      16.764  -1.644   4.921  1.00  0.00    -0.200 F 
ENDBRANCH  71  94
ENDBRANCH  45  46
ENDBRANCH  37  40
ENDBRANCH  35  36
ENDBRANCH  34  35
ENDBRANCH   1  34
TORSDOF 16
