REMARK SMILES CC#CC[C@H](C(=O)NCCCNC(=O)c1ccc(-c2c3nc(c(-c4c(F)c(F)c(F)c(F)c4F)c4ccc([nH]4)c(-c4c(F)c(F)c(F)c(F)c4F)c4nc(c(-c5c(F)c(F)c(F)c(F)c5F)c5ccc2[nH]5)C=C4)C=C3)cc1)c1cccc(Br)c1
REMARK SMILES IDX 10 1 9 2 8 3 6 4 7 5 5 7 4 8 3 9 1 10 2 11 78 12 79 13 84 14
REMARK SMILES IDX 80 15 82 16 81 17 83 18 11 19 12 20 13 21 14 23 15 24 16 25
REMARK SMILES IDX 77 26 17 27 76 28 18 29 19 30 20 31 70 32 21 33 75 34 69 35
REMARK SMILES IDX 71 36 22 37 74 38 68 39 67 40 23 42 55 43 35 44 54 45 36 46
REMARK SMILES IDX 39 47 53 48 72 49 37 50 38 51 52 53 73 54 40 55 24 56 25 57
REMARK SMILES IDX 33 58 26 59 27 60 31 61 34 62 28 63 29 64 32 65 30 66 56 67
REMARK SMILES IDX 57 68 65 69 58 70 59 71 63 72 66 73 60 74 61 75 64 76 62 77
REMARK SMILES IDX 41 78 42 79 50 80 43 81 44 82 48 83 51 84 45 85 46 86 49 87
REMARK SMILES IDX 47 88
REMARK H PARENT 8 6 12 22 71 41 39 52
REMARK Flexibility Score: inf
ROOT
ATOM      1  C   UNL     1      -2.639  -1.986   1.333  1.00  0.00     0.042 C 
ENDROOT
BRANCH   1   2
ATOM      2  C   UNL     1      -1.578  -1.882   0.247  1.00  0.00     0.117 C 
BRANCH   2   3
ATOM      3  N   UNL     1      -0.589  -2.937   0.368  1.00  0.00    -0.355 N 
ATOM      4  C   UNL     1      -0.393  -4.054  -0.389  1.00  0.00     0.228 C 
ATOM      5  O   UNL     1       0.533  -4.799  -0.060  1.00  0.00    -0.274 OA
ATOM      6  H   UNL     1       0.042  -2.829   1.117  1.00  0.00     0.163 HD
BRANCH   4   7
ATOM      7  C   UNL     1      -1.261  -4.305  -1.625  1.00  0.00     0.120 C 
BRANCH   7   8
ATOM      8  C   UNL     1      -0.467  -3.858  -2.861  1.00  0.00     0.107 C 
BRANCH   8   9
ATOM      9  C   UNL     1      -0.332  -2.345  -2.926  1.00  0.00    -0.102 C 
ATOM     10  C   UNL     1      -0.081   0.465  -3.046  1.00  0.00     0.107 C 
ATOM     11  C   UNL     1      -0.216  -1.048  -2.982  1.00  0.00    -0.107 C 
ENDBRANCH   8   9
ENDBRANCH   7   8
BRANCH   7  12
ATOM     12  C   UNL     1      -1.736  -5.753  -1.725  1.00  0.00    -0.034 A 
ATOM     13  C   UNL     1      -3.114  -6.035  -1.697  1.00  0.00     0.004 A 
ATOM     14  C   UNL     1      -0.839  -6.827  -1.844  1.00  0.00     0.020 A 
ATOM     15  C   UNL     1      -3.580  -7.349  -1.774  1.00  0.00     0.001 A 
ATOM     16  C   UNL     1      -1.311  -8.139  -1.913  1.00  0.00     0.018 A 
ATOM     17  C   UNL     1      -2.678  -8.405  -1.879  1.00  0.00     0.016 A 
ATOM     18  Br  UNL     1      -0.085  -9.573  -2.045  1.00  0.00    -0.051 Br
ENDBRANCH   7  12
ENDBRANCH   4   7
ENDBRANCH   2   3
ENDBRANCH   1   2
BRANCH   1  19
ATOM     19  C   UNL     1      -2.084  -1.831   2.745  1.00  0.00     0.118 C 
BRANCH  19  20
ATOM     20  N   UNL     1      -1.457  -0.534   2.963  1.00  0.00    -0.352 N 
ATOM     21  C   UNL     1      -1.730   0.435   3.893  1.00  0.00     0.251 C 
ATOM     22  H   UNL     1      -0.722  -0.320   2.345  1.00  0.00     0.163 HD
ATOM     23  O   UNL     1      -1.204   1.542   3.792  1.00  0.00    -0.269 OA
BRANCH  21  24
ATOM     24  C   UNL     1      -2.667   0.167   5.003  1.00  0.00     0.039 A 
ATOM     25  C   UNL     1      -3.583   1.159   5.364  1.00  0.00     0.014 A 
ATOM     26  C   UNL     1      -2.631  -1.041   5.704  1.00  0.00     0.014 A 
ATOM     27  C   UNL     1      -4.506   0.914   6.382  1.00  0.00     0.010 A 
ATOM     28  C   UNL     1      -3.599  -1.314   6.666  1.00  0.00     0.010 A 
ATOM     29  C   UNL     1      -4.545  -0.339   7.016  1.00  0.00    -0.014 A 
BRANCH  29  30
ATOM     30  C   UNL     1      -5.569  -0.649   8.044  1.00  0.00     0.031 A 
ATOM     31  C   UNL     1      -5.156  -0.935   9.460  1.00  0.00     0.074 A 
ATOM     32  C   UNL     1      -6.864  -0.741   7.685  1.00  0.00     0.049 A 
ATOM     33  N   UNL     1      -5.891  -1.305  10.479  1.00  0.00    -0.248 NA
ATOM     34  C   UNL     1      -3.722  -0.817   9.768  1.00  0.00     0.031 C 
ATOM     35  C   UNL     1      -7.383  -0.532   6.333  1.00  0.00     0.029 A 
ATOM     36  N   UNL     1      -7.978  -1.049   8.425  1.00  0.00    -0.354 N 
ATOM     37  C   UNL     1      -5.010  -1.479  11.537  1.00  0.00     0.074 A 
ATOM     38  C   UNL     1      -3.680  -1.222  11.028  1.00  0.00     0.031 C 
ATOM     39  C   UNL     1      -8.715  -0.699   6.343  1.00  0.00     0.029 A 
ATOM     40  C   UNL     1      -9.139  -1.063   7.691  1.00  0.00     0.049 A 
ATOM     41  H   UNL     1      -7.948  -1.241   9.390  1.00  0.00     0.167 HD
ATOM     42  C   UNL     1      -5.288  -1.803  12.823  1.00  0.00     0.037 A 
ATOM     43  C   UNL     1     -10.401  -1.348   8.063  1.00  0.00     0.037 A 
ATOM     44  C   UNL     1      -6.615  -2.029  13.333  1.00  0.00     0.049 A 
ATOM     45  C   UNL     1     -10.682  -1.703   9.497  1.00  0.00     0.074 A 
ATOM     46  C   UNL     1      -7.006  -2.300  14.632  1.00  0.00     0.029 A 
ATOM     47  N   UNL     1      -7.769  -2.012  12.563  1.00  0.00    -0.354 N 
ATOM     48  N   UNL     1      -9.849  -1.800  10.504  1.00  0.00    -0.248 NA
ATOM     49  C   UNL     1     -12.082  -1.983   9.848  1.00  0.00     0.031 C 
ATOM     50  C   UNL     1      -8.392  -2.488  14.643  1.00  0.00     0.029 A 
ATOM     51  C   UNL     1      -8.871  -2.287  13.358  1.00  0.00     0.049 A 
ATOM     52  H   UNL     1      -7.801  -1.831  11.596  1.00  0.00     0.167 HD
ATOM     53  C   UNL     1     -10.623  -2.123  11.610  1.00  0.00     0.074 A 
ATOM     54  C   UNL     1     -11.995  -2.192  11.154  1.00  0.00     0.031 C 
ATOM     55  C   UNL     1     -10.232  -2.343  12.889  1.00  0.00     0.037 A 
BRANCH  42  56
ATOM     56  C   UNL     1      -4.133  -1.926  13.773  1.00  0.00     0.064 A 
ATOM     57  C   UNL     1      -3.406  -0.803  14.197  1.00  0.00     0.173 A 
ATOM     58  C   UNL     1      -3.771  -3.177  14.296  1.00  0.00     0.173 A 
ATOM     59  F   UNL     1      -3.704   0.414  13.718  1.00  0.00    -0.203 F 
ATOM     60  C   UNL     1      -2.344  -0.931  15.089  1.00  0.00     0.198 A 
ATOM     61  C   UNL     1      -2.728  -3.297  15.210  1.00  0.00     0.198 A 
ATOM     62  F   UNL     1      -4.437  -4.282  13.928  1.00  0.00    -0.203 F 
ATOM     63  F   UNL     1      -1.636   0.150  15.443  1.00  0.00    -0.200 F 
ATOM     64  C   UNL     1      -2.011  -2.176  15.600  1.00  0.00     0.200 A 
ATOM     65  F   UNL     1      -2.415  -4.499  15.713  1.00  0.00    -0.200 F 
ATOM     66  F   UNL     1      -0.993  -2.296  16.464  1.00  0.00    -0.200 F 
ENDBRANCH  42  56
BRANCH  43  67
ATOM     67  C   UNL     1     -11.500  -1.284   7.065  1.00  0.00     0.064 A 
ATOM     68  C   UNL     1     -12.468  -0.273   7.127  1.00  0.00     0.173 A 
ATOM     69  C   UNL     1     -11.607  -2.229   6.035  1.00  0.00     0.173 A 
ATOM     70  F   UNL     1     -12.418   0.642   8.107  1.00  0.00    -0.203 F 
ATOM     71  C   UNL     1     -13.514  -0.221   6.209  1.00  0.00     0.198 A 
ATOM     72  C   UNL     1     -12.638  -2.160   5.100  1.00  0.00     0.198 A 
ATOM     73  F   UNL     1     -10.702  -3.213   5.928  1.00  0.00    -0.203 F 
ATOM     74  F   UNL     1     -14.452   0.731   6.317  1.00  0.00    -0.200 F 
ATOM     75  C   UNL     1     -13.595  -1.161   5.192  1.00  0.00     0.200 A 
ATOM     76  F   UNL     1     -12.704  -3.062   4.111  1.00  0.00    -0.200 F 
ATOM     77  F   UNL     1     -14.599  -1.108   4.307  1.00  0.00    -0.200 F 
ENDBRANCH  43  67
BRANCH  55  78
ATOM     78  C   UNL     1     -11.305  -2.644  13.894  1.00  0.00     0.064 A 
ATOM     79  C   UNL     1     -11.974  -3.876  13.909  1.00  0.00     0.173 A 
ATOM     80  C   UNL     1     -11.639  -1.701  14.877  1.00  0.00     0.173 A 
ATOM     81  F   UNL     1     -11.701  -4.804  12.979  1.00  0.00    -0.203 F 
ATOM     82  C   UNL     1     -12.957  -4.144  14.858  1.00  0.00     0.198 A 
ATOM     83  C   UNL     1     -12.602  -1.983  15.842  1.00  0.00     0.198 A 
ATOM     84  F   UNL     1     -11.024  -0.509  14.909  1.00  0.00    -0.203 F 
ATOM     85  F   UNL     1     -13.616  -5.311  14.826  1.00  0.00    -0.200 F 
ATOM     86  C   UNL     1     -13.264  -3.201  15.828  1.00  0.00     0.200 A 
ATOM     87  F   UNL     1     -12.889  -1.076  16.786  1.00  0.00    -0.200 F 
ATOM     88  F   UNL     1     -14.206  -3.464  16.745  1.00  0.00    -0.200 F 
ENDBRANCH  55  78
ENDBRANCH  29  30
ENDBRANCH  21  24
ENDBRANCH  19  20
ENDBRANCH   1  19
TORSDOF 13
