REMARK SMILES CCCCCCOC(=O)Nc1cccc(-c2ccc([C@@H](C)C(=O)NCCCNC(=O)c3ccc(-c4c5nc(c(-c6c(F)c(F)c(F)c(F)c6F)c6ccc([nH]6)c(-c6c(F)c(F)c(F)c(F)c6F)c6nc(c(-c7c(F)c(F)c(F)c(F)c7F)c7ccc4[nH]7)C=C6)C=C5)cc3)cc2F)c1
REMARK SMILES IDX 16 1 17 2 18 3 19 4 94 5 95 6 96 7 15 8 11 9 12 10 97 11
REMARK SMILES IDX 13 12 14 13 10 14 8 15 9 16 7 18 6 19 5 20 4 21 3 22 2 23
REMARK SMILES IDX 1 24 20 25 21 26 22 27 23 28 24 29 25 31 26 32 27 33 28 34
REMARK SMILES IDX 29 35 30 37 31 38 32 39 93 40 33 41 92 42 34 43 35 44 36 45
REMARK SMILES IDX 86 46 37 47 91 48 85 49 87 50 38 51 90 52 84 53 83 54 39 56
REMARK SMILES IDX 71 57 51 58 70 59 52 60 55 61 69 62 88 63 53 64 54 65 68 67
REMARK SMILES IDX 89 68 56 69 40 70 41 71 49 72 42 73 43 74 47 75 50 76 44 77
REMARK SMILES IDX 45 78 48 79 46 80 72 81 73 82 81 83 74 84 75 85 79 86 82 87
REMARK SMILES IDX 76 88 77 89 80 90 78 91 57 92 58 93 66 94 59 95 60 96 64 97
REMARK SMILES IDX 67 98 61 99 62 100 65 101 63 102
REMARK H PARENT 10 17 24 30 28 36 87 55 55 66
REMARK Flexibility Score: inf
ROOT
ATOM      1  C   UNL     1      -2.967  -8.797  -4.284  1.00  0.00     0.018 A 
ATOM      2  C   UNL     1      -4.149  -9.532  -4.114  1.00  0.00     0.012 A 
ATOM      3  C   UNL     1      -5.185  -9.482  -5.056  1.00  0.00     0.005 A 
ATOM      4  C   UNL     1      -5.112  -8.642  -6.172  1.00  0.00    -0.033 A 
ATOM      5  C   UNL     1      -3.923  -7.929  -6.369  1.00  0.00     0.044 A 
ATOM      6  C   UNL     1      -2.872  -8.027  -5.455  1.00  0.00     0.131 A 
ATOM      7  F   UNL     1      -1.748  -7.348  -5.738  1.00  0.00    -0.206 F 
ENDROOT
BRANCH   1   8
ATOM      8  C   UNL     1      -1.889  -8.832  -3.272  1.00  0.00    -0.013 A 
ATOM      9  C   UNL     1      -0.062  -7.707  -2.088  1.00  0.00     0.045 A 
ATOM     10  C   UNL     1       0.284  -8.901  -1.463  1.00  0.00     0.026 A 
ATOM     11  C   UNL     1      -1.151  -7.676  -2.967  1.00  0.00     0.035 A 
ATOM     12  C   UNL     1      -0.476 -10.046  -1.690  1.00  0.00     0.003 A 
ATOM     13  C   UNL     1      -1.543 -10.013  -2.594  1.00  0.00     0.009 A 
BRANCH   9  14
ATOM     14  N   UNL     1       0.768  -6.592  -1.914  1.00  0.00    -0.291 N 
ATOM     15  C   UNL     1       0.448  -5.276  -2.113  1.00  0.00     0.411 C 
ATOM     16  O   UNL     1       1.302  -4.452  -2.392  1.00  0.00    -0.224 OA
ATOM     17  H   UNL     1       1.687  -6.777  -1.613  1.00  0.00     0.173 HD
BRANCH  15  18
ATOM     18  O   UNL     1      -0.855  -5.003  -1.835  1.00  0.00    -0.449 OA
BRANCH  18  19
ATOM     19  C   UNL     1      -1.271  -3.628  -1.832  1.00  0.00     0.235 C 
BRANCH  19  20
ATOM     20  C   UNL     1      -1.024  -2.950  -0.480  1.00  0.00     0.042 C 
BRANCH  20  21
ATOM     21  C   UNL     1       0.435  -2.590  -0.171  1.00  0.00     0.003 C 
BRANCH  21  22
ATOM     22  C   UNL     1       1.094  -1.634  -1.174  1.00  0.00    -0.000 C 
BRANCH  22  23
ATOM     23  C   UNL     1       0.557  -0.204  -1.152  1.00  0.00    -0.003 C 
ATOM     24  C   UNL     1       0.930   0.543   0.117  1.00  0.00     0.004 C 
ENDBRANCH  22  23
ENDBRANCH  21  22
ENDBRANCH  20  21
ENDBRANCH  19  20
ENDBRANCH  18  19
ENDBRANCH  15  18
ENDBRANCH   9  14
ENDBRANCH   1   8
BRANCH   4  25
ATOM     25  C   UNL     1      -6.263  -8.444  -7.145  1.00  0.00     0.105 C 
ATOM     26  C   UNL     1      -6.976  -9.717  -7.597  1.00  0.00     0.023 C 
BRANCH  25  27
ATOM     27  C   UNL     1      -7.201  -7.291  -6.753  1.00  0.00     0.227 C 
ATOM     28  O   UNL     1      -7.134  -6.211  -7.352  1.00  0.00    -0.274 OA
ATOM     29  N   UNL     1      -8.132  -7.370  -5.764  1.00  0.00    -0.356 N 
ATOM     30  H   UNL     1      -8.701  -6.571  -5.683  1.00  0.00     0.163 HD
BRANCH  29  31
ATOM     31  C   UNL     1      -8.438  -8.414  -4.808  1.00  0.00     0.117 C 
BRANCH  31  32
ATOM     32  C   UNL     1      -7.774  -8.169  -3.455  1.00  0.00     0.042 C 
BRANCH  32  33
ATOM     33  C   UNL     1      -8.539  -7.205  -2.559  1.00  0.00     0.118 C 
BRANCH  33  34
ATOM     34  N   UNL     1      -9.793  -7.774  -2.087  1.00  0.00    -0.352 N 
ATOM     35  C   UNL     1     -10.237  -8.041  -0.818  1.00  0.00     0.251 C 
ATOM     36  H   UNL     1     -10.430  -8.007  -2.800  1.00  0.00     0.163 HD
ATOM     37  O   UNL     1     -11.244  -8.730  -0.675  1.00  0.00    -0.269 OA
BRANCH  35  38
ATOM     38  C   UNL     1      -9.534  -7.523   0.380  1.00  0.00     0.039 A 
ATOM     39  C   UNL     1      -9.554  -8.293   1.548  1.00  0.00     0.014 A 
ATOM     40  C   UNL     1      -8.932  -6.263   0.398  1.00  0.00     0.014 A 
ATOM     41  C   UNL     1      -8.953  -7.814   2.715  1.00  0.00     0.010 A 
ATOM     42  C   UNL     1      -8.253  -5.825   1.534  1.00  0.00     0.010 A 
ATOM     43  C   UNL     1      -8.283  -6.582   2.714  1.00  0.00    -0.014 A 
BRANCH  43  44
ATOM     44  C   UNL     1      -7.657  -6.049   3.952  1.00  0.00     0.031 A 
ATOM     45  C   UNL     1      -8.172  -4.778   4.572  1.00  0.00     0.074 A 
ATOM     46  C   UNL     1      -6.604  -6.688   4.497  1.00  0.00     0.049 A 
ATOM     47  N   UNL     1      -7.742  -4.136   5.630  1.00  0.00    -0.248 NA
ATOM     48  C   UNL     1      -9.303  -4.122   3.897  1.00  0.00     0.031 C 
ATOM     49  C   UNL     1      -5.980  -7.898   3.961  1.00  0.00     0.029 A 
ATOM     50  N   UNL     1      -5.870  -6.405   5.622  1.00  0.00    -0.354 N 
ATOM     51  C   UNL     1      -8.534  -2.999   5.732  1.00  0.00     0.074 A 
ATOM     52  C   UNL     1      -9.432  -3.006   4.598  1.00  0.00     0.031 C 
ATOM     53  C   UNL     1      -4.976  -8.270   4.772  1.00  0.00     0.029 A 
ATOM     54  C   UNL     1      -4.866  -7.309   5.865  1.00  0.00     0.049 A 
ATOM     55  H   UNL     1      -6.047  -5.628   6.199  1.00  0.00     0.167 HD
ATOM     56  C   UNL     1      -8.534  -2.050   6.698  1.00  0.00     0.037 A 
ATOM     57  C   UNL     1      -3.960  -7.357   6.860  1.00  0.00     0.037 A 
ATOM     58  C   UNL     1      -7.662  -2.064   7.843  1.00  0.00     0.049 A 
ATOM     59  C   UNL     1      -3.997  -6.304   7.935  1.00  0.00     0.074 A 
ATOM     60  C   UNL     1      -7.617  -1.181   8.908  1.00  0.00     0.029 A 
ATOM     61  N   UNL     1      -6.679  -3.017   8.073  1.00  0.00    -0.354 N 
ATOM     62  N   UNL     1      -4.795  -5.272   8.057  1.00  0.00    -0.248 NA
ATOM     63  C   UNL     1      -3.014  -6.434   9.019  1.00  0.00     0.031 C 
ATOM     64  C   UNL     1      -6.581  -1.575   9.761  1.00  0.00     0.029 A 
ATOM     65  C   UNL     1      -6.014  -2.735   9.256  1.00  0.00     0.049 A 
ATOM     66  H   UNL     1      -6.483  -3.780   7.483  1.00  0.00     0.167 HD
ATOM     67  C   UNL     1      -4.435  -4.649   9.244  1.00  0.00     0.074 A 
ATOM     68  C   UNL     1      -3.357  -5.430   9.813  1.00  0.00     0.031 C 
ATOM     69  C   UNL     1      -4.950  -3.530   9.813  1.00  0.00     0.037 A 
BRANCH  56  70
ATOM     70  C   UNL     1      -9.512  -0.917   6.560  1.00  0.00     0.064 A 
ATOM     71  C   UNL     1     -10.894  -1.115   6.703  1.00  0.00     0.173 A 
ATOM     72  C   UNL     1      -9.061   0.388   6.309  1.00  0.00     0.173 A 
ATOM     73  F   UNL     1     -11.380  -2.345   6.932  1.00  0.00    -0.203 F 
ATOM     74  C   UNL     1     -11.789  -0.057   6.566  1.00  0.00     0.198 A 
ATOM     75  C   UNL     1      -9.957   1.449   6.205  1.00  0.00     0.198 A 
ATOM     76  F   UNL     1      -7.750   0.636   6.168  1.00  0.00    -0.203 F 
ATOM     77  F   UNL     1     -13.108  -0.282   6.652  1.00  0.00    -0.200 F 
ATOM     78  C   UNL     1     -11.320   1.225   6.325  1.00  0.00     0.200 A 
ATOM     79  F   UNL     1      -9.501   2.690   5.985  1.00  0.00    -0.200 F 
ATOM     80  F   UNL     1     -12.182   2.243   6.199  1.00  0.00    -0.200 F 
ENDBRANCH  56  70
BRANCH  57  81
ATOM     81  C   UNL     1      -2.970  -8.464   6.910  1.00  0.00     0.064 A 
ATOM     82  C   UNL     1      -3.045  -9.453   7.901  1.00  0.00     0.173 A 
ATOM     83  C   UNL     1      -1.930  -8.557   5.974  1.00  0.00     0.173 A 
ATOM     84  F   UNL     1      -4.011  -9.398   8.829  1.00  0.00    -0.203 F 
ATOM     85  C   UNL     1      -2.104 -10.478   7.969  1.00  0.00     0.198 A 
ATOM     86  C   UNL     1      -1.006  -9.599   6.025  1.00  0.00     0.198 A 
ATOM     87  F   UNL     1      -1.817  -7.641   5.001  1.00  0.00    -0.203 F 
ATOM     88  F   UNL     1      -2.172 -11.382   8.955  1.00  0.00    -0.200 F 
ATOM     89  C   UNL     1      -1.089 -10.553   7.027  1.00  0.00     0.200 A 
ATOM     90  F   UNL     1      -0.036  -9.678   5.104  1.00  0.00    -0.200 F 
ATOM     91  F   UNL     1      -0.186 -11.542   7.090  1.00  0.00    -0.200 F 
ENDBRANCH  57  81
BRANCH  69  92
ATOM     92  C   UNL     1      -4.384  -3.113  11.139  1.00  0.00     0.064 A 
ATOM     93  C   UNL     1      -3.089  -2.589  11.259  1.00  0.00     0.173 A 
ATOM     94  C   UNL     1      -5.159  -3.222  12.304  1.00  0.00     0.173 A 
ATOM     95  F   UNL     1      -2.303  -2.478  10.177  1.00  0.00    -0.203 F 
ATOM     96  C   UNL     1      -2.577  -2.222  12.501  1.00  0.00     0.198 A 
ATOM     97  C   UNL     1      -4.656  -2.823  13.539  1.00  0.00     0.198 A 
ATOM     98  F   UNL     1      -6.408  -3.709  12.244  1.00  0.00    -0.203 F 
ATOM     99  F   UNL     1      -1.316  -1.779  12.599  1.00  0.00    -0.200 F 
ATOM    100  C   UNL     1      -3.363  -2.334  13.638  1.00  0.00     0.200 A 
ATOM    101  F   UNL     1      -5.422  -2.919  14.635  1.00  0.00    -0.200 F 
ATOM    102  F   UNL     1      -2.869  -1.980  14.832  1.00  0.00    -0.200 F 
ENDBRANCH  69  92
ENDBRANCH  43  44
ENDBRANCH  35  38
ENDBRANCH  33  34
ENDBRANCH  32  33
ENDBRANCH  31  32
ENDBRANCH  29  31
ENDBRANCH  25  27
ENDBRANCH   4  25
TORSDOF 19
