REMARK SMILES COCc1cc(C)nc2sc3c(c12)N[C@H](c1ccccc1C(=O)NCCCNC(=O)c1ccc(-c2c4nc(c(-c5c(F)c(F)c(F)c(F)c5F)c5ccc([nH]5)c(-c5c(F)c(F)c(F)c(F)c5F)c5nc(c(-c6c(F)c(F)c(F)c(F)c6F)c6ccc2[nH]6)C=C5)C=C4)cc1)n1c-3nc2ccccc21
REMARK SMILES IDX 25 1 24 2 22 3 23 4 21 6 16 7 17 8 18 9 20 10 19 11 15 12
REMARK SMILES IDX 4 13 5 14 13 15 6 16 9 17 12 18 7 19 8 20 10 21 11 22 14 23
REMARK SMILES IDX 95 24 94 26 96 27 102 28 97 29 101 30 98 31 100 32 99 33
REMARK SMILES IDX 3 34 2 35 1 36 26 37 27 38 28 39 29 40 30 42 31 43 32 44
REMARK SMILES IDX 93 45 33 46 92 47 34 48 35 49 36 50 86 51 37 52 91 53 85 54
REMARK SMILES IDX 87 55 38 56 90 57 84 58 83 59 39 61 71 62 51 63 70 64 52 65
REMARK SMILES IDX 55 66 69 67 88 68 53 69 54 70 68 72 89 73 56 74 40 75 41 76
REMARK SMILES IDX 49 77 42 78 43 79 47 80 50 81 44 82 45 83 48 84 46 85 72 86
REMARK SMILES IDX 73 87 81 88 74 89 75 90 79 91 82 92 76 93 77 94 80 95 78 96
REMARK SMILES IDX 57 97 58 98 66 99 59 100 60 101 64 102 67 103 61 104 62 105
REMARK SMILES IDX 65 106 63 107
REMARK H PARENT 24 5 14 25 28 41 87 60 55 71
REMARK Flexibility Score: inf
ROOT
ATOM      1  C   UNL     1      -5.577  -0.919   5.477  1.00  0.00     0.118 C 
ENDROOT
BRANCH   1   2
ATOM      2  N   UNL     1      -6.931  -0.553   5.793  1.00  0.00    -0.352 N 
ATOM      3  C   UNL     1      -7.431   0.633   6.218  1.00  0.00     0.251 C 
ATOM      4  O   UNL     1      -8.628   0.696   6.494  1.00  0.00    -0.269 OA
ATOM      5  H   UNL     1      -7.595  -1.272   5.685  1.00  0.00     0.163 HD
BRANCH   3   6
ATOM      6  C   UNL     1      -6.538   1.780   6.513  1.00  0.00     0.046 A 
ATOM      7  C   UNL     1      -5.553   2.398   5.690  1.00  0.00     0.008 A 
ATOM      8  C   UNL     1      -4.809   3.434   6.318  1.00  0.00     0.008 A 
ATOM      9  C   UNL     1      -5.087   3.890   7.622  1.00  0.00     0.000 A 
ATOM     10  C   UNL     1      -6.826   2.279   7.809  1.00  0.00     0.014 A 
ATOM     11  C   UNL     1      -6.121   3.335   8.357  1.00  0.00     0.001 A 
BRANCH   7  12
ATOM     12  C   UNL     1      -5.344   2.255   4.154  1.00  0.00     0.215 C 
ATOM     13  C   UNL     1      -1.278   0.298   1.651  1.00  0.00    -0.008 A 
ATOM     14  C   UNL     1      -0.800  -0.655   0.689  1.00  0.00     0.030 A 
ATOM     15  C   UNL     1      -2.670   0.648   1.568  1.00  0.00     0.041 A 
ATOM     16  C   UNL     1      -1.530  -0.990  -0.429  1.00  0.00     0.039 A 
ATOM     17  C   UNL     1      -3.212   0.311   0.306  1.00  0.00     0.126 A 
ATOM     18  C   UNL     1      -3.780   1.206   2.406  1.00  0.00     0.068 A 
ATOM     19  C   UNL     1      -1.155  -2.089  -1.370  1.00  0.00     0.067 C 
ATOM     20  N   UNL     1      -2.675  -0.394  -0.697  1.00  0.00    -0.242 NA
ATOM     21  S   UNL     1      -4.795   0.812   0.060  1.00  0.00    -0.110 S 
ATOM     22  C   UNL     1      -4.949   0.968   1.715  1.00  0.00     0.096 A 
ATOM     23  N   UNL     1      -3.940   1.678   3.719  1.00  0.00    -0.359 N 
ATOM     24  C   UNL     1      -6.215   0.926   2.304  1.00  0.00     0.155 A 
ATOM     25  H   UNL     1      -3.191   1.649   4.356  1.00  0.00     0.163 HD
ATOM     26  N   UNL     1      -6.485   1.668   3.412  1.00  0.00    -0.298 N 
ATOM     27  N   UNL     1      -7.203   0.146   1.957  1.00  0.00    -0.227 NA
ATOM     28  C   UNL     1      -7.857   1.755   3.439  1.00  0.00     0.071 A 
ATOM     29  C   UNL     1      -8.252   0.673   2.634  1.00  0.00     0.089 A 
ATOM     30  C   UNL     1      -8.805   2.568   4.062  1.00  0.00     0.029 A 
ATOM     31  C   UNL     1      -9.586   0.279   2.544  1.00  0.00     0.030 A 
ATOM     32  C   UNL     1     -10.154   2.192   3.911  1.00  0.00     0.002 A 
ATOM     33  C   UNL     1     -10.537   1.054   3.193  1.00  0.00     0.002 A 
BRANCH  13  34
ATOM     34  C   UNL     1      -0.212   0.802   2.599  1.00  0.00     0.196 C 
BRANCH  34  35
ATOM     35  O   UNL     1       0.608   1.825   2.003  1.00  0.00    -0.380 OA
ATOM     36  C   UNL     1       1.373   1.417   0.869  1.00  0.00     0.195 C 
ENDBRANCH  34  35
ENDBRANCH  13  34
ENDBRANCH   7  12
ENDBRANCH   3   6
ENDBRANCH   1   2
BRANCH   1  37
ATOM     37  C   UNL     1      -5.418  -2.396   5.185  1.00  0.00     0.042 C 
BRANCH  37  38
ATOM     38  C   UNL     1      -6.413  -2.987   4.177  1.00  0.00     0.118 C 
BRANCH  38  39
ATOM     39  N   UNL     1      -6.115  -2.840   2.771  1.00  0.00    -0.352 N 
ATOM     40  C   UNL     1      -5.223  -3.565   2.005  1.00  0.00     0.251 C 
ATOM     41  H   UNL     1      -6.610  -2.132   2.299  1.00  0.00     0.163 HD
ATOM     42  O   UNL     1      -5.356  -3.706   0.818  1.00  0.00    -0.269 OA
BRANCH  40  43
ATOM     43  C   UNL     1      -3.954  -3.963   2.653  1.00  0.00     0.039 A 
ATOM     44  C   UNL     1      -3.848  -4.816   3.753  1.00  0.00     0.014 A 
ATOM     45  C   UNL     1      -2.848  -3.258   2.191  1.00  0.00     0.014 A 
ATOM     46  C   UNL     1      -2.648  -4.860   4.475  1.00  0.00     0.010 A 
ATOM     47  C   UNL     1      -1.656  -3.318   2.892  1.00  0.00     0.010 A 
ATOM     48  C   UNL     1      -1.556  -4.087   4.061  1.00  0.00    -0.014 A 
BRANCH  48  49
ATOM     49  C   UNL     1      -0.295  -4.026   4.846  1.00  0.00     0.031 A 
ATOM     50  C   UNL     1       0.942  -4.137   3.973  1.00  0.00     0.074 A 
ATOM     51  C   UNL     1      -0.350  -3.096   5.825  1.00  0.00     0.049 A 
ATOM     52  N   UNL     1       1.836  -3.251   3.639  1.00  0.00    -0.248 NA
ATOM     53  C   UNL     1       1.140  -5.447   3.332  1.00  0.00     0.031 C 
ATOM     54  C   UNL     1       0.055  -1.705   5.695  1.00  0.00     0.029 A 
ATOM     55  N   UNL     1      -0.335  -3.329   7.194  1.00  0.00    -0.354 N 
ATOM     56  C   UNL     1       2.712  -3.884   2.760  1.00  0.00     0.074 A 
ATOM     57  C   UNL     1       2.226  -5.233   2.587  1.00  0.00     0.031 C 
ATOM     58  C   UNL     1       0.361  -1.220   6.908  1.00  0.00     0.029 A 
ATOM     59  C   UNL     1       0.321  -2.311   7.882  1.00  0.00     0.049 A 
ATOM     60  H   UNL     1      -0.739  -4.116   7.625  1.00  0.00     0.167 HD
ATOM     61  C   UNL     1       3.830  -3.336   2.213  1.00  0.00     0.037 A 
ATOM     62  C   UNL     1       1.290  -2.530   8.824  1.00  0.00     0.037 A 
ATOM     63  C   UNL     1       4.164  -2.003   2.585  1.00  0.00     0.049 A 
ATOM     64  C   UNL     1       2.577  -2.265   8.068  1.00  0.00     0.074 A 
ATOM     65  C   UNL     1       4.120  -0.749   2.021  1.00  0.00     0.029 A 
ATOM     66  N   UNL     1       4.780  -1.809   3.796  1.00  0.00    -0.354 N 
ATOM     67  N   UNL     1       3.119  -1.113   7.770  1.00  0.00    -0.248 NA
ATOM     68  C   UNL     1       3.086  -3.396   7.286  1.00  0.00     0.031 C 
ATOM     69  C   UNL     1       4.238   0.165   3.113  1.00  0.00     0.029 A 
ATOM     70  C   UNL     1       4.367  -0.595   4.275  1.00  0.00     0.049 A 
ATOM     71  H   UNL     1       5.404  -2.428   4.239  1.00  0.00     0.167 HD
ATOM     72  C   UNL     1       3.813  -1.339   6.572  1.00  0.00     0.074 A 
ATOM     73  C   UNL     1       3.835  -2.774   6.388  1.00  0.00     0.031 C 
ATOM     74  C   UNL     1       4.106  -0.352   5.675  1.00  0.00     0.037 A 
BRANCH  61  75
ATOM     75  C   UNL     1       4.779  -4.113   1.390  1.00  0.00     0.064 A 
ATOM     76  C   UNL     1       5.984  -4.535   1.968  1.00  0.00     0.173 A 
ATOM     77  C   UNL     1       4.584  -4.331   0.024  1.00  0.00     0.173 A 
ATOM     78  F   UNL     1       6.199  -4.351   3.281  1.00  0.00    -0.203 F 
ATOM     79  C   UNL     1       6.980  -5.123   1.198  1.00  0.00     0.198 A 
ATOM     80  C   UNL     1       5.581  -4.928  -0.746  1.00  0.00     0.198 A 
ATOM     81  F   UNL     1       3.442  -3.945  -0.565  1.00  0.00    -0.203 F 
ATOM     82  F   UNL     1       8.136  -5.488   1.770  1.00  0.00    -0.200 F 
ATOM     83  C   UNL     1       6.782  -5.311  -0.161  1.00  0.00     0.200 A 
ATOM     84  F   UNL     1       5.390  -5.115  -2.058  1.00  0.00    -0.200 F 
ATOM     85  F   UNL     1       7.751  -5.856  -0.908  1.00  0.00    -0.200 F 
ENDBRANCH  61  75
BRANCH  62  86
ATOM     86  C   UNL     1       1.114  -3.663   9.785  1.00  0.00     0.064 A 
ATOM     87  C   UNL     1      -0.124  -3.802  10.444  1.00  0.00     0.173 A 
ATOM     88  C   UNL     1       2.079  -4.640  10.080  1.00  0.00     0.173 A 
ATOM     89  F   UNL     1      -1.074  -2.865  10.296  1.00  0.00    -0.203 F 
ATOM     90  C   UNL     1      -0.423  -4.913  11.231  1.00  0.00     0.198 A 
ATOM     91  C   UNL     1       1.771  -5.768  10.845  1.00  0.00     0.198 A 
ATOM     92  F   UNL     1       3.333  -4.541   9.621  1.00  0.00    -0.203 F 
ATOM     93  F   UNL     1      -1.636  -5.027  11.790  1.00  0.00    -0.200 F 
ATOM     94  C   UNL     1       0.515  -5.914  11.404  1.00  0.00     0.200 A 
ATOM     95  F   UNL     1       2.692  -6.727  11.013  1.00  0.00    -0.200 F 
ATOM     96  F   UNL     1       0.209  -7.014  12.103  1.00  0.00    -0.200 F 
ENDBRANCH  62  86
BRANCH  74  97
ATOM     97  C   UNL     1       3.823   1.038   6.119  1.00  0.00     0.064 A 
ATOM     98  C   UNL     1       4.712   1.717   6.957  1.00  0.00     0.173 A 
ATOM     99  C   UNL     1       2.686   1.722   5.661  1.00  0.00     0.173 A 
ATOM    100  F   UNL     1       5.816   1.105   7.410  1.00  0.00    -0.203 F 
ATOM    101  C   UNL     1       4.482   3.046   7.305  1.00  0.00     0.198 A 
ATOM    102  C   UNL     1       2.468   3.053   5.997  1.00  0.00     0.198 A 
ATOM    103  F   UNL     1       1.792   1.104   4.874  1.00  0.00    -0.203 F 
ATOM    104  F   UNL     1       5.349   3.687   8.100  1.00  0.00    -0.200 F 
ATOM    105  C   UNL     1       3.368   3.715   6.816  1.00  0.00     0.200 A 
ATOM    106  F   UNL     1       1.392   3.697   5.521  1.00  0.00    -0.200 F 
ATOM    107  F   UNL     1       3.166   5.002   7.130  1.00  0.00    -0.200 F 
ENDBRANCH  74  97
ENDBRANCH  48  49
ENDBRANCH  40  43
ENDBRANCH  38  39
ENDBRANCH  37  38
ENDBRANCH   1  37
TORSDOF 13
