REMARK SMILES O=C(NCCCNC(=O)[C@H]1CCc2[nH]nc(C(F)(F)F)c2C1)c1ccc(-c2c3nc(c(-c4c(F)c(F)c(F)c(F)c4F)c4ccc([nH]4)c(-c4c(F)c(F)c(F)c(F)c4F)c4nc(c(-c5c(F)c(F)c(F)c(F)c5F)c5ccc2[nH]5)C=C4)C=C3)cc1
REMARK SMILES IDX 4 1 3 2 1 3 2 4 23 6 24 7 85 8 25 9 84 10 26 11 27 12 28 13
REMARK SMILES IDX 78 14 29 15 83 16 77 17 79 18 30 19 82 20 76 21 75 22 31 24
REMARK SMILES IDX 63 25 43 26 62 27 44 28 47 29 61 30 80 31 45 32 46 33 60 35
REMARK SMILES IDX 81 36 48 37 32 38 33 39 41 40 34 41 35 42 39 43 42 44 36 45
REMARK SMILES IDX 37 46 40 47 38 48 64 49 65 50 73 51 66 52 67 53 71 54 74 55
REMARK SMILES IDX 68 56 69 57 72 58 70 59 49 60 50 61 58 62 51 63 52 64 56 65
REMARK SMILES IDX 59 66 53 67 54 68 57 69 55 70 5 71 6 72 7 73 8 74 9 76 10 77
REMARK SMILES IDX 11 78 22 79 12 80 21 81 13 82 16 83 14 84 15 85 17 87 18 88
REMARK SMILES IDX 19 89 20 90
REMARK H PARENT 3 5 79 23 47 34 7 75 14 86
REMARK Flexibility Score: inf
ROOT
ATOM      1  C   UNL     1       9.743   2.969  -2.857  1.00  0.00     0.118 C 
ENDROOT
BRANCH   1   2
ATOM      2  N   UNL     1      10.815   3.852  -3.299  1.00  0.00    -0.352 N 
ATOM      3  O   UNL     1      12.418   5.427  -3.082  1.00  0.00    -0.269 OA
ATOM      4  C   UNL     1      11.696   4.591  -2.548  1.00  0.00     0.251 C 
ATOM      5  H   UNL     1      10.923   3.930  -4.275  1.00  0.00     0.163 HD
BRANCH   4   6
ATOM      6  C   UNL     1      11.755   4.385  -1.087  1.00  0.00     0.039 A 
ATOM      7  C   UNL     1      11.749   3.092  -0.561  1.00  0.00     0.014 A 
ATOM      8  C   UNL     1      11.815   5.492  -0.236  1.00  0.00     0.014 A 
ATOM      9  C   UNL     1      11.641   2.909   0.810  1.00  0.00     0.010 A 
ATOM     10  C   UNL     1      11.812   5.302   1.149  1.00  0.00     0.010 A 
ATOM     11  C   UNL     1      11.694   4.010   1.682  1.00  0.00    -0.014 A 
BRANCH  11  12
ATOM     12  C   UNL     1      11.699   3.752   3.144  1.00  0.00     0.031 A 
ATOM     13  C   UNL     1      10.575   4.211   4.027  1.00  0.00     0.074 A 
ATOM     14  C   UNL     1      12.714   3.028   3.655  1.00  0.00     0.049 A 
ATOM     15  N   UNL     1      10.395   3.997   5.307  1.00  0.00    -0.248 NA
ATOM     16  C   UNL     1       9.518   5.020   3.402  1.00  0.00     0.031 C 
ATOM     17  C   UNL     1      13.872   2.553   2.892  1.00  0.00     0.029 A 
ATOM     18  N   UNL     1      12.924   2.535   4.916  1.00  0.00    -0.354 N 
ATOM     19  C   UNL     1       9.216   4.649   5.642  1.00  0.00     0.074 A 
ATOM     20  C   UNL     1       8.736   5.295   4.438  1.00  0.00     0.031 C 
ATOM     21  C   UNL     1      14.635   1.786   3.681  1.00  0.00     0.029 A 
ATOM     22  C   UNL     1      14.057   1.766   5.019  1.00  0.00     0.049 A 
ATOM     23  H   UNL     1      12.322   2.714   5.673  1.00  0.00     0.167 HD
ATOM     24  C   UNL     1       8.589   4.691   6.843  1.00  0.00     0.037 A 
ATOM     25  C   UNL     1      14.581   1.121   6.077  1.00  0.00     0.037 A 
ATOM     26  C   UNL     1       9.072   4.040   8.034  1.00  0.00     0.049 A 
ATOM     27  C   UNL     1      13.858   1.183   7.391  1.00  0.00     0.074 A 
ATOM     28  C   UNL     1       8.509   4.023   9.299  1.00  0.00     0.029 A 
ATOM     29  N   UNL     1      10.234   3.285   8.107  1.00  0.00    -0.354 N 
ATOM     30  N   UNL     1      12.735   1.789   7.688  1.00  0.00    -0.248 NA
ATOM     31  C   UNL     1      14.476   0.471   8.516  1.00  0.00     0.031 C 
ATOM     32  C   UNL     1       9.348   3.287  10.144  1.00  0.00     0.029 A 
ATOM     33  C   UNL     1      10.410   2.807   9.396  1.00  0.00     0.049 A 
ATOM     34  H   UNL     1      10.844   3.114   7.353  1.00  0.00     0.167 HD
ATOM     35  C   UNL     1      12.508   1.532   9.031  1.00  0.00     0.074 A 
ATOM     36  C   UNL     1      13.592   0.682   9.481  1.00  0.00     0.031 C 
ATOM     37  C   UNL     1      11.501   1.970   9.825  1.00  0.00     0.037 A 
BRANCH  24  38
ATOM     38  C   UNL     1       7.311   5.473   6.935  1.00  0.00     0.064 A 
ATOM     39  C   UNL     1       6.121   5.004   6.359  1.00  0.00     0.173 A 
ATOM     40  C   UNL     1       7.259   6.675   7.658  1.00  0.00     0.173 A 
ATOM     41  F   UNL     1       6.118   3.868   5.647  1.00  0.00    -0.203 F 
ATOM     42  C   UNL     1       4.931   5.717   6.490  1.00  0.00     0.198 A 
ATOM     43  C   UNL     1       6.063   7.372   7.808  1.00  0.00     0.198 A 
ATOM     44  F   UNL     1       8.367   7.166   8.233  1.00  0.00    -0.203 F 
ATOM     45  F   UNL     1       3.814   5.267   5.901  1.00  0.00    -0.200 F 
ATOM     46  C   UNL     1       4.901   6.895   7.220  1.00  0.00     0.200 A 
ATOM     47  F   UNL     1       6.033   8.505   8.524  1.00  0.00    -0.200 F 
ATOM     48  F   UNL     1       3.753   7.574   7.354  1.00  0.00    -0.200 F 
ENDBRANCH  24  38
BRANCH  25  49
ATOM     49  C   UNL     1      15.855   0.374   5.928  1.00  0.00     0.064 A 
ATOM     50  C   UNL     1      15.893  -1.023   6.014  1.00  0.00     0.173 A 
ATOM     51  C   UNL     1      17.062   1.047   5.681  1.00  0.00     0.173 A 
ATOM     52  F   UNL     1      14.768  -1.710   6.264  1.00  0.00    -0.203 F 
ATOM     53  C   UNL     1      17.092  -1.719   5.877  1.00  0.00     0.198 A 
ATOM     54  C   UNL     1      18.254   0.348   5.511  1.00  0.00     0.198 A 
ATOM     55  F   UNL     1      17.077   2.384   5.581  1.00  0.00    -0.203 F 
ATOM     56  F   UNL     1      17.109  -3.053   6.007  1.00  0.00    -0.200 F 
ATOM     57  C   UNL     1      18.270  -1.034   5.618  1.00  0.00     0.200 A 
ATOM     58  F   UNL     1      19.385   1.014   5.241  1.00  0.00    -0.200 F 
ATOM     59  F   UNL     1      19.421  -1.704   5.478  1.00  0.00    -0.200 F 
ENDBRANCH  25  49
BRANCH  37  60
ATOM     60  C   UNL     1      11.531   1.526  11.257  1.00  0.00     0.064 A 
ATOM     61  C   UNL     1      12.473   2.038  12.161  1.00  0.00     0.173 A 
ATOM     62  C   UNL     1      10.609   0.581  11.729  1.00  0.00     0.173 A 
ATOM     63  F   UNL     1      13.387   2.931  11.751  1.00  0.00    -0.203 F 
ATOM     64  C   UNL     1      12.512   1.594  13.480  1.00  0.00     0.198 A 
ATOM     65  C   UNL     1      10.633   0.161  13.056  1.00  0.00     0.198 A 
ATOM     66  F   UNL     1       9.686   0.065  10.904  1.00  0.00    -0.203 F 
ATOM     67  F   UNL     1      13.457   2.054  14.311  1.00  0.00    -0.200 F 
ATOM     68  C   UNL     1      11.590   0.660  13.927  1.00  0.00     0.200 A 
ATOM     69  F   UNL     1       9.736  -0.735  13.489  1.00  0.00    -0.200 F 
ATOM     70  F   UNL     1      11.632   0.231  15.196  1.00  0.00    -0.200 F 
ENDBRANCH  37  60
ENDBRANCH  11  12
ENDBRANCH   4   6
ENDBRANCH   1   2
BRANCH   1  71
ATOM     71  C   UNL     1       8.381   3.385  -3.397  1.00  0.00     0.042 C 
BRANCH  71  72
ATOM     72  C   UNL     1       8.269   3.262  -4.911  1.00  0.00     0.117 C 
BRANCH  72  73
ATOM     73  N   UNL     1       8.474   1.887  -5.321  1.00  0.00    -0.356 N 
ATOM     74  C   UNL     1       7.539   0.927  -5.565  1.00  0.00     0.223 C 
ATOM     75  H   UNL     1       9.412   1.610  -5.439  1.00  0.00     0.163 HD
ATOM     76  O   UNL     1       7.896  -0.246  -5.479  1.00  0.00    -0.275 OA
BRANCH  74  77
ATOM     77  C   UNL     1       6.132   1.358  -5.973  1.00  0.00     0.083 C 
ATOM     78  C   UNL     1       6.178   2.077  -7.351  1.00  0.00     0.020 C 
ATOM     79  C   UNL     1       5.179   0.137  -6.024  1.00  0.00     0.053 C 
ATOM     80  C   UNL     1       6.695   1.167  -8.487  1.00  0.00     0.057 C 
ATOM     81  C   UNL     1       5.430  -0.677  -7.248  1.00  0.00     0.006 A 
ATOM     82  C   UNL     1       6.104  -0.183  -8.342  1.00  0.00     0.039 A 
ATOM     83  C   UNL     1       5.145  -2.033  -7.564  1.00  0.00     0.169 A 
ATOM     84  N   UNL     1       6.225  -1.214  -9.217  1.00  0.00    -0.282 N 
ATOM     85  N   UNL     1       5.621  -2.338  -8.793  1.00  0.00    -0.171 NA
ATOM     86  H   UNL     1       6.705  -1.145 -10.074  1.00  0.00     0.190 HD
BRANCH  83  87
ATOM     87  C   UNL     1       4.440  -3.043  -6.695  1.00  0.00     0.435 C 
ATOM     88  F   UNL     1       3.442  -3.694  -7.353  1.00  0.00    -0.164 F 
ATOM     89  F   UNL     1       5.282  -3.997  -6.212  1.00  0.00    -0.164 F 
ATOM     90  F   UNL     1       3.854  -2.466  -5.606  1.00  0.00    -0.164 F 
ENDBRANCH  83  87
ENDBRANCH  74  77
ENDBRANCH  72  73
ENDBRANCH  71  72
ENDBRANCH   1  71
TORSDOF 11
