REMARK SMILES Cc1cnc(NC(=O)NC[C@H]2CC[C@H](C(=O)NCCCNC(=O)c3ccc(-c4c5nc(c(-c6c(F)c(F)c(F)c(F)c6F)c6ccc([nH]6)c(-c6c(F)c(F)c(F)c(F)c6F)c6nc(c(-c7c(F)c(F)c(F)c(F)c7F)c7ccc4[nH]7)C=C6)C=C5)cc3)O2)s1
REMARK SMILES IDX 18 1 17 2 15 3 16 4 14 6 11 7 12 8 87 9 13 10 10 11 9 12
REMARK SMILES IDX 6 13 7 14 8 16 5 18 1 19 2 20 3 21 88 22 4 23 19 24 20 25
REMARK SMILES IDX 21 26 22 27 23 29 24 30 25 31 86 32 26 33 85 34 27 35 28 36
REMARK SMILES IDX 29 37 79 38 30 39 84 40 78 41 80 42 31 43 83 44 77 45 76 46
REMARK SMILES IDX 32 48 64 49 44 50 63 51 45 52 48 53 62 54 81 55 46 56 47 57
REMARK SMILES IDX 61 59 82 60 49 61 33 62 34 63 42 64 35 65 36 66 40 67 43 68
REMARK SMILES IDX 37 69 38 70 41 71 39 72 65 73 66 74 74 75 67 76 68 77 72 78
REMARK SMILES IDX 75 79 69 80 70 81 73 82 71 83 50 84 51 85 59 86 52 87 53 88
REMARK SMILES IDX 57 89 60 90 54 91 55 92 58 93 56 94
REMARK H PARENT 17 5 6 15 9 17 21 28 80 47 48 58
REMARK Flexibility Score: inf
ROOT
ATOM      1  C   UNL     1      -2.752   2.994  -1.811  1.00  0.00     0.117 C 
ENDROOT
BRANCH   1   2
ATOM      2  N   UNL     1      -2.681   2.723  -3.228  1.00  0.00    -0.354 N 
ATOM      3  C   UNL     1      -1.612   2.417  -4.016  1.00  0.00     0.249 C 
ATOM      4  O   UNL     1      -1.850   2.195  -5.208  1.00  0.00    -0.272 OA
ATOM      5  H   UNL     1      -3.543   2.766  -3.700  1.00  0.00     0.163 HD
BRANCH   3   6
ATOM      6  C   UNL     1      -0.152   2.437  -3.495  1.00  0.00     0.207 C 
ATOM      7  C   UNL     1       0.675   2.740  -1.322  1.00  0.00     0.138 C 
ATOM      8  C   UNL     1       0.622   4.104  -1.969  1.00  0.00     0.037 C 
ATOM      9  O   UNL     1       0.126   1.793  -2.250  1.00  0.00    -0.363 OA
ATOM     10  C   UNL     1       0.395   3.851  -3.432  1.00  0.00     0.045 C 
BRANCH   7  11
ATOM     11  C   UNL     1       2.008   2.267  -0.727  1.00  0.00     0.149 C 
BRANCH  11  12
ATOM     12  N   UNL     1       3.038   1.808  -1.642  1.00  0.00    -0.335 N 
ATOM     13  N   UNL     1       4.465   3.530  -2.502  1.00  0.00    -0.284 N 
ATOM     14  C   UNL     1       4.083   2.266  -2.329  1.00  0.00     0.321 C 
ATOM     15  H   UNL     1       5.158   3.619  -3.196  1.00  0.00     0.174 HD
ATOM     16  O   UNL     1       4.700   1.408  -2.976  1.00  0.00    -0.248 OA
ATOM     17  H   UNL     1       2.928   0.844  -1.810  1.00  0.00     0.165 HD
BRANCH  13  18
ATOM     18  C   UNL     1       4.133   4.726  -1.954  1.00  0.00     0.190 A 
ATOM     19  C   UNL     1       2.246   7.134   0.323  1.00  0.00     0.058 C 
ATOM     20  C   UNL     1       3.151   6.461  -0.640  1.00  0.00     0.023 A 
ATOM     21  C   UNL     1       3.498   6.823  -1.926  1.00  0.00     0.128 A 
ATOM     22  S   UNL     1       3.887   4.949  -0.287  1.00  0.00    -0.102 S 
ATOM     23  N   UNL     1       4.118   5.832  -2.662  1.00  0.00    -0.228 NA
ENDBRANCH  13  18
ENDBRANCH  11  12
ENDBRANCH   7  11
ENDBRANCH   3   6
ENDBRANCH   1   2
BRANCH   1  24
ATOM     24  C   UNL     1      -2.923   4.480  -1.515  1.00  0.00     0.042 C 
BRANCH  24  25
ATOM     25  C   UNL     1      -4.378   4.927  -1.548  1.00  0.00     0.118 C 
BRANCH  25  26
ATOM     26  N   UNL     1      -5.152   4.329  -0.468  1.00  0.00    -0.352 N 
ATOM     27  C   UNL     1      -5.938   4.914   0.491  1.00  0.00     0.251 C 
ATOM     28  H   UNL     1      -5.103   3.347  -0.418  1.00  0.00     0.163 HD
ATOM     29  O   UNL     1      -6.328   4.247   1.443  1.00  0.00    -0.269 OA
BRANCH  27  30
ATOM     30  C   UNL     1      -6.305   6.342   0.392  1.00  0.00     0.039 A 
ATOM     31  C   UNL     1      -6.376   7.099   1.565  1.00  0.00     0.014 A 
ATOM     32  C   UNL     1      -6.610   6.928  -0.839  1.00  0.00     0.014 A 
ATOM     33  C   UNL     1      -6.701   8.454   1.496  1.00  0.00     0.010 A 
ATOM     34  C   UNL     1      -6.843   8.296  -0.916  1.00  0.00     0.010 A 
ATOM     35  C   UNL     1      -6.902   9.070   0.251  1.00  0.00    -0.014 A 
BRANCH  35  36
ATOM     36  C   UNL     1      -7.184  10.522   0.148  1.00  0.00     0.031 A 
ATOM     37  C   UNL     1      -8.491  10.997  -0.423  1.00  0.00     0.074 A 
ATOM     38  C   UNL     1      -6.235  11.407   0.508  1.00  0.00     0.049 A 
ATOM     39  N   UNL     1      -8.894  12.218  -0.664  1.00  0.00    -0.248 NA
ATOM     40  C   UNL     1      -9.464   9.959  -0.803  1.00  0.00     0.031 C 
ATOM     41  C   UNL     1      -4.911  11.060   1.029  1.00  0.00     0.029 A 
ATOM     42  N   UNL     1      -6.232  12.778   0.480  1.00  0.00    -0.354 N 
ATOM     43  C   UNL     1     -10.154  12.094  -1.235  1.00  0.00     0.074 A 
ATOM     44  C   UNL     1     -10.426  10.679  -1.360  1.00  0.00     0.031 C 
ATOM     45  C   UNL     1      -4.234  12.188   1.295  1.00  0.00     0.029 A 
ATOM     46  C   UNL     1      -5.057  13.335   0.922  1.00  0.00     0.049 A 
ATOM     47  H   UNL     1      -6.999  13.313   0.172  1.00  0.00     0.167 HD
ATOM     48  C   UNL     1     -11.016  13.073  -1.597  1.00  0.00     0.037 A 
ATOM     49  C   UNL     1      -4.683  14.625   1.007  1.00  0.00     0.037 A 
ATOM     50  C   UNL     1     -10.745  14.479  -1.447  1.00  0.00     0.049 A 
ATOM     51  C   UNL     1      -5.657  15.693   0.589  1.00  0.00     0.074 A 
ATOM     52  C   UNL     1     -11.571  15.552  -1.727  1.00  0.00     0.029 A 
ATOM     53  N   UNL     1      -9.549  15.005  -0.978  1.00  0.00    -0.354 N 
ATOM     54  N   UNL     1      -6.873  15.566   0.117  1.00  0.00    -0.248 NA
ATOM     55  C   UNL     1      -5.208  17.086   0.721  1.00  0.00     0.031 C 
ATOM     56  C   UNL     1     -10.857  16.729  -1.480  1.00  0.00     0.029 A 
ATOM     57  C   UNL     1      -9.607  16.390  -0.986  1.00  0.00     0.049 A 
ATOM     58  H   UNL     1      -8.775  14.474  -0.683  1.00  0.00     0.167 HD
ATOM     59  C   UNL     1      -7.347  16.857  -0.072  1.00  0.00     0.074 A 
ATOM     60  C   UNL     1      -6.290  17.753   0.350  1.00  0.00     0.031 C 
ATOM     61  C   UNL     1      -8.548  17.265  -0.552  1.00  0.00     0.037 A 
BRANCH  48  62
ATOM     62  C   UNL     1     -12.333  12.660  -2.191  1.00  0.00     0.064 A 
ATOM     63  C   UNL     1     -13.318  12.016  -1.426  1.00  0.00     0.173 A 
ATOM     64  C   UNL     1     -12.630  12.945  -3.532  1.00  0.00     0.173 A 
ATOM     65  F   UNL     1     -13.082  11.709  -0.141  1.00  0.00    -0.203 F 
ATOM     66  C   UNL     1     -14.537  11.646  -1.989  1.00  0.00     0.198 A 
ATOM     67  C   UNL     1     -13.863  12.604  -4.083  1.00  0.00     0.198 A 
ATOM     68  F   UNL     1     -11.728  13.563  -4.309  1.00  0.00    -0.203 F 
ATOM     69  F   UNL     1     -15.440  10.985  -1.252  1.00  0.00    -0.200 F 
ATOM     70  C   UNL     1     -14.812  11.947  -3.314  1.00  0.00     0.200 A 
ATOM     71  F   UNL     1     -14.132  12.909  -5.360  1.00  0.00    -0.200 F 
ATOM     72  F   UNL     1     -15.989  11.599  -3.852  1.00  0.00    -0.200 F 
ENDBRANCH  48  62
BRANCH  49  73
ATOM     73  C   UNL     1      -3.336  14.977   1.529  1.00  0.00     0.064 A 
ATOM     74  C   UNL     1      -3.188  15.633   2.759  1.00  0.00     0.173 A 
ATOM     75  C   UNL     1      -2.171  14.669   0.811  1.00  0.00     0.173 A 
ATOM     76  F   UNL     1      -4.272  15.962   3.476  1.00  0.00    -0.203 F 
ATOM     77  C   UNL     1      -1.929  15.989   3.239  1.00  0.00     0.198 A 
ATOM     78  C   UNL     1      -0.911  14.997   1.307  1.00  0.00     0.198 A 
ATOM     79  F   UNL     1      -2.255  14.033  -0.367  1.00  0.00    -0.203 F 
ATOM     80  F   UNL     1      -1.821  16.659   4.395  1.00  0.00    -0.200 F 
ATOM     81  C   UNL     1      -0.791  15.666   2.516  1.00  0.00     0.200 A 
ATOM     82  F   UNL     1       0.187  14.664   0.615  1.00  0.00    -0.200 F 
ATOM     83  F   UNL     1       0.419  16.004   2.980  1.00  0.00    -0.200 F 
ENDBRANCH  49  73
BRANCH  61  84
ATOM     84  C   UNL     1      -8.800  18.744  -0.606  1.00  0.00     0.064 A 
ATOM     85  C   UNL     1      -8.143  19.573  -1.526  1.00  0.00     0.173 A 
ATOM     86  C   UNL     1      -9.745  19.331   0.251  1.00  0.00     0.173 A 
ATOM     87  F   UNL     1      -7.221  19.064  -2.356  1.00  0.00    -0.203 F 
ATOM     88  C   UNL     1      -8.402  20.941  -1.568  1.00  0.00     0.198 A 
ATOM     89  C   UNL     1     -10.026  20.692   0.182  1.00  0.00     0.198 A 
ATOM     90  F   UNL     1     -10.407  18.581   1.144  1.00  0.00    -0.203 F 
ATOM     91  F   UNL     1      -7.724  21.723  -2.419  1.00  0.00    -0.200 F 
ATOM     92  C   UNL     1      -9.349  21.497  -0.720  1.00  0.00     0.200 A 
ATOM     93  F   UNL     1     -10.953  21.224   0.990  1.00  0.00    -0.200 F 
ATOM     94  F   UNL     1      -9.603  22.812  -0.768  1.00  0.00    -0.200 F 
ENDBRANCH  61  84
ENDBRANCH  35  36
ENDBRANCH  27  30
ENDBRANCH  25  26
ENDBRANCH  24  25
ENDBRANCH   1  24
TORSDOF 13
