REMARK SMILES CC/C=C/C/C=C/C/C=C/C/C=C/CCSCCCC(=O)NCCCNC(=O)c1ccc(-c2c3nc(c(-c4c(F)c(F)c(F)c(F)c4F)c4ccc([nH]4)c(-c4c(F)c(F)c(F)c(F)c4F)c4nc(c(-c5c(F)c(F)c(F)c(F)c5F)c5ccc2[nH]5)C=C4)C=C3)cc1
REMARK SMILES IDX 17 1 16 2 15 3 14 4 13 5 12 6 11 7 10 8 9 9 8 10 7 11 6 12
REMARK SMILES IDX 5 13 4 14 3 15 2 16 1 17 18 18 19 19 20 20 21 21 22 22 23 24
REMARK SMILES IDX 24 25 25 26 26 27 27 28 28 30 29 31 30 32 91 33 31 34 90 35
REMARK SMILES IDX 32 36 33 37 34 38 84 39 35 40 89 41 83 42 85 43 36 44 88 45
REMARK SMILES IDX 82 46 81 47 37 49 69 50 49 51 68 52 50 53 53 54 67 55 86 56
REMARK SMILES IDX 51 57 52 58 66 60 87 61 54 62 38 63 39 64 47 65 40 66 41 67
REMARK SMILES IDX 45 68 48 69 42 70 43 71 46 72 44 73 70 74 71 75 79 76 72 77
REMARK SMILES IDX 73 78 77 79 80 80 74 81 75 82 78 83 76 84 55 85 56 86 64 87
REMARK SMILES IDX 57 88 58 89 62 90 65 91 59 92 60 93 63 94 61 95
REMARK H PARENT 22 23 26 29 85 48 53 59
REMARK Flexibility Score: inf
ROOT
ATOM      1  C   UNL     1      -6.271  -8.025  11.270  1.00  0.00     0.070 C 
ENDROOT
BRANCH   1   2
ATOM      2  S   UNL     1      -6.752  -9.340  10.056  1.00  0.00    -0.162 SA
BRANCH   2   3
ATOM      3  C   UNL     1      -5.694  -9.280   8.540  1.00  0.00     0.073 C 
BRANCH   3   4
ATOM      4  C   UNL     1      -6.195  -8.486   7.297  1.00  0.00     0.038 C 
BRANCH   4   5
ATOM      5  C   UNL     1      -5.446  -7.213   6.982  1.00  0.00    -0.030 C 
ATOM      6  C   UNL     1      -5.574  -6.431   5.894  1.00  0.00    -0.027 C 
BRANCH   6   7
ATOM      7  C   UNL     1      -5.075  -4.997   5.832  1.00  0.00     0.054 C 
BRANCH   7   8
ATOM      8  C   UNL     1      -3.636  -4.783   6.208  1.00  0.00    -0.027 C 
ATOM      9  C   UNL     1      -2.869  -3.828   5.653  1.00  0.00    -0.027 C 
BRANCH   9  10
ATOM     10  C   UNL     1      -1.410  -3.629   5.958  1.00  0.00     0.054 C 
BRANCH  10  11
ATOM     11  C   UNL     1      -0.611  -4.144   4.799  1.00  0.00    -0.027 C 
ATOM     12  C   UNL     1       0.177  -3.390   4.019  1.00  0.00    -0.027 C 
BRANCH  12  13
ATOM     13  C   UNL     1       0.781  -3.884   2.736  1.00  0.00     0.054 C 
BRANCH  13  14
ATOM     14  C   UNL     1       0.258  -3.058   1.595  1.00  0.00    -0.027 C 
ATOM     15  C   UNL     1       1.027  -2.312   0.788  1.00  0.00    -0.031 C 
BRANCH  15  16
ATOM     16  C   UNL     1       0.481  -1.408  -0.277  1.00  0.00     0.023 C 
ATOM     17  C   UNL     1       0.909   0.031  -0.027  1.00  0.00     0.008 C 
ENDBRANCH  15  16
ENDBRANCH  13  14
ENDBRANCH  12  13
ENDBRANCH  10  11
ENDBRANCH   9  10
ENDBRANCH   7   8
ENDBRANCH   6   7
ENDBRANCH   4   5
ENDBRANCH   3   4
ENDBRANCH   2   3
ENDBRANCH   1   2
BRANCH   1  18
ATOM     18  C   UNL     1      -4.890  -7.408  11.486  1.00  0.00     0.021 C 
BRANCH  18  19
ATOM     19  C   UNL     1      -4.173  -6.731  10.338  1.00  0.00     0.101 C 
BRANCH  19  20
ATOM     20  C   UNL     1      -4.503  -5.282  10.012  1.00  0.00     0.220 C 
ATOM     21  O   UNL     1      -3.610  -4.429  10.050  1.00  0.00    -0.275 OA
ATOM     22  N   UNL     1      -5.725  -4.857   9.604  1.00  0.00    -0.356 N 
ATOM     23  H   UNL     1      -5.832  -3.878   9.601  1.00  0.00     0.163 HD
BRANCH  22  24
ATOM     24  C   UNL     1      -6.900  -5.582   9.172  1.00  0.00     0.117 C 
BRANCH  24  25
ATOM     25  C   UNL     1      -8.172  -5.113   9.851  1.00  0.00     0.042 C 
BRANCH  25  26
ATOM     26  C   UNL     1      -9.051  -4.353   8.872  1.00  0.00     0.118 C 
BRANCH  26  27
ATOM     27  N   UNL     1      -9.746  -5.228   7.931  1.00  0.00    -0.352 N 
ATOM     28  C   UNL     1     -11.081  -5.234   7.576  1.00  0.00     0.251 C 
ATOM     29  H   UNL     1      -9.186  -5.907   7.489  1.00  0.00     0.163 HD
ATOM     30  O   UNL     1     -11.536  -6.114   6.870  1.00  0.00    -0.269 OA
BRANCH  28  31
ATOM     31  C   UNL     1     -11.962  -4.171   8.112  1.00  0.00     0.039 A 
ATOM     32  C   UNL     1     -13.198  -4.524   8.655  1.00  0.00     0.014 A 
ATOM     33  C   UNL     1     -11.526  -2.846   8.153  1.00  0.00     0.014 A 
ATOM     34  C   UNL     1     -13.951  -3.558   9.325  1.00  0.00     0.010 A 
ATOM     35  C   UNL     1     -12.210  -1.924   8.932  1.00  0.00     0.010 A 
ATOM     36  C   UNL     1     -13.436  -2.265   9.520  1.00  0.00    -0.014 A 
BRANCH  36  37
ATOM     37  C   UNL     1     -14.166  -1.262  10.336  1.00  0.00     0.031 A 
ATOM     38  C   UNL     1     -14.587   0.049   9.728  1.00  0.00     0.074 A 
ATOM     39  C   UNL     1     -14.403  -1.511  11.639  1.00  0.00     0.049 A 
ATOM     40  N   UNL     1     -15.225   1.051  10.280  1.00  0.00    -0.248 NA
ATOM     41  C   UNL     1     -14.208   0.287   8.325  1.00  0.00     0.031 C 
ATOM     42  C   UNL     1     -13.964  -2.705  12.367  1.00  0.00     0.029 A 
ATOM     43  N   UNL     1     -15.074  -0.778  12.585  1.00  0.00    -0.354 N 
ATOM     44  C   UNL     1     -15.314   2.029   9.298  1.00  0.00     0.074 A 
ATOM     45  C   UNL     1     -14.591   1.541   8.146  1.00  0.00     0.031 C 
ATOM     46  C   UNL     1     -14.420  -2.646  13.628  1.00  0.00     0.029 A 
ATOM     47  C   UNL     1     -15.151  -1.397  13.810  1.00  0.00     0.049 A 
ATOM     48  H   UNL     1     -15.464   0.107  12.404  1.00  0.00     0.167 HD
ATOM     49  C   UNL     1     -15.974   3.210   9.336  1.00  0.00     0.037 A 
ATOM     50  C   UNL     1     -15.751  -1.002  14.949  1.00  0.00     0.037 A 
ATOM     51  C   UNL     1     -16.713   3.679  10.478  1.00  0.00     0.049 A 
ATOM     52  C   UNL     1     -16.497   0.305  14.960  1.00  0.00     0.074 A 
ATOM     53  C   UNL     1     -17.466   4.832  10.606  1.00  0.00     0.029 A 
ATOM     54  N   UNL     1     -16.789   3.014  11.694  1.00  0.00    -0.354 N 
ATOM     55  N   UNL     1     -16.649   1.180  13.996  1.00  0.00    -0.248 NA
ATOM     56  C   UNL     1     -17.167   0.671  16.214  1.00  0.00     0.031 C 
ATOM     57  C   UNL     1     -17.957   4.890  11.915  1.00  0.00     0.029 A 
ATOM     58  C   UNL     1     -17.559   3.744  12.585  1.00  0.00     0.049 A 
ATOM     59  H   UNL     1     -16.359   2.151  11.893  1.00  0.00     0.167 HD
ATOM     60  C   UNL     1     -17.445   2.190  14.518  1.00  0.00     0.074 A 
ATOM     61  C   UNL     1     -17.771   1.800  15.875  1.00  0.00     0.031 C 
ATOM     62  C   UNL     1     -17.863   3.341  13.934  1.00  0.00     0.037 A 
BRANCH  49  63
ATOM     63  C   UNL     1     -15.940   4.064   8.100  1.00  0.00     0.064 A 
ATOM     64  C   UNL     1     -16.580   3.667   6.914  1.00  0.00     0.173 A 
ATOM     65  C   UNL     1     -15.280   5.301   8.102  1.00  0.00     0.173 A 
ATOM     66  F   UNL     1     -17.212   2.485   6.851  1.00  0.00    -0.203 F 
ATOM     67  C   UNL     1     -16.531   4.460   5.770  1.00  0.00     0.198 A 
ATOM     68  C   UNL     1     -15.263   6.108   6.967  1.00  0.00     0.198 A 
ATOM     69  F   UNL     1     -14.653   5.732   9.207  1.00  0.00    -0.203 F 
ATOM     70  F   UNL     1     -17.099   4.031   4.635  1.00  0.00    -0.200 F 
ATOM     71  C   UNL     1     -15.880   5.683   5.800  1.00  0.00     0.200 A 
ATOM     72  F   UNL     1     -14.645   7.297   7.001  1.00  0.00    -0.200 F 
ATOM     73  F   UNL     1     -15.840   6.449   4.701  1.00  0.00    -0.200 F 
ENDBRANCH  49  63
BRANCH  50  74
ATOM     74  C   UNL     1     -15.703  -1.869  16.157  1.00  0.00     0.064 A 
ATOM     75  C   UNL     1     -16.860  -2.493  16.646  1.00  0.00     0.173 A 
ATOM     76  C   UNL     1     -14.504  -2.088  16.852  1.00  0.00     0.173 A 
ATOM     77  F   UNL     1     -18.036  -2.301  16.029  1.00  0.00    -0.203 F 
ATOM     78  C   UNL     1     -16.825  -3.280  17.796  1.00  0.00     0.198 A 
ATOM     79  C   UNL     1     -14.464  -2.902  17.982  1.00  0.00     0.198 A 
ATOM     80  F   UNL     1     -13.366  -1.523  16.423  1.00  0.00    -0.203 F 
ATOM     81  F   UNL     1     -17.956  -3.821  18.270  1.00  0.00    -0.200 F 
ATOM     82  C   UNL     1     -15.626  -3.489  18.459  1.00  0.00     0.200 A 
ATOM     83  F   UNL     1     -13.299  -3.116  18.610  1.00  0.00    -0.200 F 
ATOM     84  F   UNL     1     -15.591  -4.250  19.562  1.00  0.00    -0.200 F 
ENDBRANCH  50  74
BRANCH  62  85
ATOM     85  C   UNL     1     -18.733   4.245  14.760  1.00  0.00     0.064 A 
ATOM     86  C   UNL     1     -18.226   4.941  15.868  1.00  0.00     0.173 A 
ATOM     87  C   UNL     1     -20.085   4.427  14.432  1.00  0.00     0.173 A 
ATOM     88  F   UNL     1     -16.943   4.792  16.231  1.00  0.00    -0.203 F 
ATOM     89  C   UNL     1     -19.052   5.751  16.643  1.00  0.00     0.198 A 
ATOM     90  C   UNL     1     -20.898   5.267  15.188  1.00  0.00     0.198 A 
ATOM     91  F   UNL     1     -20.617   3.793  13.377  1.00  0.00    -0.203 F 
ATOM     92  F   UNL     1     -18.562   6.352  17.736  1.00  0.00    -0.200 F 
ATOM     93  C   UNL     1     -20.385   5.917  16.299  1.00  0.00     0.200 A 
ATOM     94  F   UNL     1     -22.182   5.440  14.844  1.00  0.00    -0.200 F 
ATOM     95  F   UNL     1     -21.178   6.696  17.047  1.00  0.00    -0.200 F 
ENDBRANCH  62  85
ENDBRANCH  36  37
ENDBRANCH  28  31
ENDBRANCH  26  27
ENDBRANCH  25  26
ENDBRANCH  24  25
ENDBRANCH  22  24
ENDBRANCH  19  20
ENDBRANCH  18  19
ENDBRANCH   1  18
TORSDOF 23
