REMARK SMILES O=C(NCCCNC(=O)[C@H]1C[C@@H](C(=O)N2CCCC2)C[N@@H+](Cc2cccnc2)C1)c1ccc(-c2c3nc(c(-c4c(F)c(F)c(F)c(F)c4F)c4ccc([nH]4)c(-c4c(F)c(F)c(F)c(F)c4F)c4nc(c(-c5c(F)c(F)c(F)c(F)c5F)c5ccc2[nH]5)C=C4)C=C3)cc1
REMARK SMILES IDX 5 1 4 2 3 3 1 4 2 5 30 7 31 8 92 9 32 10 91 11 33 12 34 13
REMARK SMILES IDX 35 14 85 15 36 16 90 17 84 18 86 19 37 20 89 21 83 22 82 23
REMARK SMILES IDX 38 25 70 26 50 27 69 28 51 29 54 30 68 31 87 32 52 33 53 34
REMARK SMILES IDX 67 36 88 37 55 38 39 39 40 40 48 41 41 42 42 43 46 44 49 45
REMARK SMILES IDX 43 46 44 47 47 48 45 49 71 50 72 51 80 52 73 53 74 54 78 55
REMARK SMILES IDX 81 56 75 57 76 58 79 59 77 60 56 61 57 62 65 63 58 64 59 65
REMARK SMILES IDX 63 66 66 67 60 68 61 69 64 70 62 71 6 72 7 73 8 74 9 76
REMARK SMILES IDX 10 77 11 78 29 79 12 80 21 81 20 82 13 84 14 85 15 86 16 87
REMARK SMILES IDX 19 88 17 89 18 90 22 91 23 92 24 93 28 94 25 95 27 96 26 97
REMARK H PARENT 3 6 86 24 54 35 7 75 21 83
REMARK Flexibility Score: inf
ROOT
ATOM      1  C   UNL     1       3.152  -2.870  -2.237  1.00  0.00     0.042 C 
ENDROOT
BRANCH   1   2
ATOM      2  C   UNL     1       3.062  -2.867  -0.714  1.00  0.00     0.118 C 
BRANCH   2   3
ATOM      3  N   UNL     1       2.868  -1.532  -0.160  1.00  0.00    -0.352 N 
ATOM      4  O   UNL     1       1.795   0.300   0.573  1.00  0.00    -0.269 OA
ATOM      5  C   UNL     1       1.763  -0.915   0.370  1.00  0.00     0.251 C 
ATOM      6  H   UNL     1       3.677  -0.971  -0.168  1.00  0.00     0.163 HD
BRANCH   5   7
ATOM      7  C   UNL     1       0.535  -1.672   0.690  1.00  0.00     0.039 A 
ATOM      8  C   UNL     1       0.600  -2.950   1.241  1.00  0.00     0.014 A 
ATOM      9  C   UNL     1      -0.713  -1.068   0.493  1.00  0.00     0.014 A 
ATOM     10  C   UNL     1      -0.565  -3.688   1.425  1.00  0.00     0.010 A 
ATOM     11  C   UNL     1      -1.888  -1.772   0.781  1.00  0.00     0.010 A 
ATOM     12  C   UNL     1      -1.824  -3.106   1.210  1.00  0.00    -0.014 A 
BRANCH  12  13
ATOM     13  C   UNL     1      -3.047  -3.907   1.482  1.00  0.00     0.031 A 
ATOM     14  C   UNL     1      -4.014  -4.251   0.383  1.00  0.00     0.074 A 
ATOM     15  C   UNL     1      -3.256  -4.369   2.731  1.00  0.00     0.049 A 
ATOM     16  N   UNL     1      -5.091  -4.997   0.433  1.00  0.00    -0.248 NA
ATOM     17  C   UNL     1      -3.747  -3.680  -0.945  1.00  0.00     0.031 C 
ATOM     18  C   UNL     1      -2.397  -4.090   3.885  1.00  0.00     0.029 A 
ATOM     19  N   UNL     1      -4.232  -5.190   3.237  1.00  0.00    -0.354 N 
ATOM     20  C   UNL     1      -5.638  -4.967  -0.843  1.00  0.00     0.074 A 
ATOM     21  C   UNL     1      -4.793  -4.104  -1.640  1.00  0.00     0.031 C 
ATOM     22  C   UNL     1      -2.845  -4.778   4.944  1.00  0.00     0.029 A 
ATOM     23  C   UNL     1      -4.060  -5.491   4.566  1.00  0.00     0.049 A 
ATOM     24  H   UNL     1      -4.983  -5.530   2.699  1.00  0.00     0.167 HD
ATOM     25  C   UNL     1      -6.738  -5.608  -1.308  1.00  0.00     0.037 A 
ATOM     26  C   UNL     1      -4.803  -6.250   5.393  1.00  0.00     0.037 A 
ATOM     27  C   UNL     1      -7.567  -6.479  -0.511  1.00  0.00     0.049 A 
ATOM     28  C   UNL     1      -6.033  -6.924   4.856  1.00  0.00     0.074 A 
ATOM     29  C   UNL     1      -8.673  -7.213  -0.903  1.00  0.00     0.029 A 
ATOM     30  N   UNL     1      -7.386  -6.724   0.843  1.00  0.00    -0.354 N 
ATOM     31  N   UNL     1      -6.507  -6.931   3.634  1.00  0.00    -0.248 NA
ATOM     32  C   UNL     1      -6.832  -7.696   5.816  1.00  0.00     0.031 C 
ATOM     33  C   UNL     1      -9.200  -7.849   0.227  1.00  0.00     0.029 A 
ATOM     34  C   UNL     1      -8.381  -7.571   1.309  1.00  0.00     0.049 A 
ATOM     35  H   UNL     1      -6.659  -6.351   1.392  1.00  0.00     0.167 HD
ATOM     36  C   UNL     1      -7.642  -7.730   3.671  1.00  0.00     0.074 A 
ATOM     37  C   UNL     1      -7.772  -8.205   5.033  1.00  0.00     0.031 C 
ATOM     38  C   UNL     1      -8.498  -8.041   2.667  1.00  0.00     0.037 A 
BRANCH  25  39
ATOM     39  C   UNL     1      -7.133  -5.371  -2.740  1.00  0.00     0.064 A 
ATOM     40  C   UNL     1      -6.369  -5.855  -3.813  1.00  0.00     0.173 A 
ATOM     41  C   UNL     1      -8.318  -4.681  -3.042  1.00  0.00     0.173 A 
ATOM     42  F   UNL     1      -5.223  -6.514  -3.584  1.00  0.00    -0.203 F 
ATOM     43  C   UNL     1      -6.758  -5.628  -5.132  1.00  0.00     0.198 A 
ATOM     44  C   UNL     1      -8.721  -4.485  -4.361  1.00  0.00     0.198 A 
ATOM     45  F   UNL     1      -9.093  -4.204  -2.056  1.00  0.00    -0.203 F 
ATOM     46  F   UNL     1      -5.984  -6.053  -6.140  1.00  0.00    -0.200 F 
ATOM     47  C   UNL     1      -7.937  -4.950  -5.404  1.00  0.00     0.200 A 
ATOM     48  F   UNL     1      -9.869  -3.845  -4.620  1.00  0.00    -0.200 F 
ATOM     49  F   UNL     1      -8.313  -4.739  -6.673  1.00  0.00    -0.200 F 
ENDBRANCH  25  39
BRANCH  26  50
ATOM     50  C   UNL     1      -4.395  -6.417   6.813  1.00  0.00     0.064 A 
ATOM     51  C   UNL     1      -3.975  -7.663   7.300  1.00  0.00     0.173 A 
ATOM     52  C   UNL     1      -4.417  -5.340   7.711  1.00  0.00     0.173 A 
ATOM     53  F   UNL     1      -3.954  -8.728   6.486  1.00  0.00    -0.203 F 
ATOM     54  C   UNL     1      -3.614  -7.828   8.636  1.00  0.00     0.198 A 
ATOM     55  C   UNL     1      -4.022  -5.498   9.037  1.00  0.00     0.198 A 
ATOM     56  F   UNL     1      -4.805  -4.125   7.294  1.00  0.00    -0.203 F 
ATOM     57  F   UNL     1      -3.264  -9.040   9.087  1.00  0.00    -0.200 F 
ATOM     58  C   UNL     1      -3.631  -6.745   9.501  1.00  0.00     0.200 A 
ATOM     59  F   UNL     1      -4.021  -4.444   9.864  1.00  0.00    -0.200 F 
ATOM     60  F   UNL     1      -3.276  -6.903  10.783  1.00  0.00    -0.200 F 
ENDBRANCH  26  50
BRANCH  38  61
ATOM     61  C   UNL     1      -9.625  -8.979   2.995  1.00  0.00     0.064 A 
ATOM     62  C   UNL     1     -10.689  -8.598   3.827  1.00  0.00     0.173 A 
ATOM     63  C   UNL     1      -9.646 -10.275   2.457  1.00  0.00     0.173 A 
ATOM     64  F   UNL     1     -10.710  -7.376   4.380  1.00  0.00    -0.203 F 
ATOM     65  C   UNL     1     -11.710  -9.493   4.138  1.00  0.00     0.198 A 
ATOM     66  C   UNL     1     -10.687 -11.154   2.741  1.00  0.00     0.198 A 
ATOM     67  F   UNL     1      -8.657 -10.690   1.651  1.00  0.00    -0.203 F 
ATOM     68  F   UNL     1     -12.681  -9.128   4.987  1.00  0.00    -0.200 F 
ATOM     69  C   UNL     1     -11.712 -10.767   3.590  1.00  0.00     0.200 A 
ATOM     70  F   UNL     1     -10.695 -12.379   2.197  1.00  0.00    -0.200 F 
ATOM     71  F   UNL     1     -12.697 -11.625   3.889  1.00  0.00    -0.200 F 
ENDBRANCH  38  61
ENDBRANCH  12  13
ENDBRANCH   5   7
ENDBRANCH   2   3
ENDBRANCH   1   2
BRANCH   1  72
ATOM     72  C   UNL     1       4.302  -2.037  -2.793  1.00  0.00     0.117 C 
BRANCH  72  73
ATOM     73  N   UNL     1       5.619  -2.547  -2.455  1.00  0.00    -0.356 N 
ATOM     74  C   UNL     1       6.394  -3.425  -3.159  1.00  0.00     0.228 C 
ATOM     75  H   UNL     1       6.003  -2.218  -1.611  1.00  0.00     0.163 HD
ATOM     76  O   UNL     1       7.571  -3.568  -2.829  1.00  0.00    -0.275 OA
BRANCH  74  77
ATOM     77  C   UNL     1       5.745  -4.279  -4.234  1.00  0.00     0.134 C 
ATOM     78  C   UNL     1       6.643  -4.464  -5.450  1.00  0.00     0.038 C 
ATOM     79  C   UNL     1       5.503  -5.651  -3.616  1.00  0.00     0.276 C 
ATOM     80  C   UNL     1       5.942  -5.397  -6.452  1.00  0.00     0.134 C 
ATOM     81  N   UNL     1       4.794  -6.556  -4.527  1.00  0.00    -0.330 N 
ATOM     82  C   UNL     1       5.470  -6.723  -5.834  1.00  0.00     0.276 C 
ATOM     83  H   UNL     1       3.907  -6.106  -4.753  1.00  0.00     0.348 HD
BRANCH  80  84
ATOM     84  C   UNL     1       6.796  -5.496  -7.714  1.00  0.00     0.231 C 
ATOM     85  O   UNL     1       6.368  -5.004  -8.763  1.00  0.00    -0.274 OA
ATOM     86  N   UNL     1       8.093  -5.945  -7.629  1.00  0.00    -0.342 N 
ATOM     87  C   UNL     1       8.688  -6.925  -6.738  1.00  0.00     0.119 C 
ATOM     88  C   UNL     1       9.094  -5.409  -8.535  1.00  0.00     0.119 C 
ATOM     89  C   UNL     1      10.138  -6.497  -6.643  1.00  0.00     0.023 C 
ATOM     90  C   UNL     1      10.437  -5.915  -8.019  1.00  0.00     0.023 C 
ENDBRANCH  80  84
BRANCH  81  91
ATOM     91  C   UNL     1       4.460  -7.841  -3.870  1.00  0.00     0.300 C 
BRANCH  91  92
ATOM     92  C   UNL     1       5.629  -8.736  -3.524  1.00  0.00     0.025 A 
ATOM     93  C   UNL     1       6.497  -8.467  -2.458  1.00  0.00     0.013 A 
ATOM     94  C   UNL     1       5.921  -9.850  -4.304  1.00  0.00     0.120 A 
ATOM     95  C   UNL     1       7.639  -9.239  -2.275  1.00  0.00     0.021 A 
ATOM     96  N   UNL     1       7.010 -10.635  -4.135  1.00  0.00    -0.264 NA
ATOM     97  C   UNL     1       7.852 -10.301  -3.135  1.00  0.00     0.111 A 
ENDBRANCH  91  92
ENDBRANCH  81  91
ENDBRANCH  74  77
ENDBRANCH  72  73
ENDBRANCH   1  72
TORSDOF 13
