REMARK SMILES Nc1nc(N2CCOC[C@H]2C(=O)NCCCNC(=O)c2ccc(-c3c4nc(c(-c5c(F)c(F)c(F)c(F)c5F)c5ccc([nH]5)c(-c5c(F)c(F)c(F)c(F)c5F)c5nc(c(-c6c(F)c(F)c(F)c(F)c6F)c6ccc3[nH]6)C=C5)C=C4)cc2)ccc1[N+](=O)[O-]
REMARK SMILES IDX 15 1 14 2 13 3 11 4 12 5 10 7 5 8 6 9 7 10 9 11 8 12 4 13
REMARK SMILES IDX 2 14 3 15 85 16 84 17 83 18 1 19 86 22 87 23 88 24 16 25
REMARK SMILES IDX 17 26 18 27 19 29 20 30 21 31 82 32 22 33 81 34 23 35 24 36
REMARK SMILES IDX 25 37 75 38 26 39 80 40 74 41 76 42 27 43 79 44 73 45 72 46
REMARK SMILES IDX 28 48 60 49 40 50 59 51 41 52 44 53 58 54 77 55 42 56 43 57
REMARK SMILES IDX 57 59 78 60 45 61 29 62 30 63 38 64 31 65 32 66 36 67 39 68
REMARK SMILES IDX 33 69 34 70 37 71 35 72 61 73 62 74 70 75 63 76 64 77 68 78
REMARK SMILES IDX 71 79 65 80 66 81 69 82 67 83 46 84 47 85 55 86 48 87 49 88
REMARK SMILES IDX 53 89 56 90 50 91 51 92 54 93 52 94
REMARK H PARENT 13 6 1 20 1 21 17 28 76 47 44 58
REMARK Flexibility Score: inf
ROOT
ATOM      1  C   UNL     1      -2.295   4.383   3.336  1.00  0.00     0.042 C 
ENDROOT
BRANCH   1   2
ATOM      2  C   UNL     1      -2.238   5.196   2.049  1.00  0.00     0.117 C 
BRANCH   2   3
ATOM      3  N   UNL     1      -0.988   5.006   1.346  1.00  0.00    -0.354 N 
ATOM      4  C   UNL     1      -0.643   4.248   0.268  1.00  0.00     0.245 C 
ATOM      5  O   UNL     1       0.541   4.365  -0.085  1.00  0.00    -0.273 OA
ATOM      6  H   UNL     1      -0.240   5.526   1.720  1.00  0.00     0.163 HD
BRANCH   4   7
ATOM      7  C   UNL     1      -1.611   3.363  -0.555  1.00  0.00     0.199 C 
ATOM      8  N   UNL     1      -2.075   2.111   0.088  1.00  0.00    -0.340 N 
ATOM      9  C   UNL     1      -3.368   2.111   0.758  1.00  0.00     0.147 C 
ATOM     10  C   UNL     1      -4.417   2.807  -0.107  1.00  0.00     0.181 C 
ATOM     11  C   UNL     1      -2.782   4.142  -1.196  1.00  0.00     0.195 C 
ATOM     12  O   UNL     1      -4.012   4.136  -0.450  1.00  0.00    -0.377 OA
BRANCH   8  13
ATOM     13  C   UNL     1      -1.291   0.980   0.011  1.00  0.00     0.132 A 
ATOM     14  C   UNL     1       0.853   0.017   0.029  1.00  0.00     0.204 A 
ATOM     15  N   UNL     1       0.052   1.112   0.055  1.00  0.00    -0.207 NA
ATOM     16  C   UNL     1       0.320  -1.263  -0.060  1.00  0.00     0.311 A 
ATOM     17  C   UNL     1      -1.060  -1.419  -0.165  1.00  0.00     0.093 A 
ATOM     18  C   UNL     1      -1.863  -0.285  -0.128  1.00  0.00     0.054 A 
BRANCH  14  19
ATOM     19  N   UNL     1       2.194   0.295   0.201  1.00  0.00    -0.378 N 
ATOM     20  H   UNL     1       2.500   1.229   0.256  1.00  0.00     0.158 HD
ATOM     21  H   UNL     1       2.845  -0.441   0.270  1.00  0.00     0.158 HD
ENDBRANCH  14  19
BRANCH  16  22
ATOM     22  N   UNL     1       1.160  -2.450  -0.057  1.00  0.00     0.066 N 
ATOM     23  O   UNL     1       0.643  -3.509   0.332  1.00  0.00    -0.258 OA
ATOM     24  O   UNL     1       2.324  -2.352  -0.474  1.00  0.00    -0.258 OA
ENDBRANCH  16  22
ENDBRANCH   8  13
ENDBRANCH   4   7
ENDBRANCH   2   3
ENDBRANCH   1   2
BRANCH   1  25
ATOM     25  C   UNL     1      -1.705   5.105   4.538  1.00  0.00     0.118 C 
BRANCH  25  26
ATOM     26  N   UNL     1      -2.579   6.165   5.023  1.00  0.00    -0.352 N 
ATOM     27  C   UNL     1      -3.190   6.346   6.238  1.00  0.00     0.251 C 
ATOM     28  H   UNL     1      -2.761   6.875   4.365  1.00  0.00     0.163 HD
ATOM     29  O   UNL     1      -4.046   7.221   6.346  1.00  0.00    -0.269 OA
BRANCH  27  30
ATOM     30  C   UNL     1      -2.857   5.507   7.416  1.00  0.00     0.039 A 
ATOM     31  C   UNL     1      -3.865   5.243   8.350  1.00  0.00     0.014 A 
ATOM     32  C   UNL     1      -1.564   5.036   7.655  1.00  0.00     0.014 A 
ATOM     33  C   UNL     1      -3.586   4.485   9.491  1.00  0.00     0.010 A 
ATOM     34  C   UNL     1      -1.309   4.197   8.739  1.00  0.00     0.010 A 
ATOM     35  C   UNL     1      -2.308   3.936   9.685  1.00  0.00    -0.014 A 
BRANCH  35  36
ATOM     36  C   UNL     1      -2.003   3.126  10.893  1.00  0.00     0.031 A 
ATOM     37  C   UNL     1      -0.980   3.602  11.890  1.00  0.00     0.074 A 
ATOM     38  C   UNL     1      -2.622   1.944  11.077  1.00  0.00     0.049 A 
ATOM     39  N   UNL     1      -0.587   3.041  13.007  1.00  0.00    -0.248 NA
ATOM     40  C   UNL     1      -0.282   4.859  11.578  1.00  0.00     0.031 C 
ATOM     41  C   UNL     1      -3.574   1.335  10.147  1.00  0.00     0.029 A 
ATOM     42  N   UNL     1      -2.543   1.042  12.108  1.00  0.00    -0.354 N 
ATOM     43  C   UNL     1       0.414   3.861  13.512  1.00  0.00     0.074 A 
ATOM     44  C   UNL     1       0.610   4.927  12.555  1.00  0.00     0.031 C 
ATOM     45  C   UNL     1      -4.019   0.180  10.666  1.00  0.00     0.029 A 
ATOM     46  C   UNL     1      -3.368  -0.044  11.954  1.00  0.00     0.049 A 
ATOM     47  H   UNL     1      -1.950   1.163  12.885  1.00  0.00     0.167 HD
ATOM     48  C   UNL     1       1.090   3.753  14.681  1.00  0.00     0.037 A 
ATOM     49  C   UNL     1      -3.587  -1.095  12.767  1.00  0.00     0.037 A 
ATOM     50  C   UNL     1       0.862   2.716  15.652  1.00  0.00     0.049 A 
ATOM     51  C   UNL     1      -2.876  -1.157  14.091  1.00  0.00     0.074 A 
ATOM     52  C   UNL     1       1.439   2.557  16.900  1.00  0.00     0.029 A 
ATOM     53  N   UNL     1      -0.023   1.661  15.483  1.00  0.00    -0.354 N 
ATOM     54  N   UNL     1      -1.995  -0.328  14.596  1.00  0.00    -0.248 NA
ATOM     55  C   UNL     1      -3.206  -2.289  14.966  1.00  0.00     0.031 C 
ATOM     56  C   UNL     1       0.928   1.387  17.472  1.00  0.00     0.029 A 
ATOM     57  C   UNL     1      -0.000   0.841  16.599  1.00  0.00     0.049 A 
ATOM     58  H   UNL     1      -0.584   1.517  14.687  1.00  0.00     0.167 HD
ATOM     59  C   UNL     1      -1.684  -0.823  15.855  1.00  0.00     0.074 A 
ATOM     60  C   UNL     1      -2.486  -2.014  16.045  1.00  0.00     0.031 C 
ATOM     61  C   UNL     1      -0.812  -0.336  16.772  1.00  0.00     0.037 A 
BRANCH  48  62
ATOM     62  C   UNL     1       2.133   4.792  14.978  1.00  0.00     0.064 A 
ATOM     63  C   UNL     1       1.786   6.121  15.270  1.00  0.00     0.173 A 
ATOM     64  C   UNL     1       3.494   4.452  14.995  1.00  0.00     0.173 A 
ATOM     65  F   UNL     1       0.500   6.502  15.255  1.00  0.00    -0.203 F 
ATOM     66  C   UNL     1       2.764   7.076  15.536  1.00  0.00     0.198 A 
ATOM     67  C   UNL     1       4.468   5.404  15.291  1.00  0.00     0.198 A 
ATOM     68  F   UNL     1       3.881   3.196  14.729  1.00  0.00    -0.203 F 
ATOM     69  F   UNL     1       2.411   8.350  15.758  1.00  0.00    -0.200 F 
ATOM     70  C   UNL     1       4.103   6.716  15.552  1.00  0.00     0.200 A 
ATOM     71  F   UNL     1       5.761   5.051  15.319  1.00  0.00    -0.200 F 
ATOM     72  F   UNL     1       5.043   7.635  15.811  1.00  0.00    -0.200 F 
ENDBRANCH  48  62
BRANCH  49  73
ATOM     73  C   UNL     1      -4.568  -2.139  12.375  1.00  0.00     0.064 A 
ATOM     74  C   UNL     1      -5.804  -2.245  13.028  1.00  0.00     0.173 A 
ATOM     75  C   UNL     1      -4.298  -3.042  11.337  1.00  0.00     0.173 A 
ATOM     76  F   UNL     1      -6.100  -1.414  14.038  1.00  0.00    -0.203 F 
ATOM     77  C   UNL     1      -6.726  -3.225  12.669  1.00  0.00     0.198 A 
ATOM     78  C   UNL     1      -5.232  -4.005  10.961  1.00  0.00     0.198 A 
ATOM     79  F   UNL     1      -3.133  -2.976  10.675  1.00  0.00    -0.203 F 
ATOM     80  F   UNL     1      -7.884  -3.328  13.335  1.00  0.00    -0.200 F 
ATOM     81  C   UNL     1      -6.442  -4.101  11.632  1.00  0.00     0.200 A 
ATOM     82  F   UNL     1      -4.961  -4.840   9.948  1.00  0.00    -0.200 F 
ATOM     83  F   UNL     1      -7.333  -5.038  11.282  1.00  0.00    -0.200 F 
ENDBRANCH  49  73
BRANCH  61  84
ATOM     84  C   UNL     1      -0.705  -1.075  18.073  1.00  0.00     0.064 A 
ATOM     85  C   UNL     1      -0.079  -2.328  18.157  1.00  0.00     0.173 A 
ATOM     86  C   UNL     1      -1.215  -0.512  19.252  1.00  0.00     0.173 A 
ATOM     87  F   UNL     1       0.411  -2.913  17.055  1.00  0.00    -0.203 F 
ATOM     88  C   UNL     1       0.004  -3.004  19.372  1.00  0.00     0.198 A 
ATOM     89  C   UNL     1      -1.104  -1.178  20.469  1.00  0.00     0.198 A 
ATOM     90  F   UNL     1      -1.816   0.687  19.225  1.00  0.00    -0.203 F 
ATOM     91  F   UNL     1       0.559  -4.222  19.421  1.00  0.00    -0.200 F 
ATOM     92  C   UNL     1      -0.503  -2.427  20.526  1.00  0.00     0.200 A 
ATOM     93  F   UNL     1      -1.585  -0.615  21.586  1.00  0.00    -0.200 F 
ATOM     94  F   UNL     1      -0.422  -3.079  21.694  1.00  0.00    -0.200 F 
ENDBRANCH  61  84
ENDBRANCH  35  36
ENDBRANCH  27  30
ENDBRANCH  25  26
ENDBRANCH   1  25
TORSDOF 13
