REMARK SMILES COc1cc(Cl)c2c(c1)C=C(C(=O)NCCCNC(=O)c1ccc(-c3c4nc(c(-c5c(F)c(F)c(F)c(F)c5F)c5ccc([nH]5)c(-c5c(F)c(F)c(F)c(F)c5F)c5nc(c(-c6c(F)c(F)c(F)c(F)c6F)c6ccc3[nH]6)C=C5)C=C4)cc1)[C@@H](C(F)(F)F)O2
REMARK SMILES IDX 16 1 15 2 14 3 12 4 13 5 11 7 3 8 4 9 9 10 5 11 8 12 6 13
REMARK SMILES IDX 7 14 10 15 89 16 84 17 2 18 1 19 85 20 86 21 87 22 88 23
REMARK SMILES IDX 17 24 18 25 19 26 20 28 21 29 22 30 83 31 23 32 82 33 24 34
REMARK SMILES IDX 25 35 26 36 76 37 27 38 81 39 75 40 77 41 28 42 80 43 74 44
REMARK SMILES IDX 73 45 29 47 61 48 41 49 60 50 42 51 45 52 59 53 78 54 43 55
REMARK SMILES IDX 44 56 58 58 79 59 46 60 30 61 31 62 39 63 32 64 33 65 37 66
REMARK SMILES IDX 40 67 34 68 35 69 38 70 36 71 62 72 63 73 71 74 64 75 65 76
REMARK SMILES IDX 69 77 72 78 66 79 67 80 70 81 68 82 47 83 48 84 56 85 49 86
REMARK SMILES IDX 50 87 54 88 57 89 51 90 52 91 55 92 53 93
REMARK H PARENT 14 6 18 27 77 46 45 57
REMARK Flexibility Score: inf
ROOT
ATOM      1  C   UNL     1       0.569  -3.765  10.299  1.00  0.00     0.042 C 
ENDROOT
BRANCH   1   2
ATOM      2  C   UNL     1       0.000  -4.456   9.068  1.00  0.00     0.118 C 
BRANCH   2   3
ATOM      3  N   UNL     1      -1.079  -3.679   8.477  1.00  0.00    -0.352 N 
ATOM      4  C   UNL     1      -1.263  -2.890   7.395  1.00  0.00     0.251 C 
ATOM      5  O   UNL     1      -2.378  -2.366   7.317  1.00  0.00    -0.270 OA
ATOM      6  H   UNL     1      -1.903  -3.748   9.012  1.00  0.00     0.163 HD
BRANCH   4   7
ATOM      7  C   UNL     1      -0.248  -2.633   6.334  1.00  0.00     0.067 C 
ATOM      8  C   UNL     1       0.766  -0.547   2.091  1.00  0.00     0.121 A 
ATOM      9  C   UNL     1       2.084  -0.993   2.175  1.00  0.00     0.070 A 
ATOM     10  C   UNL     1      -0.115  -0.783   3.151  1.00  0.00     0.058 A 
ATOM     11  C   UNL     1       2.510  -1.690   3.308  1.00  0.00     0.087 A 
ATOM     12  C   UNL     1       0.303  -1.498   4.277  1.00  0.00     0.022 A 
ATOM     13  Cl  UNL     1       4.152  -2.223   3.380  1.00  0.00    -0.080 Cl
ATOM     14  C   UNL     1       1.619  -1.956   4.353  1.00  0.00     0.146 A 
ATOM     15  C   UNL     1      -0.612  -1.754   5.383  1.00  0.00     0.025 C 
ATOM     16  O   UNL     1       2.080  -2.621   5.456  1.00  0.00    -0.474 OA
ATOM     17  C   UNL     1       1.085  -3.318   6.253  1.00  0.00     0.314 C 
BRANCH   8  18
ATOM     18  O   UNL     1       0.235   0.157   1.046  1.00  0.00    -0.497 OA
ATOM     19  C   UNL     1       0.885  -0.005  -0.210  1.00  0.00     0.278 C 
ENDBRANCH   8  18
BRANCH  17  20
ATOM     20  C   UNL     1       0.982  -4.781   5.776  1.00  0.00     0.429 C 
ATOM     21  F   UNL     1       2.117  -5.458   6.078  1.00  0.00    -0.167 F 
ATOM     22  F   UNL     1      -0.033  -5.451   6.372  1.00  0.00    -0.167 F 
ATOM     23  F   UNL     1       0.788  -4.881   4.443  1.00  0.00    -0.167 F 
ENDBRANCH  17  20
ENDBRANCH   4   7
ENDBRANCH   2   3
ENDBRANCH   1   2
BRANCH   1  24
ATOM     24  C   UNL     1      -0.358  -3.912  11.501  1.00  0.00     0.118 C 
BRANCH  24  25
ATOM     25  N   UNL     1      -0.386  -5.288  11.986  1.00  0.00    -0.352 N 
ATOM     26  C   UNL     1       0.358  -5.872  12.980  1.00  0.00     0.251 C 
ATOM     27  H   UNL     1      -1.031  -5.882  11.537  1.00  0.00     0.163 HD
ATOM     28  O   UNL     1       0.433  -7.095  13.068  1.00  0.00    -0.269 OA
BRANCH  26  29
ATOM     29  C   UNL     1       1.073  -5.018  13.946  1.00  0.00     0.039 A 
ATOM     30  C   UNL     1       2.396  -5.313  14.283  1.00  0.00     0.014 A 
ATOM     31  C   UNL     1       0.414  -3.936  14.536  1.00  0.00     0.014 A 
ATOM     32  C   UNL     1       3.075  -4.487  15.180  1.00  0.00     0.010 A 
ATOM     33  C   UNL     1       1.115  -3.067  15.360  1.00  0.00     0.010 A 
ATOM     34  C   UNL     1       2.442  -3.350  15.709  1.00  0.00    -0.014 A 
BRANCH  34  35
ATOM     35  C   UNL     1       3.123  -2.487  16.699  1.00  0.00     0.031 A 
ATOM     36  C   UNL     1       2.618  -2.457  18.114  1.00  0.00     0.074 A 
ATOM     37  C   UNL     1       4.157  -1.713  16.321  1.00  0.00     0.049 A 
ATOM     38  N   UNL     1       3.050  -1.758  19.132  1.00  0.00    -0.248 NA
ATOM     39  C   UNL     1       1.455  -3.307  18.423  1.00  0.00     0.031 C 
ATOM     40  C   UNL     1       4.701  -1.633  14.965  1.00  0.00     0.029 A 
ATOM     41  N   UNL     1       4.935  -0.846  17.044  1.00  0.00    -0.354 N 
ATOM     42  C   UNL     1       2.219  -2.090  20.192  1.00  0.00     0.074 A 
ATOM     43  C   UNL     1       1.209  -2.988  19.683  1.00  0.00     0.031 C 
ATOM     44  C   UNL     1       5.746  -0.788  14.961  1.00  0.00     0.029 A 
ATOM     45  C   UNL     1       5.929  -0.252  16.307  1.00  0.00     0.049 A 
ATOM     46  H   UNL     1       4.794  -0.667  18.002  1.00  0.00     0.167 HD
ATOM     47  C   UNL     1       2.318  -1.714  21.488  1.00  0.00     0.037 A 
ATOM     48  C   UNL     1       6.883   0.620  16.685  1.00  0.00     0.037 A 
ATOM     49  C   UNL     1       3.345  -0.848  21.994  1.00  0.00     0.049 A 
ATOM     50  C   UNL     1       6.946   1.055  18.125  1.00  0.00     0.074 A 
ATOM     51  C   UNL     1       3.571  -0.451  23.299  1.00  0.00     0.029 A 
ATOM     52  N   UNL     1       4.322  -0.249  21.213  1.00  0.00    -0.354 N 
ATOM     53  N   UNL     1       6.201   0.677  19.136  1.00  0.00    -0.248 NA
ATOM     54  C   UNL     1       7.981   2.038  18.478  1.00  0.00     0.031 C 
ATOM     55  C   UNL     1       4.665   0.419  23.303  1.00  0.00     0.029 A 
ATOM     56  C   UNL     1       5.140   0.536  22.006  1.00  0.00     0.049 A 
ATOM     57  H   UNL     1       4.418  -0.365  20.240  1.00  0.00     0.167 HD
ATOM     58  C   UNL     1       6.688   1.355  20.244  1.00  0.00     0.074 A 
ATOM     59  C   UNL     1       7.802   2.159  19.787  1.00  0.00     0.031 C 
ATOM     60  C   UNL     1       6.249   1.319  21.526  1.00  0.00     0.037 A 
BRANCH  47  61
ATOM     61  C   UNL     1       1.315  -2.271  22.451  1.00  0.00     0.064 A 
ATOM     62  C   UNL     1       1.351  -3.620  22.835  1.00  0.00     0.173 A 
ATOM     63  C   UNL     1       0.343  -1.446  23.034  1.00  0.00     0.173 A 
ATOM     64  F   UNL     1       2.254  -4.452  22.294  1.00  0.00    -0.203 F 
ATOM     65  C   UNL     1       0.437  -4.128  23.754  1.00  0.00     0.198 A 
ATOM     66  C   UNL     1      -0.554  -1.951  23.972  1.00  0.00     0.198 A 
ATOM     67  F   UNL     1       0.268  -0.148  22.701  1.00  0.00    -0.203 F 
ATOM     68  F   UNL     1       0.466  -5.428  24.077  1.00  0.00    -0.200 F 
ATOM     69  C   UNL     1      -0.509  -3.291  24.328  1.00  0.00     0.200 A 
ATOM     70  F   UNL     1      -1.461  -1.141  24.534  1.00  0.00    -0.200 F 
ATOM     71  F   UNL     1      -1.381  -3.779  25.221  1.00  0.00    -0.200 F 
ENDBRANCH  47  61
BRANCH  48  72
ATOM     72  C   UNL     1       7.884   1.102  15.698  1.00  0.00     0.064 A 
ATOM     73  C   UNL     1       9.221   0.688  15.778  1.00  0.00     0.173 A 
ATOM     74  C   UNL     1       7.533   1.979  14.662  1.00  0.00     0.173 A 
ATOM     75  F   UNL     1       9.608  -0.136  16.763  1.00  0.00    -0.203 F 
ATOM     76  C   UNL     1      10.172   1.144  14.867  1.00  0.00     0.198 A 
ATOM     77  C   UNL     1       8.481   2.416  13.738  1.00  0.00     0.198 A 
ATOM     78  F   UNL     1       6.267   2.402  14.540  1.00  0.00    -0.203 F 
ATOM     79  F   UNL     1      11.450   0.760  14.989  1.00  0.00    -0.200 F 
ATOM     80  C   UNL     1       9.800   2.003  13.845  1.00  0.00     0.200 A 
ATOM     81  F   UNL     1       8.116   3.239  12.745  1.00  0.00    -0.200 F 
ATOM     82  F   UNL     1      10.715   2.439  12.968  1.00  0.00    -0.200 F 
ENDBRANCH  48  72
BRANCH  60  83
ATOM     83  C   UNL     1       6.967   2.164  22.533  1.00  0.00     0.064 A 
ATOM     84  C   UNL     1       6.766   3.550  22.588  1.00  0.00     0.173 A 
ATOM     85  C   UNL     1       7.768   1.571  23.520  1.00  0.00     0.173 A 
ATOM     86  F   UNL     1       6.017   4.161  21.658  1.00  0.00    -0.203 F 
ATOM     87  C   UNL     1       7.341   4.313  23.600  1.00  0.00     0.198 A 
ATOM     88  C   UNL     1       8.320   2.333  24.544  1.00  0.00     0.198 A 
ATOM     89  F   UNL     1       7.980   0.246  23.512  1.00  0.00    -0.203 F 
ATOM     90  F   UNL     1       7.149   5.639  23.627  1.00  0.00    -0.200 F 
ATOM     91  C   UNL     1       8.106   3.703  24.584  1.00  0.00     0.200 A 
ATOM     92  F   UNL     1       9.044   1.740  25.503  1.00  0.00    -0.200 F 
ATOM     93  F   UNL     1       8.634   4.436  25.573  1.00  0.00    -0.200 F 
ENDBRANCH  60  83
ENDBRANCH  34  35
ENDBRANCH  26  29
ENDBRANCH  24  25
ENDBRANCH   1  24
TORSDOF 12
