REMARK SMILES O=C(NCCCNC(=O)C1CCN(C(=O)c2cc(S(=O)(=O)N3CCOCC3)c(Cl)cc2Cl)CC1)c1ccc(-c2c3nc(c(-c4c(F)c(F)c(F)c(F)c4F)c4ccc([nH]4)c(-c4c(F)c(F)c(F)c(F)c4F)c4nc(c(-c5c(F)c(F)c(F)c(F)c5F)c5ccc2[nH]5)C=C4)C=C3)cc1
REMARK SMILES IDX 5 1 4 2 3 3 1 4 2 5 35 7 36 8 97 9 37 10 96 11 38 12 39 13
REMARK SMILES IDX 40 14 90 15 41 16 95 17 89 18 91 19 42 20 94 21 88 22 87 23
REMARK SMILES IDX 43 25 75 26 55 27 74 28 56 29 59 30 73 31 92 32 57 33 58 34
REMARK SMILES IDX 72 36 93 37 60 38 44 39 45 40 53 41 46 42 47 43 51 44 54 45
REMARK SMILES IDX 48 46 49 47 52 48 50 49 76 50 77 51 85 52 78 53 79 54 83 55
REMARK SMILES IDX 86 56 80 57 81 58 84 59 82 60 61 61 62 62 70 63 63 64 64 65
REMARK SMILES IDX 68 66 71 67 65 68 66 69 69 70 67 71 6 72 7 73 8 74 9 76
REMARK SMILES IDX 10 77 11 78 34 79 12 80 33 81 13 82 14 83 15 84 16 85 17 86
REMARK SMILES IDX 31 87 18 88 30 89 32 90 28 91 29 92 19 93 20 94 21 95 22 96
REMARK SMILES IDX 23 97 27 98 24 99 26 100 25 101
REMARK H PARENT 3 6 91 24 59 35 7 75
REMARK Flexibility Score: inf
ROOT
ATOM      1  C   UNL     1       4.821  -1.712   1.907  1.00  0.00     0.042 C 
ENDROOT
BRANCH   1   2
ATOM      2  C   UNL     1       4.517  -1.340   0.460  1.00  0.00     0.118 C 
BRANCH   2   3
ATOM      3  N   UNL     1       3.092  -1.192   0.201  1.00  0.00    -0.352 N 
ATOM      4  O   UNL     1       1.142  -0.133  -0.163  1.00  0.00    -0.269 OA
ATOM      5  C   UNL     1       2.368  -0.085  -0.165  1.00  0.00     0.251 C 
ATOM      6  H   UNL     1       2.564  -2.017   0.305  1.00  0.00     0.163 HD
BRANCH   5   7
ATOM      7  C   UNL     1       3.051   1.174  -0.539  1.00  0.00     0.039 A 
ATOM      8  C   UNL     1       4.180   1.170  -1.361  1.00  0.00     0.014 A 
ATOM      9  C   UNL     1       2.523   2.387  -0.086  1.00  0.00     0.014 A 
ATOM     10  C   UNL     1       4.864   2.356  -1.607  1.00  0.00     0.010 A 
ATOM     11  C   UNL     1       3.162   3.588  -0.408  1.00  0.00     0.010 A 
ATOM     12  C   UNL     1       4.357   3.580  -1.144  1.00  0.00    -0.014 A 
BRANCH  12  13
ATOM     13  C   UNL     1       5.059   4.845  -1.478  1.00  0.00     0.031 A 
ATOM     14  C   UNL     1       5.668   5.699  -0.401  1.00  0.00     0.074 A 
ATOM     15  C   UNL     1       5.148   5.222  -2.767  1.00  0.00     0.049 A 
ATOM     16  N   UNL     1       6.292   6.846  -0.508  1.00  0.00    -0.248 NA
ATOM     17  C   UNL     1       5.553   5.206   0.980  1.00  0.00     0.031 C 
ATOM     18  C   UNL     1       4.591   4.481  -3.900  1.00  0.00     0.029 A 
ATOM     19  N   UNL     1       5.739   6.316  -3.345  1.00  0.00    -0.354 N 
ATOM     20  C   UNL     1       6.628   7.219   0.786  1.00  0.00     0.074 A 
ATOM     21  C   UNL     1       6.112   6.192   1.667  1.00  0.00     0.031 C 
ATOM     22  C   UNL     1       4.891   5.124  -5.037  1.00  0.00     0.029 A 
ATOM     23  C   UNL     1       5.607   6.353  -4.711  1.00  0.00     0.049 A 
ATOM     24  H   UNL     1       6.213   7.009  -2.830  1.00  0.00     0.167 HD
ATOM     25  C   UNL     1       7.311   8.315   1.199  1.00  0.00     0.037 A 
ATOM     26  C   UNL     1       5.996   7.283  -5.602  1.00  0.00     0.037 A 
ATOM     27  C   UNL     1       7.829   9.328   0.315  1.00  0.00     0.049 A 
ATOM     28  C   UNL     1       6.720   8.505  -5.115  1.00  0.00     0.074 A 
ATOM     29  C   UNL     1       8.566  10.457   0.632  1.00  0.00     0.029 A 
ATOM     30  N   UNL     1       7.658   9.340  -1.063  1.00  0.00    -0.354 N 
ATOM     31  N   UNL     1       7.063   8.830  -3.893  1.00  0.00    -0.248 NA
ATOM     32  C   UNL     1       7.109   9.491  -6.131  1.00  0.00     0.031 C 
ATOM     33  C   UNL     1       8.794  11.178  -0.545  1.00  0.00     0.029 A 
ATOM     34  C   UNL     1       8.252  10.469  -1.605  1.00  0.00     0.049 A 
ATOM     35  H   UNL     1       7.184   8.648  -1.579  1.00  0.00     0.167 HD
ATOM     36  C   UNL     1       7.729  10.043  -3.993  1.00  0.00     0.074 A 
ATOM     37  C   UNL     1       7.754  10.389  -5.400  1.00  0.00     0.031 C 
ATOM     38  C   UNL     1       8.272  10.800  -3.009  1.00  0.00     0.037 A 
BRANCH  25  39
ATOM     39  C   UNL     1       7.519   8.491   2.677  1.00  0.00     0.064 A 
ATOM     40  C   UNL     1       8.383   7.662   3.407  1.00  0.00     0.173 A 
ATOM     41  C   UNL     1       6.870   9.527   3.366  1.00  0.00     0.173 A 
ATOM     42  F   UNL     1       9.021   6.649   2.800  1.00  0.00    -0.203 F 
ATOM     43  C   UNL     1       8.566   7.844   4.776  1.00  0.00     0.198 A 
ATOM     44  C   UNL     1       7.079   9.726   4.729  1.00  0.00     0.198 A 
ATOM     45  F   UNL     1       6.038  10.355   2.717  1.00  0.00    -0.203 F 
ATOM     46  F   UNL     1       9.358   7.006   5.461  1.00  0.00    -0.200 F 
ATOM     47  C   UNL     1       7.920   8.879   5.434  1.00  0.00     0.200 A 
ATOM     48  F   UNL     1       6.464  10.735   5.360  1.00  0.00    -0.200 F 
ATOM     49  F   UNL     1       8.100   9.055   6.750  1.00  0.00    -0.200 F 
ENDBRANCH  25  39
BRANCH  26  50
ATOM     50  C   UNL     1       5.701   7.084  -7.044  1.00  0.00     0.064 A 
ATOM     51  C   UNL     1       6.727   6.824  -7.961  1.00  0.00     0.173 A 
ATOM     52  C   UNL     1       4.385   7.126  -7.529  1.00  0.00     0.173 A 
ATOM     53  F   UNL     1       8.003   6.792  -7.548  1.00  0.00    -0.203 F 
ATOM     54  C   UNL     1       6.450   6.625  -9.312  1.00  0.00     0.198 A 
ATOM     55  C   UNL     1       4.106   6.897  -8.874  1.00  0.00     0.198 A 
ATOM     56  F   UNL     1       3.367   7.365  -6.690  1.00  0.00    -0.203 F 
ATOM     57  F   UNL     1       7.453   6.414 -10.175  1.00  0.00    -0.200 F 
ATOM     58  C   UNL     1       5.140   6.653  -9.766  1.00  0.00     0.200 A 
ATOM     59  F   UNL     1       2.837   6.907  -9.304  1.00  0.00    -0.200 F 
ATOM     60  F   UNL     1       4.873   6.449 -11.063  1.00  0.00    -0.200 F 
ENDBRANCH  26  50
BRANCH  38  61
ATOM     61  C   UNL     1       8.975  12.061  -3.421  1.00  0.00     0.064 A 
ATOM     62  C   UNL     1       8.270  13.183  -3.880  1.00  0.00     0.173 A 
ATOM     63  C   UNL     1      10.371  12.158  -3.320  1.00  0.00     0.173 A 
ATOM     64  F   UNL     1       6.936  13.135  -4.010  1.00  0.00    -0.203 F 
ATOM     65  C   UNL     1       8.940  14.348  -4.246  1.00  0.00     0.198 A 
ATOM     66  C   UNL     1      11.035  13.334  -3.658  1.00  0.00     0.198 A 
ATOM     67  F   UNL     1      11.092  11.114  -2.883  1.00  0.00    -0.203 F 
ATOM     68  F   UNL     1       8.250  15.392  -4.727  1.00  0.00    -0.200 F 
ATOM     69  C   UNL     1      10.319  14.425  -4.127  1.00  0.00     0.200 A 
ATOM     70  F   UNL     1      12.366  13.411  -3.530  1.00  0.00    -0.200 F 
ATOM     71  F   UNL     1      10.961  15.550  -4.473  1.00  0.00    -0.200 F 
ENDBRANCH  38  61
ENDBRANCH  12  13
ENDBRANCH   5   7
ENDBRANCH   2   3
ENDBRANCH   1   2
BRANCH   1  72
ATOM     72  C   UNL     1       4.324  -3.094   2.317  1.00  0.00     0.117 C 
BRANCH  72  73
ATOM     73  N   UNL     1       4.910  -4.148   1.509  1.00  0.00    -0.356 N 
ATOM     74  C   UNL     1       5.785  -5.136   1.844  1.00  0.00     0.223 C 
ATOM     75  H   UNL     1       4.629  -4.149   0.565  1.00  0.00     0.163 HD
ATOM     76  O   UNL     1       6.109  -5.932   0.965  1.00  0.00    -0.275 OA
BRANCH  74  77
ATOM     77  C   UNL     1       6.328  -5.220   3.267  1.00  0.00     0.082 C 
ATOM     78  C   UNL     1       7.403  -4.160   3.531  1.00  0.00     0.035 C 
ATOM     79  C   UNL     1       6.871  -6.623   3.578  1.00  0.00     0.035 C 
ATOM     80  C   UNL     1       8.720  -4.487   2.830  1.00  0.00     0.120 C 
ATOM     81  C   UNL     1       8.230  -6.904   2.940  1.00  0.00     0.120 C 
ATOM     82  N   UNL     1       9.183  -5.821   3.193  1.00  0.00    -0.339 N 
ATOM     83  C   UNL     1      10.493  -5.973   3.640  1.00  0.00     0.255 C 
ATOM     84  O   UNL     1      11.302  -5.056   3.749  1.00  0.00    -0.269 OA
BRANCH  83  85
ATOM     85  C   UNL     1      10.959  -7.319   4.010  1.00  0.00     0.060 A 
ATOM     86  C   UNL     1      11.230  -8.238   3.011  1.00  0.00     0.038 A 
ATOM     87  C   UNL     1      11.153  -7.678   5.333  1.00  0.00     0.055 A 
ATOM     88  C   UNL     1      11.621  -9.552   3.354  1.00  0.00     0.102 A 
ATOM     89  C   UNL     1      11.572  -8.993   5.673  1.00  0.00     0.043 A 
ATOM     90  Cl  UNL     1      10.838  -6.575   6.631  1.00  0.00    -0.083 Cl
ATOM     91  C   UNL     1      11.816 -10.101   4.720  1.00  0.00     0.062 A 
ATOM     92  Cl  UNL     1      12.371 -12.361   5.259  1.00  0.00    -0.083 Cl
BRANCH  88  93
ATOM     93  S   UNL     1      11.831 -10.597   1.992  1.00  0.00     0.244 S 
ATOM     94  O   UNL     1      10.544 -10.820   1.376  1.00  0.00    -0.207 OA
ATOM     95  O   UNL     1      13.030 -10.227   1.288  1.00  0.00    -0.207 OA
BRANCH  93  96
ATOM     96  N   UNL     1      12.140 -11.735   3.157  1.00  0.00    -0.193 NA
ATOM     97  C   UNL     1      10.482 -11.845   4.181  1.00  0.00     0.131 C 
ATOM     98  C   UNL     1      13.743 -11.074   4.055  1.00  0.00     0.131 C 
ATOM     99  C   UNL     1      10.527 -11.390   6.060  1.00  0.00     0.177 C 
ATOM    100  C   UNL     1      13.636 -10.654   5.940  1.00  0.00     0.177 C 
ATOM    101  O   UNL     1      12.095 -10.940   6.872  1.00  0.00    -0.379 OA
ENDBRANCH  93  96
ENDBRANCH  88  93
ENDBRANCH  83  85
ENDBRANCH  74  77
ENDBRANCH  72  73
ENDBRANCH   1  72
TORSDOF 13
