REMARK SMILES CNC(=O)c1cc(S(=O)(=O)N2CCC(C(=O)NCCCNC(=O)c3ccc(-c4c5nc(c(-c6c(F)c(F)c(F)c(F)c6F)c6ccc([nH]6)c(-c6c(F)c(F)c(F)c(F)c6F)c6nc(c(-c7c(F)c(F)c(F)c(F)c7F)c7ccc4[nH]7)C=C6)C=C5)cc3)CC2)ccc1OC
REMARK SMILES IDX 18 1 17 2 15 3 16 4 14 6 11 7 12 8 88 9 13 10 87 11 8 12
REMARK SMILES IDX 9 13 10 14 7 15 5 16 6 17 91 18 90 19 89 20 3 21 1 22 2 23
REMARK SMILES IDX 4 25 92 26 93 27 19 28 20 29 21 30 22 31 23 33 24 34 25 35
REMARK SMILES IDX 86 36 26 37 85 38 27 39 28 40 29 41 79 42 30 43 84 44 78 45
REMARK SMILES IDX 80 46 31 47 83 48 77 49 76 50 32 52 64 53 44 54 63 55 45 56
REMARK SMILES IDX 48 57 62 58 81 59 46 60 47 61 61 63 82 64 49 65 33 66 34 67
REMARK SMILES IDX 42 68 35 69 36 70 40 71 43 72 37 73 38 74 41 75 39 76 65 77
REMARK SMILES IDX 66 78 74 79 67 80 68 81 72 82 75 83 69 84 70 85 73 86 71 87
REMARK SMILES IDX 50 88 51 89 59 90 52 91 53 92 57 93 60 94 54 95 55 96 58 97
REMARK SMILES IDX 56 98
REMARK H PARENT 17 5 2 24 21 32 80 51 48 62
REMARK Flexibility Score: inf
ROOT
ATOM      1  C   UNL     1      -5.549   1.225  10.095  1.00  0.00     0.117 C 
ENDROOT
BRANCH   1   2
ATOM      2  N   UNL     1      -5.695   2.575   9.571  1.00  0.00    -0.356 N 
ATOM      3  C   UNL     1      -5.193   3.168   8.457  1.00  0.00     0.223 C 
ATOM      4  O   UNL     1      -5.454   4.359   8.272  1.00  0.00    -0.275 OA
ATOM      5  H   UNL     1      -6.260   3.164  10.123  1.00  0.00     0.163 HD
BRANCH   3   6
ATOM      6  C   UNL     1      -4.342   2.408   7.457  1.00  0.00     0.081 C 
ATOM      7  N   UNL     1      -2.951   0.081   6.490  1.00  0.00    -0.198 NA
ATOM      8  C   UNL     1      -2.178   1.204   7.061  1.00  0.00     0.103 C 
ATOM      9  C   UNL     1      -4.280   0.384   5.908  1.00  0.00     0.103 C 
ATOM     10  C   UNL     1      -3.017   1.965   8.067  1.00  0.00     0.030 C 
ATOM     11  C   UNL     1      -5.128   1.280   6.793  1.00  0.00     0.030 C 
BRANCH   7  12
ATOM     12  S   UNL     1      -2.041  -1.121   5.681  1.00  0.00     0.243 S 
ATOM     13  O   UNL     1      -2.939  -2.230   5.426  1.00  0.00    -0.207 OA
ATOM     14  O   UNL     1      -0.803  -1.304   6.402  1.00  0.00    -0.207 OA
BRANCH  12  15
ATOM     15  C   UNL     1      -1.600  -0.463   4.081  1.00  0.00     0.083 A 
ATOM     16  C   UNL     1      -0.657  -0.913   1.892  1.00  0.00     0.083 A 
ATOM     17  C   UNL     1      -0.989  -1.346   3.184  1.00  0.00     0.039 A 
ATOM     18  C   UNL     1      -1.004   0.378   1.476  1.00  0.00     0.131 A 
ATOM     19  C   UNL     1      -1.566   1.268   2.389  1.00  0.00     0.048 A 
ATOM     20  C   UNL     1      -1.858   0.851   3.687  1.00  0.00     0.025 A 
BRANCH  16  21
ATOM     21  C   UNL     1       0.037  -1.884   1.024  1.00  0.00     0.254 C 
ATOM     22  C   UNL     1       2.012  -0.350   0.583  1.00  0.00     0.143 C 
ATOM     23  N   UNL     1       1.236  -1.562   0.445  1.00  0.00    -0.355 N 
ATOM     24  H   UNL     1       1.621  -2.249  -0.146  1.00  0.00     0.163 HD
ATOM     25  O   UNL     1      -0.461  -2.993   0.854  1.00  0.00    -0.269 OA
ENDBRANCH  16  21
BRANCH  18  26
ATOM     26  O   UNL     1      -0.801   0.885   0.222  1.00  0.00    -0.496 OA
ATOM     27  C   UNL     1      -1.509   0.155  -0.782  1.00  0.00     0.278 C 
ENDBRANCH  18  26
ENDBRANCH  12  15
ENDBRANCH   7  12
ENDBRANCH   3   6
ENDBRANCH   1   2
BRANCH   1  28
ATOM     28  C   UNL     1      -4.698   1.187  11.355  1.00  0.00     0.042 C 
BRANCH  28  29
ATOM     29  C   UNL     1      -5.319   1.930  12.526  1.00  0.00     0.118 C 
BRANCH  29  30
ATOM     30  N   UNL     1      -6.569   1.328  12.967  1.00  0.00    -0.352 N 
ATOM     31  C   UNL     1      -6.874   0.681  14.138  1.00  0.00     0.251 C 
ATOM     32  H   UNL     1      -7.311   1.397  12.325  1.00  0.00     0.163 HD
ATOM     33  O   UNL     1      -7.929   0.060  14.234  1.00  0.00    -0.269 OA
BRANCH  31  34
ATOM     34  C   UNL     1      -5.933   0.713  15.277  1.00  0.00     0.039 A 
ATOM     35  C   UNL     1      -5.738  -0.449  16.027  1.00  0.00     0.014 A 
ATOM     36  C   UNL     1      -5.263   1.889  15.621  1.00  0.00     0.014 A 
ATOM     37  C   UNL     1      -4.823  -0.447  17.082  1.00  0.00     0.010 A 
ATOM     38  C   UNL     1      -4.285   1.866  16.608  1.00  0.00     0.010 A 
ATOM     39  C   UNL     1      -4.064   0.702  17.357  1.00  0.00    -0.014 A 
BRANCH  39  40
ATOM     40  C   UNL     1      -3.055   0.723  18.443  1.00  0.00     0.031 A 
ATOM     41  C   UNL     1      -3.235   1.649  19.614  1.00  0.00     0.074 A 
ATOM     42  C   UNL     1      -1.947  -0.034  18.342  1.00  0.00     0.049 A 
ATOM     43  N   UNL     1      -2.427   1.887  20.615  1.00  0.00    -0.248 NA
ATOM     44  C   UNL     1      -4.478   2.436  19.645  1.00  0.00     0.031 C 
ATOM     45  C   UNL     1      -1.638  -0.941  17.235  1.00  0.00     0.029 A 
ATOM     46  N   UNL     1      -0.870  -0.156  19.183  1.00  0.00    -0.354 N 
ATOM     47  C   UNL     1      -3.052   2.865  21.378  1.00  0.00     0.074 A 
ATOM     48  C   UNL     1      -4.279   3.216  20.697  1.00  0.00     0.031 C 
ATOM     49  C   UNL     1      -0.467  -1.550  17.481  1.00  0.00     0.029 A 
ATOM     50  C   UNL     1       0.074  -1.049  18.741  1.00  0.00     0.049 A 
ATOM     51  H   UNL     1      -0.782   0.350  20.023  1.00  0.00     0.167 HD
ATOM     52  C   UNL     1      -2.653   3.402  22.556  1.00  0.00     0.037 A 
ATOM     53  C   UNL     1       1.244  -1.421  19.292  1.00  0.00     0.037 A 
ATOM     54  C   UNL     1      -1.450   3.025  23.249  1.00  0.00     0.049 A 
ATOM     55  C   UNL     1       1.667  -0.809  20.599  1.00  0.00     0.074 A 
ATOM     56  C   UNL     1      -0.983   3.467  24.474  1.00  0.00     0.029 A 
ATOM     57  N   UNL     1      -0.525   2.106  22.775  1.00  0.00    -0.354 N 
ATOM     58  N   UNL     1       1.045   0.078  21.337  1.00  0.00    -0.248 NA
ATOM     59  C   UNL     1       2.955  -1.252  21.149  1.00  0.00     0.031 C 
ATOM     60  C   UNL     1       0.242   2.840  24.726  1.00  0.00     0.029 A 
ATOM     61  C   UNL     1       0.519   1.978  23.676  1.00  0.00     0.049 A 
ATOM     62  H   UNL     1      -0.600   1.617  21.924  1.00  0.00     0.167 HD
ATOM     63  C   UNL     1       1.849   0.279  22.450  1.00  0.00     0.074 A 
ATOM     64  C   UNL     1       3.001  -0.586  22.294  1.00  0.00     0.031 C 
ATOM     65  C   UNL     1       1.651   1.105  23.507  1.00  0.00     0.037 A 
BRANCH  52  66
ATOM     66  C   UNL     1      -3.536   4.452  23.165  1.00  0.00     0.064 A 
ATOM     67  C   UNL     1      -4.792   4.132  23.703  1.00  0.00     0.173 A 
ATOM     68  C   UNL     1      -3.122   5.791  23.217  1.00  0.00     0.173 A 
ATOM     69  F   UNL     1      -5.241   2.868  23.665  1.00  0.00    -0.203 F 
ATOM     70  C   UNL     1      -5.616   5.119  24.236  1.00  0.00     0.198 A 
ATOM     71  C   UNL     1      -3.936   6.771  23.777  1.00  0.00     0.198 A 
ATOM     72  F   UNL     1      -1.929   6.150  22.720  1.00  0.00    -0.203 F 
ATOM     73  F   UNL     1      -6.836   4.799  24.689  1.00  0.00    -0.200 F 
ATOM     74  C   UNL     1      -5.186   6.437  24.277  1.00  0.00     0.200 A 
ATOM     75  F   UNL     1      -3.516   8.043  23.825  1.00  0.00    -0.200 F 
ATOM     76  F   UNL     1      -5.981   7.387  24.788  1.00  0.00    -0.200 F 
ENDBRANCH  52  66
BRANCH  53  77
ATOM     77  C   UNL     1       2.075  -2.458  18.632  1.00  0.00     0.064 A 
ATOM     78  C   UNL     1       2.176  -3.744  19.181  1.00  0.00     0.173 A 
ATOM     79  C   UNL     1       2.772  -2.197  17.444  1.00  0.00     0.173 A 
ATOM     80  F   UNL     1       1.543  -4.033  20.327  1.00  0.00    -0.203 F 
ATOM     81  C   UNL     1       2.953  -4.727  18.573  1.00  0.00     0.198 A 
ATOM     82  C   UNL     1       3.531  -3.187  16.824  1.00  0.00     0.198 A 
ATOM     83  F   UNL     1       2.704  -0.983  16.879  1.00  0.00    -0.203 F 
ATOM     84  F   UNL     1       3.061  -5.937  19.137  1.00  0.00    -0.200 F 
ATOM     85  C   UNL     1       3.626  -4.450  17.392  1.00  0.00     0.200 A 
ATOM     86  F   UNL     1       4.171  -2.919  15.678  1.00  0.00    -0.200 F 
ATOM     87  F   UNL     1       4.369  -5.397  16.804  1.00  0.00    -0.200 F 
ENDBRANCH  53  77
BRANCH  65  88
ATOM     88  C   UNL     1       2.685   1.085  24.593  1.00  0.00     0.064 A 
ATOM     89  C   UNL     1       3.942   1.681  24.420  1.00  0.00     0.173 A 
ATOM     90  C   UNL     1       2.398   0.494  25.832  1.00  0.00     0.173 A 
ATOM     91  F   UNL     1       4.267   2.243  23.247  1.00  0.00    -0.203 F 
ATOM     92  C   UNL     1       4.884   1.668  25.445  1.00  0.00     0.198 A 
ATOM     93  C   UNL     1       3.333   0.505  26.863  1.00  0.00     0.198 A 
ATOM     94  F   UNL     1       1.207  -0.085  26.047  1.00  0.00    -0.203 F 
ATOM     95  F   UNL     1       6.095   2.206  25.246  1.00  0.00    -0.200 F 
ATOM     96  C   UNL     1       4.577   1.086  26.666  1.00  0.00     0.200 A 
ATOM     97  F   UNL     1       3.032  -0.048  28.046  1.00  0.00    -0.200 F 
ATOM     98  F   UNL     1       5.484   1.080  27.653  1.00  0.00    -0.200 F 
ENDBRANCH  65  88
ENDBRANCH  39  40
ENDBRANCH  31  34
ENDBRANCH  29  30
ENDBRANCH  28  29
ENDBRANCH   1  28
TORSDOF 14
