REMARK SMILES COc1cc(/C=C/C(=O)NCCCNC(=O)c2ccc(-c3c4nc(c(-c5c(F)c(F)c(F)c(F)c5F)c5ccc([nH]5)c(-c5c(F)c(F)c(F)c(F)c5F)c5nc(c(-c6c(F)c(F)c(F)c(F)c6F)c6ccc3[nH]6)C=C5)C=C4)cc2)cc(S(=O)(=O)Nc2ccc3c(c2)OCCO3)c1OC
REMARK SMILES IDX 11 1 10 2 8 3 9 4 7 6 6 7 5 8 3 9 4 10 96 11 81 12 80 13
REMARK SMILES IDX 2 14 1 15 97 16 98 17 82 18 83 19 84 20 85 21 86 23 87 24
REMARK SMILES IDX 91 25 88 26 90 27 89 28 92 29 95 30 93 31 94 32 12 33 13 34
REMARK SMILES IDX 14 35 15 36 16 38 17 39 18 40 79 41 19 42 78 43 20 44 21 45
REMARK SMILES IDX 22 46 72 47 23 48 77 49 71 50 73 51 24 52 76 53 70 54 69 55
REMARK SMILES IDX 25 57 57 58 37 59 56 60 38 61 41 62 55 63 74 64 39 65 40 66
REMARK SMILES IDX 54 68 75 69 42 70 26 71 27 72 35 73 28 74 29 75 33 76 36 77
REMARK SMILES IDX 30 78 31 79 34 80 32 81 58 82 59 83 67 84 60 85 61 86 65 87
REMARK SMILES IDX 68 88 62 89 63 90 66 91 64 92 43 93 44 94 52 95 45 96 46 97
REMARK SMILES IDX 50 98 53 99 47 100 48 101 51 102 49 103
REMARK H PARENT 10 5 85 22 14 37 73 56 41 67
REMARK Flexibility Score: inf
ROOT
ATOM      1  C   UNL     1      -1.069  -4.596   7.228  1.00  0.00     0.118 C 
ENDROOT
BRANCH   1   2
ATOM      2  N   UNL     1      -2.189  -3.671   7.204  1.00  0.00    -0.352 N 
ATOM      3  C   UNL     1      -2.528  -2.712   6.302  1.00  0.00     0.244 C 
ATOM      4  O   UNL     1      -3.567  -2.074   6.456  1.00  0.00    -0.270 OA
ATOM      5  H   UNL     1      -2.805  -3.753   7.967  1.00  0.00     0.163 HD
BRANCH   3   6
ATOM      6  C   UNL     1      -1.733  -2.522   5.068  1.00  0.00     0.072 C 
ATOM      7  C   UNL     1      -0.406  -2.319   5.014  1.00  0.00     0.014 C 
BRANCH   7   8
ATOM      8  C   UNL     1       0.378  -2.244   3.762  1.00  0.00    -0.020 A 
ATOM      9  C   UNL     1       0.557  -2.113   1.327  1.00  0.00     0.162 A 
ATOM     10  C   UNL     1      -0.194  -1.994   2.512  1.00  0.00     0.058 A 
ATOM     11  C   UNL     1       1.913  -2.498   1.360  1.00  0.00     0.181 A 
ATOM     12  C   UNL     1       2.512  -2.652   2.620  1.00  0.00     0.134 A 
ATOM     13  C   UNL     1       1.750  -2.517   3.804  1.00  0.00     0.034 A 
BRANCH   9  14
ATOM     14  O   UNL     1      -0.143  -2.042   0.146  1.00  0.00    -0.493 OA
ATOM     15  C   UNL     1      -0.560  -0.714  -0.174  1.00  0.00     0.278 C 
ENDBRANCH   9  14
BRANCH  11  16
ATOM     16  O   UNL     1       2.682  -2.816   0.276  1.00  0.00    -0.492 OA
ATOM     17  C   UNL     1       2.278  -2.353  -1.007  1.00  0.00     0.278 C 
ENDBRANCH  11  16
BRANCH  12  18
ATOM     18  S   UNL     1       4.228  -3.126   2.841  1.00  0.00     0.265 S 
ATOM     19  O   UNL     1       4.632  -2.604   4.135  1.00  0.00    -0.201 OA
ATOM     20  O   UNL     1       4.306  -4.546   2.578  1.00  0.00    -0.201 OA
BRANCH  18  21
ATOM     21  N   UNL     1       5.205  -2.366   1.676  1.00  0.00    -0.279 N 
ATOM     22  H   UNL     1       5.927  -2.870   1.236  1.00  0.00     0.180 HD
BRANCH  21  23
ATOM     23  C   UNL     1       4.981  -1.000   1.337  1.00  0.00     0.053 A 
ATOM     24  C   UNL     1       4.947  -0.663  -0.022  1.00  0.00     0.031 A 
ATOM     25  C   UNL     1       4.660  -0.055   2.302  1.00  0.00     0.077 A 
ATOM     26  C   UNL     1       4.297   0.501  -0.424  1.00  0.00     0.052 A 
ATOM     27  C   UNL     1       3.944   1.062   1.908  1.00  0.00     0.163 A 
ATOM     28  C   UNL     1       3.689   1.283   0.549  1.00  0.00     0.161 A 
ATOM     29  O   UNL     1       3.373   1.797   2.913  1.00  0.00    -0.486 OA
ATOM     30  O   UNL     1       2.707   2.153   0.143  1.00  0.00    -0.486 OA
ATOM     31  C   UNL     1       2.283   2.616   2.468  1.00  0.00     0.271 C 
ATOM     32  C   UNL     1       1.689   2.127   1.158  1.00  0.00     0.271 C 
ENDBRANCH  21  23
ENDBRANCH  18  21
ENDBRANCH  12  18
ENDBRANCH   7   8
ENDBRANCH   3   6
ENDBRANCH   1   2
BRANCH   1  33
ATOM     33  C   UNL     1      -0.040  -4.182   8.276  1.00  0.00     0.042 C 
BRANCH  33  34
ATOM     34  C   UNL     1      -0.518  -4.379   9.712  1.00  0.00     0.118 C 
BRANCH  34  35
ATOM     35  N   UNL     1      -0.657  -5.785  10.059  1.00  0.00    -0.352 N 
ATOM     36  C   UNL     1      -0.093  -6.505  11.081  1.00  0.00     0.251 C 
ATOM     37  H   UNL     1      -1.251  -6.302   9.467  1.00  0.00     0.163 HD
ATOM     38  O   UNL     1      -0.172  -7.730  11.070  1.00  0.00    -0.269 OA
BRANCH  36  39
ATOM     39  C   UNL     1       0.606  -5.828  12.197  1.00  0.00     0.039 A 
ATOM     40  C   UNL     1       1.736  -6.441  12.748  1.00  0.00     0.014 A 
ATOM     41  C   UNL     1       0.118  -4.643  12.753  1.00  0.00     0.014 A 
ATOM     42  C   UNL     1       2.384  -5.857  13.838  1.00  0.00     0.010 A 
ATOM     43  C   UNL     1       0.812  -4.018  13.787  1.00  0.00     0.010 A 
ATOM     44  C   UNL     1       1.934  -4.634  14.360  1.00  0.00    -0.014 A 
BRANCH  44  45
ATOM     45  C   UNL     1       2.595  -4.019  15.539  1.00  0.00     0.031 A 
ATOM     46  C   UNL     1       1.839  -3.864  16.831  1.00  0.00     0.074 A 
ATOM     47  C   UNL     1       3.861  -3.572  15.437  1.00  0.00     0.049 A 
ATOM     48  N   UNL     1       2.229  -3.334  17.964  1.00  0.00    -0.248 NA
ATOM     49  C   UNL     1       0.447  -4.342  16.845  1.00  0.00     0.031 C 
ATOM     50  C   UNL     1       4.679  -3.620  14.225  1.00  0.00     0.029 A 
ATOM     51  N   UNL     1       4.682  -2.987  16.369  1.00  0.00    -0.354 N 
ATOM     52  C   UNL     1       1.131  -3.401  18.812  1.00  0.00     0.074 A 
ATOM     53  C   UNL     1       0.040  -3.964  18.047  1.00  0.00     0.031 C 
ATOM     54  C   UNL     1       5.894  -3.116  14.493  1.00  0.00     0.029 A 
ATOM     55  C   UNL     1       5.930  -2.680  15.886  1.00  0.00     0.049 A 
ATOM     56  H   UNL     1       4.402  -2.805  17.295  1.00  0.00     0.167 HD
ATOM     57  C   UNL     1       1.047  -3.053  20.118  1.00  0.00     0.037 A 
ATOM     58  C   UNL     1       6.985  -2.114  16.502  1.00  0.00     0.037 A 
ATOM     59  C   UNL     1       2.145  -2.520  20.881  1.00  0.00     0.049 A 
ATOM     60  C   UNL     1       6.871  -1.750  17.958  1.00  0.00     0.074 A 
ATOM     61  C   UNL     1       2.184  -2.183  22.223  1.00  0.00     0.029 A 
ATOM     62  N   UNL     1       3.404  -2.248  20.364  1.00  0.00    -0.354 N 
ATOM     63  N   UNL     1       5.849  -1.882  18.769  1.00  0.00    -0.248 NA
ATOM     64  C   UNL     1       8.066  -1.173  18.589  1.00  0.00     0.031 C 
ATOM     65  C   UNL     1       3.451  -1.664  22.507  1.00  0.00     0.029 A 
ATOM     66  C   UNL     1       4.222  -1.732  21.357  1.00  0.00     0.049 A 
ATOM     67  H   UNL     1       3.676  -2.399  19.430  1.00  0.00     0.167 HD
ATOM     68  C   UNL     1       6.286  -1.438  20.010  1.00  0.00     0.074 A 
ATOM     69  C   UNL     1       7.671  -1.048  19.848  1.00  0.00     0.031 C 
ATOM     70  C   UNL     1       5.603  -1.360  21.179  1.00  0.00     0.037 A 
BRANCH  57  71
ATOM     71  C   UNL     1      -0.277  -3.242  20.804  1.00  0.00     0.064 A 
ATOM     72  C   UNL     1      -0.800  -4.520  21.060  1.00  0.00     0.173 A 
ATOM     73  C   UNL     1      -1.023  -2.134  21.233  1.00  0.00     0.173 A 
ATOM     74  F   UNL     1      -0.135  -5.614  20.661  1.00  0.00    -0.203 F 
ATOM     75  C   UNL     1      -2.034  -4.679  21.686  1.00  0.00     0.198 A 
ATOM     76  C   UNL     1      -2.241  -2.298  21.890  1.00  0.00     0.198 A 
ATOM     77  F   UNL     1      -0.570  -0.889  21.022  1.00  0.00    -0.203 F 
ATOM     78  F   UNL     1      -2.539  -5.908  21.865  1.00  0.00    -0.200 F 
ATOM     79  C   UNL     1      -2.750  -3.569  22.106  1.00  0.00     0.200 A 
ATOM     80  F   UNL     1      -2.925  -1.224  22.308  1.00  0.00    -0.200 F 
ATOM     81  F   UNL     1      -3.935  -3.724  22.713  1.00  0.00    -0.200 F 
ENDBRANCH  57  71
BRANCH  58  82
ATOM     82  C   UNL     1       8.252  -1.895  15.755  1.00  0.00     0.064 A 
ATOM     83  C   UNL     1       9.403  -2.637  16.057  1.00  0.00     0.173 A 
ATOM     84  C   UNL     1       8.342  -0.941  14.732  1.00  0.00     0.173 A 
ATOM     85  F   UNL     1       9.373  -3.548  17.041  1.00  0.00    -0.203 F 
ATOM     86  C   UNL     1      10.601  -2.416  15.381  1.00  0.00     0.198 A 
ATOM     87  C   UNL     1       9.532  -0.742  14.036  1.00  0.00     0.198 A 
ATOM     88  F   UNL     1       7.268  -0.209  14.400  1.00  0.00    -0.203 F 
ATOM     89  F   UNL     1      11.698  -3.103  15.726  1.00  0.00    -0.200 F 
ATOM     90  C   UNL     1      10.663  -1.472  14.367  1.00  0.00     0.200 A 
ATOM     91  F   UNL     1       9.585   0.161  13.047  1.00  0.00    -0.200 F 
ATOM     92  F   UNL     1      11.815  -1.260  13.717  1.00  0.00    -0.200 F 
ENDBRANCH  58  82
BRANCH  70  93
ATOM     93  C   UNL     1       6.359  -0.879  22.384  1.00  0.00     0.064 A 
ATOM     94  C   UNL     1       6.771   0.455  22.516  1.00  0.00     0.173 A 
ATOM     95  C   UNL     1       6.655  -1.765  23.432  1.00  0.00     0.173 A 
ATOM     96  F   UNL     1       6.524   1.338  21.537  1.00  0.00    -0.203 F 
ATOM     97  C   UNL     1       7.484   0.876  23.636  1.00  0.00     0.198 A 
ATOM     98  C   UNL     1       7.337  -1.332  24.565  1.00  0.00     0.198 A 
ATOM     99  F   UNL     1       6.276  -3.050  23.360  1.00  0.00    -0.203 F 
ATOM    100  F   UNL     1       7.920   2.141  23.713  1.00  0.00    -0.200 F 
ATOM    101  C   UNL     1       7.761  -0.016  24.661  1.00  0.00     0.200 A 
ATOM    102  F   UNL     1       7.590  -2.192  25.562  1.00  0.00    -0.200 F 
ATOM    103  F   UNL     1       8.444   0.392  25.739  1.00  0.00    -0.200 F 
ENDBRANCH  70  93
ENDBRANCH  44  45
ENDBRANCH  36  39
ENDBRANCH  34  35
ENDBRANCH  33  34
ENDBRANCH   1  33
TORSDOF 16
