REMARK SMILES O=C(NCCCNC(=O)C1CCN(C(=O)COc2ccc(Cl)cc2Cl)CC1)c1ccc(-c2c3nc(c(-c4c(F)c(F)c(F)c(F)c4F)c4ccc([nH]4)c(-c4c(F)c(F)c(F)c(F)c4F)c4nc(c(-c5c(F)c(F)c(F)c(F)c5F)c5ccc2[nH]5)C=C4)C=C3)cc1
REMARK SMILES IDX 5 1 4 2 3 3 1 4 2 5 28 7 29 8 90 9 30 10 89 11 31 12 32 13
REMARK SMILES IDX 33 14 83 15 34 16 88 17 82 18 84 19 35 20 87 21 81 22 80 23
REMARK SMILES IDX 36 25 68 26 48 27 67 28 49 29 52 30 66 31 85 32 50 33 51 34
REMARK SMILES IDX 65 36 86 37 53 38 37 39 38 40 46 41 39 42 40 43 44 44 47 45
REMARK SMILES IDX 41 46 42 47 45 48 43 49 69 50 70 51 78 52 71 53 72 54 76 55
REMARK SMILES IDX 79 56 73 57 74 58 77 59 75 60 54 61 55 62 63 63 56 64 57 65
REMARK SMILES IDX 61 66 64 67 58 68 59 69 62 70 60 71 6 72 7 73 8 74 9 76
REMARK SMILES IDX 10 77 11 78 27 79 12 80 26 81 13 82 14 83 15 84 16 85 17 86
REMARK SMILES IDX 18 87 19 88 24 89 20 90 23 91 25 92 21 93 22 94
REMARK H PARENT 3 6 84 24 52 35 7 75
REMARK Flexibility Score: inf
ROOT
ATOM      1  C   UNL     1       4.681  -2.730  -0.959  1.00  0.00     0.042 C 
ENDROOT
BRANCH   1   2
ATOM      2  C   UNL     1       4.432  -1.227  -1.073  1.00  0.00     0.118 C 
BRANCH   2   3
ATOM      3  N   UNL     1       3.024  -0.861  -0.992  1.00  0.00    -0.352 N 
ATOM      4  O   UNL     1       1.126   0.018  -0.171  1.00  0.00    -0.269 OA
ATOM      5  C   UNL     1       2.352  -0.050  -0.110  1.00  0.00     0.251 C 
ATOM      6  H   UNL     1       2.457  -1.263  -1.689  1.00  0.00     0.163 HD
BRANCH   5   7
ATOM      7  C   UNL     1       3.072   0.713   0.934  1.00  0.00     0.039 A 
ATOM      8  C   UNL     1       4.269   1.375   0.662  1.00  0.00     0.014 A 
ATOM      9  C   UNL     1       2.514   0.791   2.215  1.00  0.00     0.014 A 
ATOM     10  C   UNL     1       4.989   1.962   1.700  1.00  0.00     0.010 A 
ATOM     11  C   UNL     1       3.196   1.457   3.239  1.00  0.00     0.010 A 
ATOM     12  C   UNL     1       4.465   2.005   3.002  1.00  0.00    -0.014 A 
BRANCH  12  13
ATOM     13  C   UNL     1       5.260   2.634   4.090  1.00  0.00     0.031 A 
ATOM     14  C   UNL     1       5.781   1.816   5.241  1.00  0.00     0.074 A 
ATOM     15  C   UNL     1       5.557   3.945   4.012  1.00  0.00     0.049 A 
ATOM     16  N   UNL     1       6.552   2.184   6.235  1.00  0.00    -0.248 NA
ATOM     17  C   UNL     1       5.378   0.402   5.293  1.00  0.00     0.031 C 
ATOM     18  C   UNL     1       5.094   4.851   2.959  1.00  0.00     0.029 A 
ATOM     19  N   UNL     1       6.337   4.739   4.814  1.00  0.00    -0.354 N 
ATOM     20  C   UNL     1       6.708   1.060   7.036  1.00  0.00     0.074 A 
ATOM     21  C   UNL     1       5.930   0.001   6.430  1.00  0.00     0.031 C 
ATOM     22  C   UNL     1       5.643   6.060   3.147  1.00  0.00     0.029 A 
ATOM     23  C   UNL     1       6.458   6.029   4.357  1.00  0.00     0.049 A 
ATOM     24  H   UNL     1       6.768   4.416   5.638  1.00  0.00     0.167 HD
ATOM     25  C   UNL     1       7.441   0.921   8.167  1.00  0.00     0.037 A 
ATOM     26  C   UNL     1       7.150   7.070   4.855  1.00  0.00     0.037 A 
ATOM     27  C   UNL     1       8.240   1.966   8.754  1.00  0.00     0.049 A 
ATOM     28  C   UNL     1       7.961   6.884   6.106  1.00  0.00     0.074 A 
ATOM     29  C   UNL     1       9.059   1.904   9.869  1.00  0.00     0.029 A 
ATOM     30  N   UNL     1       8.320   3.264   8.274  1.00  0.00    -0.354 N 
ATOM     31  N   UNL     1       8.140   5.802   6.823  1.00  0.00    -0.248 NA
ATOM     32  C   UNL     1       8.668   8.067   6.615  1.00  0.00     0.031 C 
ATOM     33  C   UNL     1       9.601   3.175  10.087  1.00  0.00     0.029 A 
ATOM     34  C   UNL     1       9.157   4.018   9.082  1.00  0.00     0.049 A 
ATOM     35  H   UNL     1       7.851   3.601   7.476  1.00  0.00     0.167 HD
ATOM     36  C   UNL     1       8.995   6.166   7.854  1.00  0.00     0.074 A 
ATOM     37  C   UNL     1       9.313   7.565   7.658  1.00  0.00     0.031 C 
ATOM     38  C   UNL     1       9.470   5.408   8.872  1.00  0.00     0.037 A 
BRANCH  25  39
ATOM     39  C   UNL     1       7.408  -0.411   8.860  1.00  0.00     0.064 A 
ATOM     40  C   UNL     1       8.058  -1.535   8.331  1.00  0.00     0.173 A 
ATOM     41  C   UNL     1       6.755  -0.551  10.095  1.00  0.00     0.173 A 
ATOM     42  F   UNL     1       8.687  -1.457   7.149  1.00  0.00    -0.203 F 
ATOM     43  C   UNL     1       8.036  -2.757   9.001  1.00  0.00     0.198 A 
ATOM     44  C   UNL     1       6.757  -1.767  10.774  1.00  0.00     0.198 A 
ATOM     45  F   UNL     1       6.122   0.495  10.648  1.00  0.00    -0.203 F 
ATOM     46  F   UNL     1       8.630  -3.828   8.456  1.00  0.00    -0.200 F 
ATOM     47  C   UNL     1       7.392  -2.870  10.224  1.00  0.00     0.200 A 
ATOM     48  F   UNL     1       6.144  -1.871  11.961  1.00  0.00    -0.200 F 
ATOM     49  F   UNL     1       7.378  -4.044  10.870  1.00  0.00    -0.200 F 
ENDBRANCH  25  39
BRANCH  26  50
ATOM     50  C   UNL     1       7.125   8.376   4.149  1.00  0.00     0.064 A 
ATOM     51  C   UNL     1       8.263   8.858   3.488  1.00  0.00     0.173 A 
ATOM     52  C   UNL     1       5.964   9.162   4.113  1.00  0.00     0.173 A 
ATOM     53  F   UNL     1       9.401   8.150   3.512  1.00  0.00    -0.203 F 
ATOM     54  C   UNL     1       8.245  10.085   2.828  1.00  0.00     0.198 A 
ATOM     55  C   UNL     1       5.939  10.375   3.429  1.00  0.00     0.198 A 
ATOM     56  F   UNL     1       4.849   8.742   4.727  1.00  0.00    -0.203 F 
ATOM     57  F   UNL     1       9.357  10.541   2.236  1.00  0.00    -0.200 F 
ATOM     58  C   UNL     1       7.081  10.839   2.793  1.00  0.00     0.200 A 
ATOM     59  F   UNL     1       4.809  11.094   3.385  1.00  0.00    -0.200 F 
ATOM     60  F   UNL     1       7.062  12.015   2.151  1.00  0.00    -0.200 F 
ENDBRANCH  26  50
BRANCH  38  61
ATOM     61  C   UNL     1      10.412   6.071   9.833  1.00  0.00     0.064 A 
ATOM     62  C   UNL     1       9.964   7.014  10.769  1.00  0.00     0.173 A 
ATOM     63  C   UNL     1      11.776   5.743   9.829  1.00  0.00     0.173 A 
ATOM     64  F   UNL     1       8.672   7.372  10.801  1.00  0.00    -0.203 F 
ATOM     65  C   UNL     1      10.854   7.628  11.647  1.00  0.00     0.198 A 
ATOM     66  C   UNL     1      12.658   6.338  10.727  1.00  0.00     0.198 A 
ATOM     67  F   UNL     1      12.253   4.843   8.956  1.00  0.00    -0.203 F 
ATOM     68  F   UNL     1      10.413   8.563  12.499  1.00  0.00    -0.200 F 
ATOM     69  C   UNL     1      12.198   7.286  11.629  1.00  0.00     0.200 A 
ATOM     70  F   UNL     1      13.954   6.000  10.714  1.00  0.00    -0.200 F 
ATOM     71  F   UNL     1      13.052   7.877  12.475  1.00  0.00    -0.200 F 
ENDBRANCH  38  61
ENDBRANCH  12  13
ENDBRANCH   5   7
ENDBRANCH   2   3
ENDBRANCH   1   2
BRANCH   1  72
ATOM     72  C   UNL     1       4.013  -3.574  -2.042  1.00  0.00     0.117 C 
BRANCH  72  73
ATOM     73  N   UNL     1       4.344  -3.116  -3.377  1.00  0.00    -0.356 N 
ATOM     74  C   UNL     1       5.381  -3.457  -4.189  1.00  0.00     0.223 C 
ATOM     75  H   UNL     1       3.721  -2.454  -3.755  1.00  0.00     0.163 HD
ATOM     76  O   UNL     1       5.533  -2.802  -5.219  1.00  0.00    -0.275 OA
BRANCH  74  77
ATOM     77  C   UNL     1       6.266  -4.646  -3.830  1.00  0.00     0.082 C 
ATOM     78  C   UNL     1       7.673  -4.497  -4.433  1.00  0.00     0.035 C 
ATOM     79  C   UNL     1       5.604  -5.957  -4.286  1.00  0.00     0.035 C 
ATOM     80  C   UNL     1       7.721  -4.756  -5.941  1.00  0.00     0.120 C 
ATOM     81  C   UNL     1       5.695  -6.150  -5.800  1.00  0.00     0.120 C 
ATOM     82  N   UNL     1       7.077  -6.025  -6.257  1.00  0.00    -0.340 N 
ATOM     83  C   UNL     1       7.773  -6.971  -6.997  1.00  0.00     0.260 C 
ATOM     84  O   UNL     1       8.843  -6.713  -7.555  1.00  0.00    -0.271 OA
BRANCH  83  85
ATOM     85  C   UNL     1       7.218  -8.399  -7.052  1.00  0.00     0.329 C 
BRANCH  85  86
ATOM     86  O   UNL     1       6.822  -8.968  -5.806  1.00  0.00    -0.482 OA
BRANCH  86  87
ATOM     87  C   UNL     1       7.845  -9.447  -5.029  1.00  0.00     0.138 A 
ATOM     88  C   UNL     1       8.892  -8.627  -4.595  1.00  0.00     0.049 A 
ATOM     89  C   UNL     1       7.761 -10.759  -4.544  1.00  0.00     0.084 A 
ATOM     90  C   UNL     1       9.852  -9.117  -3.707  1.00  0.00     0.024 A 
ATOM     91  C   UNL     1       8.720 -11.252  -3.656  1.00  0.00     0.045 A 
ATOM     92  Cl  UNL     1       6.475 -11.808  -5.024  1.00  0.00    -0.080 Cl
ATOM     93  C   UNL     1       9.760 -10.425  -3.240  1.00  0.00     0.042 A 
ATOM     94  Cl  UNL     1      10.928 -11.011  -2.123  1.00  0.00    -0.084 Cl
ENDBRANCH  86  87
ENDBRANCH  85  86
ENDBRANCH  83  85
ENDBRANCH  74  77
ENDBRANCH  72  73
ENDBRANCH   1  72
TORSDOF 13
