REMARK SMILES C[C@H](C[C@H]1CSc2ccccc21)C(=O)NCCCNC(=O)c1ccc(-c2c3nc(c(-c4c(F)c(F)c(F)c(F)c4F)c4ccc([nH]4)c(-c4c(F)c(F)c(F)c(F)c4F)c4nc(c(-c5c(F)c(F)c(F)c(F)c5F)c5ccc2[nH]5)C=C4)C=C3)cc1
REMARK SMILES IDX 17 1 16 2 15 3 13 4 14 5 2 7 1 8 3 9 4 10 5 11 12 12 6 13
REMARK SMILES IDX 7 14 11 15 8 16 10 17 9 18 18 19 19 20 20 21 21 23 22 24
REMARK SMILES IDX 23 25 84 26 24 27 83 28 25 29 26 30 27 31 77 32 28 33 82 34
REMARK SMILES IDX 76 35 78 36 29 37 81 38 75 39 74 40 30 42 62 43 42 44 61 45
REMARK SMILES IDX 43 46 46 47 60 48 79 49 44 50 45 51 59 53 80 54 47 55 31 56
REMARK SMILES IDX 32 57 40 58 33 59 34 60 38 61 41 62 35 63 36 64 39 65 37 66
REMARK SMILES IDX 63 67 64 68 72 69 65 70 66 71 70 72 73 73 67 74 68 75 71 76
REMARK SMILES IDX 69 77 48 78 49 79 57 80 50 81 51 82 55 83 58 84 52 85 53 86
REMARK SMILES IDX 56 87 54 88
REMARK H PARENT 15 6 19 22 78 41 46 52
REMARK Flexibility Score: inf
ROOT
ATOM      1  C   UNL     1      -1.436   1.992   2.491  1.00  0.00     0.042 C 
ENDROOT
BRANCH   1   2
ATOM      2  C   UNL     1      -1.166   0.506   2.402  1.00  0.00     0.117 C 
BRANCH   2   3
ATOM      3  N   UNL     1      -1.801  -0.078   1.238  1.00  0.00    -0.356 N 
ATOM      4  C   UNL     1      -1.345  -1.017   0.375  1.00  0.00     0.222 C 
ATOM      5  O   UNL     1      -2.070  -1.325  -0.572  1.00  0.00    -0.275 OA
ATOM      6  H   UNL     1      -2.704   0.260   1.044  1.00  0.00     0.163 HD
BRANCH   4   7
ATOM      7  C   UNL     1       0.026  -1.645   0.551  1.00  0.00     0.076 C 
ATOM      8  C   UNL     1       0.223  -2.182   1.971  1.00  0.00     0.018 C 
BRANCH   7   9
ATOM      9  C   UNL     1       1.132  -0.701   0.019  1.00  0.00     0.022 C 
BRANCH   9  10
ATOM     10  C   UNL     1       2.535  -1.292  -0.309  1.00  0.00     0.031 C 
ATOM     11  C   UNL     1       3.660  -0.685   0.561  1.00  0.00     0.083 C 
ATOM     12  C   UNL     1       2.639  -2.785  -0.135  1.00  0.00    -0.030 A 
ATOM     13  S   UNL     1       3.950  -1.825   1.947  1.00  0.00    -0.125 SA
ATOM     14  C   UNL     1       3.258  -3.185   1.053  1.00  0.00     0.011 A 
ATOM     15  C   UNL     1       2.025  -3.723  -0.963  1.00  0.00     0.005 A 
ATOM     16  C   UNL     1       3.194  -4.502   1.478  1.00  0.00     0.015 A 
ATOM     17  C   UNL     1       1.944  -5.047  -0.533  1.00  0.00     0.000 A 
ATOM     18  C   UNL     1       2.511  -5.431   0.688  1.00  0.00     0.001 A 
ENDBRANCH   9  10
ENDBRANCH   7   9
ENDBRANCH   4   7
ENDBRANCH   2   3
ENDBRANCH   1   2
BRANCH   1  19
ATOM     19  C   UNL     1      -2.913   2.328   2.578  1.00  0.00     0.118 C 
BRANCH  19  20
ATOM     20  N   UNL     1      -3.558   1.806   3.778  1.00  0.00    -0.352 N 
ATOM     21  C   UNL     1      -4.303   2.499   4.705  1.00  0.00     0.251 C 
ATOM     22  H   UNL     1      -3.448   0.842   3.944  1.00  0.00     0.163 HD
ATOM     23  O   UNL     1      -4.696   1.975   5.739  1.00  0.00    -0.269 OA
BRANCH  21  24
ATOM     24  C   UNL     1      -4.572   3.920   4.427  1.00  0.00     0.039 A 
ATOM     25  C   UNL     1      -5.107   4.271   3.186  1.00  0.00     0.014 A 
ATOM     26  C   UNL     1      -4.101   4.890   5.312  1.00  0.00     0.014 A 
ATOM     27  C   UNL     1      -4.963   5.575   2.742  1.00  0.00     0.010 A 
ATOM     28  C   UNL     1      -4.071   6.223   4.903  1.00  0.00     0.010 A 
ATOM     29  C   UNL     1      -4.442   6.566   3.592  1.00  0.00    -0.014 A 
BRANCH  29  30
ATOM     30  C   UNL     1      -4.281   7.950   3.080  1.00  0.00     0.031 A 
ATOM     31  C   UNL     1      -2.925   8.597   3.003  1.00  0.00     0.074 A 
ATOM     32  C   UNL     1      -5.368   8.599   2.621  1.00  0.00     0.049 A 
ATOM     33  N   UNL     1      -2.613   9.818   2.647  1.00  0.00    -0.248 NA
ATOM     34  C   UNL     1      -1.764   7.773   3.379  1.00  0.00     0.031 C 
ATOM     35  C   UNL     1      -6.728   8.057   2.608  1.00  0.00     0.029 A 
ATOM     36  N   UNL     1      -5.500   9.837   2.049  1.00  0.00    -0.354 N 
ATOM     37  C   UNL     1      -1.235   9.920   2.792  1.00  0.00     0.074 A 
ATOM     38  C   UNL     1      -0.766   8.640   3.277  1.00  0.00     0.031 C 
ATOM     39  C   UNL     1      -7.542   8.923   1.992  1.00  0.00     0.029 A 
ATOM     40  C   UNL     1      -6.784  10.122   1.657  1.00  0.00     0.049 A 
ATOM     41  H   UNL     1      -4.747  10.461   1.930  1.00  0.00     0.167 HD
ATOM     42  C   UNL     1      -0.439  10.987   2.539  1.00  0.00     0.037 A 
ATOM     43  C   UNL     1      -7.304  11.238   1.117  1.00  0.00     0.037 A 
ATOM     44  C   UNL     1      -0.913  12.244   2.018  1.00  0.00     0.049 A 
ATOM     45  C   UNL     1      -6.407  12.416   0.886  1.00  0.00     0.074 A 
ATOM     46  C   UNL     1      -0.188  13.386   1.725  1.00  0.00     0.029 A 
ATOM     47  N   UNL     1      -2.235  12.518   1.699  1.00  0.00    -0.354 N 
ATOM     48  N   UNL     1      -5.116  12.520   1.083  1.00  0.00    -0.248 NA
ATOM     49  C   UNL     1      -7.043  13.639   0.383  1.00  0.00     0.031 C 
ATOM     50  C   UNL     1      -1.076  14.362   1.260  1.00  0.00     0.029 A 
ATOM     51  C   UNL     1      -2.348  13.816   1.224  1.00  0.00     0.049 A 
ATOM     52  H   UNL     1      -2.982  11.885   1.795  1.00  0.00     0.167 HD
ATOM     53  C   UNL     1      -4.782  13.819   0.733  1.00  0.00     0.074 A 
ATOM     54  C   UNL     1      -6.003  14.456   0.282  1.00  0.00     0.031 C 
ATOM     55  C   UNL     1      -3.576  14.432   0.792  1.00  0.00     0.037 A 
BRANCH  42  56
ATOM     56  C   UNL     1       1.028  10.859   2.834  1.00  0.00     0.064 A 
ATOM     57  C   UNL     1       1.883  10.107   2.017  1.00  0.00     0.173 A 
ATOM     58  C   UNL     1       1.597  11.557   3.911  1.00  0.00     0.173 A 
ATOM     59  F   UNL     1       1.388   9.410   0.983  1.00  0.00    -0.203 F 
ATOM     60  C   UNL     1       3.251  10.050   2.272  1.00  0.00     0.198 A 
ATOM     61  C   UNL     1       2.968  11.517   4.150  1.00  0.00     0.198 A 
ATOM     62  F   UNL     1       0.824  12.296   4.722  1.00  0.00    -0.203 F 
ATOM     63  F   UNL     1       4.045   9.300   1.495  1.00  0.00    -0.200 F 
ATOM     64  C   UNL     1       3.794  10.761   3.332  1.00  0.00     0.200 A 
ATOM     65  F   UNL     1       3.491  12.215   5.168  1.00  0.00    -0.200 F 
ATOM     66  F   UNL     1       5.113  10.716   3.567  1.00  0.00    -0.200 F 
ENDBRANCH  42  56
BRANCH  43  67
ATOM     67  C   UNL     1      -8.750  11.283   0.789  1.00  0.00     0.064 A 
ATOM     68  C   UNL     1      -9.184  11.296  -0.543  1.00  0.00     0.173 A 
ATOM     69  C   UNL     1      -9.727  11.259   1.796  1.00  0.00     0.173 A 
ATOM     70  F   UNL     1      -8.286  11.337  -1.538  1.00  0.00    -0.203 F 
ATOM     71  C   UNL     1     -10.541  11.282  -0.855  1.00  0.00     0.198 A 
ATOM     72  C   UNL     1     -11.082  11.215   1.483  1.00  0.00     0.198 A 
ATOM     73  F   UNL     1      -9.361  11.240   3.086  1.00  0.00    -0.203 F 
ATOM     74  F   UNL     1     -10.931  11.318  -2.136  1.00  0.00    -0.200 F 
ATOM     75  C   UNL     1     -11.489  11.230   0.157  1.00  0.00     0.200 A 
ATOM     76  F   UNL     1     -11.993  11.144   2.463  1.00  0.00    -0.200 F 
ATOM     77  F   UNL     1     -12.793  11.194  -0.145  1.00  0.00    -0.200 F 
ENDBRANCH  43  67
BRANCH  55  78
ATOM     78  C   UNL     1      -3.522  15.864   0.355  1.00  0.00     0.064 A 
ATOM     79  C   UNL     1      -4.038  16.890   1.160  1.00  0.00     0.173 A 
ATOM     80  C   UNL     1      -2.919  16.218  -0.860  1.00  0.00     0.173 A 
ATOM     81  F   UNL     1      -4.639  16.597   2.323  1.00  0.00    -0.203 F 
ATOM     82  C   UNL     1      -3.971  18.219   0.752  1.00  0.00     0.198 A 
ATOM     83  C   UNL     1      -2.831  17.549  -1.253  1.00  0.00     0.198 A 
ATOM     84  F   UNL     1      -2.407  15.271  -1.661  1.00  0.00    -0.203 F 
ATOM     85  F   UNL     1      -4.508  19.180   1.517  1.00  0.00    -0.200 F 
ATOM     86  C   UNL     1      -3.363  18.548  -0.450  1.00  0.00     0.200 A 
ATOM     87  F   UNL     1      -2.234  17.867  -2.410  1.00  0.00    -0.200 F 
ATOM     88  F   UNL     1      -3.295  19.828  -0.839  1.00  0.00    -0.200 F 
ENDBRANCH  55  78
ENDBRANCH  29  30
ENDBRANCH  21  24
ENDBRANCH  19  20
ENDBRANCH   1  19
TORSDOF 12
