REMARK SMILES O=C(NCCCNC(=O)[C@H](c1c[nH]c2ccc(Cl)cc12)[NH+]1CCN(c2ncc(Br)cn2)CC1)c1ccc(-c2c3nc(c(-c4c(F)c(F)c(F)c(F)c4F)c4ccc([nH]4)c(-c4c(F)c(F)c(F)c(F)c4F)c4nc(c(-c5c(F)c(F)c(F)c(F)c5F)c5ccc2[nH]5)C=C4)C=C3)cc1
REMARK SMILES IDX 5 1 4 2 3 3 1 4 2 5 34 7 35 8 96 9 36 10 95 11 37 12 38 13
REMARK SMILES IDX 39 14 89 15 40 16 94 17 88 18 90 19 41 20 93 21 87 22 86 23
REMARK SMILES IDX 42 25 74 26 54 27 73 28 55 29 58 30 72 31 91 32 56 33 57 34
REMARK SMILES IDX 71 36 92 37 59 38 43 39 44 40 52 41 45 42 46 43 50 44 53 45
REMARK SMILES IDX 47 46 48 47 51 48 49 49 75 50 76 51 84 52 77 53 78 54 82 55
REMARK SMILES IDX 85 56 79 57 80 58 83 59 81 60 60 61 61 62 69 63 62 64 63 65
REMARK SMILES IDX 67 66 70 67 64 68 65 69 68 70 66 71 6 72 7 73 8 74 9 76
REMARK SMILES IDX 10 77 21 78 22 79 33 80 23 82 32 83 24 84 25 85 26 86 31 87
REMARK SMILES IDX 27 88 30 89 28 90 29 91 11 92 12 93 20 94 13 95 14 96 19 97
REMARK SMILES IDX 15 99 17 100 16 101 18 102
REMARK H PARENT 3 6 90 24 58 35 7 75 21 81 13 98
REMARK Flexibility Score: inf
ROOT
ATOM      1  C   UNL     1       8.234   5.109  -6.809  1.00  0.00     0.042 C 
ENDROOT
BRANCH   1   2
ATOM      2  C   UNL     1       9.738   4.980  -6.664  1.00  0.00     0.118 C 
BRANCH   2   3
ATOM      3  N   UNL     1      10.386   4.758  -7.947  1.00  0.00    -0.352 N 
ATOM      4  O   UNL     1      11.411   5.357  -9.866  1.00  0.00    -0.269 OA
ATOM      5  C   UNL     1      11.153   5.619  -8.693  1.00  0.00     0.251 C 
ATOM      6  H   UNL     1      10.257   3.862  -8.337  1.00  0.00     0.163 HD
BRANCH   5   7
ATOM      7  C   UNL     1      11.659   6.868  -8.084  1.00  0.00     0.039 A 
ATOM      8  C   UNL     1      12.119   6.869  -6.768  1.00  0.00     0.014 A 
ATOM      9  C   UNL     1      11.698   8.046  -8.836  1.00  0.00     0.014 A 
ATOM     10  C   UNL     1      12.445   8.065  -6.150  1.00  0.00     0.010 A 
ATOM     11  C   UNL     1      12.164   9.229  -8.252  1.00  0.00     0.010 A 
ATOM     12  C   UNL     1      12.524   9.251  -6.896  1.00  0.00    -0.014 A 
BRANCH  12  13
ATOM     13  C   UNL     1      13.107  10.449  -6.240  1.00  0.00     0.031 A 
ATOM     14  C   UNL     1      12.319  11.712  -6.050  1.00  0.00     0.074 A 
ATOM     15  C   UNL     1      14.362  10.348  -5.756  1.00  0.00     0.049 A 
ATOM     16  N   UNL     1      12.678  12.819  -5.447  1.00  0.00    -0.248 NA
ATOM     17  C   UNL     1      10.963  11.751  -6.615  1.00  0.00     0.031 C 
ATOM     18  C   UNL     1      15.227   9.173  -5.908  1.00  0.00     0.029 A 
ATOM     19  N   UNL     1      15.117  11.216  -5.011  1.00  0.00    -0.354 N 
ATOM     20  C   UNL     1      11.599  13.684  -5.562  1.00  0.00     0.074 A 
ATOM     21  C   UNL     1      10.583  12.990  -6.326  1.00  0.00     0.031 C 
ATOM     22  C   UNL     1      16.358   9.364  -5.218  1.00  0.00     0.029 A 
ATOM     23  C   UNL     1      16.340  10.704  -4.650  1.00  0.00     0.049 A 
ATOM     24  H   UNL     1      14.812  12.118  -4.760  1.00  0.00     0.167 HD
ATOM     25  C   UNL     1      11.469  14.938  -5.064  1.00  0.00     0.037 A 
ATOM     26  C   UNL     1      17.350  11.260  -3.958  1.00  0.00     0.037 A 
ATOM     27  C   UNL     1      12.488  15.617  -4.300  1.00  0.00     0.049 A 
ATOM     28  C   UNL     1      17.180  12.658  -3.442  1.00  0.00     0.074 A 
ATOM     29  C   UNL     1      12.451  16.885  -3.745  1.00  0.00     0.029 A 
ATOM     30  N   UNL     1      13.729  15.081  -3.983  1.00  0.00    -0.354 N 
ATOM     31  N   UNL     1      16.145  13.456  -3.540  1.00  0.00    -0.248 NA
ATOM     32  C   UNL     1      18.320  13.235  -2.720  1.00  0.00     0.031 C 
ATOM     33  C   UNL     1      13.685  17.134  -3.135  1.00  0.00     0.029 A 
ATOM     34  C   UNL     1      14.472  16.001  -3.257  1.00  0.00     0.049 A 
ATOM     35  H   UNL     1      14.037  14.181  -4.236  1.00  0.00     0.167 HD
ATOM     36  C   UNL     1      16.503  14.625  -2.886  1.00  0.00     0.074 A 
ATOM     37  C   UNL     1      17.836  14.414  -2.359  1.00  0.00     0.031 C 
ATOM     38  C   UNL     1      15.800  15.775  -2.746  1.00  0.00     0.037 A 
BRANCH  25  39
ATOM     39  C   UNL     1      10.185  15.671  -5.329  1.00  0.00     0.064 A 
ATOM     40  C   UNL     1       8.986  15.307  -4.697  1.00  0.00     0.173 A 
ATOM     41  C   UNL     1      10.166  16.798  -6.165  1.00  0.00     0.173 A 
ATOM     42  F   UNL     1       8.945  14.233  -3.894  1.00  0.00    -0.203 F 
ATOM     43  C   UNL     1       7.815  16.034  -4.904  1.00  0.00     0.198 A 
ATOM     44  C   UNL     1       9.001  17.539  -6.348  1.00  0.00     0.198 A 
ATOM     45  F   UNL     1      11.285  17.195  -6.790  1.00  0.00    -0.203 F 
ATOM     46  F   UNL     1       6.675  15.647  -4.314  1.00  0.00    -0.200 F 
ATOM     47  C   UNL     1       7.826  17.154  -5.720  1.00  0.00     0.200 A 
ATOM     48  F   UNL     1       9.017  18.631  -7.125  1.00  0.00    -0.200 F 
ATOM     49  F   UNL     1       6.703  17.863  -5.904  1.00  0.00    -0.200 F 
ENDBRANCH  25  39
BRANCH  26  50
ATOM     50  C   UNL     1      18.613  10.505  -3.748  1.00  0.00     0.064 A 
ATOM     51  C   UNL     1      19.032  10.126  -2.466  1.00  0.00     0.173 A 
ATOM     52  C   UNL     1      19.437  10.160  -4.831  1.00  0.00     0.173 A 
ATOM     53  F   UNL     1      18.289  10.445  -1.396  1.00  0.00    -0.203 F 
ATOM     54  C   UNL     1      20.241   9.459  -2.273  1.00  0.00     0.198 A 
ATOM     55  C   UNL     1      20.624   9.457  -4.641  1.00  0.00     0.198 A 
ATOM     56  F   UNL     1      19.080  10.491  -6.081  1.00  0.00    -0.203 F 
ATOM     57  F   UNL     1      20.648   9.164  -1.031  1.00  0.00    -0.200 F 
ATOM     58  C   UNL     1      21.032   9.120  -3.360  1.00  0.00     0.200 A 
ATOM     59  F   UNL     1      21.372   9.112  -5.697  1.00  0.00    -0.200 F 
ATOM     60  F   UNL     1      22.192   8.477  -3.173  1.00  0.00    -0.200 F 
ENDBRANCH  26  50
BRANCH  38  61
ATOM     61  C   UNL     1      16.462  16.878  -1.972  1.00  0.00     0.064 A 
ATOM     62  C   UNL     1      17.577  17.564  -2.477  1.00  0.00     0.173 A 
ATOM     63  C   UNL     1      15.983  17.245  -0.706  1.00  0.00     0.173 A 
ATOM     64  F   UNL     1      18.086  17.237  -3.675  1.00  0.00    -0.203 F 
ATOM     65  C   UNL     1      18.215  18.546  -1.724  1.00  0.00     0.198 A 
ATOM     66  C   UNL     1      16.601  18.254   0.028  1.00  0.00     0.198 A 
ATOM     67  F   UNL     1      14.916  16.626  -0.179  1.00  0.00    -0.203 F 
ATOM     68  F   UNL     1      19.322  19.135  -2.197  1.00  0.00    -0.200 F 
ATOM     69  C   UNL     1      17.723  18.893  -0.475  1.00  0.00     0.200 A 
ATOM     70  F   UNL     1      16.116  18.598   1.229  1.00  0.00    -0.200 F 
ATOM     71  F   UNL     1      18.341  19.835   0.250  1.00  0.00    -0.200 F 
ENDBRANCH  38  61
ENDBRANCH  12  13
ENDBRANCH   5   7
ENDBRANCH   2   3
ENDBRANCH   1   2
BRANCH   1  72
ATOM     72  C   UNL     1       7.545   3.763  -6.997  1.00  0.00     0.118 C 
BRANCH  72  73
ATOM     73  N   UNL     1       7.799   2.827  -5.910  1.00  0.00    -0.351 N 
ATOM     74  C   UNL     1       7.201   2.771  -4.668  1.00  0.00     0.283 C 
ATOM     75  H   UNL     1       8.487   2.145  -6.084  1.00  0.00     0.163 HD
ATOM     76  O   UNL     1       7.522   1.847  -3.919  1.00  0.00    -0.268 OA
BRANCH  74  77
ATOM     77  C   UNL     1       6.163   3.861  -4.313  1.00  0.00     0.307 C 
BRANCH  77  78
ATOM     78  N   UNL     1       4.921   3.669  -5.086  1.00  0.00    -0.318 N 
ATOM     79  C   UNL     1       4.216   2.389  -4.952  1.00  0.00     0.285 C 
ATOM     80  C   UNL     1       3.990   4.805  -5.089  1.00  0.00     0.285 C 
ATOM     81  H   UNL     1       5.334   3.621  -6.017  1.00  0.00     0.349 HD
ATOM     82  C   UNL     1       3.126   2.308  -3.867  1.00  0.00     0.181 C 
ATOM     83  C   UNL     1       2.924   4.802  -3.975  1.00  0.00     0.181 C 
ATOM     84  N   UNL     1       2.283   3.495  -3.879  1.00  0.00    -0.330 N 
BRANCH  84  85
ATOM     85  C   UNL     1       1.158   3.462  -3.088  1.00  0.00     0.225 A 
ATOM     86  N   UNL     1       0.090   4.155  -3.515  1.00  0.00    -0.220 NA
ATOM     87  N   UNL     1       1.149   2.703  -1.976  1.00  0.00    -0.220 NA
ATOM     88  C   UNL     1      -1.057   4.013  -2.823  1.00  0.00     0.132 A 
ATOM     89  C   UNL     1      -0.008   2.635  -1.284  1.00  0.00     0.132 A 
ATOM     90  C   UNL     1      -1.163   3.257  -1.684  1.00  0.00     0.054 A 
ATOM     91  Br  UNL     1      -2.780   3.070  -0.752  1.00  0.00    -0.047 Br
ENDBRANCH  84  85
ENDBRANCH  77  78
BRANCH  77  92
ATOM     92  C   UNL     1       5.992   4.148  -2.845  1.00  0.00     0.044 A 
ATOM     93  C   UNL     1       5.595   3.310  -1.820  1.00  0.00     0.094 A 
ATOM     94  C   UNL     1       6.264   5.420  -2.221  1.00  0.00     0.011 A 
ATOM     95  N   UNL     1       5.385   4.063  -0.696  1.00  0.00    -0.361 N 
ATOM     96  C   UNL     1       5.809   5.353  -0.905  1.00  0.00     0.046 A 
ATOM     97  C   UNL     1       6.833   6.631  -2.671  1.00  0.00     0.031 A 
ATOM     98  H   UNL     1       4.988   3.729   0.141  1.00  0.00     0.166 HD
ATOM     99  C   UNL     1       5.828   6.452  -0.037  1.00  0.00     0.028 A 
ATOM    100  C   UNL     1       6.907   7.719  -1.798  1.00  0.00     0.041 A 
ATOM    101  C   UNL     1       6.393   7.641  -0.508  1.00  0.00     0.022 A 
ATOM    102  Cl  UNL     1       7.653   9.176  -2.337  1.00  0.00    -0.084 Cl
ENDBRANCH  77  92
ENDBRANCH  74  77
ENDBRANCH  72  73
ENDBRANCH   1  72
TORSDOF 13
