REMARK SMILES CS(=O)(=O)c1ccc(/C=C(/C(=O)NCCCNC(=O)c2ccc(-c3c4nc(c(-c5c(F)c(F)c(F)c(F)c5F)c5ccc([nH]5)c(-c5c(F)c(F)c(F)c(F)c5F)c5nc(c(-c6c(F)c(F)c(F)c(F)c6F)c6ccc3[nH]6)C=C5)C=C4)cc2)c2ccccc2)cc1
REMARK SMILES IDX 15 1 14 2 13 3 11 4 12 5 10 7 9 8 8 9 5 10 6 11 90 12 7 13
REMARK SMILES IDX 89 14 2 15 1 16 3 17 4 18 83 19 84 20 88 21 85 22 87 23
REMARK SMILES IDX 86 24 16 25 17 26 18 27 19 29 20 30 21 31 82 32 22 33 81 34
REMARK SMILES IDX 23 35 24 36 25 37 75 38 26 39 80 40 74 41 76 42 27 43 79 44
REMARK SMILES IDX 73 45 72 46 28 48 60 49 40 50 59 51 41 52 44 53 58 54 77 55
REMARK SMILES IDX 42 56 43 57 57 59 78 60 45 61 29 62 30 63 38 64 31 65 32 66
REMARK SMILES IDX 36 67 39 68 33 69 34 70 37 71 35 72 61 73 62 74 70 75 63 76
REMARK SMILES IDX 64 77 68 78 71 79 65 80 66 81 69 82 67 83 46 84 47 85 55 86
REMARK SMILES IDX 48 87 49 88 53 89 56 90 50 91 51 92 54 93 52 94
REMARK H PARENT 13 6 17 28 76 47 44 58
REMARK Flexibility Score: inf
ROOT
ATOM      1  C   UNL     1       1.407   8.902  -3.171  1.00  0.00     0.042 C 
ENDROOT
BRANCH   1   2
ATOM      2  C   UNL     1       1.416   8.116  -4.484  1.00  0.00     0.118 C 
BRANCH   2   3
ATOM      3  N   UNL     1       2.766   8.011  -5.001  1.00  0.00    -0.352 N 
ATOM      4  C   UNL     1       3.710   7.034  -4.996  1.00  0.00     0.251 C 
ATOM      5  O   UNL     1       4.796   7.338  -5.496  1.00  0.00    -0.269 OA
ATOM      6  H   UNL     1       3.066   8.830  -5.458  1.00  0.00     0.163 HD
BRANCH   4   7
ATOM      7  C   UNL     1       3.458   5.628  -4.498  1.00  0.00     0.047 C 
ATOM      8  C   UNL     1       2.638   5.376  -3.452  1.00  0.00     0.022 C 
BRANCH   8   9
ATOM      9  C   UNL     1       2.156   4.087  -2.904  1.00  0.00    -0.025 A 
ATOM     10  C   UNL     1       1.032   1.669  -2.024  1.00  0.00     0.067 A 
ATOM     11  C   UNL     1       2.381   1.722  -2.371  1.00  0.00     0.021 A 
ATOM     12  C   UNL     1       0.240   2.814  -2.079  1.00  0.00     0.021 A 
ATOM     13  C   UNL     1       2.944   2.938  -2.768  1.00  0.00     0.009 A 
ATOM     14  C   UNL     1       0.804   4.015  -2.518  1.00  0.00     0.009 A 
BRANCH  10  15
ATOM     15  S   UNL     1       0.329   0.113  -1.539  1.00  0.00     0.175 S 
ATOM     16  C   UNL     1       0.962  -0.115   0.102  1.00  0.00     0.163 C 
ATOM     17  O   UNL     1       0.898  -0.903  -2.397  1.00  0.00    -0.224 OA
ATOM     18  O   UNL     1      -1.110   0.290  -1.440  1.00  0.00    -0.224 OA
ENDBRANCH  10  15
ENDBRANCH   8   9
BRANCH   7  19
ATOM     19  C   UNL     1       4.291   4.552  -5.094  1.00  0.00    -0.013 A 
ATOM     20  C   UNL     1       5.674   4.560  -4.836  1.00  0.00     0.009 A 
ATOM     21  C   UNL     1       3.744   3.482  -5.812  1.00  0.00     0.009 A 
ATOM     22  C   UNL     1       6.485   3.504  -5.247  1.00  0.00     0.001 A 
ATOM     23  C   UNL     1       4.557   2.413  -6.204  1.00  0.00     0.001 A 
ATOM     24  C   UNL     1       5.922   2.421  -5.915  1.00  0.00     0.000 A 
ENDBRANCH   7  19
ENDBRANCH   4   7
ENDBRANCH   2   3
ENDBRANCH   1   2
BRANCH   1  25
ATOM     25  C   UNL     1       1.735  10.385  -3.348  1.00  0.00     0.118 C 
BRANCH  25  26
ATOM     26  N   UNL     1       0.716  11.076  -4.123  1.00  0.00    -0.352 N 
ATOM     27  C   UNL     1      -0.096  12.127  -3.792  1.00  0.00     0.251 C 
ATOM     28  H   UNL     1       0.590  10.731  -5.037  1.00  0.00     0.163 HD
ATOM     29  O   UNL     1      -1.065  12.380  -4.504  1.00  0.00    -0.269 OA
BRANCH  27  30
ATOM     30  C   UNL     1       0.174  12.965  -2.603  1.00  0.00     0.039 A 
ATOM     31  C   UNL     1      -0.916  13.496  -1.905  1.00  0.00     0.014 A 
ATOM     32  C   UNL     1       1.474  13.311  -2.224  1.00  0.00     0.014 A 
ATOM     33  C   UNL     1      -0.702  14.354  -0.825  1.00  0.00     0.010 A 
ATOM     34  C   UNL     1       1.688  14.101  -1.095  1.00  0.00     0.010 A 
ATOM     35  C   UNL     1       0.603  14.654  -0.400  1.00  0.00    -0.014 A 
BRANCH  35  36
ATOM     36  C   UNL     1       0.829  15.575   0.744  1.00  0.00     0.031 A 
ATOM     37  C   UNL     1       1.535  16.890   0.536  1.00  0.00     0.074 A 
ATOM     38  C   UNL     1       0.413  15.218   1.975  1.00  0.00     0.049 A 
ATOM     39  N   UNL     1       1.813  17.826   1.409  1.00  0.00    -0.248 NA
ATOM     40  C   UNL     1       2.015  17.184  -0.824  1.00  0.00     0.031 C 
ATOM     41  C   UNL     1      -0.228  13.946   2.314  1.00  0.00     0.029 A 
ATOM     42  N   UNL     1       0.467  15.890   3.171  1.00  0.00    -0.354 N 
ATOM     43  C   UNL     1       2.512  18.803   0.710  1.00  0.00     0.074 A 
ATOM     44  C   UNL     1       2.661  18.328  -0.647  1.00  0.00     0.031 C 
ATOM     45  C   UNL     1      -0.531  13.940   3.622  1.00  0.00     0.029 A 
ATOM     46  C   UNL     1      -0.076  15.190   4.221  1.00  0.00     0.049 A 
ATOM     47  H   UNL     1       0.858  16.788   3.267  1.00  0.00     0.167 HD
ATOM     48  C   UNL     1       2.966  19.999   1.155  1.00  0.00     0.037 A 
ATOM     49  C   UNL     1      -0.190  15.520   5.522  1.00  0.00     0.037 A 
ATOM     50  C   UNL     1       2.778  20.486   2.496  1.00  0.00     0.049 A 
ATOM     51  C   UNL     1       0.301  16.869   5.978  1.00  0.00     0.074 A 
ATOM     52  C   UNL     1       3.122  21.720   3.021  1.00  0.00     0.029 A 
ATOM     53  N   UNL     1       2.200  19.761   3.526  1.00  0.00    -0.354 N 
ATOM     54  N   UNL     1       0.869  17.824   5.283  1.00  0.00    -0.248 NA
ATOM     55  C   UNL     1       0.120  17.192   7.400  1.00  0.00     0.031 C 
ATOM     56  C   UNL     1       2.808  21.718   4.383  1.00  0.00     0.029 A 
ATOM     57  C   UNL     1       2.207  20.509   4.692  1.00  0.00     0.049 A 
ATOM     58  H   UNL     1       1.837  18.849   3.442  1.00  0.00     0.167 HD
ATOM     59  C   UNL     1       1.088  18.867   6.173  1.00  0.00     0.074 A 
ATOM     60  C   UNL     1       0.562  18.439   7.452  1.00  0.00     0.031 C 
ATOM     61  C   UNL     1       1.677  20.069   5.957  1.00  0.00     0.037 A 
BRANCH  48  62
ATOM     62  C   UNL     1       3.711  20.877   0.190  1.00  0.00     0.064 A 
ATOM     63  C   UNL     1       3.064  21.520  -0.877  1.00  0.00     0.173 A 
ATOM     64  C   UNL     1       5.075  21.143   0.384  1.00  0.00     0.173 A 
ATOM     65  F   UNL     1       1.764  21.294  -1.114  1.00  0.00    -0.203 F 
ATOM     66  C   UNL     1       3.759  22.383  -1.721  1.00  0.00     0.198 A 
ATOM     67  C   UNL     1       5.760  22.030  -0.443  1.00  0.00     0.198 A 
ATOM     68  F   UNL     1       5.741  20.559   1.391  1.00  0.00    -0.203 F 
ATOM     69  F   UNL     1       3.129  22.959  -2.754  1.00  0.00    -0.200 F 
ATOM     70  C   UNL     1       5.103  22.646  -1.497  1.00  0.00     0.200 A 
ATOM     71  F   UNL     1       7.053  22.294  -0.215  1.00  0.00    -0.200 F 
ATOM     72  F   UNL     1       5.764  23.493  -2.297  1.00  0.00    -0.200 F 
ENDBRANCH  48  62
BRANCH  49  73
ATOM     73  C   UNL     1      -0.794  14.565   6.491  1.00  0.00     0.064 A 
ATOM     74  C   UNL     1      -2.003  14.855   7.140  1.00  0.00     0.173 A 
ATOM     75  C   UNL     1      -0.152  13.363   6.821  1.00  0.00     0.173 A 
ATOM     76  F   UNL     1      -2.649  16.000   6.873  1.00  0.00    -0.203 F 
ATOM     77  C   UNL     1      -2.522  14.002   8.113  1.00  0.00     0.198 A 
ATOM     78  C   UNL     1      -0.692  12.492   7.766  1.00  0.00     0.198 A 
ATOM     79  F   UNL     1       1.002  13.030   6.224  1.00  0.00    -0.203 F 
ATOM     80  F   UNL     1      -3.640  14.341   8.770  1.00  0.00    -0.200 F 
ATOM     81  C   UNL     1      -1.867  12.820   8.423  1.00  0.00     0.200 A 
ATOM     82  F   UNL     1      -0.065  11.342   8.049  1.00  0.00    -0.200 F 
ATOM     83  F   UNL     1      -2.362  12.004   9.363  1.00  0.00    -0.200 F 
ENDBRANCH  49  73
BRANCH  61  84
ATOM     84  C   UNL     1       1.753  21.014   7.122  1.00  0.00     0.064 A 
ATOM     85  C   UNL     1       2.577  20.758   8.229  1.00  0.00     0.173 A 
ATOM     86  C   UNL     1       1.003  22.200   7.124  1.00  0.00     0.173 A 
ATOM     87  F   UNL     1       3.305  19.632   8.282  1.00  0.00    -0.203 F 
ATOM     88  C   UNL     1       2.611  21.630   9.313  1.00  0.00     0.198 A 
ATOM     89  C   UNL     1       1.070  23.090   8.193  1.00  0.00     0.198 A 
ATOM     90  F   UNL     1       0.208  22.501   6.086  1.00  0.00    -0.203 F 
ATOM     91  F   UNL     1       3.351  21.328  10.389  1.00  0.00    -0.200 F 
ATOM     92  C   UNL     1       1.863  22.797   9.292  1.00  0.00     0.200 A 
ATOM     93  F   UNL     1       0.361  24.226   8.162  1.00  0.00    -0.200 F 
ATOM     94  F   UNL     1       1.899  23.636  10.336  1.00  0.00    -0.200 F 
ENDBRANCH  61  84
ENDBRANCH  35  36
ENDBRANCH  27  30
ENDBRANCH  25  26
ENDBRANCH   1  25
TORSDOF 13
