REMARK SMILES Cc1nn(C)c(C)c1[C@@H](C(=O)NCCCNC(=O)c1ccc(-c2c3nc(c(-c4c(F)c(F)c(F)c(F)c4F)c4ccc([nH]4)c(-c4c(F)c(F)c(F)c(F)c4F)c4nc(c(-c5c(F)c(F)c(F)c(F)c5F)c5ccc2[nH]5)C=C4)C=C3)cc1)[NH+]1CCN(c2ccccc2F)CC1
REMARK SMILES IDX 14 1 13 2 12 3 10 4 11 5 9 7 8 8 1 9 2 10 3 11 4 12 6 13
REMARK SMILES IDX 5 14 7 15 82 16 83 17 94 18 84 20 93 21 85 22 86 23 87 24
REMARK SMILES IDX 91 25 88 26 90 27 92 28 89 29 15 30 16 31 17 32 18 34 19 35
REMARK SMILES IDX 20 36 81 37 21 38 80 39 22 40 23 41 24 42 74 43 25 44 79 45
REMARK SMILES IDX 73 46 75 47 26 48 78 49 72 50 71 51 27 53 59 54 39 55 58 56
REMARK SMILES IDX 40 57 43 58 57 59 76 60 41 61 42 62 56 64 77 65 44 66 28 67
REMARK SMILES IDX 29 68 37 69 30 70 31 71 35 72 38 73 32 74 33 75 36 76 34 77
REMARK SMILES IDX 60 78 61 79 69 80 62 81 63 82 67 83 70 84 64 85 65 86 68 87
REMARK SMILES IDX 66 88 45 89 46 90 54 91 47 92 48 93 52 94 55 95 49 96 50 97
REMARK SMILES IDX 53 98 51 99
REMARK H PARENT 12 6 82 19 16 33 75 52 43 63
REMARK Flexibility Score: inf
ROOT
ATOM      1  C   UNL     1      -1.327   0.849   3.630  1.00  0.00     0.042 C 
ENDROOT
BRANCH   1   2
ATOM      2  C   UNL     1      -1.873   2.122   2.987  1.00  0.00     0.118 C 
BRANCH   2   3
ATOM      3  N   UNL     1      -0.829   3.066   2.635  1.00  0.00    -0.351 N 
ATOM      4  C   UNL     1      -0.214   3.297   1.429  1.00  0.00     0.283 C 
ATOM      5  O   UNL     1       0.670   4.159   1.442  1.00  0.00    -0.268 OA
ATOM      6  H   UNL     1      -0.512   3.630   3.377  1.00  0.00     0.163 HD
BRANCH   4   7
ATOM      7  C   UNL     1      -0.670   2.509   0.160  1.00  0.00     0.309 C 
BRANCH   7   8
ATOM      8  C   UNL     1      -0.307   1.045   0.212  1.00  0.00     0.063 A 
ATOM      9  C   UNL     1      -2.674  -0.033  -0.277  1.00  0.00     0.069 C 
ATOM     10  C   UNL     1      -1.213  -0.046   0.003  1.00  0.00     0.069 A 
ATOM     11  N   UNL     1      -0.603  -1.228   0.105  1.00  0.00    -0.178 NA
ATOM     12  N   UNL     1       0.677  -0.924   0.356  1.00  0.00    -0.272 N 
ATOM     13  C   UNL     1       0.888   0.416   0.560  1.00  0.00     0.045 A 
ATOM     14  C   UNL     1       1.632  -2.007   0.410  1.00  0.00     0.174 C 
ATOM     15  C   UNL     1       2.186   0.943   1.064  1.00  0.00     0.067 C 
ENDBRANCH   7   8
BRANCH   7  16
ATOM     16  N   UNL     1      -0.325   3.186  -1.114  1.00  0.00    -0.318 N 
ATOM     17  C   UNL     1       1.086   3.432  -1.444  1.00  0.00     0.284 C 
ATOM     18  C   UNL     1      -1.035   2.697  -2.312  1.00  0.00     0.284 C 
ATOM     19  H   UNL     1      -0.690   4.102  -0.853  1.00  0.00     0.349 HD
ATOM     20  C   UNL     1       1.833   2.318  -2.203  1.00  0.00     0.178 C 
ATOM     21  C   UNL     1      -0.370   1.539  -3.098  1.00  0.00     0.178 C 
ATOM     22  N   UNL     1       1.060   1.781  -3.326  1.00  0.00    -0.358 N 
BRANCH  22  23
ATOM     23  C   UNL     1       1.692   0.826  -4.133  1.00  0.00     0.073 A 
ATOM     24  C   UNL     1       2.417  -0.245  -3.585  1.00  0.00     0.029 A 
ATOM     25  C   UNL     1       1.611   0.898  -5.533  1.00  0.00     0.146 A 
ATOM     26  C   UNL     1       3.064  -1.179  -4.401  1.00  0.00     0.002 A 
ATOM     27  C   UNL     1       2.261  -0.023  -6.354  1.00  0.00     0.041 A 
ATOM     28  F   UNL     1       0.912   1.886  -6.115  1.00  0.00    -0.205 F 
ATOM     29  C   UNL     1       2.995  -1.062  -5.787  1.00  0.00     0.003 A 
ENDBRANCH  22  23
ENDBRANCH   7  16
ENDBRANCH   4   7
ENDBRANCH   2   3
ENDBRANCH   1   2
BRANCH   1  30
ATOM     30  C   UNL     1      -0.593   1.070   4.948  1.00  0.00     0.118 C 
BRANCH  30  31
ATOM     31  N   UNL     1      -1.476   1.530   6.009  1.00  0.00    -0.352 N 
ATOM     32  C   UNL     1      -1.774   0.968   7.222  1.00  0.00     0.251 C 
ATOM     33  H   UNL     1      -1.934   2.382   5.825  1.00  0.00     0.163 HD
ATOM     34  O   UNL     1      -2.704   1.433   7.887  1.00  0.00    -0.269 OA
BRANCH  32  35
ATOM     35  C   UNL     1      -1.017  -0.190   7.747  1.00  0.00     0.039 A 
ATOM     36  C   UNL     1      -1.717  -1.188   8.432  1.00  0.00     0.014 A 
ATOM     37  C   UNL     1       0.373  -0.278   7.627  1.00  0.00     0.014 A 
ATOM     38  C   UNL     1      -1.036  -2.294   8.947  1.00  0.00     0.010 A 
ATOM     39  C   UNL     1       1.044  -1.414   8.080  1.00  0.00     0.010 A 
ATOM     40  C   UNL     1       0.347  -2.430   8.750  1.00  0.00    -0.014 A 
BRANCH  40  41
ATOM     41  C   UNL     1       1.065  -3.640   9.227  1.00  0.00     0.031 A 
ATOM     42  C   UNL     1       2.098  -3.545  10.313  1.00  0.00     0.074 A 
ATOM     43  C   UNL     1       0.823  -4.825   8.634  1.00  0.00     0.049 A 
ATOM     44  N   UNL     1       2.831  -4.492  10.844  1.00  0.00    -0.248 NA
ATOM     45  C   UNL     1       2.365  -2.205  10.856  1.00  0.00     0.031 C 
ATOM     46  C   UNL     1      -0.102  -5.037   7.520  1.00  0.00     0.029 A 
ATOM     47  N   UNL     1       1.341  -6.072   8.879  1.00  0.00    -0.354 N 
ATOM     48  C   UNL     1       3.655  -3.863  11.766  1.00  0.00     0.074 A 
ATOM     49  C   UNL     1       3.365  -2.446  11.692  1.00  0.00     0.031 C 
ATOM     50  C   UNL     1      -0.100  -6.337   7.189  1.00  0.00     0.029 A 
ATOM     51  C   UNL     1       0.842  -7.046   8.051  1.00  0.00     0.049 A 
ATOM     52  H   UNL     1       2.007  -6.250   9.582  1.00  0.00     0.167 HD
ATOM     53  C   UNL     1       4.558  -4.417  12.611  1.00  0.00     0.037 A 
ATOM     54  C   UNL     1       1.110  -8.364   7.993  1.00  0.00     0.037 A 
ATOM     55  C   UNL     1       4.821  -5.830  12.707  1.00  0.00     0.049 A 
ATOM     56  C   UNL     1       2.079  -8.963   8.971  1.00  0.00     0.074 A 
ATOM     57  C   UNL     1       5.642  -6.497  13.599  1.00  0.00     0.029 A 
ATOM     58  N   UNL     1       4.271  -6.793  11.873  1.00  0.00    -0.354 N 
ATOM     59  N   UNL     1       2.783  -8.371   9.904  1.00  0.00    -0.248 NA
ATOM     60  C   UNL     1       2.281 -10.416   8.896  1.00  0.00     0.031 C 
ATOM     61  C   UNL     1       5.622  -7.860  13.278  1.00  0.00     0.029 A 
ATOM     62  C   UNL     1       4.757  -8.047  12.213  1.00  0.00     0.049 A 
ATOM     63  H   UNL     1       3.631  -6.613  11.148  1.00  0.00     0.167 HD
ATOM     64  C   UNL     1       3.504  -9.376  10.534  1.00  0.00     0.074 A 
ATOM     65  C   UNL     1       3.133 -10.620   9.892  1.00  0.00     0.031 C 
ATOM     66  C   UNL     1       4.395  -9.275  11.551  1.00  0.00     0.037 A 
BRANCH  53  67
ATOM     67  C   UNL     1       5.332  -3.488  13.501  1.00  0.00     0.064 A 
ATOM     68  C   UNL     1       4.723  -2.815  14.571  1.00  0.00     0.173 A 
ATOM     69  C   UNL     1       6.705  -3.285  13.294  1.00  0.00     0.173 A 
ATOM     70  F   UNL     1       3.411  -2.967  14.806  1.00  0.00    -0.203 F 
ATOM     71  C   UNL     1       5.452  -1.946  15.379  1.00  0.00     0.198 A 
ATOM     72  C   UNL     1       7.436  -2.437  14.121  1.00  0.00     0.198 A 
ATOM     73  F   UNL     1       7.337  -3.909  12.289  1.00  0.00    -0.203 F 
ATOM     74  F   UNL     1       4.838  -1.272  16.362  1.00  0.00    -0.200 F 
ATOM     75  C   UNL     1       6.808  -1.761  15.157  1.00  0.00     0.200 A 
ATOM     76  F   UNL     1       8.749  -2.267  13.912  1.00  0.00    -0.200 F 
ATOM     77  F   UNL     1       7.509  -0.924  15.935  1.00  0.00    -0.200 F 
ENDBRANCH  53  67
BRANCH  54  78
ATOM     78  C   UNL     1       0.416  -9.203   6.985  1.00  0.00     0.064 A 
ATOM     79  C   UNL     1      -0.606 -10.084   7.364  1.00  0.00     0.173 A 
ATOM     80  C   UNL     1       0.736  -9.116   5.623  1.00  0.00     0.173 A 
ATOM     81  F   UNL     1      -0.932 -10.213   8.658  1.00  0.00    -0.203 F 
ATOM     82  C   UNL     1      -1.279 -10.851   6.417  1.00  0.00     0.198 A 
ATOM     83  C   UNL     1       0.046  -9.867   4.674  1.00  0.00     0.198 A 
ATOM     84  F   UNL     1       1.703  -8.282   5.212  1.00  0.00    -0.203 F 
ATOM     85  F   UNL     1      -2.235 -11.706   6.807  1.00  0.00    -0.200 F 
ATOM     86  C   UNL     1      -0.958 -10.737   5.072  1.00  0.00     0.200 A 
ATOM     87  F   UNL     1       0.350  -9.744   3.375  1.00  0.00    -0.200 F 
ATOM     88  F   UNL     1      -1.615 -11.466   4.160  1.00  0.00    -0.200 F 
ENDBRANCH  54  78
BRANCH  66  89
ATOM     89  C   UNL     1       5.032 -10.547  12.026  1.00  0.00     0.064 A 
ATOM     90  C   UNL     1       6.003 -11.208  11.259  1.00  0.00     0.173 A 
ATOM     91  C   UNL     1       4.685 -11.100  13.268  1.00  0.00     0.173 A 
ATOM     92  F   UNL     1       6.356 -10.728  10.058  1.00  0.00    -0.203 F 
ATOM     93  C   UNL     1       6.583 -12.392  11.707  1.00  0.00     0.198 A 
ATOM     94  C   UNL     1       5.287 -12.270  13.723  1.00  0.00     0.198 A 
ATOM     95  F   UNL     1       3.765 -10.504  14.041  1.00  0.00    -0.203 F 
ATOM     96  F   UNL     1       7.473 -13.033  10.936  1.00  0.00    -0.200 F 
ATOM     97  C   UNL     1       6.229 -12.919  12.940  1.00  0.00     0.200 A 
ATOM     98  F   UNL     1       4.950 -12.773  14.919  1.00  0.00    -0.200 F 
ATOM     99  F   UNL     1       6.789 -14.058  13.369  1.00  0.00    -0.200 F 
ENDBRANCH  66  89
ENDBRANCH  40  41
ENDBRANCH  32  35
ENDBRANCH  30  31
ENDBRANCH   1  30
TORSDOF 13
