REMARK SMILES C[NH2+][C@]1(C(=O)NCCCNC(=O)c2ccc(-c3c4nc(c(-c5c(F)c(F)c(F)c(F)c5F)c5ccc([nH]5)c(-c5c(F)c(F)c(F)c(F)c5F)c5nc(c(-c6c(F)c(F)c(F)c(F)c6F)c6ccc3[nH]6)C=C5)C=C4)cc2)CCC[C@H]([N@H+]2CCC[C@@H]2C2CCCC2)C1
REMARK SMILES IDX 8 1 7 2 6 3 4 4 5 5 3 7 76 8 90 9 77 10 79 11 78 12 2 13
REMARK SMILES IDX 1 14 80 17 81 18 84 19 82 21 83 22 85 23 86 24 89 25 87 26
REMARK SMILES IDX 88 27 9 28 10 29 11 30 12 32 13 33 14 34 75 35 15 36 74 37
REMARK SMILES IDX 16 38 17 39 18 40 68 41 19 42 73 43 67 44 69 45 20 46 72 47
REMARK SMILES IDX 66 48 65 49 21 51 53 52 33 53 52 54 34 55 37 56 51 57 70 58
REMARK SMILES IDX 35 59 36 60 50 62 71 63 38 64 22 65 23 66 31 67 24 68 25 69
REMARK SMILES IDX 29 70 32 71 26 72 27 73 30 74 28 75 54 76 55 77 63 78 56 79
REMARK SMILES IDX 57 80 61 81 64 82 58 83 59 84 62 85 60 86 39 87 40 88 48 89
REMARK SMILES IDX 41 90 42 91 46 92 49 93 43 94 44 95 47 96 45 97
REMARK H PARENT 6 6 2 15 2 16 80 20 10 31 69 50 37 61
REMARK Flexibility Score: inf
ROOT
ATOM      1  C   UNL     1       1.183   0.793   2.419  1.00  0.00     0.042 C 
ENDROOT
BRANCH   1   2
ATOM      2  C   UNL     1       0.766   1.842   1.370  1.00  0.00     0.118 C 
BRANCH   2   3
ATOM      3  N   UNL     1       1.281   1.611   0.027  1.00  0.00    -0.351 N 
ATOM      4  C   UNL     1       0.740   1.136  -1.129  1.00  0.00     0.281 C 
ATOM      5  O   UNL     1       1.529   1.103  -2.086  1.00  0.00    -0.268 OA
ATOM      6  H   UNL     1       2.232   1.850  -0.065  1.00  0.00     0.163 HD
BRANCH   4   7
ATOM      7  C   UNL     1      -0.741   0.572  -1.277  1.00  0.00     0.181 C 
ATOM      8  C   UNL     1      -0.989  -0.382  -0.061  1.00  0.00     0.079 C 
ATOM      9  C   UNL     1      -1.807   1.670  -1.349  1.00  0.00     0.144 C 
ATOM     10  C   UNL     1      -2.275  -0.260   0.785  1.00  0.00     0.013 C 
ATOM     11  C   UNL     1      -3.248   1.267  -0.941  1.00  0.00     0.191 C 
ATOM     12  C   UNL     1      -3.136   0.970   0.558  1.00  0.00     0.065 C 
BRANCH   7  13
ATOM     13  N   UNL     1      -0.727  -0.228  -2.550  1.00  0.00    -0.336 N 
ATOM     14  C   UNL     1      -0.999   0.496  -3.792  1.00  0.00     0.331 C 
ATOM     15  H   UNL     1       0.196  -0.652  -2.637  1.00  0.00     0.346 HD
ATOM     16  H   UNL     1      -1.497  -0.890  -2.456  1.00  0.00     0.346 HD
ENDBRANCH   7  13
BRANCH  11  17
ATOM     17  N   UNL     1      -4.181   0.253  -1.470  1.00  0.00    -0.330 N 
ATOM     18  C   UNL     1      -5.521   0.795  -1.709  1.00  0.00     0.262 C 
ATOM     19  C   UNL     1      -4.017  -0.906  -2.380  1.00  0.00     0.187 C 
ATOM     20  H   UNL     1      -3.847  -0.278  -0.666  1.00  0.00     0.348 HD
ATOM     21  C   UNL     1      -6.328  -0.476  -1.714  1.00  0.00     0.067 C 
ATOM     22  C   UNL     1      -5.471  -1.414  -2.546  1.00  0.00     0.071 C 
BRANCH  19  23
ATOM     23  C   UNL     1      -3.089  -2.080  -2.002  1.00  0.00     0.047 C 
ATOM     24  C   UNL     1      -3.452  -3.192  -1.011  1.00  0.00     0.010 C 
ATOM     25  C   UNL     1      -2.553  -2.929  -3.162  1.00  0.00     0.010 C 
ATOM     26  C   UNL     1      -2.187  -4.065  -1.032  1.00  0.00     0.001 C 
ATOM     27  C   UNL     1      -1.614  -3.910  -2.446  1.00  0.00     0.001 C 
ENDBRANCH  19  23
ENDBRANCH  11  17
ENDBRANCH   4   7
ENDBRANCH   2   3
ENDBRANCH   1   2
BRANCH   1  28
ATOM     28  C   UNL     1       2.670   0.471   2.446  1.00  0.00     0.118 C 
BRANCH  28  29
ATOM     29  N   UNL     1       3.446   1.617   2.885  1.00  0.00    -0.352 N 
ATOM     30  C   UNL     1       3.933   1.901   4.132  1.00  0.00     0.251 C 
ATOM     31  H   UNL     1       3.651   2.281   2.188  1.00  0.00     0.163 HD
ATOM     32  O   UNL     1       4.234   3.064   4.416  1.00  0.00    -0.269 OA
BRANCH  30  33
ATOM     33  C   UNL     1       4.104   0.834   5.141  1.00  0.00     0.039 A 
ATOM     34  C   UNL     1       3.836   1.116   6.483  1.00  0.00     0.014 A 
ATOM     35  C   UNL     1       4.595  -0.424   4.778  1.00  0.00     0.014 A 
ATOM     36  C   UNL     1       4.027   0.129   7.453  1.00  0.00     0.010 A 
ATOM     37  C   UNL     1       4.704  -1.432   5.732  1.00  0.00     0.010 A 
ATOM     38  C   UNL     1       4.443  -1.160   7.083  1.00  0.00    -0.014 A 
BRANCH  38  39
ATOM     39  C   UNL     1       4.645  -2.228   8.094  1.00  0.00     0.031 A 
ATOM     40  C   UNL     1       6.015  -2.813   8.305  1.00  0.00     0.074 A 
ATOM     41  C   UNL     1       3.588  -2.713   8.773  1.00  0.00     0.049 A 
ATOM     42  N   UNL     1       6.384  -3.805   9.077  1.00  0.00    -0.248 NA
ATOM     43  C   UNL     1       7.114  -2.226   7.522  1.00  0.00     0.031 C 
ATOM     44  C   UNL     1       2.204  -2.259   8.619  1.00  0.00     0.029 A 
ATOM     45  N   UNL     1       3.509  -3.703   9.720  1.00  0.00    -0.354 N 
ATOM     46  C   UNL     1       7.745  -3.971   8.854  1.00  0.00     0.074 A 
ATOM     47  C   UNL     1       8.129  -3.017   7.838  1.00  0.00     0.031 C 
ATOM     48  C   UNL     1       1.418  -2.954   9.457  1.00  0.00     0.029 A 
ATOM     49  C   UNL     1       2.234  -3.926  10.178  1.00  0.00     0.049 A 
ATOM     50  H   UNL     1       4.293  -4.205  10.040  1.00  0.00     0.167 HD
ATOM     51  C   UNL     1       8.602  -4.826   9.461  1.00  0.00     0.037 A 
ATOM     52  C   UNL     1       1.775  -4.820  11.074  1.00  0.00     0.037 A 
ATOM     53  C   UNL     1       8.221  -5.748  10.498  1.00  0.00     0.049 A 
ATOM     54  C   UNL     1       2.751  -5.752  11.740  1.00  0.00     0.074 A 
ATOM     55  C   UNL     1       9.022  -6.612  11.224  1.00  0.00     0.029 A 
ATOM     56  N   UNL     1       6.924  -5.924  10.957  1.00  0.00    -0.354 N 
ATOM     57  N   UNL     1       4.047  -5.853  11.571  1.00  0.00    -0.248 NA
ATOM     58  C   UNL     1       2.200  -6.690  12.729  1.00  0.00     0.031 C 
ATOM     59  C   UNL     1       8.204  -7.341  12.092  1.00  0.00     0.029 A 
ATOM     60  C   UNL     1       6.900  -6.896  11.944  1.00  0.00     0.049 A 
ATOM     61  H   UNL     1       6.137  -5.431  10.630  1.00  0.00     0.167 HD
ATOM     62  C   UNL     1       4.471  -6.840  12.451  1.00  0.00     0.074 A 
ATOM     63  C   UNL     1       3.296  -7.296  13.163  1.00  0.00     0.031 C 
ATOM     64  C   UNL     1       5.721  -7.325  12.651  1.00  0.00     0.037 A 
BRANCH  51  65
ATOM     65  C   UNL     1      10.040  -4.799   9.028  1.00  0.00     0.064 A 
ATOM     66  C   UNL     1      10.878  -3.712   9.322  1.00  0.00     0.173 A 
ATOM     67  C   UNL     1      10.600  -5.892   8.348  1.00  0.00     0.173 A 
ATOM     68  F   UNL     1      10.391  -2.638   9.960  1.00  0.00    -0.203 F 
ATOM     69  C   UNL     1      12.214  -3.708   8.927  1.00  0.00     0.198 A 
ATOM     70  C   UNL     1      11.944  -5.898   7.982  1.00  0.00     0.198 A 
ATOM     71  F   UNL     1       9.846  -6.960   8.046  1.00  0.00    -0.203 F 
ATOM     72  F   UNL     1      12.981  -2.638   9.177  1.00  0.00    -0.200 F 
ATOM     73  C   UNL     1      12.748  -4.804   8.265  1.00  0.00     0.200 A 
ATOM     74  F   UNL     1      12.462  -6.963   7.355  1.00  0.00    -0.200 F 
ATOM     75  F   UNL     1      14.036  -4.802   7.895  1.00  0.00    -0.200 F 
ENDBRANCH  51  65
BRANCH  52  76
ATOM     76  C   UNL     1       0.328  -4.860  11.413  1.00  0.00     0.064 A 
ATOM     77  C   UNL     1      -0.125  -4.460  12.678  1.00  0.00     0.173 A 
ATOM     78  C   UNL     1      -0.628  -5.302  10.487  1.00  0.00     0.173 A 
ATOM     79  F   UNL     1       0.753  -4.047  13.603  1.00  0.00    -0.203 F 
ATOM     80  C   UNL     1      -1.476  -4.525  13.013  1.00  0.00     0.198 A 
ATOM     81  C   UNL     1      -1.983  -5.338  10.813  1.00  0.00     0.198 A 
ATOM     82  F   UNL     1      -0.248  -5.689   9.261  1.00  0.00    -0.203 F 
ATOM     83  F   UNL     1      -1.875  -4.184  14.245  1.00  0.00    -0.200 F 
ATOM     84  C   UNL     1      -2.404  -4.959  12.079  1.00  0.00     0.200 A 
ATOM     85  F   UNL     1      -2.878  -5.744   9.903  1.00  0.00    -0.200 F 
ATOM     86  F   UNL     1      -3.704  -5.019  12.400  1.00  0.00    -0.200 F 
ENDBRANCH  52  76
BRANCH  64  87
ATOM     87  C   UNL     1       5.888  -8.376  13.709  1.00  0.00     0.064 A 
ATOM     88  C   UNL     1       5.423  -9.686  13.528  1.00  0.00     0.173 A 
ATOM     89  C   UNL     1       6.562  -8.075  14.903  1.00  0.00     0.173 A 
ATOM     90  F   UNL     1       4.760 -10.018  12.411  1.00  0.00    -0.203 F 
ATOM     91  C   UNL     1       5.604 -10.651  14.515  1.00  0.00     0.198 A 
ATOM     92  C   UNL     1       6.769  -9.050  15.874  1.00  0.00     0.198 A 
ATOM     93  F   UNL     1       7.033  -6.838  15.121  1.00  0.00    -0.203 F 
ATOM     94  F   UNL     1       5.109 -11.884  14.342  1.00  0.00    -0.200 F 
ATOM     95  C   UNL     1       6.283 -10.335  15.683  1.00  0.00     0.200 A 
ATOM     96  F   UNL     1       7.438  -8.747  16.995  1.00  0.00    -0.200 F 
ATOM     97  F   UNL     1       6.463 -11.268  16.628  1.00  0.00    -0.200 F 
ENDBRANCH  64  87
ENDBRANCH  38  39
ENDBRANCH  30  33
ENDBRANCH  28  29
ENDBRANCH   1  28
TORSDOF 13
