REMARK SMILES CC(C)Oc1ccc(-c2ccc(/C(=C\c3ccc(S(C)(=O)=O)cc3)C(=O)NCCCNC(=O)c3ccc(-c4c5nc(c(-c6c(F)c(F)c(F)c(F)c6F)c6ccc([nH]6)c(-c6c(F)c(F)c(F)c(F)c6F)c6nc(c(-c7c(F)c(F)c(F)c(F)c7F)c7ccc4[nH]7)C=C6)C=C5)cc3)cc2)cc1
REMARK SMILES IDX 28 1 27 2 25 3 26 4 13 6 14 7 12 8 9 9 10 10 98 11 11 12
REMARK SMILES IDX 97 13 8 14 5 15 6 16 100 17 7 18 99 19 4 20 2 21 1 22 3 23
REMARK SMILES IDX 15 24 16 25 24 26 17 27 23 28 18 29 19 30 20 31 21 32 22 33
REMARK SMILES IDX 29 34 30 35 31 36 32 37 33 39 34 40 35 41 96 42 36 43 95 44
REMARK SMILES IDX 37 45 38 46 39 47 89 48 40 49 94 50 88 51 90 52 41 53 93 54
REMARK SMILES IDX 87 55 86 56 42 58 74 59 54 60 73 61 55 62 58 63 72 64 91 65
REMARK SMILES IDX 56 66 57 67 71 69 92 70 59 71 43 72 44 73 52 74 45 75 46 76
REMARK SMILES IDX 50 77 53 78 47 79 48 80 51 81 49 82 75 83 76 84 84 85 77 86
REMARK SMILES IDX 78 87 82 88 85 89 79 90 80 91 83 92 81 93 60 94 61 95 69 96
REMARK SMILES IDX 62 97 63 98 67 99 70 100 64 101 65 102 68 103 66 104
REMARK H PARENT 27 5 31 38 90 57 58 68
REMARK Flexibility Score: inf
ROOT
ATOM      1  C   UNL     1      -7.576   9.744  -4.708  1.00  0.00     0.118 C 
ENDROOT
BRANCH   1   2
ATOM      2  N   UNL     1      -7.221   8.404  -5.135  1.00  0.00    -0.352 N 
ATOM      3  C   UNL     1      -6.405   7.424  -4.661  1.00  0.00     0.251 C 
ATOM      4  O   UNL     1      -6.349   6.427  -5.384  1.00  0.00    -0.269 OA
ATOM      5  H   UNL     1      -7.680   8.141  -5.966  1.00  0.00     0.163 HD
BRANCH   3   6
ATOM      6  C   UNL     1      -5.668   7.495  -3.330  1.00  0.00     0.047 C 
ATOM      7  C   UNL     1      -5.228   8.708  -2.913  1.00  0.00     0.022 C 
BRANCH   6   8
ATOM      8  C   UNL     1      -5.278   6.220  -2.619  1.00  0.00    -0.013 A 
ATOM      9  C   UNL     1      -4.028   3.960  -1.337  1.00  0.00    -0.018 A 
ATOM     10  C   UNL     1      -4.523   5.045  -0.604  1.00  0.00     0.009 A 
ATOM     11  C   UNL     1      -4.297   3.970  -2.710  1.00  0.00     0.009 A 
ATOM     12  C   UNL     1      -5.181   6.120  -1.226  1.00  0.00     0.009 A 
ATOM     13  C   UNL     1      -4.876   5.084  -3.337  1.00  0.00     0.009 A 
BRANCH   9  14
ATOM     14  C   UNL     1      -3.207   2.895  -0.711  1.00  0.00    -0.018 A 
ATOM     15  C   UNL     1      -1.517   0.965   0.499  1.00  0.00     0.119 A 
ATOM     16  C   UNL     1      -2.535   1.568   1.232  1.00  0.00     0.047 A 
ATOM     17  C   UNL     1      -1.370   1.271  -0.846  1.00  0.00     0.047 A 
ATOM     18  C   UNL     1      -3.368   2.521   0.634  1.00  0.00     0.012 A 
ATOM     19  C   UNL     1      -2.191   2.240  -1.435  1.00  0.00     0.012 A 
BRANCH  15  20
ATOM     20  O   UNL     1      -0.775   0.008   1.124  1.00  0.00    -0.491 OA
BRANCH  20  21
ATOM     21  C   UNL     1       0.634   0.256   1.284  1.00  0.00     0.167 C 
ATOM     22  C   UNL     1       1.442  -0.110   0.042  1.00  0.00     0.052 C 
ATOM     23  C   UNL     1       0.983   1.643   1.822  1.00  0.00     0.052 C 
ENDBRANCH  20  21
ENDBRANCH  15  20
ENDBRANCH   9  14
ENDBRANCH   6   8
BRANCH   7  24
ATOM     24  C   UNL     1      -4.640   9.084  -1.619  1.00  0.00    -0.025 A 
ATOM     25  C   UNL     1      -5.487   9.672  -0.663  1.00  0.00     0.009 A 
ATOM     26  C   UNL     1      -3.317   8.784  -1.281  1.00  0.00     0.009 A 
ATOM     27  C   UNL     1      -5.042   9.885   0.641  1.00  0.00     0.021 A 
ATOM     28  C   UNL     1      -2.865   8.998   0.025  1.00  0.00     0.021 A 
ATOM     29  C   UNL     1      -3.735   9.531   0.982  1.00  0.00     0.067 A 
BRANCH  29  30
ATOM     30  S   UNL     1      -3.237   9.634   2.687  1.00  0.00     0.175 S 
ATOM     31  C   UNL     1      -2.984  11.366   2.957  1.00  0.00     0.163 C 
ATOM     32  O   UNL     1      -4.372   9.212   3.484  1.00  0.00    -0.224 OA
ATOM     33  O   UNL     1      -1.953   8.970   2.811  1.00  0.00    -0.224 OA
ENDBRANCH  29  30
ENDBRANCH   7  24
ENDBRANCH   3   6
ENDBRANCH   1   2
BRANCH   1  34
ATOM     34  C   UNL     1      -6.766  10.789  -5.481  1.00  0.00     0.042 C 
BRANCH  34  35
ATOM     35  C   UNL     1      -7.150  10.885  -6.956  1.00  0.00     0.118 C 
BRANCH  35  36
ATOM     36  N   UNL     1      -8.479  11.450  -7.137  1.00  0.00    -0.352 N 
ATOM     37  C   UNL     1      -8.860  12.614  -7.755  1.00  0.00     0.251 C 
ATOM     38  H   UNL     1      -9.216  10.916  -6.759  1.00  0.00     0.163 HD
ATOM     39  O   UNL     1      -9.995  13.051  -7.590  1.00  0.00    -0.269 OA
BRANCH  37  40
ATOM     40  C   UNL     1      -7.908  13.350  -8.613  1.00  0.00     0.039 A 
ATOM     41  C   UNL     1      -7.856  14.744  -8.531  1.00  0.00     0.014 A 
ATOM     42  C   UNL     1      -7.098  12.671  -9.528  1.00  0.00     0.014 A 
ATOM     43  C   UNL     1      -6.953  15.454  -9.327  1.00  0.00     0.010 A 
ATOM     44  C   UNL     1      -6.150  13.372 -10.267  1.00  0.00     0.010 A 
ATOM     45  C   UNL     1      -6.072  14.771 -10.179  1.00  0.00    -0.014 A 
BRANCH  45  46
ATOM     46  C   UNL     1      -5.067  15.490 -11.002  1.00  0.00     0.031 A 
ATOM     47  C   UNL     1      -5.144  15.423 -12.503  1.00  0.00     0.074 A 
ATOM     48  C   UNL     1      -4.041  16.124 -10.403  1.00  0.00     0.049 A 
ATOM     49  N   UNL     1      -4.292  15.856 -13.398  1.00  0.00    -0.248 NA
ATOM     50  C   UNL     1      -6.324  14.752 -13.073  1.00  0.00     0.031 C 
ATOM     51  C   UNL     1      -3.839  16.228  -8.957  1.00  0.00     0.029 A 
ATOM     52  N   UNL     1      -2.960  16.782 -10.937  1.00  0.00    -0.354 N 
ATOM     53  C   UNL     1      -4.819  15.487 -14.629  1.00  0.00     0.074 A 
ATOM     54  C   UNL     1      -6.040  14.759 -14.368  1.00  0.00     0.031 C 
ATOM     55  C   UNL     1      -2.708  16.913  -8.719  1.00  0.00     0.029 A 
ATOM     56  C   UNL     1      -2.083  17.256  -9.992  1.00  0.00     0.049 A 
ATOM     57  H   UNL     1      -2.826  16.902 -11.905  1.00  0.00     0.167 HD
ATOM     58  C   UNL     1      -4.333  15.750 -15.866  1.00  0.00     0.037 A 
ATOM     59  C   UNL     1      -0.897  17.879 -10.137  1.00  0.00     0.037 A 
ATOM     60  C   UNL     1      -3.136  16.506 -16.119  1.00  0.00     0.049 A 
ATOM     61  C   UNL     1      -0.380  18.154 -11.525  1.00  0.00     0.074 A 
ATOM     62  C   UNL     1      -2.595  16.883 -17.335  1.00  0.00     0.029 A 
ATOM     63  N   UNL     1      -2.294  17.003 -15.135  1.00  0.00    -0.354 N 
ATOM     64  N   UNL     1      -0.917  17.856 -12.683  1.00  0.00    -0.248 NA
ATOM     65  C   UNL     1       0.907  18.857 -11.627  1.00  0.00     0.031 C 
ATOM     66  C   UNL     1      -1.400  17.565 -17.089  1.00  0.00     0.029 A 
ATOM     67  C   UNL     1      -1.226  17.665 -15.718  1.00  0.00     0.049 A 
ATOM     68  H   UNL     1      -2.434  16.900 -14.166  1.00  0.00     0.167 HD
ATOM     69  C   UNL     1      -0.057  18.365 -13.646  1.00  0.00     0.074 A 
ATOM     70  C   UNL     1       1.035  19.000 -12.938  1.00  0.00     0.031 C 
ATOM     71  C   UNL     1      -0.161  18.312 -14.996  1.00  0.00     0.037 A 
BRANCH  58  72
ATOM     72  C   UNL     1      -5.096  15.221 -17.046  1.00  0.00     0.064 A 
ATOM     73  C   UNL     1      -6.345  15.745 -17.412  1.00  0.00     0.173 A 
ATOM     74  C   UNL     1      -4.544  14.216 -17.856  1.00  0.00     0.173 A 
ATOM     75  F   UNL     1      -6.921  16.700 -16.666  1.00  0.00    -0.203 F 
ATOM     76  C   UNL     1      -7.023  15.268 -18.530  1.00  0.00     0.198 A 
ATOM     77  C   UNL     1      -5.211  13.764 -18.991  1.00  0.00     0.198 A 
ATOM     78  F   UNL     1      -3.350  13.685 -17.556  1.00  0.00    -0.203 F 
ATOM     79  F   UNL     1      -8.234  15.755 -18.836  1.00  0.00    -0.200 F 
ATOM     80  C   UNL     1      -6.452  14.285 -19.324  1.00  0.00     0.200 A 
ATOM     81  F   UNL     1      -4.650  12.824 -19.766  1.00  0.00    -0.200 F 
ATOM     82  F   UNL     1      -7.099  13.837 -20.409  1.00  0.00    -0.200 F 
ENDBRANCH  58  72
BRANCH  59  83
ATOM     83  C   UNL     1      -0.116  18.292  -8.941  1.00  0.00     0.064 A 
ATOM     84  C   UNL     1       0.069  19.648  -8.634  1.00  0.00     0.173 A 
ATOM     85  C   UNL     1       0.478  17.346  -8.093  1.00  0.00     0.173 A 
ATOM     86  F   UNL     1      -0.464  20.591  -9.425  1.00  0.00    -0.203 F 
ATOM     87  C   UNL     1       0.843  20.041  -7.544  1.00  0.00     0.198 A 
ATOM     88  C   UNL     1       1.225  17.740  -6.984  1.00  0.00     0.198 A 
ATOM     89  F   UNL     1       0.326  16.036  -8.335  1.00  0.00    -0.203 F 
ATOM     90  F   UNL     1       1.049  21.344  -7.308  1.00  0.00    -0.200 F 
ATOM     91  C   UNL     1       1.416  19.087  -6.718  1.00  0.00     0.200 A 
ATOM     92  F   UNL     1       1.763  16.815  -6.178  1.00  0.00    -0.200 F 
ATOM     93  F   UNL     1       2.160  19.466  -5.670  1.00  0.00    -0.200 F 
ENDBRANCH  59  83
BRANCH  71  94
ATOM     94  C   UNL     1       0.899  19.005 -15.802  1.00  0.00     0.064 A 
ATOM     95  C   UNL     1       2.198  18.491 -15.911  1.00  0.00     0.173 A 
ATOM     96  C   UNL     1       0.588  20.169 -16.523  1.00  0.00     0.173 A 
ATOM     97  F   UNL     1       2.549  17.390 -15.228  1.00  0.00    -0.203 F 
ATOM     98  C   UNL     1       3.154  19.127 -16.699  1.00  0.00     0.198 A 
ATOM     99  C   UNL     1       1.537  20.784 -17.334  1.00  0.00     0.198 A 
ATOM    100  F   UNL     1      -0.644  20.696 -16.457  1.00  0.00    -0.203 F 
ATOM    101  F   UNL     1       4.402  18.642 -16.756  1.00  0.00    -0.200 F 
ATOM    102  C   UNL     1       2.820  20.266 -17.417  1.00  0.00     0.200 A 
ATOM    103  F   UNL     1       1.207  21.875 -18.039  1.00  0.00    -0.200 F 
ATOM    104  F   UNL     1       3.738  20.868 -18.186  1.00  0.00    -0.200 F 
ENDBRANCH  71  94
ENDBRANCH  45  46
ENDBRANCH  37  40
ENDBRANCH  35  36
ENDBRANCH  34  35
ENDBRANCH   1  34
TORSDOF 16
