REMARK SMILES CC(C)C[C@@H](NS(=O)(=O)/C=C/c1ccc(Cl)cc1)C(=O)NCCCNC(=O)c1ccc(-c2c3nc(c(-c4c(F)c(F)c(F)c(F)c4F)c4ccc([nH]4)c(-c4c(F)c(F)c(F)c(F)c4F)c4nc(c(-c5c(F)c(F)c(F)c(F)c5F)c5ccc2[nH]5)C=C4)C=C3)cc1
REMARK SMILES IDX 22 1 21 2 19 3 20 4 5 6 4 7 2 8 1 9 3 10 6 11 7 13 8 14 9 15
REMARK SMILES IDX 10 16 11 17 12 18 13 19 18 20 14 21 17 22 15 23 16 24 23 25
REMARK SMILES IDX 24 26 25 27 26 28 27 30 28 31 29 32 90 33 30 34 89 35 31 36
REMARK SMILES IDX 32 37 33 38 83 39 34 40 88 41 82 42 84 43 35 44 87 45 81 46
REMARK SMILES IDX 80 47 36 49 68 50 48 51 67 52 49 53 52 54 66 55 85 56 50 57
REMARK SMILES IDX 51 58 65 60 86 61 53 62 37 63 38 64 46 65 39 66 40 67 44 68
REMARK SMILES IDX 47 69 41 70 42 71 45 72 43 73 69 74 70 75 78 76 71 77 72 78
REMARK SMILES IDX 76 79 79 80 73 81 74 82 77 83 75 84 54 85 55 86 63 87 56 88
REMARK SMILES IDX 57 89 61 90 64 91 58 92 59 93 62 94 60 95
REMARK H PARENT 21 5 6 12 25 29 84 48 52 59
REMARK Flexibility Score: inf
ROOT
ATOM      1  C   UNL     1      -2.978  -2.275   2.459  1.00  0.00     0.117 C 
ENDROOT
BRANCH   1   2
ATOM      2  N   UNL     1      -3.481  -1.391   1.414  1.00  0.00    -0.355 N 
ATOM      3  C   UNL     1      -2.865  -0.931   0.280  1.00  0.00     0.238 C 
ATOM      4  O   UNL     1      -3.523  -0.249  -0.509  1.00  0.00    -0.273 OA
ATOM      5  H   UNL     1      -4.404  -1.077   1.543  1.00  0.00     0.163 HD
BRANCH   3   6
ATOM      6  C   UNL     1      -1.388  -1.230   0.027  1.00  0.00     0.159 C 
BRANCH   6   7
ATOM      7  C   UNL     1      -0.609  -0.420   1.080  1.00  0.00     0.033 C 
BRANCH   7   8
ATOM      8  C   UNL     1       0.921  -0.493   1.058  1.00  0.00    -0.015 C 
ATOM      9  C   UNL     1       1.500   0.064  -0.238  1.00  0.00     0.007 C 
ATOM     10  C   UNL     1       1.455   0.301   2.258  1.00  0.00     0.007 C 
ENDBRANCH   7   8
ENDBRANCH   6   7
BRANCH   6  11
ATOM     11  N   UNL     1      -1.149  -2.700   0.101  1.00  0.00    -0.199 NA
ATOM     12  H   UNL     1      -1.623  -3.048   0.934  1.00  0.00     0.142 HD
BRANCH  11  13
ATOM     13  S   UNL     1      -1.681  -3.637  -1.226  1.00  0.00     0.234 S 
ATOM     14  O   UNL     1      -1.016  -3.062  -2.378  1.00  0.00    -0.208 OA
ATOM     15  O   UNL     1      -1.392  -5.000  -0.836  1.00  0.00    -0.208 OA
BRANCH  13  16
ATOM     16  C   UNL     1      -3.392  -3.445  -1.419  1.00  0.00     0.123 C 
ATOM     17  C   UNL     1      -4.228  -3.891  -0.470  1.00  0.00     0.021 C 
BRANCH  17  18
ATOM     18  C   UNL     1      -5.680  -3.685  -0.495  1.00  0.00    -0.025 A 
ATOM     19  C   UNL     1      -6.530  -4.794  -0.448  1.00  0.00     0.009 A 
ATOM     20  C   UNL     1      -6.243  -2.400  -0.468  1.00  0.00     0.009 A 
ATOM     21  C   UNL     1      -7.916  -4.623  -0.361  1.00  0.00     0.021 A 
ATOM     22  C   UNL     1      -7.625  -2.227  -0.351  1.00  0.00     0.021 A 
ATOM     23  C   UNL     1      -8.457  -3.341  -0.296  1.00  0.00     0.041 A 
ATOM     24  Cl  UNL     1     -10.156  -3.131  -0.139  1.00  0.00    -0.084 Cl
ENDBRANCH  17  18
ENDBRANCH  13  16
ENDBRANCH  11  13
ENDBRANCH   6  11
ENDBRANCH   3   6
ENDBRANCH   1   2
BRANCH   1  25
ATOM     25  C   UNL     1      -3.220  -1.693   3.840  1.00  0.00     0.042 C 
BRANCH  25  26
ATOM     26  C   UNL     1      -4.693  -1.668   4.216  1.00  0.00     0.118 C 
BRANCH  26  27
ATOM     27  N   UNL     1      -5.257  -3.002   4.365  1.00  0.00    -0.352 N 
ATOM     28  C   UNL     1      -6.007  -3.514   5.393  1.00  0.00     0.251 C 
ATOM     29  H   UNL     1      -5.074  -3.624   3.624  1.00  0.00     0.163 HD
ATOM     30  O   UNL     1      -6.251  -4.715   5.440  1.00  0.00    -0.269 OA
BRANCH  28  31
ATOM     31  C   UNL     1      -6.491  -2.615   6.459  1.00  0.00     0.039 A 
ATOM     32  C   UNL     1      -6.407  -3.039   7.785  1.00  0.00     0.014 A 
ATOM     33  C   UNL     1      -7.005  -1.351   6.154  1.00  0.00     0.014 A 
ATOM     34  C   UNL     1      -6.788  -2.171   8.807  1.00  0.00     0.010 A 
ATOM     35  C   UNL     1      -7.282  -0.451   7.176  1.00  0.00     0.010 A 
ATOM     36  C   UNL     1      -7.192  -0.856   8.514  1.00  0.00    -0.014 A 
BRANCH  36  37
ATOM     37  C   UNL     1      -7.521   0.091   9.608  1.00  0.00     0.031 A 
ATOM     38  C   UNL     1      -8.906   0.663   9.733  1.00  0.00     0.074 A 
ATOM     39  C   UNL     1      -6.558   0.450  10.479  1.00  0.00     0.049 A 
ATOM     40  N   UNL     1      -9.390   1.460  10.654  1.00  0.00    -0.248 NA
ATOM     41  C   UNL     1      -9.868   0.323   8.674  1.00  0.00     0.031 C 
ATOM     42  C   UNL     1      -5.159   0.022  10.414  1.00  0.00     0.029 A 
ATOM     43  N   UNL     1      -6.610   1.244  11.595  1.00  0.00    -0.354 N 
ATOM     44  C   UNL     1     -10.704   1.713  10.282  1.00  0.00     0.074 A 
ATOM     45  C   UNL     1     -10.921   1.049   9.017  1.00  0.00     0.031 C 
ATOM     46  C   UNL     1      -4.498   0.515  11.473  1.00  0.00     0.029 A 
ATOM     47  C   UNL     1      -5.416   1.320  12.271  1.00  0.00     0.049 A 
ATOM     48  H   UNL     1      -7.424   1.716  11.884  1.00  0.00     0.167 HD
ATOM     49  C   UNL     1     -11.654   2.407  10.953  1.00  0.00     0.037 A 
ATOM     50  C   UNL     1      -5.103   1.959  13.414  1.00  0.00     0.037 A 
ATOM     51  C   UNL     1     -11.434   3.056  12.220  1.00  0.00     0.049 A 
ATOM     52  C   UNL     1      -6.180   2.712  14.145  1.00  0.00     0.074 A 
ATOM     53  C   UNL     1     -12.341   3.740  13.009  1.00  0.00     0.029 A 
ATOM     54  N   UNL     1     -10.214   3.105  12.880  1.00  0.00    -0.354 N 
ATOM     55  N   UNL     1      -7.443   2.870  13.831  1.00  0.00    -0.248 NA
ATOM     56  C   UNL     1      -5.789   3.363  15.402  1.00  0.00     0.031 C 
ATOM     57  C   UNL     1     -11.658   4.252  14.117  1.00  0.00     0.029 A 
ATOM     58  C   UNL     1     -10.341   3.829  14.056  1.00  0.00     0.049 A 
ATOM     59  H   UNL     1      -9.382   2.687  12.561  1.00  0.00     0.167 HD
ATOM     60  C   UNL     1      -8.004   3.610  14.863  1.00  0.00     0.074 A 
ATOM     61  C   UNL     1      -6.948   3.845  15.826  1.00  0.00     0.031 C 
ATOM     62  C   UNL     1      -9.278   4.057  15.002  1.00  0.00     0.037 A 
BRANCH  49  63
ATOM     63  C   UNL     1     -13.019   2.497  10.330  1.00  0.00     0.064 A 
ATOM     64  C   UNL     1     -13.847   1.370  10.200  1.00  0.00     0.173 A 
ATOM     65  C   UNL     1     -13.520   3.729   9.884  1.00  0.00     0.173 A 
ATOM     66  F   UNL     1     -13.414   0.164  10.598  1.00  0.00    -0.203 F 
ATOM     67  C   UNL     1     -15.110   1.468   9.620  1.00  0.00     0.198 A 
ATOM     68  C   UNL     1     -14.797   3.830   9.338  1.00  0.00     0.198 A 
ATOM     69  F   UNL     1     -12.775   4.840   9.985  1.00  0.00    -0.203 F 
ATOM     70  F   UNL     1     -15.858   0.368   9.457  1.00  0.00    -0.200 F 
ATOM     71  C   UNL     1     -15.587   2.699   9.198  1.00  0.00     0.200 A 
ATOM     72  F   UNL     1     -15.263   5.023   8.943  1.00  0.00    -0.200 F 
ATOM     73  F   UNL     1     -16.806   2.794   8.649  1.00  0.00    -0.200 F 
ENDBRANCH  49  63
BRANCH  50  74
ATOM     74  C   UNL     1      -3.721   1.878  13.959  1.00  0.00     0.064 A 
ATOM     75  C   UNL     1      -3.454   1.197  15.155  1.00  0.00     0.173 A 
ATOM     76  C   UNL     1      -2.642   2.486  13.301  1.00  0.00     0.173 A 
ATOM     77  F   UNL     1      -4.454   0.612  15.831  1.00  0.00    -0.203 F 
ATOM     78  C   UNL     1      -2.167   1.155  15.689  1.00  0.00     0.198 A 
ATOM     79  C   UNL     1      -1.350   2.414  13.818  1.00  0.00     0.198 A 
ATOM     80  F   UNL     1      -2.840   3.142  12.148  1.00  0.00    -0.203 F 
ATOM     81  F   UNL     1      -1.951   0.546  16.863  1.00  0.00    -0.200 F 
ATOM     82  C   UNL     1      -1.115   1.758  15.017  1.00  0.00     0.200 A 
ATOM     83  F   UNL     1      -0.334   2.982  13.155  1.00  0.00    -0.200 F 
ATOM     84  F   UNL     1       0.122   1.715  15.528  1.00  0.00    -0.200 F 
ENDBRANCH  50  74
BRANCH  62  85
ATOM     85  C   UNL     1      -9.600   4.812  16.262  1.00  0.00     0.064 A 
ATOM     86  C   UNL     1      -9.058   6.080  16.526  1.00  0.00     0.173 A 
ATOM     87  C   UNL     1     -10.461   4.256  17.221  1.00  0.00     0.173 A 
ATOM     88  F   UNL     1      -8.221   6.653  15.648  1.00  0.00    -0.203 F 
ATOM     89  C   UNL     1      -9.322   6.736  17.725  1.00  0.00     0.198 A 
ATOM     90  C   UNL     1     -10.755   4.934  18.400  1.00  0.00     0.198 A 
ATOM     91  F   UNL     1     -11.017   3.053  17.015  1.00  0.00    -0.203 F 
ATOM     92  F   UNL     1      -8.729   7.909  17.989  1.00  0.00    -0.200 F 
ATOM     93  C   UNL     1     -10.173   6.165  18.659  1.00  0.00     0.200 A 
ATOM     94  F   UNL     1     -11.592   4.388  19.293  1.00  0.00    -0.200 F 
ATOM     95  F   UNL     1     -10.421   6.795  19.815  1.00  0.00    -0.200 F 
ENDBRANCH  62  85
ENDBRANCH  36  37
ENDBRANCH  28  31
ENDBRANCH  26  27
ENDBRANCH  25  26
ENDBRANCH   1  25
TORSDOF 16
