REMARK SMILES CC[C@@](C)(Nc1c([N+](=O)[O-])c(C(C)C)nn1C)C(=O)NCCCNC(=O)c1ccc(-c2c3nc(c(-c4c(F)c(F)c(F)c(F)c4F)c4ccc([nH]4)c(-c4c(F)c(F)c(F)c(F)c4F)c4nc(c(-c5c(F)c(F)c(F)c(F)c5F)c5ccc2[nH]5)C=C4)C=C3)cc1
REMARK SMILES IDX 21 1 20 2 18 3 19 4 3 6 4 7 2 8 1 9 5 10 6 12 7 13 16 14
REMARK SMILES IDX 11 15 15 16 17 17 8 18 9 19 10 20 12 21 13 22 14 23 22 24
REMARK SMILES IDX 23 25 24 26 25 27 26 29 27 30 28 31 89 32 29 33 88 34 30 35
REMARK SMILES IDX 31 36 32 37 82 38 33 39 87 40 81 41 83 42 34 43 86 44 80 45
REMARK SMILES IDX 79 46 35 48 67 49 47 50 66 51 48 52 51 53 65 54 84 55 49 56
REMARK SMILES IDX 50 57 64 59 85 60 52 61 36 62 37 63 45 64 38 65 39 66 43 67
REMARK SMILES IDX 46 68 40 69 41 70 44 71 42 72 68 73 69 74 77 75 70 76 71 77
REMARK SMILES IDX 75 78 78 79 72 80 73 81 76 82 74 83 53 84 54 85 62 86 55 87
REMARK SMILES IDX 56 88 60 89 63 90 57 91 58 92 61 93 59 94
REMARK H PARENT 20 5 5 11 24 28 83 47 51 58
REMARK Flexibility Score: inf
ROOT
ATOM      1  C   UNL     1       2.181   4.904   2.113  1.00  0.00     0.117 C 
ENDROOT
BRANCH   1   2
ATOM      2  N   UNL     1       2.815   3.728   1.547  1.00  0.00    -0.354 N 
ATOM      3  C   UNL     1       2.363   2.472   1.264  1.00  0.00     0.245 C 
ATOM      4  O   UNL     1       3.091   1.825   0.499  1.00  0.00    -0.272 OA
ATOM      5  H   UNL     1       3.764   3.864   1.322  1.00  0.00     0.163 HD
BRANCH   3   6
ATOM      6  C   UNL     1       1.057   1.858   1.840  1.00  0.00     0.115 C 
ATOM      7  C   UNL     1      -0.135   2.562   1.144  1.00  0.00     0.045 C 
BRANCH   6   8
ATOM      8  C   UNL     1       0.917   0.324   1.565  1.00  0.00     0.035 C 
ATOM      9  C   UNL     1       0.961  -0.144   0.112  1.00  0.00     0.007 C 
ENDBRANCH   6   8
BRANCH   6  10
ATOM     10  N   UNL     1       0.881   2.012   3.304  1.00  0.00    -0.351 N 
ATOM     11  H   UNL     1      -0.013   2.336   3.559  1.00  0.00     0.163 HD
BRANCH  10  12
ATOM     12  C   UNL     1       1.711   1.795   4.379  1.00  0.00     0.205 A 
ATOM     13  C   UNL     1       1.340   1.528   5.707  1.00  0.00     0.334 A 
ATOM     14  N   UNL     1       3.091   1.879   4.471  1.00  0.00    -0.246 N 
ATOM     15  C   UNL     1       2.484   1.816   6.500  1.00  0.00     0.145 A 
ATOM     16  N   UNL     1       3.494   2.212   5.716  1.00  0.00    -0.169 NA
ATOM     17  C   UNL     1       4.150   1.372   3.637  1.00  0.00     0.176 C 
BRANCH  13  18
ATOM     18  N   UNL     1       0.042   1.087   6.143  1.00  0.00     0.068 N 
ATOM     19  O   UNL     1      -0.082   0.762   7.329  1.00  0.00    -0.258 OA
ATOM     20  O   UNL     1      -0.860   1.036   5.293  1.00  0.00    -0.258 OA
ENDBRANCH  13  18
BRANCH  15  21
ATOM     21  C   UNL     1       2.722   1.764   7.987  1.00  0.00     0.041 C 
ATOM     22  C   UNL     1       4.069   1.098   8.309  1.00  0.00     0.014 C 
ATOM     23  C   UNL     1       2.666   3.159   8.615  1.00  0.00     0.014 C 
ENDBRANCH  15  21
ENDBRANCH  10  12
ENDBRANCH   6  10
ENDBRANCH   3   6
ENDBRANCH   1   2
BRANCH   1  24
ATOM     24  C   UNL     1       2.499   5.218   3.571  1.00  0.00     0.042 C 
BRANCH  24  25
ATOM     25  C   UNL     1       3.975   5.272   3.950  1.00  0.00     0.118 C 
BRANCH  25  26
ATOM     26  N   UNL     1       4.715   6.310   3.248  1.00  0.00    -0.352 N 
ATOM     27  C   UNL     1       5.530   7.294   3.745  1.00  0.00     0.251 C 
ATOM     28  H   UNL     1       4.615   6.304   2.269  1.00  0.00     0.163 HD
ATOM     29  O   UNL     1       5.994   8.142   2.982  1.00  0.00    -0.269 OA
BRANCH  27  30
ATOM     30  C   UNL     1       5.838   7.373   5.190  1.00  0.00     0.039 A 
ATOM     31  C   UNL     1       5.734   8.616   5.822  1.00  0.00     0.014 A 
ATOM     32  C   UNL     1       6.264   6.255   5.914  1.00  0.00     0.014 A 
ATOM     33  C   UNL     1       6.013   8.730   7.186  1.00  0.00     0.010 A 
ATOM     34  C   UNL     1       6.491   6.361   7.289  1.00  0.00     0.010 A 
ATOM     35  C   UNL     1       6.372   7.600   7.938  1.00  0.00    -0.014 A 
BRANCH  35  36
ATOM     36  C   UNL     1       6.617   7.717   9.401  1.00  0.00     0.031 A 
ATOM     37  C   UNL     1       7.993   7.501   9.968  1.00  0.00     0.074 A 
ATOM     38  C   UNL     1       5.591   8.004  10.226  1.00  0.00     0.049 A 
ATOM     39  N   UNL     1       8.397   7.572  11.213  1.00  0.00    -0.248 NA
ATOM     40  C   UNL     1       9.053   7.143   9.014  1.00  0.00     0.031 C 
ATOM     41  C   UNL     1       4.204   8.200   9.807  1.00  0.00     0.029 A 
ATOM     42  N   UNL     1       5.556   8.181  11.588  1.00  0.00    -0.354 N 
ATOM     43  C   UNL     1       9.752   7.267  11.191  1.00  0.00     0.074 A 
ATOM     44  C   UNL     1      10.090   6.957   9.818  1.00  0.00     0.031 C 
ATOM     45  C   UNL     1       3.458   8.497  10.883  1.00  0.00     0.029 A 
ATOM     46  C   UNL     1       4.304   8.474  12.072  1.00  0.00     0.049 A 
ATOM     47  H   UNL     1       6.351   8.104  12.162  1.00  0.00     0.167 HD
ATOM     48  C   UNL     1      10.638   7.266  12.218  1.00  0.00     0.037 A 
ATOM     49  C   UNL     1       3.884   8.695  13.333  1.00  0.00     0.037 A 
ATOM     50  C   UNL     1      10.300   7.580  13.583  1.00  0.00     0.049 A 
ATOM     51  C   UNL     1       4.884   8.660  14.459  1.00  0.00     0.074 A 
ATOM     52  C   UNL     1      11.136   7.651  14.685  1.00  0.00     0.029 A 
ATOM     53  N   UNL     1       9.020   7.865  14.037  1.00  0.00    -0.354 N 
ATOM     54  N   UNL     1       6.176   8.443  14.415  1.00  0.00    -0.248 NA
ATOM     55  C   UNL     1       4.366   8.912  15.812  1.00  0.00     0.031 C 
ATOM     56  C   UNL     1      10.354   7.918  15.813  1.00  0.00     0.029 A 
ATOM     57  C   UNL     1       9.040   8.082  15.406  1.00  0.00     0.049 A 
ATOM     58  H   UNL     1       8.216   7.906  13.470  1.00  0.00     0.167 HD
ATOM     59  C   UNL     1       6.629   8.562  15.723  1.00  0.00     0.074 A 
ATOM     60  C   UNL     1       5.476   8.891  16.535  1.00  0.00     0.031 C 
ATOM     61  C   UNL     1       7.887   8.414  16.206  1.00  0.00     0.037 A 
BRANCH  48  62
ATOM     62  C   UNL     1      12.064   6.907  11.907  1.00  0.00     0.064 A 
ATOM     63  C   UNL     1      12.888   7.749  11.144  1.00  0.00     0.173 A 
ATOM     64  C   UNL     1      12.629   5.726  12.413  1.00  0.00     0.173 A 
ATOM     65  F   UNL     1      12.398   8.888  10.629  1.00  0.00    -0.203 F 
ATOM     66  C   UNL     1      14.211   7.408  10.873  1.00  0.00     0.198 A 
ATOM     67  C   UNL     1      13.962   5.404  12.169  1.00  0.00     0.198 A 
ATOM     68  F   UNL     1      11.891   4.888  13.157  1.00  0.00    -0.203 F 
ATOM     69  F   UNL     1      14.961   8.203  10.099  1.00  0.00    -0.200 F 
ATOM     70  C   UNL     1      14.749   6.240  11.392  1.00  0.00     0.200 A 
ATOM     71  F   UNL     1      14.485   4.284  12.687  1.00  0.00    -0.200 F 
ATOM     72  F   UNL     1      16.024   5.917  11.138  1.00  0.00    -0.200 F 
ENDBRANCH  48  62
BRANCH  49  73
ATOM     73  C   UNL     1       2.450   8.987  13.600  1.00  0.00     0.064 A 
ATOM     74  C   UNL     1       2.041  10.247  14.060  1.00  0.00     0.173 A 
ATOM     75  C   UNL     1       1.461   8.009  13.418  1.00  0.00     0.173 A 
ATOM     76  F   UNL     1       2.951  11.210  14.271  1.00  0.00    -0.203 F 
ATOM     77  C   UNL     1       0.704  10.509  14.351  1.00  0.00     0.198 A 
ATOM     78  C   UNL     1       0.120   8.283  13.676  1.00  0.00     0.198 A 
ATOM     79  F   UNL     1       1.797   6.788  12.976  1.00  0.00    -0.203 F 
ATOM     80  F   UNL     1       0.349  11.705  14.841  1.00  0.00    -0.200 F 
ATOM     81  C   UNL     1      -0.257   9.529  14.153  1.00  0.00     0.200 A 
ATOM     82  F   UNL     1      -0.807   7.338  13.468  1.00  0.00    -0.200 F 
ATOM     83  F   UNL     1      -1.543   9.783  14.430  1.00  0.00    -0.200 F 
ENDBRANCH  49  73
BRANCH  61  84
ATOM     84  C   UNL     1       8.094   8.646  17.677  1.00  0.00     0.064 A 
ATOM     85  C   UNL     1       7.590   7.765  18.646  1.00  0.00     0.173 A 
ATOM     86  C   UNL     1       8.834   9.754  18.122  1.00  0.00     0.173 A 
ATOM     87  F   UNL     1       6.865   6.698  18.276  1.00  0.00    -0.203 F 
ATOM     88  C   UNL     1       7.790   8.002  20.004  1.00  0.00     0.198 A 
ATOM     89  C   UNL     1       9.062   9.967  19.479  1.00  0.00     0.198 A 
ATOM     90  F   UNL     1       9.345  10.625  17.240  1.00  0.00    -0.203 F 
ATOM     91  F   UNL     1       7.249   7.178  20.912  1.00  0.00    -0.200 F 
ATOM     92  C   UNL     1       8.531   9.097  20.419  1.00  0.00     0.200 A 
ATOM     93  F   UNL     1       9.794  11.017  19.877  1.00  0.00    -0.200 F 
ATOM     94  F   UNL     1       8.728   9.320  21.726  1.00  0.00    -0.200 F 
ENDBRANCH  61  84
ENDBRANCH  35  36
ENDBRANCH  27  30
ENDBRANCH  25  26
ENDBRANCH  24  25
ENDBRANCH   1  24
TORSDOF 15
