REMARK SMILES COc1ccc([C@H]2CC(c3ccc(S(C)(=O)=O)cc3)=NN2c2ccc(C(=O)NCCCNC(=O)c3ccc(-c4c5nc(c(-c6c(F)c(F)c(F)c(F)c6F)c6ccc([nH]6)c(-c6c(F)c(F)c(F)c(F)c6F)c6nc(c(-c7c(F)c(F)c(F)c(F)c7F)c7ccc4[nH]7)C=C6)C=C5)cc3)cc2)cc1OC
REMARK SMILES IDX 29 1 28 2 26 3 27 4 25 6 22 7 23 8 99 9 24 10 98 11 21 12
REMARK SMILES IDX 7 13 8 14 9 15 20 16 6 17 3 18 4 19 101 20 5 21 100 22 2 23
REMARK SMILES IDX 1 24 102 25 103 26 10 27 11 28 19 29 12 30 18 31 13 32 14 33
REMARK SMILES IDX 15 34 16 35 17 36 30 37 31 38 32 39 33 40 34 42 35 43 36 44
REMARK SMILES IDX 97 45 37 46 96 47 38 48 39 49 40 50 90 51 41 52 95 53 89 54
REMARK SMILES IDX 91 55 42 56 94 57 88 58 87 59 43 61 75 62 55 63 74 64 56 65
REMARK SMILES IDX 59 66 73 67 92 68 57 69 58 70 72 72 93 73 60 74 44 75 45 76
REMARK SMILES IDX 53 77 46 78 47 79 51 80 54 81 48 82 49 83 52 84 50 85 76 86
REMARK SMILES IDX 77 87 85 88 78 89 79 90 83 91 86 92 80 93 81 94 84 95 82 96
REMARK SMILES IDX 61 97 62 98 70 99 63 100 64 101 68 102 71 103 65 104 66 105
REMARK SMILES IDX 69 106 67 107
REMARK H PARENT 28 5 32 41 91 60 59 71
REMARK Flexibility Score: inf
ROOT
ATOM      1  C   UNL     1       0.932   1.210   9.867  1.00  0.00     0.118 C 
ENDROOT
BRANCH   1   2
ATOM      2  N   UNL     1       2.293   1.685   9.716  1.00  0.00    -0.352 N 
ATOM      3  C   UNL     1       3.375   1.179   9.043  1.00  0.00     0.251 C 
ATOM      4  O   UNL     1       4.413   1.841   9.065  1.00  0.00    -0.269 OA
ATOM      5  H   UNL     1       2.475   2.532  10.185  1.00  0.00     0.163 HD
BRANCH   3   6
ATOM      6  C   UNL     1       3.333  -0.088   8.262  1.00  0.00     0.039 A 
ATOM      7  C   UNL     1       3.355  -2.406   6.642  1.00  0.00     0.060 A 
ATOM      8  C   UNL     1       4.228  -1.344   6.386  1.00  0.00     0.029 A 
ATOM      9  C   UNL     1       2.505  -2.313   7.744  1.00  0.00     0.029 A 
ATOM     10  C   UNL     1       4.207  -0.190   7.173  1.00  0.00     0.016 A 
ATOM     11  C   UNL     1       2.521  -1.183   8.569  1.00  0.00     0.016 A 
BRANCH   7  12
ATOM     12  N   UNL     1       3.365  -3.525   5.833  1.00  0.00    -0.257 N 
ATOM     13  C   UNL     1       2.235  -3.994   5.032  1.00  0.00     0.144 C 
ATOM     14  C   UNL     1       2.765  -5.314   4.453  1.00  0.00     0.091 C 
ATOM     15  C   UNL     1       4.123  -5.360   5.098  1.00  0.00     0.071 C 
ATOM     16  N   UNL     1       4.429  -4.361   5.862  1.00  0.00    -0.176 NA
BRANCH  13  17
ATOM     17  C   UNL     1       1.856  -2.982   3.962  1.00  0.00    -0.019 A 
ATOM     18  C   UNL     1       1.213  -1.001   2.059  1.00  0.00     0.160 A 
ATOM     19  C   UNL     1       0.238  -1.485   2.942  1.00  0.00     0.051 A 
ATOM     20  C   UNL     1       2.517  -1.502   2.116  1.00  0.00     0.161 A 
ATOM     21  C   UNL     1       0.554  -2.474   3.881  1.00  0.00     0.010 A 
ATOM     22  C   UNL     1       2.820  -2.486   3.067  1.00  0.00     0.056 A 
BRANCH  18  23
ATOM     23  O   UNL     1       0.899   0.054   1.244  1.00  0.00    -0.493 OA
ATOM     24  C   UNL     1      -0.043  -0.296   0.234  1.00  0.00     0.278 C 
ENDBRANCH  18  23
BRANCH  20  25
ATOM     25  O   UNL     1       3.603  -1.136   1.368  1.00  0.00    -0.493 OA
ATOM     26  C   UNL     1       3.372  -0.431   0.158  1.00  0.00     0.278 C 
ENDBRANCH  20  25
ENDBRANCH  13  17
BRANCH  15  27
ATOM     27  C   UNL     1       5.021  -6.502   4.913  1.00  0.00    -0.002 A 
ATOM     28  C   UNL     1       5.471  -7.184   6.049  1.00  0.00     0.011 A 
ATOM     29  C   UNL     1       5.448  -6.867   3.636  1.00  0.00     0.011 A 
ATOM     30  C   UNL     1       6.346  -8.259   5.907  1.00  0.00     0.021 A 
ATOM     31  C   UNL     1       6.346  -7.928   3.493  1.00  0.00     0.021 A 
ATOM     32  C   UNL     1       6.790  -8.615   4.629  1.00  0.00     0.067 A 
BRANCH  32  33
ATOM     33  S   UNL     1       7.922  -9.975   4.457  1.00  0.00     0.175 S 
ATOM     34  C   UNL     1       9.367  -9.456   5.347  1.00  0.00     0.163 C 
ATOM     35  O   UNL     1       7.328 -11.100   5.160  1.00  0.00    -0.224 OA
ATOM     36  O   UNL     1       8.280 -10.075   3.058  1.00  0.00    -0.224 OA
ENDBRANCH  32  33
ENDBRANCH  15  27
ENDBRANCH   7  12
ENDBRANCH   3   6
ENDBRANCH   1   2
BRANCH   1  37
ATOM     37  C   UNL     1       0.742   0.518  11.217  1.00  0.00     0.042 C 
BRANCH  37  38
ATOM     38  C   UNL     1       0.697   1.490  12.393  1.00  0.00     0.118 C 
BRANCH  38  39
ATOM     39  N   UNL     1      -0.515   2.294  12.382  1.00  0.00    -0.352 N 
ATOM     40  C   UNL     1      -1.465   2.481  13.352  1.00  0.00     0.251 C 
ATOM     41  H   UNL     1      -0.679   2.783  11.544  1.00  0.00     0.163 HD
ATOM     42  O   UNL     1      -2.526   3.022  13.053  1.00  0.00    -0.269 OA
BRANCH  40  43
ATOM     43  C   UNL     1      -1.238   2.041  14.747  1.00  0.00     0.039 A 
ATOM     44  C   UNL     1      -2.328   1.546  15.470  1.00  0.00     0.014 A 
ATOM     45  C   UNL     1       0.003   2.185  15.374  1.00  0.00     0.014 A 
ATOM     46  C   UNL     1      -2.170   1.173  16.806  1.00  0.00     0.010 A 
ATOM     47  C   UNL     1       0.177   1.750  16.688  1.00  0.00     0.010 A 
ATOM     48  C   UNL     1      -0.912   1.258  17.422  1.00  0.00    -0.014 A 
BRANCH  48  49
ATOM     49  C   UNL     1      -0.736   0.853  18.839  1.00  0.00     0.031 A 
ATOM     50  C   UNL     1      -0.389   1.875  19.886  1.00  0.00     0.074 A 
ATOM     51  C   UNL     1      -0.850  -0.445  19.175  1.00  0.00     0.049 A 
ATOM     52  N   UNL     1      -0.180   1.709  21.168  1.00  0.00    -0.248 NA
ATOM     53  C   UNL     1      -0.228   3.263  19.427  1.00  0.00     0.031 C 
ATOM     54  C   UNL     1      -1.126  -1.537  18.241  1.00  0.00     0.029 A 
ATOM     55  N   UNL     1      -0.740  -1.068  20.393  1.00  0.00    -0.354 N 
ATOM     56  C   UNL     1       0.149   2.964  21.664  1.00  0.00     0.074 A 
ATOM     57  C   UNL     1       0.163   3.872  20.537  1.00  0.00     0.031 C 
ATOM     58  C   UNL     1      -1.180  -2.693  18.920  1.00  0.00     0.029 A 
ATOM     59  C   UNL     1      -0.919  -2.428  20.332  1.00  0.00     0.049 A 
ATOM     60  H   UNL     1      -0.551  -0.586  21.230  1.00  0.00     0.167 HD
ATOM     61  C   UNL     1       0.396   3.330  22.945  1.00  0.00     0.037 A 
ATOM     62  C   UNL     1      -0.876  -3.356  21.306  1.00  0.00     0.037 A 
ATOM     63  C   UNL     1       0.356   2.428  24.066  1.00  0.00     0.049 A 
ATOM     64  C   UNL     1      -0.634  -2.922  22.724  1.00  0.00     0.074 A 
ATOM     65  C   UNL     1       0.525   2.711  25.410  1.00  0.00     0.029 A 
ATOM     66  N   UNL     1       0.132   1.062  23.971  1.00  0.00    -0.354 N 
ATOM     67  N   UNL     1      -0.403  -1.719  23.193  1.00  0.00    -0.248 NA
ATOM     68  C   UNL     1      -0.663  -3.971  23.752  1.00  0.00     0.031 C 
ATOM     69  C   UNL     1       0.445   1.510  26.125  1.00  0.00     0.029 A 
ATOM     70  C   UNL     1       0.177   0.485  25.231  1.00  0.00     0.049 A 
ATOM     71  H   UNL     1      -0.035   0.574  23.132  1.00  0.00     0.167 HD
ATOM     72  C   UNL     1      -0.282  -1.862  24.568  1.00  0.00     0.074 A 
ATOM     73  C   UNL     1      -0.483  -3.266  24.860  1.00  0.00     0.031 C 
ATOM     74  C   UNL     1      -0.026  -0.915  25.504  1.00  0.00     0.037 A 
BRANCH  61  75
ATOM     75  C   UNL     1       0.730   4.772  23.200  1.00  0.00     0.064 A 
ATOM     76  C   UNL     1      -0.231   5.786  23.065  1.00  0.00     0.173 A 
ATOM     77  C   UNL     1       2.021   5.143  23.607  1.00  0.00     0.173 A 
ATOM     78  F   UNL     1      -1.477   5.487  22.670  1.00  0.00    -0.203 F 
ATOM     79  C   UNL     1       0.097   7.120  23.293  1.00  0.00     0.198 A 
ATOM     80  C   UNL     1       2.337   6.475  23.863  1.00  0.00     0.198 A 
ATOM     81  F   UNL     1       2.976   4.214  23.758  1.00  0.00    -0.203 F 
ATOM     82  F   UNL     1      -0.823   8.076  23.105  1.00  0.00    -0.200 F 
ATOM     83  C   UNL     1       1.379   7.463  23.697  1.00  0.00     0.200 A 
ATOM     84  F   UNL     1       3.573   6.804  24.266  1.00  0.00    -0.200 F 
ATOM     85  F   UNL     1       1.692   8.747  23.918  1.00  0.00    -0.200 F 
ENDBRANCH  61  75
BRANCH  62  86
ATOM     86  C   UNL     1      -1.104  -4.784  20.968  1.00  0.00     0.064 A 
ATOM     87  C   UNL     1      -2.288  -5.434  21.344  1.00  0.00     0.173 A 
ATOM     88  C   UNL     1      -0.154  -5.522  20.247  1.00  0.00     0.173 A 
ATOM     89  F   UNL     1      -3.218  -4.774  22.049  1.00  0.00    -0.203 F 
ATOM     90  C   UNL     1      -2.506  -6.772  21.024  1.00  0.00     0.198 A 
ATOM     91  C   UNL     1      -0.385  -6.852  19.905  1.00  0.00     0.198 A 
ATOM     92  F   UNL     1       0.991  -4.942  19.858  1.00  0.00    -0.203 F 
ATOM     93  F   UNL     1      -3.631  -7.380  21.427  1.00  0.00    -0.200 F 
ATOM     94  C   UNL     1      -1.558  -7.478  20.299  1.00  0.00     0.200 A 
ATOM     95  F   UNL     1       0.527  -7.526  19.191  1.00  0.00    -0.200 F 
ATOM     96  F   UNL     1      -1.773  -8.763  19.984  1.00  0.00    -0.200 F 
ENDBRANCH  62  86
BRANCH  74  97
ATOM     97  C   UNL     1       0.024  -1.364  26.935  1.00  0.00     0.064 A 
ATOM     98  C   UNL     1       1.093  -2.125  27.430  1.00  0.00     0.173 A 
ATOM     99  C   UNL     1      -0.997  -1.004  27.828  1.00  0.00     0.173 A 
ATOM    100  F   UNL     1       2.085  -2.507  26.612  1.00  0.00    -0.203 F 
ATOM    101  C   UNL     1       1.123  -2.534  28.761  1.00  0.00     0.198 A 
ATOM    102  C   UNL     1      -0.949  -1.391  29.164  1.00  0.00     0.198 A 
ATOM    103  F   UNL     1      -2.039  -0.272  27.405  1.00  0.00    -0.203 F 
ATOM    104  F   UNL     1       2.129  -3.303  29.200  1.00  0.00    -0.200 F 
ATOM    105  C   UNL     1       0.106  -2.162  29.627  1.00  0.00     0.200 A 
ATOM    106  F   UNL     1      -1.927  -1.021  30.003  1.00  0.00    -0.200 F 
ATOM    107  F   UNL     1       0.139  -2.554  30.908  1.00  0.00    -0.200 F 
ENDBRANCH  74  97
ENDBRANCH  48  49
ENDBRANCH  40  43
ENDBRANCH  38  39
ENDBRANCH  37  38
ENDBRANCH   1  37
TORSDOF 16
