REMARK SMILES C[C@@H](C(=O)NCCCNC(=O)c1ccc(-c2c3nc(c(-c4c(F)c(F)c(F)c(F)c4F)c4ccc([nH]4)c(-c4c(F)c(F)c(F)c(F)c4F)c4nc(c(-c5c(F)c(F)c(F)c(F)c5F)c5ccc2[nH]5)C=C4)C=C3)cc1)c1ccc(C[C@H]2CCC[C@@H]2O)cc1F
REMARK SMILES IDX 6 1 5 2 3 3 4 4 2 6 1 7 75 8 76 9 87 10 77 11 86 12 88 13
REMARK SMILES IDX 78 14 79 15 80 16 81 17 84 18 82 19 83 20 85 21 7 23 8 24
REMARK SMILES IDX 9 25 10 26 11 28 12 29 13 30 74 31 14 32 73 33 15 34 16 35
REMARK SMILES IDX 17 36 67 37 18 38 72 39 66 40 68 41 19 42 71 43 65 44 64 45
REMARK SMILES IDX 20 47 52 48 32 49 51 50 33 51 36 52 50 53 69 54 34 55 35 56
REMARK SMILES IDX 49 58 70 59 37 60 21 61 22 62 30 63 23 64 24 65 28 66 31 67
REMARK SMILES IDX 25 68 26 69 29 70 27 71 53 72 54 73 62 74 55 75 56 76 60 77
REMARK SMILES IDX 63 78 57 79 58 80 61 81 59 82 38 83 39 84 47 85 40 86 41 87
REMARK SMILES IDX 45 88 48 89 42 90 43 91 46 92 44 93
REMARK H PARENT 5 5 85 22 9 27 68 46 36 57
REMARK Flexibility Score: inf
ROOT
ATOM      1  C   UNL     1       3.470   1.642  -1.277  1.00  0.00     0.117 C 
ENDROOT
BRANCH   1   2
ATOM      2  N   UNL     1       2.415   1.467  -2.256  1.00  0.00    -0.356 N 
ATOM      3  C   UNL     1       1.126   1.048  -2.097  1.00  0.00     0.227 C 
ATOM      4  O   UNL     1       0.483   0.830  -3.126  1.00  0.00    -0.274 OA
ATOM      5  H   UNL     1       2.668   1.685  -3.182  1.00  0.00     0.163 HD
BRANCH   3   6
ATOM      6  C   UNL     1       0.529   0.917  -0.689  1.00  0.00     0.108 C 
ATOM      7  C   UNL     1       1.077  -0.311   0.045  1.00  0.00     0.023 C 
BRANCH   6   8
ATOM      8  C   UNL     1      -0.991   0.992  -0.728  1.00  0.00    -0.000 A 
ATOM      9  C   UNL     1      -1.599   2.246  -0.911  1.00  0.00     0.008 A 
ATOM     10  C   UNL     1      -1.825  -0.123  -0.612  1.00  0.00     0.127 A 
ATOM     11  C   UNL     1      -2.989   2.377  -0.902  1.00  0.00     0.004 A 
ATOM     12  C   UNL     1      -3.211   0.007  -0.568  1.00  0.00     0.043 A 
ATOM     13  F   UNL     1      -1.314  -1.357  -0.504  1.00  0.00    -0.207 F 
ATOM     14  C   UNL     1      -3.808   1.267  -0.671  1.00  0.00    -0.045 A 
BRANCH  14  15
ATOM     15  C   UNL     1      -5.298   1.423  -0.497  1.00  0.00     0.041 C 
BRANCH  15  16
ATOM     16  C   UNL     1      -5.756   1.954   0.875  1.00  0.00     0.022 C 
ATOM     17  C   UNL     1      -5.242   1.192   2.109  1.00  0.00     0.007 C 
ATOM     18  C   UNL     1      -5.410   3.417   1.166  1.00  0.00     0.117 C 
ATOM     19  C   UNL     1      -5.010   2.248   3.196  1.00  0.00     0.003 C 
ATOM     20  C   UNL     1      -5.641   3.527   2.666  1.00  0.00     0.032 C 
BRANCH  18  21
ATOM     21  O   UNL     1      -6.224   4.314   0.435  1.00  0.00    -0.393 OA
ATOM     22  H   UNL     1      -7.157   4.146   0.641  1.00  0.00     0.210 HD
ENDBRANCH  18  21
ENDBRANCH  15  16
ENDBRANCH  14  15
ENDBRANCH   6   8
ENDBRANCH   3   6
ENDBRANCH   1   2
BRANCH   1  23
ATOM     23  C   UNL     1       4.395   0.426  -1.237  1.00  0.00     0.042 C 
BRANCH  23  24
ATOM     24  C   UNL     1       5.143   0.170  -2.542  1.00  0.00     0.118 C 
BRANCH  24  25
ATOM     25  N   UNL     1       6.105   1.217  -2.849  1.00  0.00    -0.352 N 
ATOM     26  C   UNL     1       7.453   1.129  -3.089  1.00  0.00     0.251 C 
ATOM     27  H   UNL     1       5.732   2.127  -2.891  1.00  0.00     0.163 HD
ATOM     28  O   UNL     1       8.126   2.154  -3.151  1.00  0.00    -0.269 OA
BRANCH  26  29
ATOM     29  C   UNL     1       8.107  -0.188  -3.252  1.00  0.00     0.039 A 
ATOM     30  C   UNL     1       9.349  -0.397  -2.646  1.00  0.00     0.014 A 
ATOM     31  C   UNL     1       7.527  -1.200  -4.023  1.00  0.00     0.014 A 
ATOM     32  C   UNL     1       9.981  -1.637  -2.763  1.00  0.00     0.010 A 
ATOM     33  C   UNL     1       8.126  -2.457  -4.084  1.00  0.00     0.010 A 
ATOM     34  C   UNL     1       9.359  -2.688  -3.456  1.00  0.00    -0.014 A 
BRANCH  34  35
ATOM     35  C   UNL     1       9.983  -4.034  -3.530  1.00  0.00     0.031 A 
ATOM     36  C   UNL     1      10.437  -4.588  -4.852  1.00  0.00     0.074 A 
ATOM     37  C   UNL     1      10.083  -4.782  -2.415  1.00  0.00     0.049 A 
ATOM     38  N   UNL     1      10.932  -5.768  -5.129  1.00  0.00    -0.248 NA
ATOM     39  C   UNL     1      10.293  -3.708  -6.022  1.00  0.00     0.031 C 
ATOM     40  C   UNL     1       9.639  -4.374  -1.081  1.00  0.00     0.029 A 
ATOM     41  N   UNL     1      10.576  -6.049  -2.227  1.00  0.00    -0.354 N 
ATOM     42  C   UNL     1      11.142  -5.778  -6.502  1.00  0.00     0.074 A 
ATOM     43  C   UNL     1      10.681  -4.503  -7.009  1.00  0.00     0.031 C 
ATOM     44  C   UNL     1       9.895  -5.364  -0.211  1.00  0.00     0.029 A 
ATOM     45  C   UNL     1      10.486  -6.489  -0.929  1.00  0.00     0.049 A 
ATOM     46  H   UNL     1      10.959  -6.592  -2.954  1.00  0.00     0.167 HD
ATOM     47  C   UNL     1      11.688  -6.754  -7.266  1.00  0.00     0.037 A 
ATOM     48  C   UNL     1      10.830  -7.670  -0.382  1.00  0.00     0.037 A 
ATOM     49  C   UNL     1      12.174  -8.009  -6.755  1.00  0.00     0.049 A 
ATOM     50  C   UNL     1      11.436  -8.736  -1.254  1.00  0.00     0.074 A 
ATOM     51  C   UNL     1      12.800  -9.036  -7.440  1.00  0.00     0.029 A 
ATOM     52  N   UNL     1      12.087  -8.408  -5.429  1.00  0.00    -0.354 N 
ATOM     53  N   UNL     1      11.690  -8.708  -2.540  1.00  0.00    -0.248 NA
ATOM     54  C   UNL     1      11.810  -9.996  -0.597  1.00  0.00     0.031 C 
ATOM     55  C   UNL     1      13.055 -10.073  -6.537  1.00  0.00     0.029 A 
ATOM     56  C   UNL     1      12.631  -9.674  -5.280  1.00  0.00     0.049 A 
ATOM     57  H   UNL     1      11.696  -7.872  -4.702  1.00  0.00     0.167 HD
ATOM     58  C   UNL     1      12.277  -9.929  -2.840  1.00  0.00     0.074 A 
ATOM     59  C   UNL     1      12.355 -10.671  -1.599  1.00  0.00     0.031 C 
ATOM     60  C   UNL     1      12.713 -10.394  -4.036  1.00  0.00     0.037 A 
BRANCH  47  61
ATOM     61  C   UNL     1      11.798  -6.504  -8.741  1.00  0.00     0.064 A 
ATOM     62  C   UNL     1      12.719  -5.583  -9.264  1.00  0.00     0.173 A 
ATOM     63  C   UNL     1      11.010  -7.230  -9.647  1.00  0.00     0.173 A 
ATOM     64  F   UNL     1      13.488  -4.857  -8.439  1.00  0.00    -0.203 F 
ATOM     65  C   UNL     1      12.830  -5.382 -10.637  1.00  0.00     0.198 A 
ATOM     66  C   UNL     1      11.144  -7.047 -11.021  1.00  0.00     0.198 A 
ATOM     67  F   UNL     1      10.119  -8.128  -9.201  1.00  0.00    -0.203 F 
ATOM     68  F   UNL     1      13.688  -4.468 -11.111  1.00  0.00    -0.200 F 
ATOM     69  C   UNL     1      12.049  -6.119 -11.514  1.00  0.00     0.200 A 
ATOM     70  F   UNL     1      10.398  -7.769 -11.868  1.00  0.00    -0.200 F 
ATOM     71  F   UNL     1      12.166  -5.932 -12.836  1.00  0.00    -0.200 F 
ENDBRANCH  47  61
BRANCH  48  72
ATOM     72  C   UNL     1      10.630  -7.902   1.071  1.00  0.00     0.064 A 
ATOM     73  C   UNL     1      11.725  -7.998   1.941  1.00  0.00     0.173 A 
ATOM     74  C   UNL     1       9.347  -8.042   1.619  1.00  0.00     0.173 A 
ATOM     75  F   UNL     1      12.973  -7.891   1.460  1.00  0.00    -0.203 F 
ATOM     76  C   UNL     1      11.546  -8.247   3.300  1.00  0.00     0.198 A 
ATOM     77  C   UNL     1       9.168  -8.264   2.983  1.00  0.00     0.198 A 
ATOM     78  F   UNL     1       8.266  -7.954   0.830  1.00  0.00    -0.203 F 
ATOM     79  F   UNL     1      12.612  -8.381   4.101  1.00  0.00    -0.200 F 
ATOM     80  C   UNL     1      10.267  -8.375   3.821  1.00  0.00     0.200 A 
ATOM     81  F   UNL     1       7.930  -8.373   3.485  1.00  0.00    -0.200 F 
ATOM     82  F   UNL     1      10.095  -8.613   5.128  1.00  0.00    -0.200 F 
ENDBRANCH  48  72
BRANCH  60  83
ATOM     83  C   UNL     1      13.348 -11.753  -4.055  1.00  0.00     0.064 A 
ATOM     84  C   UNL     1      12.589 -12.922  -3.908  1.00  0.00     0.173 A 
ATOM     85  C   UNL     1      14.729 -11.886  -4.264  1.00  0.00     0.173 A 
ATOM     86  F   UNL     1      11.267 -12.846  -3.690  1.00  0.00    -0.203 F 
ATOM     87  C   UNL     1      13.194 -14.176  -3.945  1.00  0.00     0.198 A 
ATOM     88  C   UNL     1      15.326 -13.142  -4.328  1.00  0.00     0.198 A 
ATOM     89  F   UNL     1      15.498 -10.798  -4.416  1.00  0.00    -0.203 F 
ATOM     90  F   UNL     1      12.456 -15.279  -3.756  1.00  0.00    -0.200 F 
ATOM     91  C   UNL     1      14.559 -14.285  -4.162  1.00  0.00     0.200 A 
ATOM     92  F   UNL     1      16.644 -13.246  -4.550  1.00  0.00    -0.200 F 
ATOM     93  F   UNL     1      15.138 -15.493  -4.204  1.00  0.00    -0.200 F 
ENDBRANCH  60  83
ENDBRANCH  34  35
ENDBRANCH  26  29
ENDBRANCH  24  25
ENDBRANCH  23  24
ENDBRANCH   1  23
TORSDOF 14
