REMARK SMILES CC1(C)[C@@]2(C(=O)NCCCNC(=O)c3ccc(-c4c5nc(c(-c6c(F)c(F)c(F)c(F)c6F)c6ccc([nH]6)c(-c6c(F)c(F)c(F)c(F)c6F)c6nc(c(-c7c(F)c(F)c(F)c(F)c7F)c7ccc4[nH]7)C=C6)C=C5)cc3)CC[C@]1(C)/C(=N/NC(=O)c1ccc(Cl)cc1)C2
REMARK SMILES IDX 9 1 8 2 7 3 5 4 6 5 4 7 1 8 2 9 3 10 79 11 77 12 93 13 78 14
REMARK SMILES IDX 80 15 81 16 82 17 83 18 84 19 85 21 86 22 87 23 92 24 88 25
REMARK SMILES IDX 91 26 89 27 90 28 10 29 11 30 12 31 13 33 14 34 15 35 76 36
REMARK SMILES IDX 16 37 75 38 17 39 18 40 19 41 69 42 20 43 74 44 68 45 70 46
REMARK SMILES IDX 21 47 73 48 67 49 66 50 22 52 54 53 34 54 53 55 35 56 38 57
REMARK SMILES IDX 52 58 71 59 36 60 37 61 51 63 72 64 39 65 23 66 24 67 32 68
REMARK SMILES IDX 25 69 26 70 30 71 33 72 27 73 28 74 31 75 29 76 55 77 56 78
REMARK SMILES IDX 64 79 57 80 58 81 62 82 65 83 59 84 60 85 63 86 61 87 40 88
REMARK SMILES IDX 41 89 49 90 42 91 43 92 47 93 50 94 44 95 45 96 48 97 46 98
REMARK H PARENT 7 6 83 20 11 32 70 51 38 62
REMARK Flexibility Score: inf
ROOT
ATOM      1  C   UNL     1      -1.591   3.372  -4.645  1.00  0.00     0.042 C 
ENDROOT
BRANCH   1   2
ATOM      2  C   UNL     1      -0.965   3.129  -3.262  1.00  0.00     0.117 C 
BRANCH   2   3
ATOM      3  N   UNL     1      -1.594   2.102  -2.445  1.00  0.00    -0.356 N 
ATOM      4  C   UNL     1      -1.036   1.225  -1.556  1.00  0.00     0.227 C 
ATOM      5  O   UNL     1      -1.657   1.070  -0.502  1.00  0.00    -0.274 OA
ATOM      6  H   UNL     1      -2.571   2.026  -2.548  1.00  0.00     0.163 HD
BRANCH   4   7
ATOM      7  C   UNL     1       0.158   0.330  -1.910  1.00  0.00     0.060 C 
ATOM      8  C   UNL     1       1.437   0.357   0.363  1.00  0.00     0.013 C 
ATOM      9  C   UNL     1       0.762  -0.519  -0.726  1.00  0.00    -0.010 C 
ATOM     10  C   UNL     1      -0.167  -1.521  -0.008  1.00  0.00     0.013 C 
ATOM     11  C   UNL     1       1.769  -1.241  -1.676  1.00  0.00     0.014 C 
ATOM     12  C   UNL     1       1.430   0.998  -2.506  1.00  0.00     0.019 C 
ATOM     13  C   UNL     1      -0.300  -0.750  -2.925  1.00  0.00     0.071 C 
ATOM     14  C   UNL     1       2.533  -0.070  -2.330  1.00  0.00     0.014 C 
ATOM     15  C   UNL     1       2.655  -2.317  -1.080  1.00  0.00     0.018 C 
ATOM     16  C   UNL     1       0.835  -1.717  -2.817  1.00  0.00     0.046 C 
ATOM     17  N   UNL     1       1.195  -2.720  -3.543  1.00  0.00    -0.181 NA
BRANCH  17  18
ATOM     18  N   UNL     1       0.684  -3.293  -4.657  1.00  0.00    -0.243 N 
ATOM     19  C   UNL     1      -0.414  -3.227  -5.477  1.00  0.00     0.271 C 
ATOM     20  H   UNL     1       1.304  -3.983  -4.989  1.00  0.00     0.194 HD
ATOM     21  O   UNL     1      -0.473  -3.960  -6.469  1.00  0.00    -0.267 OA
BRANCH  19  22
ATOM     22  C   UNL     1      -1.567  -2.366  -5.256  1.00  0.00     0.041 A 
ATOM     23  C   UNL     1      -2.726  -2.913  -4.696  1.00  0.00     0.015 A 
ATOM     24  C   UNL     1      -1.566  -1.062  -5.754  1.00  0.00     0.015 A 
ATOM     25  C   UNL     1      -3.837  -2.098  -4.484  1.00  0.00     0.021 A 
ATOM     26  C   UNL     1      -2.670  -0.244  -5.513  1.00  0.00     0.021 A 
ATOM     27  C   UNL     1      -3.785  -0.754  -4.846  1.00  0.00     0.041 A 
ATOM     28  Cl  UNL     1      -5.096   0.280  -4.442  1.00  0.00    -0.084 Cl
ENDBRANCH  19  22
ENDBRANCH  17  18
ENDBRANCH   4   7
ENDBRANCH   2   3
ENDBRANCH   1   2
BRANCH   1  29
ATOM     29  C   UNL     1      -3.124   3.507  -4.704  1.00  0.00     0.118 C 
BRANCH  29  30
ATOM     30  N   UNL     1      -3.546   4.804  -5.214  1.00  0.00    -0.352 N 
ATOM     31  C   UNL     1      -4.353   5.156  -6.266  1.00  0.00     0.251 C 
ATOM     32  H   UNL     1      -3.184   5.570  -4.712  1.00  0.00     0.163 HD
ATOM     33  O   UNL     1      -4.418   6.354  -6.569  1.00  0.00    -0.269 OA
BRANCH  31  34
ATOM     34  C   UNL     1      -5.157   4.189  -7.061  1.00  0.00     0.039 A 
ATOM     35  C   UNL     1      -5.290   4.423  -8.438  1.00  0.00     0.014 A 
ATOM     36  C   UNL     1      -5.914   3.170  -6.479  1.00  0.00     0.014 A 
ATOM     37  C   UNL     1      -6.158   3.649  -9.222  1.00  0.00     0.010 A 
ATOM     38  C   UNL     1      -6.762   2.372  -7.270  1.00  0.00     0.010 A 
ATOM     39  C   UNL     1      -6.909   2.614  -8.647  1.00  0.00    -0.014 A 
BRANCH  39  40
ATOM     40  C   UNL     1      -7.876   1.828  -9.471  1.00  0.00     0.031 A 
ATOM     41  C   UNL     1      -9.363   2.025  -9.310  1.00  0.00     0.074 A 
ATOM     42  C   UNL     1      -7.435   0.933 -10.377  1.00  0.00     0.049 A 
ATOM     43  N   UNL     1     -10.354   1.408  -9.909  1.00  0.00    -0.248 NA
ATOM     44  C   UNL     1      -9.790   3.049  -8.347  1.00  0.00     0.031 C 
ATOM     45  C   UNL     1      -6.032   0.644 -10.661  1.00  0.00     0.029 A 
ATOM     46  N   UNL     1      -8.127   0.098 -11.224  1.00  0.00    -0.354 N 
ATOM     47  C   UNL     1     -11.519   1.960  -9.388  1.00  0.00     0.074 A 
ATOM     48  C   UNL     1     -11.110   2.943  -8.406  1.00  0.00     0.031 C 
ATOM     49  C   UNL     1      -5.964  -0.297 -11.617  1.00  0.00     0.029 A 
ATOM     50  C   UNL     1      -7.317  -0.702 -11.993  1.00  0.00     0.049 A 
ATOM     51  H   UNL     1      -9.110   0.077 -11.275  1.00  0.00     0.167 HD
ATOM     52  C   UNL     1     -12.809   1.684  -9.704  1.00  0.00     0.037 A 
ATOM     53  C   UNL     1      -7.625  -1.662 -12.889  1.00  0.00     0.037 A 
ATOM     54  C   UNL     1     -13.232   0.722 -10.691  1.00  0.00     0.049 A 
ATOM     55  C   UNL     1      -9.064  -1.983 -13.189  1.00  0.00     0.074 A 
ATOM     56  C   UNL     1     -14.520   0.404 -11.090  1.00  0.00     0.029 A 
ATOM     57  N   UNL     1     -12.378  -0.078 -11.433  1.00  0.00    -0.354 N 
ATOM     58  N   UNL     1     -10.152  -1.434 -12.709  1.00  0.00    -0.248 NA
ATOM     59  C   UNL     1      -9.317  -3.060 -14.160  1.00  0.00     0.031 C 
ATOM     60  C   UNL     1     -14.447  -0.615 -12.046  1.00  0.00     0.029 A 
ATOM     61  C   UNL     1     -13.112  -0.902 -12.273  1.00  0.00     0.049 A 
ATOM     62  H   UNL     1     -11.395  -0.064 -11.373  1.00  0.00     0.167 HD
ATOM     63  C   UNL     1     -11.213  -2.073 -13.339  1.00  0.00     0.074 A 
ATOM     64  C   UNL     1     -10.641  -3.050 -14.240  1.00  0.00     0.031 C 
ATOM     65  C   UNL     1     -12.542  -1.862 -13.182  1.00  0.00     0.037 A 
BRANCH  52  66
ATOM     66  C   UNL     1     -13.878   2.431  -8.960  1.00  0.00     0.064 A 
ATOM     67  C   UNL     1     -14.145   3.783  -9.220  1.00  0.00     0.173 A 
ATOM     68  C   UNL     1     -14.676   1.773  -8.012  1.00  0.00     0.173 A 
ATOM     69  F   UNL     1     -13.407   4.457 -10.114  1.00  0.00    -0.203 F 
ATOM     70  C   UNL     1     -15.155   4.456  -8.537  1.00  0.00     0.198 A 
ATOM     71  C   UNL     1     -15.702   2.443  -7.350  1.00  0.00     0.198 A 
ATOM     72  F   UNL     1     -14.470   0.476  -7.737  1.00  0.00    -0.203 F 
ATOM     73  F   UNL     1     -15.368   5.758  -8.773  1.00  0.00    -0.200 F 
ATOM     74  C   UNL     1     -15.936   3.785  -7.608  1.00  0.00     0.200 A 
ATOM     75  F   UNL     1     -16.465   1.789  -6.463  1.00  0.00    -0.200 F 
ATOM     76  F   UNL     1     -16.911   4.434  -6.956  1.00  0.00    -0.200 F 
ENDBRANCH  52  66
BRANCH  53  77
ATOM     77  C   UNL     1      -6.535  -2.394 -13.584  1.00  0.00     0.064 A 
ATOM     78  C   UNL     1      -6.280  -2.180 -14.945  1.00  0.00     0.173 A 
ATOM     79  C   UNL     1      -5.738  -3.328 -12.907  1.00  0.00     0.173 A 
ATOM     80  F   UNL     1      -7.037  -1.319 -15.641  1.00  0.00    -0.203 F 
ATOM     81  C   UNL     1      -5.272  -2.879 -15.606  1.00  0.00     0.198 A 
ATOM     82  C   UNL     1      -4.715  -4.008 -13.563  1.00  0.00     0.198 A 
ATOM     83  F   UNL     1      -5.949  -3.571 -11.605  1.00  0.00    -0.203 F 
ATOM     84  F   UNL     1      -5.073  -2.684 -16.917  1.00  0.00    -0.200 F 
ATOM     85  C   UNL     1      -4.486  -3.787 -14.913  1.00  0.00     0.200 A 
ATOM     86  F   UNL     1      -3.954  -4.881 -12.889  1.00  0.00    -0.200 F 
ATOM     87  F   UNL     1      -3.514  -4.457 -15.548  1.00  0.00    -0.200 F 
ENDBRANCH  53  77
BRANCH  65  88
ATOM     88  C   UNL     1     -13.480  -2.667 -14.033  1.00  0.00     0.064 A 
ATOM     89  C   UNL     1     -13.737  -4.020 -13.769  1.00  0.00     0.173 A 
ATOM     90  C   UNL     1     -14.170  -2.062 -15.095  1.00  0.00     0.173 A 
ATOM     91  F   UNL     1     -13.091  -4.647 -12.774  1.00  0.00    -0.203 F 
ATOM     92  C   UNL     1     -14.639  -4.742 -14.547  1.00  0.00     0.198 A 
ATOM     93  C   UNL     1     -15.088  -2.781 -15.857  1.00  0.00     0.198 A 
ATOM     94  F   UNL     1     -13.963  -0.769 -15.387  1.00  0.00    -0.203 F 
ATOM     95  F   UNL     1     -14.845  -6.043 -14.297  1.00  0.00    -0.200 F 
ATOM     96  C   UNL     1     -15.319  -4.121 -15.584  1.00  0.00     0.200 A 
ATOM     97  F   UNL     1     -15.750  -2.178 -16.853  1.00  0.00    -0.200 F 
ATOM     98  F   UNL     1     -16.193  -4.816 -16.326  1.00  0.00    -0.200 F 
ENDBRANCH  65  88
ENDBRANCH  39  40
ENDBRANCH  31  34
ENDBRANCH  29  30
ENDBRANCH   1  29
TORSDOF 12
