REMARK SMILES [NH3+][C@H]1CCCCC[C@H]1C(=O)NCCC(=O)NCCCNC(=O)c1ccc(-c2c3nc(c(-c4c(F)c(F)c(F)c(F)c4F)c4ccc([nH]4)c(-c4c(F)c(F)c(F)c(F)c4F)c4nc(c(-c5c(F)c(F)c(F)c(F)c5F)c5ccc2[nH]5)C=C4)C=C3)cc1
REMARK SMILES IDX 14 1 15 2 16 3 13 5 12 6 11 7 9 8 10 9 8 11 2 12 1 13 3 17
REMARK SMILES IDX 4 18 7 20 6 21 5 22 17 24 18 25 19 26 20 27 21 28 22 30
REMARK SMILES IDX 23 31 24 32 85 33 25 34 84 35 26 36 27 37 28 38 78 39 29 40
REMARK SMILES IDX 83 41 77 42 79 43 30 44 82 45 76 46 75 47 31 49 63 50 43 51
REMARK SMILES IDX 62 52 44 53 47 54 61 55 80 56 45 57 46 58 60 60 81 61 48 62
REMARK SMILES IDX 32 63 33 64 41 65 34 66 35 67 39 68 42 69 36 70 37 71 40 72
REMARK SMILES IDX 38 73 64 74 65 75 73 76 66 77 67 78 71 79 74 80 68 81 69 82
REMARK SMILES IDX 72 83 70 84 49 85 50 86 58 87 51 88 52 89 56 90 59 91 53 92
REMARK SMILES IDX 54 93 57 94 55 95
REMARK H PARENT 16 4 11 10 1 14 1 15 1 16 20 29 79 48 47 59
REMARK Flexibility Score: 90.00
ROOT
ATOM      1  C   UNL     1      -1.128   0.551   4.896  1.00  0.00     0.221 C 
ATOM      2  O   UNL     1      -1.478   0.279   6.045  1.00  0.00    -0.275 OA
ATOM      3  N   UNL     1      -1.518   1.744   4.366  1.00  0.00    -0.356 N 
ATOM      4  H   UNL     1      -1.998   2.332   4.994  1.00  0.00     0.163 HD
ENDROOT
BRANCH   1   5
ATOM      5  C   UNL     1      -0.283  -0.410   4.096  1.00  0.00     0.121 C 
BRANCH   5   6
ATOM      6  C   UNL     1      -1.113  -1.457   3.355  1.00  0.00     0.125 C 
BRANCH   6   7
ATOM      7  N   UNL     1      -1.828  -0.889   2.225  1.00  0.00    -0.355 N 
ATOM      8  C   UNL     1      -1.636  -0.899   0.880  1.00  0.00     0.229 C 
ATOM      9  O   UNL     1      -2.233  -0.037   0.227  1.00  0.00    -0.275 OA
ATOM     10  H   UNL     1      -2.629  -0.384   2.494  1.00  0.00     0.163 HD
BRANCH   8  11
ATOM     11  C   UNL     1      -0.806  -1.964   0.167  1.00  0.00     0.136 C 
BRANCH  11  12
ATOM     12  C   UNL     1       0.720  -1.697   0.085  1.00  0.00     0.193 C 
BRANCH  12  13
ATOM     13  N   UNL     1       1.383  -1.177   1.278  1.00  0.00    -0.354 N 
ATOM     14  H   UNL     1       2.376  -1.048   1.087  1.00  0.00     0.344 HD
ATOM     15  H   UNL     1       1.267  -1.837   2.047  1.00  0.00     0.344 HD
ATOM     16  H   UNL     1       0.968  -0.281   1.534  1.00  0.00     0.344 HD
ENDBRANCH  12  13
BRANCH  12  17
ATOM     17  C   UNL     1       1.564  -2.881  -0.432  1.00  0.00     0.066 C 
BRANCH  17  18
ATOM     18  C   UNL     1       1.476  -4.155   0.410  1.00  0.00     0.006 CG0
ATOM     19  G   UNL     1       0.382  -5.113  -0.052  1.00  0.00     0.000 G0
ENDBRANCH  17  18
ENDBRANCH  12  17
ENDBRANCH  11  12
BRANCH  11  20
ATOM     20  C   UNL     1      -1.345  -3.353   0.551  1.00  0.00     0.020 C 
BRANCH  20  21
ATOM     21  C   UNL     1      -0.938  -4.451  -0.426  1.00  0.00     0.001 C 
BRANCH  21  22
ATOM     22  C   UNL     1       0.382  -5.113  -0.052  1.00  0.00     0.000 CG0
ATOM     23  G   UNL     1       1.476  -4.155   0.410  1.00  0.00     0.000 G0
ENDBRANCH  21  22
ENDBRANCH  20  21
ENDBRANCH  11  20
ENDBRANCH   8  11
ENDBRANCH   6   7
ENDBRANCH   5   6
ENDBRANCH   1   5
BRANCH   3  24
ATOM     24  C   UNL     1      -1.348   2.300   3.028  1.00  0.00     0.117 C 
BRANCH  24  25
ATOM     25  C   UNL     1      -2.680   2.421   2.292  1.00  0.00     0.042 C 
BRANCH  25  26
ATOM     26  C   UNL     1      -3.650   3.416   2.906  1.00  0.00     0.118 C 
BRANCH  26  27
ATOM     27  N   UNL     1      -3.420   4.772   2.445  1.00  0.00    -0.352 N 
ATOM     28  C   UNL     1      -4.210   5.572   1.658  1.00  0.00     0.251 C 
ATOM     29  H   UNL     1      -2.572   5.178   2.739  1.00  0.00     0.163 HD
ATOM     30  O   UNL     1      -3.747   6.620   1.206  1.00  0.00    -0.269 OA
BRANCH  28  31
ATOM     31  C   UNL     1      -5.605   5.190   1.331  1.00  0.00     0.039 A 
ATOM     32  C   UNL     1      -6.094   5.462   0.048  1.00  0.00     0.014 A 
ATOM     33  C   UNL     1      -6.452   4.614   2.281  1.00  0.00     0.014 A 
ATOM     34  C   UNL     1      -7.407   5.120  -0.289  1.00  0.00     0.010 A 
ATOM     35  C   UNL     1      -7.726   4.184   1.917  1.00  0.00     0.010 A 
ATOM     36  C   UNL     1      -8.228   4.455   0.636  1.00  0.00    -0.014 A 
BRANCH  36  37
ATOM     37  C   UNL     1      -9.628   4.083   0.302  1.00  0.00     0.031 A 
ATOM     38  C   UNL     1     -10.772   4.691   1.070  1.00  0.00     0.074 A 
ATOM     39  C   UNL     1      -9.876   3.166  -0.652  1.00  0.00     0.049 A 
ATOM     40  N   UNL     1     -12.057   4.454   0.975  1.00  0.00    -0.248 NA
ATOM     41  C   UNL     1     -10.421   5.674   2.106  1.00  0.00     0.031 C 
ATOM     42  C   UNL     1      -8.859   2.473  -1.443  1.00  0.00     0.029 A 
ATOM     43  N   UNL     1     -11.063   2.657  -1.115  1.00  0.00    -0.354 N 
ATOM     44  C   UNL     1     -12.659   5.235   1.953  1.00  0.00     0.074 A 
ATOM     45  C   UNL     1     -11.597   5.909   2.668  1.00  0.00     0.031 C 
ATOM     46  C   UNL     1      -9.466   1.659  -2.321  1.00  0.00     0.029 A 
ATOM     47  C   UNL     1     -10.912   1.743  -2.129  1.00  0.00     0.049 A 
ATOM     48  H   UNL     1     -11.941   2.922  -0.756  1.00  0.00     0.167 HD
ATOM     49  C   UNL     1     -13.978   5.399   2.217  1.00  0.00     0.037 A 
ATOM     50  C   UNL     1     -11.835   1.054  -2.826  1.00  0.00     0.037 A 
ATOM     51  C   UNL     1     -15.036   4.760   1.481  1.00  0.00     0.049 A 
ATOM     52  C   UNL     1     -13.293   1.247  -2.514  1.00  0.00     0.074 A 
ATOM     53  C   UNL     1     -16.404   4.917   1.620  1.00  0.00     0.029 A 
ATOM     54  N   UNL     1     -14.841   3.839   0.462  1.00  0.00    -0.354 N 
ATOM     55  N   UNL     1     -13.853   2.034  -1.629  1.00  0.00    -0.248 NA
ATOM     56  C   UNL     1     -14.247   0.453  -3.301  1.00  0.00     0.031 C 
ATOM     57  C   UNL     1     -17.037   4.058   0.714  1.00  0.00     0.029 A 
ATOM     58  C   UNL     1     -16.064   3.400  -0.020  1.00  0.00     0.049 A 
ATOM     59  H   UNL     1     -13.963   3.541   0.130  1.00  0.00     0.167 HD
ATOM     60  C   UNL     1     -15.223   1.854  -1.770  1.00  0.00     0.074 A 
ATOM     61  C   UNL     1     -15.409   0.887  -2.832  1.00  0.00     0.031 C 
ATOM     62  C   UNL     1     -16.233   2.439  -1.081  1.00  0.00     0.037 A 
BRANCH  49  63
ATOM     63  C   UNL     1     -14.342   6.308   3.357  1.00  0.00     0.064 A 
ATOM     64  C   UNL     1     -14.135   7.695   3.290  1.00  0.00     0.173 A 
ATOM     65  C   UNL     1     -14.899   5.785   4.533  1.00  0.00     0.173 A 
ATOM     66  F   UNL     1     -13.593   8.244   2.193  1.00  0.00    -0.203 F 
ATOM     67  C   UNL     1     -14.428   8.517   4.375  1.00  0.00     0.198 A 
ATOM     68  C   UNL     1     -15.223   6.615   5.604  1.00  0.00     0.198 A 
ATOM     69  F   UNL     1     -15.126   4.468   4.648  1.00  0.00    -0.203 F 
ATOM     70  F   UNL     1     -14.157   9.828   4.312  1.00  0.00    -0.200 F 
ATOM     71  C   UNL     1     -14.975   7.977   5.529  1.00  0.00     0.200 A 
ATOM     72  F   UNL     1     -15.763   6.094   6.714  1.00  0.00    -0.200 F 
ATOM     73  F   UNL     1     -15.252   8.769   6.574  1.00  0.00    -0.200 F 
ENDBRANCH  49  63
BRANCH  50  74
ATOM     74  C   UNL     1     -11.403   0.155  -3.926  1.00  0.00     0.064 A 
ATOM     75  C   UNL     1     -11.622   0.513  -5.264  1.00  0.00     0.173 A 
ATOM     76  C   UNL     1     -10.748  -1.058  -3.672  1.00  0.00     0.173 A 
ATOM     77  F   UNL     1     -12.265   1.654  -5.554  1.00  0.00    -0.203 F 
ATOM     78  C   UNL     1     -11.208  -0.312  -6.306  1.00  0.00     0.198 A 
ATOM     79  C   UNL     1     -10.314  -1.872  -4.716  1.00  0.00     0.198 A 
ATOM     80  F   UNL     1     -10.515  -1.444  -2.409  1.00  0.00    -0.203 F 
ATOM     81  F   UNL     1     -11.456   0.040  -7.575  1.00  0.00    -0.200 F 
ATOM     82  C   UNL     1     -10.547  -1.500  -6.032  1.00  0.00     0.200 A 
ATOM     83  F   UNL     1      -9.667  -3.014  -4.449  1.00  0.00    -0.200 F 
ATOM     84  F   UNL     1     -10.140  -2.289  -7.036  1.00  0.00    -0.200 F 
ENDBRANCH  50  74
BRANCH  62  85
ATOM     85  C   UNL     1     -17.634   2.076  -1.477  1.00  0.00     0.064 A 
ATOM     86  C   UNL     1     -18.187   0.826  -1.161  1.00  0.00     0.173 A 
ATOM     87  C   UNL     1     -18.447   3.004  -2.146  1.00  0.00     0.173 A 
ATOM     88  F   UNL     1     -17.445  -0.101  -0.536  1.00  0.00    -0.203 F 
ATOM     89  C   UNL     1     -19.495   0.512  -1.519  1.00  0.00     0.198 A 
ATOM     90  C   UNL     1     -19.762   2.696  -2.478  1.00  0.00     0.198 A 
ATOM     91  F   UNL     1     -17.967   4.215  -2.466  1.00  0.00    -0.203 F 
ATOM     92  F   UNL     1     -19.989  -0.704  -1.245  1.00  0.00    -0.200 F 
ATOM     93  C   UNL     1     -20.284   1.449  -2.170  1.00  0.00     0.200 A 
ATOM     94  F   UNL     1     -20.527   3.607  -3.097  1.00  0.00    -0.200 F 
ATOM     95  F   UNL     1     -21.545   1.146  -2.508  1.00  0.00    -0.200 F 
ENDBRANCH  62  85
ENDBRANCH  36  37
ENDBRANCH  28  31
ENDBRANCH  26  27
ENDBRANCH  25  26
ENDBRANCH  24  25
ENDBRANCH   3  24
TORSDOF 14
