REMARK SMILES CCOC(=O)c1cc(C[NH2+]CC(=O)NCCCNC(=O)c2ccc(-c3c4nc(c(-c5c(F)c(F)c(F)c(F)c5F)c5ccc([nH]5)c(-c5c(F)c(F)c(F)c(F)c5F)c5nc(c(-c6c(F)c(F)c(F)c(F)c6F)c6ccc3[nH]6)C=C5)C=C4)cc2)c(C)o1
REMARK SMILES IDX 12 1 13 2 14 3 11 5 10 6 9 9 8 10 6 11 7 12 86 13 84 14
REMARK SMILES IDX 85 15 4 16 5 17 3 18 2 19 1 20 15 21 16 22 17 23 18 24 19 25
REMARK SMILES IDX 20 27 21 28 22 29 83 30 23 31 82 32 24 33 25 34 26 35 76 36
REMARK SMILES IDX 27 37 81 38 75 39 77 40 28 41 80 42 74 43 73 44 29 46 61 47
REMARK SMILES IDX 41 48 60 49 42 50 45 51 59 52 78 53 43 54 44 55 58 57 79 58
REMARK SMILES IDX 46 59 30 60 31 61 39 62 32 63 33 64 37 65 40 66 34 67 35 68
REMARK SMILES IDX 38 69 36 70 62 71 63 72 71 73 64 74 65 75 69 76 72 77 66 78
REMARK SMILES IDX 67 79 70 80 68 81 47 82 48 83 56 84 49 85 50 86 54 87 57 88
REMARK SMILES IDX 51 89 52 90 55 91 53 92
REMARK H PARENT 14 4 10 7 10 8 18 26 77 45 45 56
REMARK Flexibility Score: inf
ROOT
ATOM      1  C   UNL     1       4.271   1.131  -5.004  1.00  0.00     0.275 C 
ATOM      2  O   UNL     1       3.718   2.049  -5.618  1.00  0.00    -0.269 OA
ATOM      3  N   UNL     1       3.594  -0.055  -4.903  1.00  0.00    -0.351 N 
ATOM      4  H   UNL     1       2.738  -0.072  -5.389  1.00  0.00     0.163 HD
ENDROOT
BRANCH   1   5
ATOM      5  C   UNL     1       5.635   1.349  -4.322  1.00  0.00     0.362 C 
BRANCH   5   6
ATOM      6  N   UNL     1       5.516   2.050  -3.015  1.00  0.00    -0.335 N 
ATOM      7  H   UNL     1       6.443   2.197  -2.617  1.00  0.00     0.347 HD
ATOM      8  H   UNL     1       5.066   2.957  -3.143  1.00  0.00     0.347 HD
BRANCH   6   9
ATOM      9  C   UNL     1       4.727   1.226  -2.124  1.00  0.00     0.301 C 
BRANCH   9  10
ATOM     10  C   UNL     1       4.579   1.732  -0.741  1.00  0.00     0.048 A 
ATOM     11  C   UNL     1       3.495   1.895   1.217  1.00  0.00     0.212 A 
ATOM     12  C   UNL     1       3.322   2.029  -0.147  1.00  0.00     0.068 A 
ATOM     13  O   UNL     1       4.832   1.826   1.494  1.00  0.00    -0.454 OA
ATOM     14  C   UNL     1       5.490   1.733   0.298  1.00  0.00     0.110 A 
ATOM     15  C   UNL     1       6.947   1.500   0.381  1.00  0.00     0.088 C 
BRANCH  11  16
ATOM     16  C   UNL     1       2.522   1.616   2.250  1.00  0.00     0.374 C 
ATOM     17  O   UNL     1       2.746   1.254   3.397  1.00  0.00    -0.242 OA
BRANCH  16  18
ATOM     18  O   UNL     1       1.282   1.606   1.673  1.00  0.00    -0.460 OA
BRANCH  18  19
ATOM     19  C   UNL     1       0.543   0.393   1.860  1.00  0.00     0.230 C 
ATOM     20  C   UNL     1       0.567  -0.351   0.532  1.00  0.00     0.049 C 
ENDBRANCH  18  19
ENDBRANCH  16  18
ENDBRANCH  11  16
ENDBRANCH   9  10
ENDBRANCH   6   9
ENDBRANCH   5   6
ENDBRANCH   1   5
BRANCH   3  21
ATOM     21  C   UNL     1       3.910  -1.299  -4.208  1.00  0.00     0.118 C 
BRANCH  21  22
ATOM     22  C   UNL     1       2.978  -1.581  -3.019  1.00  0.00     0.042 C 
BRANCH  22  23
ATOM     23  C   UNL     1       1.528  -1.881  -3.390  1.00  0.00     0.118 C 
BRANCH  23  24
ATOM     24  N   UNL     1       1.321  -3.291  -3.670  1.00  0.00    -0.352 N 
ATOM     25  C   UNL     1       0.609  -4.243  -2.981  1.00  0.00     0.251 C 
ATOM     26  H   UNL     1       1.765  -3.619  -4.486  1.00  0.00     0.163 HD
ATOM     27  O   UNL     1       0.772  -5.427  -3.268  1.00  0.00    -0.269 OA
BRANCH  25  28
ATOM     28  C   UNL     1      -0.344  -3.888  -1.897  1.00  0.00     0.039 A 
ATOM     29  C   UNL     1      -0.449  -4.748  -0.796  1.00  0.00     0.014 A 
ATOM     30  C   UNL     1      -1.201  -2.788  -1.984  1.00  0.00     0.014 A 
ATOM     31  C   UNL     1      -1.372  -4.487   0.224  1.00  0.00     0.010 A 
ATOM     32  C   UNL     1      -2.076  -2.490  -0.933  1.00  0.00     0.010 A 
ATOM     33  C   UNL     1      -2.180  -3.340   0.181  1.00  0.00    -0.014 A 
BRANCH  33  34
ATOM     34  C   UNL     1      -3.144  -3.034   1.277  1.00  0.00     0.031 A 
ATOM     35  C   UNL     1      -4.625  -2.978   0.999  1.00  0.00     0.074 A 
ATOM     36  C   UNL     1      -2.698  -2.763   2.521  1.00  0.00     0.049 A 
ATOM     37  N   UNL     1      -5.612  -2.675   1.806  1.00  0.00    -0.248 NA
ATOM     38  C   UNL     1      -5.051  -3.280  -0.376  1.00  0.00     0.031 C 
ATOM     39  C   UNL     1      -1.294  -2.749   2.934  1.00  0.00     0.029 A 
ATOM     40  N   UNL     1      -3.381  -2.435   3.668  1.00  0.00    -0.354 N 
ATOM     41  C   UNL     1      -6.767  -2.733   1.036  1.00  0.00     0.074 A 
ATOM     42  C   UNL     1      -6.354  -3.048  -0.315  1.00  0.00     0.031 C 
ATOM     43  C   UNL     1      -1.220  -2.439   4.238  1.00  0.00     0.029 A 
ATOM     44  C   UNL     1      -2.567  -2.214   4.753  1.00  0.00     0.049 A 
ATOM     45  H   UNL     1      -4.362  -2.364   3.708  1.00  0.00     0.167 HD
ATOM     46  C   UNL     1      -8.056  -2.568   1.419  1.00  0.00     0.037 A 
ATOM     47  C   UNL     1      -2.869  -1.873   6.021  1.00  0.00     0.037 A 
ATOM     48  C   UNL     1      -8.480  -2.298   2.769  1.00  0.00     0.049 A 
ATOM     49  C   UNL     1      -4.308  -1.704   6.425  1.00  0.00     0.074 A 
ATOM     50  C   UNL     1      -9.768  -2.184   3.262  1.00  0.00     0.029 A 
ATOM     51  N   UNL     1      -7.623  -2.105   3.842  1.00  0.00    -0.354 N 
ATOM     52  N   UNL     1      -5.391  -1.828   5.698  1.00  0.00    -0.248 NA
ATOM     53  C   UNL     1      -4.566  -1.358   7.831  1.00  0.00     0.031 C 
ATOM     54  C   UNL     1      -9.691  -1.884   4.627  1.00  0.00     0.029 A 
ATOM     55  C   UNL     1      -8.356  -1.854   4.992  1.00  0.00     0.049 A 
ATOM     56  H   UNL     1      -6.641  -2.141   3.794  1.00  0.00     0.167 HD
ATOM     57  C   UNL     1      -6.457  -1.606   6.561  1.00  0.00     0.074 A 
ATOM     58  C   UNL     1      -5.891  -1.351   7.869  1.00  0.00     0.031 C 
ATOM     59  C   UNL     1      -7.785  -1.613   6.291  1.00  0.00     0.037 A 
BRANCH  46  60
ATOM     60  C   UNL     1      -9.115  -2.685   0.361  1.00  0.00     0.064 A 
ATOM     61  C   UNL     1      -9.440  -3.921  -0.218  1.00  0.00     0.173 A 
ATOM     62  C   UNL     1      -9.839  -1.557  -0.051  1.00  0.00     0.173 A 
ATOM     63  F   UNL     1      -8.769  -5.029   0.134  1.00  0.00    -0.203 F 
ATOM     64  C   UNL     1     -10.430  -4.018  -1.193  1.00  0.00     0.198 A 
ATOM     65  C   UNL     1     -10.849  -1.662  -1.005  1.00  0.00     0.198 A 
ATOM     66  F   UNL     1      -9.574  -0.352   0.477  1.00  0.00    -0.203 F 
ATOM     67  F   UNL     1     -10.688  -5.201  -1.767  1.00  0.00    -0.200 F 
ATOM     68  C   UNL     1     -11.137  -2.891  -1.580  1.00  0.00     0.200 A 
ATOM     69  F   UNL     1     -11.541  -0.574  -1.369  1.00  0.00    -0.200 F 
ATOM     70  F   UNL     1     -12.093  -2.986  -2.515  1.00  0.00    -0.200 F 
ENDBRANCH  46  60
BRANCH  47  71
ATOM     71  C   UNL     1      -1.782  -1.700   7.020  1.00  0.00     0.064 A 
ATOM     72  C   UNL     1      -1.598  -2.632   8.051  1.00  0.00     0.173 A 
ATOM     73  C   UNL     1      -0.917  -0.598   6.973  1.00  0.00     0.173 A 
ATOM     74  F   UNL     1      -2.417  -3.690   8.150  1.00  0.00    -0.203 F 
ATOM     75  C   UNL     1      -0.604  -2.457   9.010  1.00  0.00     0.198 A 
ATOM     76  C   UNL     1       0.093  -0.436   7.919  1.00  0.00     0.198 A 
ATOM     77  F   UNL     1      -1.053   0.319   6.003  1.00  0.00    -0.203 F 
ATOM     78  F   UNL     1      -0.480  -3.339  10.012  1.00  0.00    -0.200 F 
ATOM     79  C   UNL     1       0.244  -1.362   8.941  1.00  0.00     0.200 A 
ATOM     80  F   UNL     1       0.913   0.621   7.848  1.00  0.00    -0.200 F 
ATOM     81  F   UNL     1       1.199  -1.194   9.866  1.00  0.00    -0.200 F 
ENDBRANCH  47  71
BRANCH  59  82
ATOM     82  C   UNL     1      -8.724  -1.373   7.437  1.00  0.00     0.064 A 
ATOM     83  C   UNL     1      -8.876  -0.101   8.008  1.00  0.00     0.173 A 
ATOM     84  C   UNL     1      -9.509  -2.420   7.943  1.00  0.00     0.173 A 
ATOM     85  F   UNL     1      -8.138   0.929   7.569  1.00  0.00    -0.203 F 
ATOM     86  C   UNL     1      -9.764   0.108   9.060  1.00  0.00     0.198 A 
ATOM     87  C   UNL     1     -10.415  -2.201   8.977  1.00  0.00     0.198 A 
ATOM     88  F   UNL     1      -9.405  -3.654   7.427  1.00  0.00    -0.203 F 
ATOM     89  F   UNL     1      -9.863   1.322   9.620  1.00  0.00    -0.200 F 
ATOM     90  C   UNL     1     -10.537  -0.939   9.539  1.00  0.00     0.200 A 
ATOM     91  F   UNL     1     -11.170  -3.211   9.431  1.00  0.00    -0.200 F 
ATOM     92  F   UNL     1     -11.396  -0.734  10.547  1.00  0.00    -0.200 F 
ENDBRANCH  59  82
ENDBRANCH  33  34
ENDBRANCH  25  28
ENDBRANCH  23  24
ENDBRANCH  22  23
ENDBRANCH  21  22
ENDBRANCH   3  21
TORSDOF 16
