REMARK SMILES O=C(NCCCNC(=O)c1ccc(Cn2cc(Br)cc([N+](=O)[O-])c2=O)nc1)c1ccc(-c2c3nc(c(-c4c(F)c(F)c(F)c(F)c4F)c4ccc([nH]4)c(-c4c(F)c(F)c(F)c(F)c4F)c4nc(c(-c5c(F)c(F)c(F)c(F)c5F)c5ccc2[nH]5)C=C4)C=C3)cc1
REMARK SMILES IDX 5 1 4 2 3 3 1 4 2 5 28 7 29 8 90 9 30 10 89 11 31 12 32 13
REMARK SMILES IDX 33 14 83 15 34 16 88 17 82 18 84 19 35 20 87 21 81 22 80 23
REMARK SMILES IDX 36 25 68 26 48 27 67 28 49 29 52 30 66 31 85 32 50 33 51 34
REMARK SMILES IDX 65 36 86 37 53 38 37 39 38 40 46 41 39 42 40 43 44 44 47 45
REMARK SMILES IDX 41 46 42 47 45 48 43 49 69 50 70 51 78 52 71 53 72 54 76 55
REMARK SMILES IDX 79 56 73 57 74 58 77 59 75 60 54 61 55 62 63 63 56 64 57 65
REMARK SMILES IDX 61 66 64 67 58 68 59 69 62 70 60 71 6 72 7 73 8 74 9 76
REMARK SMILES IDX 10 77 11 78 27 79 12 80 26 81 13 82 14 83 15 84 16 85 24 86
REMARK SMILES IDX 17 87 20 88 25 89 18 90 19 91 21 92 22 93 23 94
REMARK H PARENT 3 6 84 24 52 35 7 75
REMARK Flexibility Score: inf
ROOT
ATOM      1  C   UNL     1       4.943  -0.191  -2.467  1.00  0.00     0.042 C 
ENDROOT
BRANCH   1   2
ATOM      2  C   UNL     1       4.609   0.593  -1.206  1.00  0.00     0.118 C 
BRANCH   2   3
ATOM      3  N   UNL     1       3.179   0.625  -0.927  1.00  0.00    -0.352 N 
ATOM      4  O   UNL     1       1.228   0.081   0.036  1.00  0.00    -0.269 OA
ATOM      5  C   UNL     1       2.454   0.105   0.114  1.00  0.00     0.251 C 
ATOM      6  H   UNL     1       2.642   1.100  -1.601  1.00  0.00     0.163 HD
BRANCH   5   7
ATOM      7  C   UNL     1       3.120  -0.430   1.322  1.00  0.00     0.039 A 
ATOM      8  C   UNL     1       2.544  -1.522   1.980  1.00  0.00     0.014 A 
ATOM      9  C   UNL     1       4.264   0.169   1.853  1.00  0.00     0.014 A 
ATOM     10  C   UNL     1       3.131  -2.024   3.143  1.00  0.00     0.010 A 
ATOM     11  C   UNL     1       4.910  -0.399   2.946  1.00  0.00     0.010 A 
ATOM     12  C   UNL     1       4.330  -1.478   3.628  1.00  0.00    -0.014 A 
BRANCH  12  13
ATOM     13  C   UNL     1       4.945  -1.960   4.891  1.00  0.00     0.031 A 
ATOM     14  C   UNL     1       5.088  -1.016   6.057  1.00  0.00     0.074 A 
ATOM     15  C   UNL     1       5.397  -3.226   4.986  1.00  0.00     0.049 A 
ATOM     16  N   UNL     1       5.649  -1.218   7.223  1.00  0.00    -0.248 NA
ATOM     17  C   UNL     1       4.556   0.347   5.884  1.00  0.00     0.031 C 
ATOM     18  C   UNL     1       5.348  -4.224   3.917  1.00  0.00     0.029 A 
ATOM     19  N   UNL     1       5.986  -3.891   6.033  1.00  0.00    -0.354 N 
ATOM     20  C   UNL     1       5.551  -0.011   7.903  1.00  0.00     0.074 A 
ATOM     21  C   UNL     1       4.939   0.939   7.005  1.00  0.00     0.031 C 
ATOM     22  C   UNL     1       5.850  -5.383   4.373  1.00  0.00     0.029 A 
ATOM     23  C   UNL     1       6.295  -5.200   5.752  1.00  0.00     0.049 A 
ATOM     24  H   UNL     1       6.170  -3.470   6.903  1.00  0.00     0.167 HD
ATOM     25  C   UNL     1       5.905   0.270   9.178  1.00  0.00     0.037 A 
ATOM     26  C   UNL     1       6.876  -6.144   6.520  1.00  0.00     0.037 A 
ATOM     27  C   UNL     1       6.458  -0.693  10.090  1.00  0.00     0.049 A 
ATOM     28  C   UNL     1       7.268  -5.800   7.933  1.00  0.00     0.074 A 
ATOM     29  C   UNL     1       6.788  -0.522  11.422  1.00  0.00     0.029 A 
ATOM     30  N   UNL     1       6.752  -2.008   9.766  1.00  0.00    -0.354 N 
ATOM     31  N   UNL     1       7.114  -4.672   8.582  1.00  0.00    -0.248 NA
ATOM     32  C   UNL     1       7.914  -6.860   8.723  1.00  0.00     0.031 C 
ATOM     33  C   UNL     1       7.325  -1.720  11.894  1.00  0.00     0.029 A 
ATOM     34  C   UNL     1       7.281  -2.654  10.870  1.00  0.00     0.049 A 
ATOM     35  H   UNL     1       6.606  -2.421   8.884  1.00  0.00     0.167 HD
ATOM     36  C   UNL     1       7.617  -4.892   9.858  1.00  0.00     0.074 A 
ATOM     37  C   UNL     1       8.067  -6.267   9.899  1.00  0.00     0.031 C 
ATOM     38  C   UNL     1       7.702  -4.030  10.899  1.00  0.00     0.037 A 
BRANCH  25  39
ATOM     39  C   UNL     1       5.676   1.661   9.689  1.00  0.00     0.064 A 
ATOM     40  C   UNL     1       4.384   2.137   9.957  1.00  0.00     0.173 A 
ATOM     41  C   UNL     1       6.761   2.490  10.010  1.00  0.00     0.173 A 
ATOM     42  F   UNL     1       3.312   1.387   9.657  1.00  0.00    -0.203 F 
ATOM     43  C   UNL     1       4.186   3.393  10.522  1.00  0.00     0.198 A 
ATOM     44  C   UNL     1       6.561   3.734  10.602  1.00  0.00     0.198 A 
ATOM     45  F   UNL     1       8.017   2.080   9.778  1.00  0.00    -0.203 F 
ATOM     46  F   UNL     1       2.942   3.836  10.747  1.00  0.00    -0.200 F 
ATOM     47  C   UNL     1       5.275   4.184  10.857  1.00  0.00     0.200 A 
ATOM     48  F   UNL     1       7.614   4.491  10.941  1.00  0.00    -0.200 F 
ATOM     49  F   UNL     1       5.084   5.381  11.428  1.00  0.00    -0.200 F 
ENDBRANCH  25  39
BRANCH  26  50
ATOM     50  C   UNL     1       7.095  -7.512   5.979  1.00  0.00     0.064 A 
ATOM     51  C   UNL     1       6.382  -8.609   6.484  1.00  0.00     0.173 A 
ATOM     52  C   UNL     1       8.019  -7.755   4.951  1.00  0.00     0.173 A 
ATOM     53  F   UNL     1       5.502  -8.433   7.481  1.00  0.00    -0.203 F 
ATOM     54  C   UNL     1       6.597  -9.896   5.996  1.00  0.00     0.198 A 
ATOM     55  C   UNL     1       8.211  -9.038   4.442  1.00  0.00     0.198 A 
ATOM     56  F   UNL     1       8.725  -6.741   4.429  1.00  0.00    -0.203 F 
ATOM     57  F   UNL     1       5.934 -10.932   6.528  1.00  0.00    -0.200 F 
ATOM     58  C   UNL     1       7.506 -10.109   4.970  1.00  0.00     0.200 A 
ATOM     59  F   UNL     1       9.078  -9.236   3.440  1.00  0.00    -0.200 F 
ATOM     60  F   UNL     1       7.707 -11.346   4.496  1.00  0.00    -0.200 F 
ENDBRANCH  26  50
BRANCH  38  61
ATOM     61  C   UNL     1       8.279  -4.536  12.188  1.00  0.00     0.064 A 
ATOM     62  C   UNL     1       9.654  -4.760  12.333  1.00  0.00     0.173 A 
ATOM     63  C   UNL     1       7.463  -4.682  13.321  1.00  0.00     0.173 A 
ATOM     64  F   UNL     1      10.473  -4.642  11.277  1.00  0.00    -0.203 F 
ATOM     65  C   UNL     1      10.193  -5.113  13.567  1.00  0.00     0.198 A 
ATOM     66  C   UNL     1       8.009  -5.007  14.558  1.00  0.00     0.198 A 
ATOM     67  F   UNL     1       6.141  -4.467  13.234  1.00  0.00    -0.203 F 
ATOM     68  F   UNL     1      11.509  -5.342  13.680  1.00  0.00    -0.200 F 
ATOM     69  C   UNL     1       9.373  -5.223  14.680  1.00  0.00     0.200 A 
ATOM     70  F   UNL     1       7.218  -5.091  15.637  1.00  0.00    -0.200 F 
ATOM     71  F   UNL     1       9.899  -5.533  15.873  1.00  0.00    -0.200 F 
ENDBRANCH  38  61
ENDBRANCH  12  13
ENDBRANCH   5   7
ENDBRANCH   2   3
ENDBRANCH   1   2
BRANCH   1  72
ATOM     72  C   UNL     1       4.297   0.364  -3.729  1.00  0.00     0.118 C 
BRANCH  72  73
ATOM     73  N   UNL     1       4.763   1.705  -4.049  1.00  0.00    -0.352 N 
ATOM     74  C   UNL     1       5.664   2.109  -5.002  1.00  0.00     0.252 C 
ATOM     75  H   UNL     1       4.375   2.427  -3.503  1.00  0.00     0.163 HD
ATOM     76  O   UNL     1       6.088   3.260  -5.008  1.00  0.00    -0.269 OA
BRANCH  74  77
ATOM     77  C   UNL     1       6.148   1.145  -5.997  1.00  0.00     0.058 A 
ATOM     78  C   UNL     1       5.287   0.387  -6.790  1.00  0.00     0.017 A 
ATOM     79  C   UNL     1       7.508   0.964  -6.141  1.00  0.00     0.125 A 
ATOM     80  C   UNL     1       5.815  -0.601  -7.620  1.00  0.00     0.026 A 
ATOM     81  N   UNL     1       8.039   0.012  -6.941  1.00  0.00    -0.259 NA
ATOM     82  C   UNL     1       7.196  -0.782  -7.650  1.00  0.00     0.060 A 
BRANCH  82  83
ATOM     83  C   UNL     1       7.828  -1.891  -8.470  1.00  0.00     0.181 C 
BRANCH  83  84
ATOM     84  N   UNL     1       8.513  -1.378  -9.656  1.00  0.00    -0.303 N 
ATOM     85  C   UNL     1       7.911  -1.481 -10.904  1.00  0.00     0.105 A 
ATOM     86  C   UNL     1       9.798  -0.825  -9.489  1.00  0.00     0.329 A 
ATOM     87  C   UNL     1       8.492  -0.986 -12.008  1.00  0.00     0.041 A 
ATOM     88  C   UNL     1      10.307  -0.111 -10.684  1.00  0.00     0.335 A 
ATOM     89  O   UNL     1      10.474  -0.978  -8.478  1.00  0.00    -0.261 OA
ATOM     90  Br  UNL     1       7.752  -1.196 -13.704  1.00  0.00    -0.049 Br
ATOM     91  C   UNL     1       9.710  -0.218 -11.883  1.00  0.00     0.109 A 
BRANCH  88  92
ATOM     92  N   UNL     1      11.457   0.749 -10.568  1.00  0.00     0.068 N 
ATOM     93  O   UNL     1      11.588   1.407  -9.530  1.00  0.00    -0.258 OA
ATOM     94  O   UNL     1      12.209   0.831 -11.552  1.00  0.00    -0.258 OA
ENDBRANCH  88  92
ENDBRANCH  83  84
ENDBRANCH  82  83
ENDBRANCH  74  77
ENDBRANCH  72  73
ENDBRANCH   1  72
TORSDOF 13
