REMARK SMILES CC[C@](C)([NH3+])C(=O)N1CC[NH+]([C@H](C)C(=O)NCCCNC(=O)c2ccc(-c3c4nc(c(-c5c(F)c(F)c(F)c(F)c5F)c5ccc([nH]5)c(-c5c(F)c(F)c(F)c(F)c5F)c5nc(c(-c6c(F)c(F)c(F)c(F)c6F)c6ccc3[nH]6)C=C5)C=C4)cc2)CC1
REMARK SMILES IDX 17 1 16 2 14 3 15 4 12 6 13 7 11 8 6 9 7 10 8 11 9 12 87 13
REMARK SMILES IDX 10 14 86 15 3 17 4 18 2 19 1 20 5 21 18 25 19 26 20 27 21 28
REMARK SMILES IDX 22 30 23 31 24 32 85 33 25 34 84 35 26 36 27 37 28 38 78 39
REMARK SMILES IDX 29 40 83 41 77 42 79 43 30 44 82 45 76 46 75 47 31 49 63 50
REMARK SMILES IDX 43 51 62 52 44 53 47 54 61 55 80 56 45 57 46 58 60 60 81 61
REMARK SMILES IDX 48 62 32 63 33 64 41 65 34 66 35 67 39 68 42 69 36 70 37 71
REMARK SMILES IDX 40 72 38 73 64 74 65 75 73 76 66 77 67 78 71 79 74 80 68 81
REMARK SMILES IDX 69 82 72 83 70 84 49 85 50 86 58 87 51 88 52 89 56 90 59 91
REMARK SMILES IDX 53 92 54 93 57 94 55 95
REMARK H PARENT 16 5 11 16 5 22 5 23 5 24 20 29 79 48 47 59
REMARK Flexibility Score: inf
ROOT
ATOM      1  C   UNL     1       5.688  -2.061   4.274  1.00  0.00     0.118 C 
ENDROOT
BRANCH   1   2
ATOM      2  N   UNL     1       6.241  -3.184   5.002  1.00  0.00    -0.351 N 
ATOM      3  C   UNL     1       6.043  -4.525   4.820  1.00  0.00     0.278 C 
ATOM      4  O   UNL     1       6.812  -5.281   5.424  1.00  0.00    -0.268 OA
ATOM      5  H   UNL     1       6.850  -2.946   5.738  1.00  0.00     0.163 HD
BRANCH   3   6
ATOM      6  C   UNL     1       4.892  -5.087   3.950  1.00  0.00     0.271 C 
ATOM      7  C   UNL     1       3.524  -4.527   4.369  1.00  0.00     0.086 C 
BRANCH   6   8
ATOM      8  N   UNL     1       5.203  -5.175   2.490  1.00  0.00    -0.322 N 
ATOM      9  C   UNL     1       4.028  -3.382  -0.928  1.00  0.00     0.283 C 
ATOM     10  O   UNL     1       4.673  -2.431  -1.398  1.00  0.00    -0.268 OA
ATOM     11  N   UNL     1       4.717  -4.382  -0.256  1.00  0.00    -0.326 N 
ATOM     12  C   UNL     1       6.001  -4.044   0.347  1.00  0.00     0.181 C 
ATOM     13  C   UNL     1       4.276  -5.702   0.184  1.00  0.00     0.181 C 
ATOM     14  C   UNL     1       5.783  -3.968   1.872  1.00  0.00     0.284 C 
ATOM     15  C   UNL     1       4.059  -5.711   1.711  1.00  0.00     0.284 C 
ATOM     16  H   UNL     1       5.967  -5.849   2.447  1.00  0.00     0.348 HD
BRANCH   9  17
ATOM     17  C   UNL     1       2.455  -3.268  -0.903  1.00  0.00     0.171 C 
ATOM     18  C   UNL     1       1.980  -2.426  -2.106  1.00  0.00     0.090 C 
BRANCH  17  19
ATOM     19  C   UNL     1       2.021  -2.614   0.438  1.00  0.00     0.075 C 
ATOM     20  C   UNL     1       2.337  -1.129   0.585  1.00  0.00     0.011 C 
ENDBRANCH  17  19
BRANCH  17  21
ATOM     21  N   UNL     1       1.767  -4.575  -1.011  1.00  0.00    -0.345 N 
ATOM     22  H   UNL     1       2.034  -5.029  -1.885  1.00  0.00     0.345 HD
ATOM     23  H   UNL     1       0.758  -4.431  -0.998  1.00  0.00     0.345 HD
ATOM     24  H   UNL     1       2.037  -5.167  -0.225  1.00  0.00     0.345 HD
ENDBRANCH  17  21
ENDBRANCH   9  17
ENDBRANCH   6   8
ENDBRANCH   3   6
ENDBRANCH   1   2
BRANCH   1  25
ATOM     25  C   UNL     1       5.394  -0.842   5.116  1.00  0.00     0.042 C 
BRANCH  25  26
ATOM     26  C   UNL     1       6.628  -0.204   5.723  1.00  0.00     0.118 C 
BRANCH  26  27
ATOM     27  N   UNL     1       7.600   0.246   4.733  1.00  0.00    -0.352 N 
ATOM     28  C   UNL     1       8.013   1.507   4.370  1.00  0.00     0.251 C 
ATOM     29  H   UNL     1       8.039  -0.481   4.237  1.00  0.00     0.163 HD
ATOM     30  O   UNL     1       8.745   1.645   3.397  1.00  0.00    -0.269 OA
BRANCH  28  31
ATOM     31  C   UNL     1       7.554   2.698   5.117  1.00  0.00     0.039 A 
ATOM     32  C   UNL     1       7.289   3.877   4.416  1.00  0.00     0.014 A 
ATOM     33  C   UNL     1       7.377   2.665   6.500  1.00  0.00     0.014 A 
ATOM     34  C   UNL     1       6.765   4.980   5.091  1.00  0.00     0.010 A 
ATOM     35  C   UNL     1       6.718   3.705   7.142  1.00  0.00     0.010 A 
ATOM     36  C   UNL     1       6.420   4.884   6.451  1.00  0.00    -0.014 A 
BRANCH  36  37
ATOM     37  C   UNL     1       5.754   6.010   7.153  1.00  0.00     0.031 A 
ATOM     38  C   UNL     1       6.391   6.646   8.360  1.00  0.00     0.074 A 
ATOM     39  C   UNL     1       4.549   6.433   6.722  1.00  0.00     0.049 A 
ATOM     40  N   UNL     1       5.969   7.652   9.084  1.00  0.00    -0.248 NA
ATOM     41  C   UNL     1       7.650   6.054   8.844  1.00  0.00     0.031 C 
ATOM     42  C   UNL     1       3.789   5.839   5.620  1.00  0.00     0.029 A 
ATOM     43  N   UNL     1       3.754   7.465   7.152  1.00  0.00    -0.354 N 
ATOM     44  C   UNL     1       6.902   7.804  10.102  1.00  0.00     0.074 A 
ATOM     45  C   UNL     1       7.867   6.739   9.955  1.00  0.00     0.031 C 
ATOM     46  C   UNL     1       2.670   6.552   5.421  1.00  0.00     0.029 A 
ATOM     47  C   UNL     1       2.612   7.627   6.406  1.00  0.00     0.049 A 
ATOM     48  H   UNL     1       3.981   8.037   7.921  1.00  0.00     0.167 HD
ATOM     49  C   UNL     1       6.969   8.767  11.052  1.00  0.00     0.037 A 
ATOM     50  C   UNL     1       1.634   8.546   6.499  1.00  0.00     0.037 A 
ATOM     51  C   UNL     1       6.017   9.838  11.179  1.00  0.00     0.049 A 
ATOM     52  C   UNL     1       1.743   9.617   7.551  1.00  0.00     0.074 A 
ATOM     53  C   UNL     1       6.026  10.902  12.062  1.00  0.00     0.029 A 
ATOM     54  N   UNL     1       4.878   9.977  10.397  1.00  0.00    -0.354 N 
ATOM     55  N   UNL     1       2.681   9.806   8.447  1.00  0.00    -0.248 NA
ATOM     56  C   UNL     1       0.662  10.610   7.592  1.00  0.00     0.031 C 
ATOM     57  C   UNL     1       4.864  11.653  11.854  1.00  0.00     0.029 A 
ATOM     58  C   UNL     1       4.163  11.094  10.797  1.00  0.00     0.049 A 
ATOM     59  H   UNL     1       4.618   9.371   9.666  1.00  0.00     0.167 HD
ATOM     60  C   UNL     1       2.316  10.949   9.145  1.00  0.00     0.074 A 
ATOM     61  C   UNL     1       1.088  11.428   8.543  1.00  0.00     0.031 C 
ATOM     62  C   UNL     1       2.936  11.548  10.193  1.00  0.00     0.037 A 
BRANCH  49  63
ATOM     63  C   UNL     1       8.117   8.708  12.021  1.00  0.00     0.064 A 
ATOM     64  C   UNL     1       9.442   8.932  11.612  1.00  0.00     0.173 A 
ATOM     65  C   UNL     1       7.889   8.455  13.383  1.00  0.00     0.173 A 
ATOM     66  F   UNL     1       9.719   9.165  10.320  1.00  0.00    -0.203 F 
ATOM     67  C   UNL     1      10.495   8.871  12.520  1.00  0.00     0.198 A 
ATOM     68  C   UNL     1       8.942   8.431  14.295  1.00  0.00     0.198 A 
ATOM     69  F   UNL     1       6.644   8.236  13.831  1.00  0.00    -0.203 F 
ATOM     70  F   UNL     1      11.756   9.031  12.094  1.00  0.00    -0.200 F 
ATOM     71  C   UNL     1      10.244   8.630  13.862  1.00  0.00     0.200 A 
ATOM     72  F   UNL     1       8.696   8.210  15.594  1.00  0.00    -0.200 F 
ATOM     73  F   UNL     1      11.258   8.581  14.737  1.00  0.00    -0.200 F 
ENDBRANCH  49  63
BRANCH  50  74
ATOM     74  C   UNL     1       0.491   8.520   5.547  1.00  0.00     0.064 A 
ATOM     75  C   UNL     1       0.321   9.535   4.594  1.00  0.00     0.173 A 
ATOM     76  C   UNL     1      -0.455   7.485   5.570  1.00  0.00     0.173 A 
ATOM     77  F   UNL     1       1.190  10.556   4.541  1.00  0.00    -0.203 F 
ATOM     78  C   UNL     1      -0.766   9.531   3.722  1.00  0.00     0.198 A 
ATOM     79  C   UNL     1      -1.523   7.465   4.675  1.00  0.00     0.198 A 
ATOM     80  F   UNL     1      -0.335   6.484   6.455  1.00  0.00    -0.203 F 
ATOM     81  F   UNL     1      -0.933  10.543   2.859  1.00  0.00    -0.200 F 
ATOM     82  C   UNL     1      -1.684   8.493   3.759  1.00  0.00     0.200 A 
ATOM     83  F   UNL     1      -2.397   6.449   4.702  1.00  0.00    -0.200 F 
ATOM     84  F   UNL     1      -2.726   8.487   2.918  1.00  0.00    -0.200 F 
ENDBRANCH  50  74
BRANCH  62  85
ATOM     85  C   UNL     1       2.300  12.796  10.735  1.00  0.00     0.064 A 
ATOM     86  C   UNL     1       1.069  12.764  11.408  1.00  0.00     0.173 A 
ATOM     87  C   UNL     1       2.930  14.040  10.582  1.00  0.00     0.173 A 
ATOM     88  F   UNL     1       0.418  11.602  11.570  1.00  0.00    -0.203 F 
ATOM     89  C   UNL     1       0.470  13.936  11.863  1.00  0.00     0.198 A 
ATOM     90  C   UNL     1       2.348  15.205  11.073  1.00  0.00     0.198 A 
ATOM     91  F   UNL     1       4.114  14.128   9.957  1.00  0.00    -0.203 F 
ATOM     92  F   UNL     1      -0.741  13.888  12.435  1.00  0.00    -0.200 F 
ATOM     93  C   UNL     1       1.112  15.154  11.699  1.00  0.00     0.200 A 
ATOM     94  F   UNL     1       2.978  16.379  10.930  1.00  0.00    -0.200 F 
ATOM     95  F   UNL     1       0.533  16.281  12.135  1.00  0.00    -0.200 F 
ENDBRANCH  62  85
ENDBRANCH  36  37
ENDBRANCH  28  31
ENDBRANCH  26  27
ENDBRANCH  25  26
ENDBRANCH   1  25
TORSDOF 14
