REMARK SMILES CC[C@](C)(C(=O)NCCCNC(=O)c1ccc(-c2c3nc(c(-c4c(F)c(F)c(F)c(F)c4F)c4ccc([nH]4)c(-c4c(F)c(F)c(F)c(F)c4F)c4nc(c(-c5c(F)c(F)c(F)c(F)c5F)c5ccc2[nH]5)C=C4)C=C3)cc1)n1nnnc1Cc1cccc(Cl)c1
REMARK SMILES IDX 8 1 7 2 5 3 6 4 3 6 4 7 2 8 1 9 77 10 78 11 81 12 79 13
REMARK SMILES IDX 80 14 82 15 83 16 84 17 89 18 85 19 87 20 86 21 88 22 9 23
REMARK SMILES IDX 10 24 11 25 12 26 13 28 14 29 15 30 76 31 16 32 75 33 17 34
REMARK SMILES IDX 18 35 19 36 69 37 20 38 74 39 68 40 70 41 21 42 73 43 67 44
REMARK SMILES IDX 66 45 22 47 54 48 34 49 53 50 35 51 38 52 52 53 71 54 36 55
REMARK SMILES IDX 37 56 51 58 72 59 39 60 23 61 24 62 32 63 25 64 26 65 30 66
REMARK SMILES IDX 33 67 27 68 28 69 31 70 29 71 55 72 56 73 64 74 57 75 58 76
REMARK SMILES IDX 62 77 65 78 59 79 60 80 63 81 61 82 40 83 41 84 49 85 42 86
REMARK SMILES IDX 43 87 47 88 50 89 44 90 45 91 48 92 46 93
REMARK H PARENT 7 5 11 27 70 46 38 57
REMARK Flexibility Score: inf
ROOT
ATOM      1  C   UNL     1      -1.836   3.141  -0.258  1.00  0.00     0.117 C 
ENDROOT
BRANCH   1   2
ATOM      2  N   UNL     1      -0.699   3.944   0.183  1.00  0.00    -0.354 N 
ATOM      3  C   UNL     1       0.652   3.675   0.248  1.00  0.00     0.247 C 
ATOM      4  O   UNL     1       1.312   4.497   0.883  1.00  0.00    -0.272 OA
ATOM      5  H   UNL     1      -0.942   4.847   0.493  1.00  0.00     0.163 HD
BRANCH   3   6
ATOM      6  C   UNL     1       1.231   2.370  -0.389  1.00  0.00     0.142 C 
ATOM      7  C   UNL     1       0.595   1.239   0.457  1.00  0.00     0.048 C 
BRANCH   6   8
ATOM      8  C   UNL     1       0.873   2.442  -1.910  1.00  0.00     0.037 C 
ATOM      9  C   UNL     1       1.096   1.191  -2.736  1.00  0.00     0.007 C 
ENDBRANCH   6   8
BRANCH   6  10
ATOM     10  N   UNL     1       2.712   2.291  -0.306  1.00  0.00    -0.214 N 
ATOM     11  N   UNL     1       3.448   3.415  -0.449  1.00  0.00    -0.044 NA
ATOM     12  C   UNL     1       3.585   1.205  -0.326  1.00  0.00     0.156 A 
ATOM     13  N   UNL     1       4.712   3.045  -0.372  1.00  0.00    -0.024 NA
ATOM     14  N   UNL     1       4.814   1.690  -0.287  1.00  0.00    -0.113 NA
BRANCH  12  15
ATOM     15  C   UNL     1       3.271  -0.261  -0.349  1.00  0.00     0.114 C 
BRANCH  15  16
ATOM     16  C   UNL     1       3.736  -0.997  -1.592  1.00  0.00    -0.039 A 
ATOM     17  C   UNL     1       2.816  -1.701  -2.389  1.00  0.00     0.004 A 
ATOM     18  C   UNL     1       5.090  -1.017  -1.960  1.00  0.00     0.024 A 
ATOM     19  C   UNL     1       3.223  -2.348  -3.557  1.00  0.00     0.002 A 
ATOM     20  C   UNL     1       5.495  -1.680  -3.119  1.00  0.00     0.041 A 
ATOM     21  C   UNL     1       4.566  -2.333  -3.925  1.00  0.00     0.020 A 
ATOM     22  Cl  UNL     1       7.159  -1.694  -3.557  1.00  0.00    -0.084 Cl
ENDBRANCH  15  16
ENDBRANCH  12  15
ENDBRANCH   6  10
ENDBRANCH   3   6
ENDBRANCH   1   2
BRANCH   1  23
ATOM     23  C   UNL     1      -2.743   2.726   0.893  1.00  0.00     0.042 C 
BRANCH  23  24
ATOM     24  C   UNL     1      -3.469   3.885   1.553  1.00  0.00     0.118 C 
BRANCH  24  25
ATOM     25  N   UNL     1      -4.429   4.514   0.659  1.00  0.00    -0.352 N 
ATOM     26  C   UNL     1      -5.791   4.616   0.760  1.00  0.00     0.251 C 
ATOM     27  H   UNL     1      -4.039   4.931  -0.143  1.00  0.00     0.163 HD
ATOM     28  O   UNL     1      -6.441   5.000  -0.216  1.00  0.00    -0.269 OA
BRANCH  26  29
ATOM     29  C   UNL     1      -6.491   4.257   2.011  1.00  0.00     0.039 A 
ATOM     30  C   UNL     1      -7.738   3.631   1.931  1.00  0.00     0.014 A 
ATOM     31  C   UNL     1      -5.947   4.563   3.262  1.00  0.00     0.014 A 
ATOM     32  C   UNL     1      -8.411   3.270   3.100  1.00  0.00     0.010 A 
ATOM     33  C   UNL     1      -6.569   4.113   4.421  1.00  0.00     0.010 A 
ATOM     34  C   UNL     1      -7.818   3.481   4.355  1.00  0.00    -0.014 A 
BRANCH  34  35
ATOM     35  C   UNL     1      -8.504   3.082   5.610  1.00  0.00     0.031 A 
ATOM     36  C   UNL     1      -8.890   4.127   6.622  1.00  0.00     0.074 A 
ATOM     37  C   UNL     1      -8.728   1.778   5.863  1.00  0.00     0.049 A 
ATOM     38  N   UNL     1      -9.443   3.976   7.799  1.00  0.00    -0.248 NA
ATOM     39  C   UNL     1      -8.584   5.525   6.281  1.00  0.00     0.031 C 
ATOM     40  C   UNL     1      -8.353   0.669   4.985  1.00  0.00     0.029 A 
ATOM     41  N   UNL     1      -9.320   1.165   6.938  1.00  0.00    -0.354 N 
ATOM     42  C   UNL     1      -9.529   5.252   8.342  1.00  0.00     0.074 A 
ATOM     43  C   UNL     1      -8.920   6.158   7.395  1.00  0.00     0.031 C 
ATOM     44  C   UNL     1      -8.752  -0.486   5.541  1.00  0.00     0.029 A 
ATOM     45  C   UNL     1      -9.376  -0.203   6.830  1.00  0.00     0.049 A 
ATOM     46  H   UNL     1      -9.672   1.659   7.714  1.00  0.00     0.167 HD
ATOM     47  C   UNL     1     -10.090   5.636   9.513  1.00  0.00     0.037 A 
ATOM     48  C   UNL     1      -9.873  -1.124   7.677  1.00  0.00     0.037 A 
ATOM     49  C   UNL     1     -10.729   4.736  10.436  1.00  0.00     0.049 A 
ATOM     50  C   UNL     1     -10.501  -0.668   8.967  1.00  0.00     0.074 A 
ATOM     51  C   UNL     1     -11.390   5.032  11.614  1.00  0.00     0.029 A 
ATOM     52  N   UNL     1     -10.786   3.358  10.280  1.00  0.00    -0.354 N 
ATOM     53  N   UNL     1     -10.645   0.548   9.434  1.00  0.00    -0.248 NA
ATOM     54  C   UNL     1     -11.046  -1.715   9.842  1.00  0.00     0.031 C 
ATOM     55  C   UNL     1     -11.806   3.830  12.196  1.00  0.00     0.029 A 
ATOM     56  C   UNL     1     -11.452   2.789  11.354  1.00  0.00     0.049 A 
ATOM     57  H   UNL     1     -10.409   2.859   9.520  1.00  0.00     0.167 HD
ATOM     58  C   UNL     1     -11.323   0.416  10.639  1.00  0.00     0.074 A 
ATOM     59  C   UNL     1     -11.575  -0.998  10.822  1.00  0.00     0.031 C 
ATOM     60  C   UNL     1     -11.704   1.379  11.514  1.00  0.00     0.037 A 
BRANCH  47  61
ATOM     61  C   UNL     1     -10.041   7.097   9.861  1.00  0.00     0.064 A 
ATOM     62  C   UNL     1     -10.786   8.051   9.150  1.00  0.00     0.173 A 
ATOM     63  C   UNL     1      -9.264   7.546  10.940  1.00  0.00     0.173 A 
ATOM     64  F   UNL     1     -11.536   7.677   8.102  1.00  0.00    -0.203 F 
ATOM     65  C   UNL     1     -10.729   9.401   9.485  1.00  0.00     0.198 A 
ATOM     66  C   UNL     1      -9.235   8.893  11.292  1.00  0.00     0.198 A 
ATOM     67  F   UNL     1      -8.536   6.677  11.657  1.00  0.00    -0.203 F 
ATOM     68  F   UNL     1     -11.407  10.299   8.756  1.00  0.00    -0.200 F 
ATOM     69  C   UNL     1      -9.960   9.820  10.560  1.00  0.00     0.200 A 
ATOM     70  F   UNL     1      -8.502   9.294  12.340  1.00  0.00    -0.200 F 
ATOM     71  F   UNL     1      -9.912  11.119  10.885  1.00  0.00    -0.200 F 
ENDBRANCH  47  61
BRANCH  48  72
ATOM     72  C   UNL     1      -9.832  -2.565   7.317  1.00  0.00     0.064 A 
ATOM     73  C   UNL     1     -11.010  -3.264   7.017  1.00  0.00     0.173 A 
ATOM     74  C   UNL     1      -8.624  -3.275   7.271  1.00  0.00     0.173 A 
ATOM     75  F   UNL     1     -12.193  -2.632   7.065  1.00  0.00    -0.203 F 
ATOM     76  C   UNL     1     -10.984  -4.622   6.707  1.00  0.00     0.198 A 
ATOM     77  C   UNL     1      -8.595  -4.626   6.933  1.00  0.00     0.198 A 
ATOM     78  F   UNL     1      -7.468  -2.651   7.542  1.00  0.00    -0.203 F 
ATOM     79  F   UNL     1     -12.129  -5.275   6.471  1.00  0.00    -0.200 F 
ATOM     80  C   UNL     1      -9.776  -5.301   6.660  1.00  0.00     0.200 A 
ATOM     81  F   UNL     1      -7.424  -5.274   6.872  1.00  0.00    -0.200 F 
ATOM     82  F   UNL     1      -9.750  -6.606   6.358  1.00  0.00    -0.200 F 
ENDBRANCH  48  72
BRANCH  60  83
ATOM     83  C   UNL     1     -12.470   0.940  12.727  1.00  0.00     0.064 A 
ATOM     84  C   UNL     1     -11.858   0.232  13.772  1.00  0.00     0.173 A 
ATOM     85  C   UNL     1     -13.830   1.261  12.860  1.00  0.00     0.173 A 
ATOM     86  F   UNL     1     -10.564  -0.113  13.686  1.00  0.00    -0.203 F 
ATOM     87  C   UNL     1     -12.587  -0.166  14.890  1.00  0.00     0.198 A 
ATOM     88  C   UNL     1     -14.547   0.891  13.994  1.00  0.00     0.198 A 
ATOM     89  F   UNL     1     -14.461   1.944  11.893  1.00  0.00    -0.203 F 
ATOM     90  F   UNL     1     -11.994  -0.888  15.850  1.00  0.00    -0.200 F 
ATOM     91  C   UNL     1     -13.928   0.170  15.003  1.00  0.00     0.200 A 
ATOM     92  F   UNL     1     -15.839   1.229  14.108  1.00  0.00    -0.200 F 
ATOM     93  F   UNL     1     -14.626  -0.208  16.082  1.00  0.00    -0.200 F 
ENDBRANCH  60  83
ENDBRANCH  34  35
ENDBRANCH  26  29
ENDBRANCH  24  25
ENDBRANCH  23  24
ENDBRANCH   1  23
TORSDOF 14
