REMARK SMILES Cc1[nH]c2ccc(Br)cc2c(=O)c1CCC(=O)NCCCNC(=O)c1ccc(-c2c3nc(c(-c4c(F)c(F)c(F)c(F)c4F)c4ccc([nH]4)c(-c4c(F)c(F)c(F)c(F)c4F)c4nc(c(-c5c(F)c(F)c(F)c(F)c5F)c5ccc2[nH]5)C=C4)C=C3)cc1
REMARK SMILES IDX 20 1 19 2 18 3 16 4 17 5 15 7 14 8 13 9 1 10 2 11 3 12 4 13
REMARK SMILES IDX 11 15 5 16 10 17 12 18 6 19 9 20 7 21 8 22 21 23 22 24 23 25
REMARK SMILES IDX 24 27 25 28 26 29 87 30 27 31 86 32 28 33 29 34 30 35 80 36
REMARK SMILES IDX 31 37 85 38 79 39 81 40 32 41 84 42 78 43 77 44 33 46 65 47
REMARK SMILES IDX 45 48 64 49 46 50 49 51 63 52 82 53 47 54 48 55 62 57 83 58
REMARK SMILES IDX 50 59 34 60 35 61 43 62 36 63 37 64 41 65 44 66 38 67 39 68
REMARK SMILES IDX 42 69 40 70 66 71 67 72 75 73 68 74 69 75 73 76 76 77 70 78
REMARK SMILES IDX 71 79 74 80 72 81 51 82 52 83 60 84 53 85 54 86 58 87 61 88
REMARK SMILES IDX 55 89 56 90 59 91 57 92
REMARK H PARENT 18 6 3 14 22 26 81 45 49 56
REMARK Flexibility Score: inf
ROOT
ATOM      1  C   UNL     1      -1.312  -2.250  -4.282  1.00  0.00     0.042 C 
ENDROOT
BRANCH   1   2
ATOM      2  C   UNL     1      -2.057  -3.034  -3.191  1.00  0.00     0.117 C 
BRANCH   2   3
ATOM      3  N   UNL     1      -1.289  -4.190  -2.728  1.00  0.00    -0.356 N 
ATOM      4  C   UNL     1      -0.564  -4.421  -1.594  1.00  0.00     0.220 C 
ATOM      5  O   UNL     1       0.021  -5.504  -1.498  1.00  0.00    -0.275 OA
ATOM      6  H   UNL     1      -1.296  -4.948  -3.356  1.00  0.00     0.163 HD
BRANCH   4   7
ATOM      7  C   UNL     1      -0.518  -3.426  -0.448  1.00  0.00     0.105 C 
BRANCH   7   8
ATOM      8  C   UNL     1       0.866  -2.792  -0.239  1.00  0.00     0.051 C 
BRANCH   8   9
ATOM      9  C   UNL     1       1.021  -1.595  -1.136  1.00  0.00     0.020 A 
ATOM     10  C   UNL     1       0.283   0.124   0.535  1.00  0.00     0.064 C 
ATOM     11  C   UNL     1       0.667  -0.320  -0.855  1.00  0.00     0.019 A 
ATOM     12  N   UNL     1       0.613   0.656  -1.831  1.00  0.00    -0.358 N 
ATOM     13  C   UNL     1       1.039   0.423  -3.138  1.00  0.00     0.050 A 
ATOM     14  H   UNL     1       0.261   1.545  -1.597  1.00  0.00     0.166 HD
ATOM     15  C   UNL     1       1.624  -1.873  -2.470  1.00  0.00     0.192 A 
ATOM     16  C   UNL     1       0.845   1.354  -4.151  1.00  0.00     0.028 A 
ATOM     17  C   UNL     1       1.649  -0.794  -3.463  1.00  0.00     0.047 A 
ATOM     18  O   UNL     1       2.064  -2.987  -2.768  1.00  0.00    -0.289 OA
ATOM     19  C   UNL     1       1.403   1.123  -5.410  1.00  0.00     0.018 A 
ATOM     20  C   UNL     1       2.233  -1.017  -4.707  1.00  0.00     0.030 A 
ATOM     21  C   UNL     1       2.168  -0.017  -5.654  1.00  0.00     0.018 A 
ATOM     22  Br  UNL     1       3.223  -0.182  -7.208  1.00  0.00    -0.051 Br
ENDBRANCH   8   9
ENDBRANCH   7   8
ENDBRANCH   4   7
ENDBRANCH   2   3
ENDBRANCH   1   2
BRANCH   1  23
ATOM     23  C   UNL     1      -1.827  -2.399  -5.721  1.00  0.00     0.118 C 
BRANCH  23  24
ATOM     24  N   UNL     1      -2.824  -1.400  -6.094  1.00  0.00    -0.352 N 
ATOM     25  C   UNL     1      -2.836  -0.282  -6.899  1.00  0.00     0.251 C 
ATOM     26  H   UNL     1      -3.696  -1.565  -5.669  1.00  0.00     0.163 HD
ATOM     27  O   UNL     1      -3.882   0.374  -6.904  1.00  0.00    -0.269 OA
BRANCH  25  28
ATOM     28  C   UNL     1      -1.696   0.229  -7.727  1.00  0.00     0.039 A 
ATOM     29  C   UNL     1      -0.702  -0.553  -8.301  1.00  0.00     0.014 A 
ATOM     30  C   UNL     1      -1.675   1.605  -8.027  1.00  0.00     0.014 A 
ATOM     31  C   UNL     1       0.369   0.049  -9.000  1.00  0.00     0.010 A 
ATOM     32  C   UNL     1      -0.633   2.194  -8.777  1.00  0.00     0.010 A 
ATOM     33  C   UNL     1       0.468   1.443  -9.199  1.00  0.00    -0.014 A 
BRANCH  33  34
ATOM     34  C   UNL     1       1.726   2.078  -9.761  1.00  0.00     0.031 A 
ATOM     35  C   UNL     1       2.512   3.137  -8.986  1.00  0.00     0.074 A 
ATOM     36  C   UNL     1       2.281   1.644 -10.915  1.00  0.00     0.049 A 
ATOM     37  N   UNL     1       3.725   3.605  -9.204  1.00  0.00    -0.248 NA
ATOM     38  C   UNL     1       1.884   3.724  -7.795  1.00  0.00     0.031 C 
ATOM     39  C   UNL     1       1.710   0.635 -11.803  1.00  0.00     0.029 A 
ATOM     40  N   UNL     1       3.473   1.981 -11.527  1.00  0.00    -0.354 N 
ATOM     41  C   UNL     1       4.017   4.458  -8.142  1.00  0.00     0.074 A 
ATOM     42  C   UNL     1       2.853   4.472  -7.288  1.00  0.00     0.031 C 
ATOM     43  C   UNL     1       2.572   0.387 -12.802  1.00  0.00     0.029 A 
ATOM     44  C   UNL     1       3.734   1.267 -12.673  1.00  0.00     0.049 A 
ATOM     45  H   UNL     1       4.081   2.671 -11.174  1.00  0.00     0.167 HD
ATOM     46  C   UNL     1       5.131   5.188  -7.887  1.00  0.00     0.037 A 
ATOM     47  C   UNL     1       4.768   1.312 -13.541  1.00  0.00     0.037 A 
ATOM     48  C   UNL     1       6.259   5.328  -8.768  1.00  0.00     0.049 A 
ATOM     49  C   UNL     1       5.907   2.276 -13.335  1.00  0.00     0.074 A 
ATOM     50  C   UNL     1       7.381   6.128  -8.608  1.00  0.00     0.029 A 
ATOM     51  N   UNL     1       6.393   4.695  -9.988  1.00  0.00    -0.354 N 
ATOM     52  N   UNL     1       6.161   3.054 -12.315  1.00  0.00    -0.248 NA
ATOM     53  C   UNL     1       6.896   2.381 -14.423  1.00  0.00     0.031 C 
ATOM     54  C   UNL     1       8.161   6.029  -9.764  1.00  0.00     0.029 A 
ATOM     55  C   UNL     1       7.553   5.124 -10.615  1.00  0.00     0.049 A 
ATOM     56  H   UNL     1       5.760   4.038 -10.358  1.00  0.00     0.167 HD
ATOM     57  C   UNL     1       7.330   3.736 -12.635  1.00  0.00     0.074 A 
ATOM     58  C   UNL     1       7.756   3.262 -13.932  1.00  0.00     0.031 C 
ATOM     59  C   UNL     1       7.981   4.679 -11.913  1.00  0.00     0.037 A 
BRANCH  46  60
ATOM     60  C   UNL     1       5.185   5.963  -6.601  1.00  0.00     0.064 A 
ATOM     61  C   UNL     1       5.533   5.338  -5.395  1.00  0.00     0.173 A 
ATOM     62  C   UNL     1       5.006   7.354  -6.597  1.00  0.00     0.173 A 
ATOM     63  F   UNL     1       5.707   4.009  -5.348  1.00  0.00    -0.203 F 
ATOM     64  C   UNL     1       5.707   6.082  -4.231  1.00  0.00     0.198 A 
ATOM     65  C   UNL     1       5.196   8.096  -5.435  1.00  0.00     0.198 A 
ATOM     66  F   UNL     1       4.677   7.995  -7.729  1.00  0.00    -0.203 F 
ATOM     67  F   UNL     1       6.034   5.467  -3.085  1.00  0.00    -0.200 F 
ATOM     68  C   UNL     1       5.549   7.460  -4.254  1.00  0.00     0.200 A 
ATOM     69  F   UNL     1       5.052   9.428  -5.461  1.00  0.00    -0.200 F 
ATOM     70  F   UNL     1       5.737   8.177  -3.137  1.00  0.00    -0.200 F 
ENDBRANCH  46  60
BRANCH  47  71
ATOM     71  C   UNL     1       4.761   0.428 -14.740  1.00  0.00     0.064 A 
ATOM     72  C   UNL     1       5.709  -0.593 -14.895  1.00  0.00     0.173 A 
ATOM     73  C   UNL     1       3.820   0.606 -15.765  1.00  0.00     0.173 A 
ATOM     74  F   UNL     1       6.657  -0.774 -13.964  1.00  0.00    -0.203 F 
ATOM     75  C   UNL     1       5.712  -1.405 -16.028  1.00  0.00     0.198 A 
ATOM     76  C   UNL     1       3.803  -0.227 -16.880  1.00  0.00     0.198 A 
ATOM     77  F   UNL     1       2.906   1.583 -15.675  1.00  0.00    -0.203 F 
ATOM     78  F   UNL     1       6.653  -2.347 -16.173  1.00  0.00    -0.200 F 
ATOM     79  C   UNL     1       4.752  -1.228 -17.014  1.00  0.00     0.200 A 
ATOM     80  F   UNL     1       2.869  -0.057 -17.825  1.00  0.00    -0.200 F 
ATOM     81  F   UNL     1       4.748  -2.017 -18.097  1.00  0.00    -0.200 F 
ENDBRANCH  47  71
BRANCH  59  82
ATOM     82  C   UNL     1       9.219   5.291 -12.500  1.00  0.00     0.064 A 
ATOM     83  C   UNL     1       9.146   6.204 -13.563  1.00  0.00     0.173 A 
ATOM     84  C   UNL     1      10.484   5.017 -11.957  1.00  0.00     0.173 A 
ATOM     85  F   UNL     1       7.962   6.495 -14.122  1.00  0.00    -0.203 F 
ATOM     86  C   UNL     1      10.295   6.806 -14.072  1.00  0.00     0.198 A 
ATOM     87  C   UNL     1      11.628   5.639 -12.454  1.00  0.00     0.198 A 
ATOM     88  F   UNL     1      10.609   4.161 -10.932  1.00  0.00    -0.203 F 
ATOM     89  F   UNL     1      10.203   7.650 -15.109  1.00  0.00    -0.200 F 
ATOM     90  C   UNL     1      11.533   6.528 -13.513  1.00  0.00     0.200 A 
ATOM     91  F   UNL     1      12.822   5.380 -11.903  1.00  0.00    -0.200 F 
ATOM     92  F   UNL     1      12.636   7.116 -13.998  1.00  0.00    -0.200 F 
ENDBRANCH  59  82
ENDBRANCH  33  34
ENDBRANCH  25  28
ENDBRANCH  23  24
ENDBRANCH   1  23
TORSDOF 12
