REMARK SMILES COCCCNC(=O)C[N@H+]1CC[C@H](C(=O)NCCCNC(=O)c2ccc(-c3c4nc(c(-c5c(F)c(F)c(F)c(F)c5F)c5ccc([nH]5)c(-c5c(F)c(F)c(F)c(F)c5F)c5nc(c(-c6c(F)c(F)c(F)c(F)c6F)c6ccc3[nH]6)C=C5)C=C4)cc2)[C@@H]1C
REMARK SMILES IDX 14 1 15 2 16 3 13 5 10 6 11 7 86 8 12 10 87 11 9 12 7 13
REMARK SMILES IDX 6 14 8 16 5 17 4 18 3 19 2 20 1 21 17 22 18 23 19 24 20 25
REMARK SMILES IDX 21 26 22 28 23 29 24 30 85 31 25 32 84 33 26 34 27 35 28 36
REMARK SMILES IDX 78 37 29 38 83 39 77 40 79 41 30 42 82 43 76 44 75 45 31 47
REMARK SMILES IDX 63 48 43 49 62 50 44 51 47 52 61 53 80 54 45 55 46 56 60 58
REMARK SMILES IDX 81 59 48 60 32 61 33 62 41 63 34 64 35 65 39 66 42 67 36 68
REMARK SMILES IDX 37 69 40 70 38 71 64 72 65 73 73 74 66 75 67 76 71 77 74 78
REMARK SMILES IDX 68 79 69 80 72 81 70 82 49 83 50 84 58 85 51 86 52 87 56 88
REMARK SMILES IDX 59 89 53 90 54 91 57 92 55 93
REMARK H PARENT 16 4 10 9 6 15 20 27 79 46 47 57
REMARK Flexibility Score: inf
ROOT
ATOM      1  C   UNL     1      -1.252   4.846   5.693  1.00  0.00     0.229 C 
ATOM      2  O   UNL     1      -2.238   4.098   5.621  1.00  0.00    -0.275 OA
ATOM      3  N   UNL     1      -1.569   6.147   5.528  1.00  0.00    -0.356 N 
ATOM      4  H   UNL     1      -2.534   6.321   5.618  1.00  0.00     0.163 HD
ENDROOT
BRANCH   1   5
ATOM      5  C   UNL     1       0.125   4.311   6.136  1.00  0.00     0.142 C 
ATOM      6  N   UNL     1       1.324   3.174   4.345  1.00  0.00    -0.324 N 
ATOM      7  C   UNL     1       0.218   2.327   4.831  1.00  0.00     0.263 C 
ATOM      8  C   UNL     1       1.415   4.316   5.291  1.00  0.00     0.194 C 
ATOM      9  H   UNL     1       1.150   3.513   3.399  1.00  0.00     0.348 HD
ATOM     10  C   UNL     1      -0.018   2.776   6.264  1.00  0.00     0.081 C 
ATOM     11  C   UNL     1       1.895   5.565   4.585  1.00  0.00     0.076 C 
BRANCH   6  12
ATOM     12  C   UNL     1       2.587   2.406   4.248  1.00  0.00     0.363 C 
BRANCH  12  13
ATOM     13  C   UNL     1       3.221   2.382   2.853  1.00  0.00     0.275 C 
ATOM     14  N   UNL     1       2.517   2.253   1.696  1.00  0.00    -0.351 N 
ATOM     15  H   UNL     1       3.070   2.221   0.882  1.00  0.00     0.163 HD
ATOM     16  O   UNL     1       4.455   2.374   2.745  1.00  0.00    -0.269 OA
BRANCH  14  17
ATOM     17  C   UNL     1       1.090   2.156   1.462  1.00  0.00     0.118 C 
BRANCH  17  18
ATOM     18  C   UNL     1       0.682   2.638   0.071  1.00  0.00     0.050 C 
BRANCH  18  19
ATOM     19  C   UNL     1       1.236   1.848  -1.111  1.00  0.00     0.161 C 
BRANCH  19  20
ATOM     20  O   UNL     1       0.536   0.632  -1.354  1.00  0.00    -0.385 OA
ATOM     21  C   UNL     1       0.986  -0.473  -0.586  1.00  0.00     0.194 C 
ENDBRANCH  19  20
ENDBRANCH  18  19
ENDBRANCH  17  18
ENDBRANCH  14  17
ENDBRANCH  12  13
ENDBRANCH   6  12
ENDBRANCH   1   5
BRANCH   3  22
ATOM     22  C   UNL     1      -0.807   7.340   5.249  1.00  0.00     0.117 C 
BRANCH  22  23
ATOM     23  C   UNL     1      -0.874   7.669   3.754  1.00  0.00     0.042 C 
BRANCH  23  24
ATOM     24  C   UNL     1      -2.269   8.046   3.254  1.00  0.00     0.118 C 
BRANCH  24  25
ATOM     25  N   UNL     1      -2.741   9.304   3.807  1.00  0.00    -0.352 N 
ATOM     26  C   UNL     1      -3.159  10.447   3.174  1.00  0.00     0.251 C 
ATOM     27  H   UNL     1      -2.764   9.342   4.791  1.00  0.00     0.163 HD
ATOM     28  O   UNL     1      -3.333  11.470   3.829  1.00  0.00    -0.269 OA
BRANCH  26  29
ATOM     29  C   UNL     1      -3.390  10.469   1.712  1.00  0.00     0.039 A 
ATOM     30  C   UNL     1      -2.994  11.600   0.991  1.00  0.00     0.014 A 
ATOM     31  C   UNL     1      -4.043   9.421   1.056  1.00  0.00     0.014 A 
ATOM     32  C   UNL     1      -3.206  11.660  -0.389  1.00  0.00     0.010 A 
ATOM     33  C   UNL     1      -4.193   9.452  -0.330  1.00  0.00     0.010 A 
ATOM     34  C   UNL     1      -3.783  10.574  -1.066  1.00  0.00    -0.014 A 
BRANCH  34  35
ATOM     35  C   UNL     1      -3.970  10.600  -2.540  1.00  0.00     0.031 A 
ATOM     36  C   UNL     1      -5.352  10.577  -3.131  1.00  0.00     0.074 A 
ATOM     37  C   UNL     1      -2.892  10.582  -3.348  1.00  0.00     0.049 A 
ATOM     38  N   UNL     1      -5.717  10.519  -4.388  1.00  0.00    -0.248 NA
ATOM     39  C   UNL     1      -6.476  10.596  -2.182  1.00  0.00     0.031 C 
ATOM     40  C   UNL     1      -1.500  10.562  -2.897  1.00  0.00     0.029 A 
ATOM     41  N   UNL     1      -2.798  10.567  -4.717  1.00  0.00    -0.354 N 
ATOM     42  C   UNL     1      -7.105  10.476  -4.378  1.00  0.00     0.074 A 
ATOM     43  C   UNL     1      -7.517  10.467  -2.991  1.00  0.00     0.031 C 
ATOM     44  C   UNL     1      -0.691  10.554  -3.969  1.00  0.00     0.029 A 
ATOM     45  C   UNL     1      -1.506  10.531  -5.180  1.00  0.00     0.049 A 
ATOM     46  H   UNL     1      -3.583  10.580  -5.311  1.00  0.00     0.167 HD
ATOM     47  C   UNL     1      -7.958  10.465  -5.431  1.00  0.00     0.037 A 
ATOM     48  C   UNL     1      -1.031  10.476  -6.439  1.00  0.00     0.037 A 
ATOM     49  C   UNL     1      -7.545  10.503  -6.809  1.00  0.00     0.049 A 
ATOM     50  C   UNL     1      -2.000  10.464  -7.590  1.00  0.00     0.074 A 
ATOM     51  C   UNL     1      -8.333  10.560  -7.946  1.00  0.00     0.029 A 
ATOM     52  N   UNL     1      -6.226  10.486  -7.239  1.00  0.00    -0.354 N 
ATOM     53  N   UNL     1      -3.310  10.490  -7.569  1.00  0.00    -0.248 NA
ATOM     54  C   UNL     1      -1.422  10.421  -8.941  1.00  0.00     0.031 C 
ATOM     55  C   UNL     1      -7.492  10.532  -9.064  1.00  0.00     0.029 A 
ATOM     56  C   UNL     1      -6.178  10.509  -8.623  1.00  0.00     0.049 A 
ATOM     57  H   UNL     1      -5.439  10.460  -6.647  1.00  0.00     0.167 HD
ATOM     58  C   UNL     1      -3.713  10.495  -8.898  1.00  0.00     0.074 A 
ATOM     59  C   UNL     1      -2.507  10.484  -9.700  1.00  0.00     0.031 C 
ATOM     60  C   UNL     1      -4.969  10.506  -9.407  1.00  0.00     0.037 A 
BRANCH  47  61
ATOM     61  C   UNL     1      -9.429  10.411  -5.133  1.00  0.00     0.064 A 
ATOM     62  C   UNL     1     -10.107  11.502  -4.568  1.00  0.00     0.173 A 
ATOM     63  C   UNL     1     -10.179   9.268  -5.449  1.00  0.00     0.173 A 
ATOM     64  F   UNL     1      -9.436  12.616  -4.237  1.00  0.00    -0.203 F 
ATOM     65  C   UNL     1     -11.473  11.439  -4.303  1.00  0.00     0.198 A 
ATOM     66  C   UNL     1     -11.550   9.220  -5.211  1.00  0.00     0.198 A 
ATOM     67  F   UNL     1      -9.583   8.198  -5.999  1.00  0.00    -0.203 F 
ATOM     68  F   UNL     1     -12.088  12.476  -3.716  1.00  0.00    -0.200 F 
ATOM     69  C   UNL     1     -12.194  10.302  -4.631  1.00  0.00     0.200 A 
ATOM     70  F   UNL     1     -12.249   8.125  -5.542  1.00  0.00    -0.200 F 
ATOM     71  F   UNL     1     -13.510  10.246  -4.381  1.00  0.00    -0.200 F 
ENDBRANCH  47  61
BRANCH  48  72
ATOM     72  C   UNL     1       0.436  10.452  -6.678  1.00  0.00     0.064 A 
ATOM     73  C   UNL     1       1.089  11.555  -7.246  1.00  0.00     0.173 A 
ATOM     74  C   UNL     1       1.213   9.333  -6.346  1.00  0.00     0.173 A 
ATOM     75  F   UNL     1       0.385  12.641  -7.599  1.00  0.00    -0.203 F 
ATOM     76  C   UNL     1       2.460  11.532  -7.491  1.00  0.00     0.198 A 
ATOM     77  C   UNL     1       2.589   9.322  -6.566  1.00  0.00     0.198 A 
ATOM     78  F   UNL     1       0.637   8.254  -5.796  1.00  0.00    -0.203 F 
ATOM     79  F   UNL     1       3.052  12.583  -8.075  1.00  0.00    -0.200 F 
ATOM     80  C   UNL     1       3.210  10.418  -7.145  1.00  0.00     0.200 A 
ATOM     81  F   UNL     1       3.312   8.249  -6.217  1.00  0.00    -0.200 F 
ATOM     82  F   UNL     1       4.530  10.398  -7.377  1.00  0.00    -0.200 F 
ENDBRANCH  48  72
BRANCH  60  83
ATOM     83  C   UNL     1      -5.104  10.543 -10.901  1.00  0.00     0.064 A 
ATOM     84  C   UNL     1      -4.810   9.425 -11.695  1.00  0.00     0.173 A 
ATOM     85  C   UNL     1      -5.571  11.701 -11.543  1.00  0.00     0.173 A 
ATOM     86  F   UNL     1      -4.345   8.300 -11.131  1.00  0.00    -0.203 F 
ATOM     87  C   UNL     1      -4.955   9.473 -13.079  1.00  0.00     0.198 A 
ATOM     88  C   UNL     1      -5.743  11.735 -12.923  1.00  0.00     0.198 A 
ATOM     89  F   UNL     1      -5.873  12.795 -10.828  1.00  0.00    -0.203 F 
ATOM     90  F   UNL     1      -4.623   8.409 -13.823  1.00  0.00    -0.200 F 
ATOM     91  C   UNL     1      -5.428  10.625 -13.691  1.00  0.00     0.200 A 
ATOM     92  F   UNL     1      -6.213  12.844 -13.511  1.00  0.00    -0.200 F 
ATOM     93  F   UNL     1      -5.574  10.666 -15.023  1.00  0.00    -0.200 F 
ENDBRANCH  60  83
ENDBRANCH  34  35
ENDBRANCH  26  29
ENDBRANCH  24  25
ENDBRANCH  23  24
ENDBRANCH  22  23
ENDBRANCH   3  22
TORSDOF 16
