REMARK SMILES COc1ccc(C(=O)C2=C(NCCCNC(=O)c3ccc(-c4c5nc(c(-c6c(F)c(F)c(F)c(F)c6F)c6ccc([nH]6)c(-c6c(F)c(F)c(F)c(F)c6F)c6nc(c(-c7c(F)c(F)c(F)c(F)c7F)c7ccc4[nH]7)C=C6)C=C5)cc3)C(=O)N(CCC(=O)[O-])[C@H]2c2ccccc2F)cc1
REMARK SMILES IDX 12 1 11 2 10 4 9 5 89 6 81 7 83 8 82 9 7 10 8 11 6 12 3 13
REMARK SMILES IDX 4 14 98 15 5 16 97 17 2 18 1 19 90 20 91 21 95 22 92 23
REMARK SMILES IDX 94 24 96 25 93 26 84 27 85 28 86 29 87 30 88 31 13 32 14 33
REMARK SMILES IDX 15 34 16 35 17 37 18 38 19 39 80 40 20 41 79 42 21 43 22 44
REMARK SMILES IDX 23 45 73 46 24 47 78 48 72 49 74 50 25 51 77 52 71 53 70 54
REMARK SMILES IDX 26 56 58 57 38 58 57 59 39 60 42 61 56 62 75 63 40 64 41 65
REMARK SMILES IDX 55 67 76 68 43 69 27 70 28 71 36 72 29 73 30 74 34 75 37 76
REMARK SMILES IDX 31 77 32 78 35 79 33 80 59 81 60 82 68 83 61 84 62 85 66 86
REMARK SMILES IDX 69 87 63 88 64 89 67 90 65 91 44 92 45 93 53 94 46 95 47 96
REMARK SMILES IDX 51 97 54 98 48 99 49 100 52 101 50 102
REMARK H PARENT 11 3 15 36 74 55 42 66
REMARK Flexibility Score: inf
ROOT
ATOM      1  C   UNL     1       1.058  -0.629  -7.991  1.00  0.00     0.115 C 
ENDROOT
BRANCH   1   2
ATOM      2  N   UNL     1       2.500  -0.565  -7.936  1.00  0.00    -0.380 N 
ATOM      3  H   UNL     1       2.907   0.153  -8.473  1.00  0.00     0.160 HD
BRANCH   2   4
ATOM      4  C   UNL     1       3.386  -1.352  -7.250  1.00  0.00     0.110 C 
ATOM      5  C   UNL     1       3.327  -2.293  -6.301  1.00  0.00     0.056 C 
ATOM      6  C   UNL     1       4.644  -2.935  -5.976  1.00  0.00     0.155 C 
ATOM      7  C   UNL     1       4.841  -1.270  -7.607  1.00  0.00     0.271 C 
ATOM      8  N   UNL     1       5.503  -2.278  -6.942  1.00  0.00    -0.326 N 
ATOM      9  O   UNL     1       5.299  -0.442  -8.376  1.00  0.00    -0.267 OA
BRANCH   5  10
ATOM     10  C   UNL     1       2.064  -2.811  -5.754  1.00  0.00     0.193 C 
ATOM     11  O   UNL     1       1.489  -3.732  -6.328  1.00  0.00    -0.289 OA
BRANCH  10  12
ATOM     12  C   UNL     1       1.499  -2.220  -4.505  1.00  0.00     0.023 A 
ATOM     13  C   UNL     1       0.481  -1.349  -2.022  1.00  0.00     0.118 A 
ATOM     14  C   UNL     1      -0.242  -2.246  -2.811  1.00  0.00     0.047 A 
ATOM     15  C   UNL     1       1.685  -0.845  -2.506  1.00  0.00     0.047 A 
ATOM     16  C   UNL     1       0.265  -2.688  -4.039  1.00  0.00     0.016 A 
ATOM     17  C   UNL     1       2.168  -1.250  -3.755  1.00  0.00     0.016 A 
BRANCH  13  18
ATOM     18  O   UNL     1      -0.084  -1.046  -0.815  1.00  0.00    -0.497 OA
ATOM     19  C   UNL     1       0.612  -0.109   0.000  1.00  0.00     0.278 C 
ENDBRANCH  13  18
ENDBRANCH  10  12
ENDBRANCH   5  10
BRANCH   6  20
ATOM     20  C   UNL     1       5.118  -2.677  -4.558  1.00  0.00     0.015 A 
ATOM     21  C   UNL     1       5.598  -1.418  -4.142  1.00  0.00     0.009 A 
ATOM     22  C   UNL     1       5.049  -3.697  -3.608  1.00  0.00     0.128 A 
ATOM     23  C   UNL     1       5.956  -1.191  -2.812  1.00  0.00     0.001 A 
ATOM     24  C   UNL     1       5.420  -3.482  -2.283  1.00  0.00     0.039 A 
ATOM     25  F   UNL     1       4.615  -4.913  -3.967  1.00  0.00    -0.207 F 
ATOM     26  C   UNL     1       5.864  -2.223  -1.881  1.00  0.00     0.003 A 
ENDBRANCH   6  20
BRANCH   8  27
ATOM     27  C   UNL     1       6.917  -2.600  -7.105  1.00  0.00     0.127 C 
BRANCH  27  28
ATOM     28  C   UNL     1       7.236  -3.276  -8.432  1.00  0.00     0.074 C 
BRANCH  28  29
ATOM     29  C   UNL     1       7.330  -2.257  -9.526  1.00  0.00     0.043 C 
ATOM     30  O   UNL     1       8.227  -1.442  -9.666  1.00  0.00    -0.550 OA
ATOM     31  O   UNL     1       6.260  -2.272 -10.342  1.00  0.00    -0.550 OA
ENDBRANCH  28  29
ENDBRANCH  27  28
ENDBRANCH   8  27
ENDBRANCH   2   4
ENDBRANCH   1   2
BRANCH   1  32
ATOM     32  C   UNL     1       0.462   0.720  -7.611  1.00  0.00     0.042 C 
BRANCH  32  33
ATOM     33  C   UNL     1       0.788   1.839  -8.593  1.00  0.00     0.118 C 
BRANCH  33  34
ATOM     34  N   UNL     1       0.184   1.636  -9.903  1.00  0.00    -0.352 N 
ATOM     35  C   UNL     1      -0.699   2.414 -10.607  1.00  0.00     0.251 C 
ATOM     36  H   UNL     1       0.454   0.804 -10.356  1.00  0.00     0.163 HD
ATOM     37  O   UNL     1      -1.228   1.964 -11.620  1.00  0.00    -0.269 OA
BRANCH  35  38
ATOM     38  C   UNL     1      -1.040   3.781 -10.152  1.00  0.00     0.039 A 
ATOM     39  C   UNL     1      -2.362   4.215 -10.280  1.00  0.00     0.014 A 
ATOM     40  C   UNL     1      -0.072   4.648  -9.638  1.00  0.00     0.014 A 
ATOM     41  C   UNL     1      -2.721   5.491  -9.842  1.00  0.00     0.010 A 
ATOM     42  C   UNL     1      -0.448   5.887  -9.120  1.00  0.00     0.010 A 
ATOM     43  C   UNL     1      -1.776   6.326  -9.223  1.00  0.00    -0.014 A 
BRANCH  43  44
ATOM     44  C   UNL     1      -2.176   7.649  -8.677  1.00  0.00     0.031 A 
ATOM     45  C   UNL     1      -1.590   8.919  -9.231  1.00  0.00     0.074 A 
ATOM     46  C   UNL     1      -3.048   7.701  -7.650  1.00  0.00     0.049 A 
ATOM     47  N   UNL     1      -1.825  10.160  -8.880  1.00  0.00    -0.248 NA
ATOM     48  C   UNL     1      -0.589   8.783 -10.300  1.00  0.00     0.031 C 
ATOM     49  C   UNL     1      -3.634   6.538  -6.980  1.00  0.00     0.029 A 
ATOM     50  N   UNL     1      -3.593   8.773  -6.988  1.00  0.00    -0.354 N 
ATOM     51  C   UNL     1      -0.997  10.943  -9.674  1.00  0.00     0.074 A 
ATOM     52  C   UNL     1      -0.213  10.040 -10.486  1.00  0.00     0.031 C 
ATOM     53  C   UNL     1      -4.479   6.958  -6.026  1.00  0.00     0.029 A 
ATOM     54  C   UNL     1      -4.470   8.417  -5.991  1.00  0.00     0.049 A 
ATOM     55  H   UNL     1      -3.377   9.708  -7.206  1.00  0.00     0.167 HD
ATOM     56  C   UNL     1      -0.917  12.294  -9.736  1.00  0.00     0.037 A 
ATOM     57  C   UNL     1      -5.184   9.181  -5.143  1.00  0.00     0.037 A 
ATOM     58  C   UNL     1      -1.721  13.191  -8.946  1.00  0.00     0.049 A 
ATOM     59  C   UNL     1      -5.090  10.679  -5.252  1.00  0.00     0.074 A 
ATOM     60  C   UNL     1      -1.768  14.574  -8.993  1.00  0.00     0.029 A 
ATOM     61  N   UNL     1      -2.615  12.794  -7.963  1.00  0.00    -0.354 N 
ATOM     62  N   UNL     1      -4.372  11.407  -6.072  1.00  0.00    -0.248 NA
ATOM     63  C   UNL     1      -5.918  11.462  -4.324  1.00  0.00     0.031 C 
ATOM     64  C   UNL     1      -2.649  15.016  -8.000  1.00  0.00     0.029 A 
ATOM     65  C   UNL     1      -3.197  13.907  -7.377  1.00  0.00     0.049 A 
ATOM     66  H   UNL     1      -2.808  11.860  -7.718  1.00  0.00     0.167 HD
ATOM     67  C   UNL     1      -4.679  12.729  -5.777  1.00  0.00     0.074 A 
ATOM     68  C   UNL     1      -5.670  12.701  -4.722  1.00  0.00     0.031 C 
ATOM     69  C   UNL     1      -4.182  13.864  -6.326  1.00  0.00     0.037 A 
BRANCH  56  70
ATOM     70  C   UNL     1       0.070  12.896 -10.695  1.00  0.00     0.064 A 
ATOM     71  C   UNL     1      -0.118  12.832 -12.084  1.00  0.00     0.173 A 
ATOM     72  C   UNL     1       1.182  13.607 -10.218  1.00  0.00     0.173 A 
ATOM     73  F   UNL     1      -1.159  12.157 -12.594  1.00  0.00    -0.203 F 
ATOM     74  C   UNL     1       0.780  13.438 -12.959  1.00  0.00     0.198 A 
ATOM     75  C   UNL     1       2.061  14.238 -11.094  1.00  0.00     0.198 A 
ATOM     76  F   UNL     1       1.407  13.705  -8.899  1.00  0.00    -0.203 F 
ATOM     77  F   UNL     1       0.601  13.330 -14.283  1.00  0.00    -0.200 F 
ATOM     78  C   UNL     1       1.863  14.149 -12.463  1.00  0.00     0.200 A 
ATOM     79  F   UNL     1       3.098  14.938 -10.613  1.00  0.00    -0.200 F 
ATOM     80  F   UNL     1       2.716  14.748 -13.306  1.00  0.00    -0.200 F 
ENDBRANCH  56  70
BRANCH  57  81
ATOM     81  C   UNL     1      -6.065   8.546  -4.126  1.00  0.00     0.064 A 
ATOM     82  C   UNL     1      -7.460   8.671  -4.195  1.00  0.00     0.173 A 
ATOM     83  C   UNL     1      -5.530   7.822  -3.050  1.00  0.00     0.173 A 
ATOM     84  F   UNL     1      -8.021   9.370  -5.194  1.00  0.00    -0.203 F 
ATOM     85  C   UNL     1      -8.283   8.127  -3.211  1.00  0.00     0.198 A 
ATOM     86  C   UNL     1      -6.355   7.249  -2.085  1.00  0.00     0.198 A 
ATOM     87  F   UNL     1      -4.202   7.666  -2.939  1.00  0.00    -0.203 F 
ATOM     88  F   UNL     1      -9.608   8.316  -3.269  1.00  0.00    -0.200 F 
ATOM     89  C   UNL     1      -7.730   7.412  -2.159  1.00  0.00     0.200 A 
ATOM     90  F   UNL     1      -5.817   6.545  -1.079  1.00  0.00    -0.200 F 
ATOM     91  F   UNL     1      -8.521   6.891  -1.212  1.00  0.00    -0.200 F 
ENDBRANCH  57  81
BRANCH  69  92
ATOM     92  C   UNL     1      -4.724  15.167  -5.812  1.00  0.00     0.064 A 
ATOM     93  C   UNL     1      -4.440  15.625  -4.516  1.00  0.00     0.173 A 
ATOM     94  C   UNL     1      -5.529  15.975  -6.630  1.00  0.00     0.173 A 
ATOM     95  F   UNL     1      -3.687  14.884  -3.689  1.00  0.00    -0.203 F 
ATOM     96  C   UNL     1      -4.975  16.821  -4.046  1.00  0.00     0.198 A 
ATOM     97  C   UNL     1      -6.032  17.188  -6.169  1.00  0.00     0.198 A 
ATOM     98  F   UNL     1      -5.824  15.590  -7.881  1.00  0.00    -0.203 F 
ATOM     99  F   UNL     1      -4.744  17.204  -2.782  1.00  0.00    -0.200 F 
ATOM    100  C   UNL     1      -5.766  17.604  -4.874  1.00  0.00     0.200 A 
ATOM    101  F   UNL     1      -6.782  17.951  -6.976  1.00  0.00    -0.200 F 
ATOM    102  F   UNL     1      -6.279  18.755  -4.419  1.00  0.00    -0.200 F 
ENDBRANCH  69  92
ENDBRANCH  43  44
ENDBRANCH  35  38
ENDBRANCH  33  34
ENDBRANCH  32  33
ENDBRANCH   1  32
TORSDOF 17
