REMARK SMILES CC(C)[C@@H](NC(=O)[C@@](C)([NH3+])C(F)(F)F)C(=O)NCCCNC(=O)c1ccc(-c2c3nc(c(-c4c(F)c(F)c(F)c(F)c4F)c4ccc([nH]4)c(-c4c(F)c(F)c(F)c(F)c4F)c4nc(c(-c5c(F)c(F)c(F)c(F)c5F)c5ccc2[nH]5)C=C4)C=C3)cc1
REMARK SMILES IDX 18 1 17 2 15 3 16 4 4 6 2 7 1 8 3 9 5 10 6 11 7 13 8 14 9 15
REMARK SMILES IDX 10 16 11 20 12 21 13 22 14 23 19 24 20 25 21 26 22 27 23 29
REMARK SMILES IDX 24 30 25 31 86 32 26 33 85 34 27 35 28 36 29 37 79 38 30 39
REMARK SMILES IDX 84 40 78 41 80 42 31 43 83 44 77 45 76 46 32 48 64 49 44 50
REMARK SMILES IDX 63 51 45 52 48 53 62 54 81 55 46 56 47 57 61 59 82 60 49 61
REMARK SMILES IDX 33 62 34 63 42 64 35 65 36 66 40 67 43 68 37 69 38 70 41 71
REMARK SMILES IDX 39 72 65 73 66 74 74 75 67 76 68 77 72 78 75 79 69 80 70 81
REMARK SMILES IDX 73 82 71 83 50 84 51 85 59 86 52 87 53 88 57 89 60 90 54 91
REMARK SMILES IDX 55 92 58 93 56 94
REMARK H PARENT 17 5 5 12 10 17 10 18 10 19 21 28 80 47 48 58
REMARK Flexibility Score: inf
ROOT
ATOM      1  C   UNL     1       0.561   3.389   1.848  1.00  0.00     0.117 C 
ENDROOT
BRANCH   1   2
ATOM      2  N   UNL     1       0.019   3.746   0.545  1.00  0.00    -0.354 N 
ATOM      3  C   UNL     1      -0.841   3.031  -0.235  1.00  0.00     0.242 C 
ATOM      4  O   UNL     1      -1.414   3.620  -1.154  1.00  0.00    -0.273 OA
ATOM      5  H   UNL     1       0.312   4.612   0.181  1.00  0.00     0.163 HD
BRANCH   3   6
ATOM      6  C   UNL     1      -1.011   1.522  -0.029  1.00  0.00     0.174 C 
BRANCH   6   7
ATOM      7  C   UNL     1       0.340   0.833  -0.428  1.00  0.00     0.015 C 
ATOM      8  C   UNL     1       0.270  -0.695  -0.392  1.00  0.00     0.010 C 
ATOM      9  C   UNL     1       0.852   1.271  -1.810  1.00  0.00     0.010 C 
ENDBRANCH   6   7
BRANCH   6  10
ATOM     10  N   UNL     1      -1.394   1.225   1.362  1.00  0.00    -0.338 N 
ATOM     11  C   UNL     1      -2.503   1.498   2.114  1.00  0.00     0.291 C 
ATOM     12  H   UNL     1      -0.705   0.724   1.855  1.00  0.00     0.164 HD
ATOM     13  O   UNL     1      -2.558   0.831   3.155  1.00  0.00    -0.267 OA
BRANCH  11  14
ATOM     14  C   UNL     1      -3.538   2.621   1.824  1.00  0.00     0.267 C 
ATOM     15  C   UNL     1      -2.979   4.019   2.143  1.00  0.00     0.100 C 
BRANCH  14  16
ATOM     16  N   UNL     1      -3.976   2.587   0.389  1.00  0.00    -0.337 N 
ATOM     17  H   UNL     1      -3.168   2.733  -0.217  1.00  0.00     0.345 HD
ATOM     18  H   UNL     1      -4.662   3.325   0.226  1.00  0.00     0.345 HD
ATOM     19  H   UNL     1      -4.396   1.681   0.183  1.00  0.00     0.345 HD
ENDBRANCH  14  16
BRANCH  14  20
ATOM     20  C   UNL     1      -4.709   2.405   2.839  1.00  0.00     0.453 C 
ATOM     21  F   UNL     1      -5.318   1.209   2.709  1.00  0.00    -0.164 F 
ATOM     22  F   UNL     1      -4.323   2.558   4.127  1.00  0.00    -0.164 F 
ATOM     23  F   UNL     1      -5.670   3.351   2.622  1.00  0.00    -0.164 F 
ENDBRANCH  14  20
ENDBRANCH  11  14
ENDBRANCH   6  10
ENDBRANCH   3   6
ENDBRANCH   1   2
BRANCH   1  24
ATOM     24  C   UNL     1       1.620   4.366   2.308  1.00  0.00     0.042 C 
BRANCH  24  25
ATOM     25  C   UNL     1       1.079   5.771   2.507  1.00  0.00     0.118 C 
BRANCH  25  26
ATOM     26  N   UNL     1       0.232   5.914   3.683  1.00  0.00    -0.352 N 
ATOM     27  C   UNL     1       0.378   6.779   4.746  1.00  0.00     0.251 C 
ATOM     28  H   UNL     1      -0.548   5.314   3.724  1.00  0.00     0.163 HD
ATOM     29  O   UNL     1      -0.369   6.729   5.710  1.00  0.00    -0.269 OA
BRANCH  27  30
ATOM     30  C   UNL     1       1.504   7.734   4.716  1.00  0.00     0.039 A 
ATOM     31  C   UNL     1       2.411   7.738   5.776  1.00  0.00     0.014 A 
ATOM     32  C   UNL     1       1.731   8.508   3.577  1.00  0.00     0.014 A 
ATOM     33  C   UNL     1       3.607   8.443   5.645  1.00  0.00     0.010 A 
ATOM     34  C   UNL     1       2.971   9.104   3.402  1.00  0.00     0.010 A 
ATOM     35  C   UNL     1       3.924   9.079   4.433  1.00  0.00    -0.014 A 
BRANCH  35  36
ATOM     36  C   UNL     1       5.239   9.733   4.218  1.00  0.00     0.031 A 
ATOM     37  C   UNL     1       5.293  11.198   3.883  1.00  0.00     0.074 A 
ATOM     38  C   UNL     1       6.371   9.000   4.239  1.00  0.00     0.049 A 
ATOM     39  N   UNL     1       6.322  11.936   3.553  1.00  0.00    -0.248 NA
ATOM     40  C   UNL     1       4.011  11.920   3.872  1.00  0.00     0.031 C 
ATOM     41  C   UNL     1       6.447   7.558   4.484  1.00  0.00     0.029 A 
ATOM     42  N   UNL     1       7.679   9.369   4.044  1.00  0.00    -0.354 N 
ATOM     43  C   UNL     1       5.805  13.192   3.268  1.00  0.00     0.074 A 
ATOM     44  C   UNL     1       4.368  13.102   3.396  1.00  0.00     0.031 C 
ATOM     45  C   UNL     1       7.733   7.173   4.461  1.00  0.00     0.029 A 
ATOM     46  C   UNL     1       8.570   8.330   4.163  1.00  0.00     0.049 A 
ATOM     47  H   UNL     1       7.952  10.292   3.838  1.00  0.00     0.167 HD
ATOM     48  C   UNL     1       6.470  14.331   2.962  1.00  0.00     0.037 A 
ATOM     49  C   UNL     1       9.912   8.317   4.046  1.00  0.00     0.037 A 
ATOM     50  C   UNL     1       7.902  14.431   2.892  1.00  0.00     0.049 A 
ATOM     51  C   UNL     1      10.631   9.603   3.741  1.00  0.00     0.074 A 
ATOM     52  C   UNL     1       8.679  15.552   2.663  1.00  0.00     0.029 A 
ATOM     53  N   UNL     1       8.773  13.365   3.064  1.00  0.00    -0.354 N 
ATOM     54  N   UNL     1      10.136  10.800   3.539  1.00  0.00    -0.248 NA
ATOM     55  C   UNL     1      12.097   9.538   3.652  1.00  0.00     0.031 C 
ATOM     56  C   UNL     1      10.021  15.159   2.664  1.00  0.00     0.029 A 
ATOM     57  C   UNL     1      10.081  13.801   2.935  1.00  0.00     0.049 A 
ATOM     58  H   UNL     1       8.502  12.437   3.250  1.00  0.00     0.167 HD
ATOM     59  C   UNL     1      11.226  11.634   3.330  1.00  0.00     0.074 A 
ATOM     60  C   UNL     1      12.411  10.808   3.442  1.00  0.00     0.031 C 
ATOM     61  C   UNL     1      11.245  12.963   3.067  1.00  0.00     0.037 A 
BRANCH  48  62
ATOM     62  C   UNL     1       5.650  15.560   2.700  1.00  0.00     0.064 A 
ATOM     63  C   UNL     1       4.942  16.203   3.728  1.00  0.00     0.173 A 
ATOM     64  C   UNL     1       5.580  16.109   1.412  1.00  0.00     0.173 A 
ATOM     65  F   UNL     1       4.963  15.707   4.974  1.00  0.00    -0.203 F 
ATOM     66  C   UNL     1       4.167  17.330   3.468  1.00  0.00     0.198 A 
ATOM     67  C   UNL     1       4.830  17.256   1.162  1.00  0.00     0.198 A 
ATOM     68  F   UNL     1       6.239  15.535   0.394  1.00  0.00    -0.203 F 
ATOM     69  F   UNL     1       3.454  17.891   4.454  1.00  0.00    -0.200 F 
ATOM     70  C   UNL     1       4.117  17.859   2.188  1.00  0.00     0.200 A 
ATOM     71  F   UNL     1       4.790  17.772  -0.074  1.00  0.00    -0.200 F 
ATOM     72  F   UNL     1       3.373  18.945   1.940  1.00  0.00    -0.200 F 
ENDBRANCH  48  62
BRANCH  49  73
ATOM     73  C   UNL     1      10.668   7.055   4.257  1.00  0.00     0.064 A 
ATOM     74  C   UNL     1      11.474   6.884   5.392  1.00  0.00     0.173 A 
ATOM     75  C   UNL     1      10.611   6.001   3.334  1.00  0.00     0.173 A 
ATOM     76  F   UNL     1      11.576   7.872   6.294  1.00  0.00    -0.203 F 
ATOM     77  C   UNL     1      12.212   5.718   5.585  1.00  0.00     0.198 A 
ATOM     78  C   UNL     1      11.329   4.824   3.541  1.00  0.00     0.198 A 
ATOM     79  F   UNL     1       9.851   6.111   2.236  1.00  0.00    -0.203 F 
ATOM     80  F   UNL     1      13.009   5.601   6.655  1.00  0.00    -0.200 F 
ATOM     81  C   UNL     1      12.135   4.687   4.661  1.00  0.00     0.200 A 
ATOM     82  F   UNL     1      11.242   3.824   2.653  1.00  0.00    -0.200 F 
ATOM     83  F   UNL     1      12.843   3.564   4.847  1.00  0.00    -0.200 F 
ENDBRANCH  49  73
BRANCH  61  84
ATOM     84  C   UNL     1      12.588  13.615   2.920  1.00  0.00     0.064 A 
ATOM     85  C   UNL     1      13.381  13.415   1.782  1.00  0.00     0.173 A 
ATOM     86  C   UNL     1      13.062  14.488   3.910  1.00  0.00     0.173 A 
ATOM     87  F   UNL     1      12.975  12.577   0.816  1.00  0.00    -0.203 F 
ATOM     88  C   UNL     1      14.612  14.050   1.650  1.00  0.00     0.198 A 
ATOM     89  C   UNL     1      14.281  15.143   3.762  1.00  0.00     0.198 A 
ATOM     90  F   UNL     1      12.336  14.717   5.015  1.00  0.00    -0.203 F 
ATOM     91  F   UNL     1      15.374  13.812   0.573  1.00  0.00    -0.200 F 
ATOM     92  C   UNL     1      15.057  14.919   2.635  1.00  0.00     0.200 A 
ATOM     93  F   UNL     1      14.704  15.992   4.709  1.00  0.00    -0.200 F 
ATOM     94  F   UNL     1      16.239  15.536   2.502  1.00  0.00    -0.200 F 
ENDBRANCH  61  84
ENDBRANCH  35  36
ENDBRANCH  27  30
ENDBRANCH  25  26
ENDBRANCH  24  25
ENDBRANCH   1  24
TORSDOF 15
