REMARK SMILES COc1cc(CC(=O)NCCCNC(=O)c2ccc(-c3c4nc(c(-c5c(F)c(F)c(F)c(F)c5F)c5ccc([nH]5)c(-c5c(F)c(F)c(F)c(F)c5F)c5nc(c(-c6c(F)c(F)c(F)c(F)c6F)c6ccc3[nH]6)C=C5)C=C4)cc2)cc(Br)c1O
REMARK SMILES IDX 11 1 10 2 9 3 7 4 8 5 6 7 5 8 3 9 4 10 82 11 80 12 79 13
REMARK SMILES IDX 81 14 2 15 1 16 83 17 12 19 13 20 14 21 15 23 16 24 17 25
REMARK SMILES IDX 78 26 18 27 77 28 19 29 20 30 21 31 71 32 22 33 76 34 70 35
REMARK SMILES IDX 72 36 23 37 75 38 69 39 68 40 24 42 56 43 36 44 55 45 37 46
REMARK SMILES IDX 40 47 54 48 73 49 38 50 39 51 53 53 74 54 41 55 25 56 26 57
REMARK SMILES IDX 34 58 27 59 28 60 32 61 35 62 29 63 30 64 33 65 31 66 57 67
REMARK SMILES IDX 58 68 66 69 59 70 60 71 64 72 67 73 61 74 62 75 65 76 63 77
REMARK SMILES IDX 42 78 43 79 51 80 44 81 45 82 49 83 52 84 46 85 47 86 50 87
REMARK SMILES IDX 48 88
REMARK H PARENT 9 6 83 18 13 22 72 41 40 52
REMARK Flexibility Score: inf
ROOT
ATOM      1  C   UNL     1      -1.006  -1.099   4.053  1.00  0.00     0.042 C 
ENDROOT
BRANCH   1   2
ATOM      2  C   UNL     1      -2.023  -0.068   4.538  1.00  0.00     0.117 C 
BRANCH   2   3
ATOM      3  N   UNL     1      -1.628   0.548   5.790  1.00  0.00    -0.356 N 
ATOM      4  C   UNL     1      -1.018   1.751   6.003  1.00  0.00     0.224 C 
ATOM      5  O   UNL     1      -0.705   2.054   7.155  1.00  0.00    -0.275 OA
ATOM      6  H   UNL     1      -1.827   0.025   6.601  1.00  0.00     0.163 HD
BRANCH   4   7
ATOM      7  C   UNL     1      -0.757   2.688   4.836  1.00  0.00     0.135 C 
BRANCH   7   8
ATOM      8  C   UNL     1       0.388   2.259   3.950  1.00  0.00    -0.034 A 
ATOM      9  C   UNL     1       1.253   1.676   1.762  1.00  0.00     0.161 A 
ATOM     10  C   UNL     1       0.196   2.091   2.570  1.00  0.00     0.054 A 
ATOM     11  C   UNL     1       2.529   1.494   2.298  1.00  0.00     0.172 A 
ATOM     12  C   UNL     1       2.732   1.658   3.667  1.00  0.00     0.063 A 
ATOM     13  C   UNL     1       1.667   2.040   4.490  1.00  0.00     0.024 A 
ATOM     14  Br  UNL     1       4.435   1.389   4.454  1.00  0.00    -0.047 Br
BRANCH   9  15
ATOM     15  O   UNL     1       1.022   1.504   0.421  1.00  0.00    -0.493 OA
ATOM     16  C   UNL     1       0.899   0.112   0.109  1.00  0.00     0.278 C 
ENDBRANCH   9  15
BRANCH  11  17
ATOM     17  O   UNL     1       3.571   1.181   1.469  1.00  0.00    -0.503 OA
ATOM     18  H   UNL     1       3.423   1.072   0.550  1.00  0.00     0.293 HD
ENDBRANCH  11  17
ENDBRANCH   7   8
ENDBRANCH   4   7
ENDBRANCH   2   3
ENDBRANCH   1   2
BRANCH   1  19
ATOM     19  C   UNL     1      -0.890  -2.333   4.944  1.00  0.00     0.118 C 
BRANCH  19  20
ATOM     20  N   UNL     1      -2.110  -3.126   4.964  1.00  0.00    -0.352 N 
ATOM     21  C   UNL     1      -2.329  -4.437   4.627  1.00  0.00     0.251 C 
ATOM     22  H   UNL     1      -2.910  -2.642   5.271  1.00  0.00     0.163 HD
ATOM     23  O   UNL     1      -3.485  -4.851   4.546  1.00  0.00    -0.269 OA
BRANCH  21  24
ATOM     24  C   UNL     1      -1.206  -5.357   4.341  1.00  0.00     0.039 A 
ATOM     25  C   UNL     1      -1.348  -6.280   3.299  1.00  0.00     0.014 A 
ATOM     26  C   UNL     1      -0.043  -5.361   5.117  1.00  0.00     0.014 A 
ATOM     27  C   UNL     1      -0.305  -7.159   2.995  1.00  0.00     0.010 A 
ATOM     28  C   UNL     1       1.022  -6.192   4.772  1.00  0.00     0.010 A 
ATOM     29  C   UNL     1       0.902  -7.099   3.709  1.00  0.00    -0.014 A 
BRANCH  29  30
ATOM     30  C   UNL     1       2.050  -7.968   3.348  1.00  0.00     0.031 A 
ATOM     31  C   UNL     1       2.542  -9.018   4.303  1.00  0.00     0.074 A 
ATOM     32  C   UNL     1       2.696  -7.763   2.184  1.00  0.00     0.049 A 
ATOM     33  N   UNL     1       3.574  -9.818   4.195  1.00  0.00    -0.248 NA
ATOM     34  C   UNL     1       1.789  -9.174   5.556  1.00  0.00     0.031 C 
ATOM     35  C   UNL     1       2.347  -6.743   1.195  1.00  0.00     0.029 A 
ATOM     36  N   UNL     1       3.792  -8.389   1.645  1.00  0.00    -0.354 N 
ATOM     37  C   UNL     1       3.602 -10.559   5.369  1.00  0.00     0.074 A 
ATOM     38  C   UNL     1       2.513 -10.082   6.194  1.00  0.00     0.031 C 
ATOM     39  C   UNL     1       3.205  -6.818   0.166  1.00  0.00     0.029 A 
ATOM     40  C   UNL     1       4.184  -7.867   0.438  1.00  0.00     0.049 A 
ATOM     41  H   UNL     1       4.253  -9.140   2.083  1.00  0.00     0.167 HD
ATOM     42  C   UNL     1       4.447 -11.559   5.718  1.00  0.00     0.037 A 
ATOM     43  C   UNL     1       5.221  -8.188  -0.357  1.00  0.00     0.037 A 
ATOM     44  C   UNL     1       5.519 -12.044   4.888  1.00  0.00     0.049 A 
ATOM     45  C   UNL     1       6.144  -9.303   0.048  1.00  0.00     0.074 A 
ATOM     46  C   UNL     1       6.390 -13.093   5.127  1.00  0.00     0.029 A 
ATOM     47  N   UNL     1       5.870 -11.507   3.658  1.00  0.00    -0.354 N 
ATOM     48  N   UNL     1       6.120 -10.043   1.130  1.00  0.00    -0.248 NA
ATOM     49  C   UNL     1       7.232  -9.634  -0.881  1.00  0.00     0.031 C 
ATOM     50  C   UNL     1       7.293 -13.165   4.060  1.00  0.00     0.029 A 
ATOM     51  C   UNL     1       6.957 -12.189   3.135  1.00  0.00     0.049 A 
ATOM     52  H   UNL     1       5.414 -10.752   3.221  1.00  0.00     0.167 HD
ATOM     53  C   UNL     1       7.175 -10.935   1.006  1.00  0.00     0.074 A 
ATOM     54  C   UNL     1       7.810 -10.657  -0.266  1.00  0.00     0.031 C 
ATOM     55  C   UNL     1       7.581 -11.898   1.869  1.00  0.00     0.037 A 
BRANCH  42  56
ATOM     56  C   UNL     1       4.241 -12.197   7.061  1.00  0.00     0.064 A 
ATOM     57  C   UNL     1       3.130 -13.013   7.324  1.00  0.00     0.173 A 
ATOM     58  C   UNL     1       5.172 -12.006   8.093  1.00  0.00     0.173 A 
ATOM     59  F   UNL     1       2.204 -13.219   6.375  1.00  0.00    -0.203 F 
ATOM     60  C   UNL     1       2.941 -13.585   8.579  1.00  0.00     0.198 A 
ATOM     61  C   UNL     1       4.995 -12.604   9.338  1.00  0.00     0.198 A 
ATOM     62  F   UNL     1       6.256 -11.242   7.893  1.00  0.00    -0.203 F 
ATOM     63  F   UNL     1       1.844 -14.316   8.822  1.00  0.00    -0.200 F 
ATOM     64  C   UNL     1       3.875 -13.385   9.583  1.00  0.00     0.200 A 
ATOM     65  F   UNL     1       5.905 -12.419  10.305  1.00  0.00    -0.200 F 
ATOM     66  F   UNL     1       3.692 -13.936  10.791  1.00  0.00    -0.200 F 
ENDBRANCH  42  56
BRANCH  43  67
ATOM     67  C   UNL     1       5.424  -7.451  -1.630  1.00  0.00     0.064 A 
ATOM     68  C   UNL     1       5.155  -8.060  -2.863  1.00  0.00     0.173 A 
ATOM     69  C   UNL     1       5.861  -6.119  -1.639  1.00  0.00     0.173 A 
ATOM     70  F   UNL     1       4.752  -9.338  -2.905  1.00  0.00    -0.203 F 
ATOM     71  C   UNL     1       5.325  -7.366  -4.059  1.00  0.00     0.198 A 
ATOM     72  C   UNL     1       6.007  -5.418  -2.833  1.00  0.00     0.198 A 
ATOM     73  F   UNL     1       6.123  -5.491  -0.483  1.00  0.00    -0.203 F 
ATOM     74  F   UNL     1       5.089  -7.980  -5.227  1.00  0.00    -0.200 F 
ATOM     75  C   UNL     1       5.744  -6.044  -4.043  1.00  0.00     0.200 A 
ATOM     76  F   UNL     1       6.395  -4.136  -2.813  1.00  0.00    -0.200 F 
ATOM     77  F   UNL     1       5.894  -5.372  -5.193  1.00  0.00    -0.200 F 
ENDBRANCH  43  67
BRANCH  55  78
ATOM     78  C   UNL     1       8.757 -12.734   1.459  1.00  0.00     0.064 A 
ATOM     79  C   UNL     1      10.062 -12.220   1.468  1.00  0.00     0.173 A 
ATOM     80  C   UNL     1       8.581 -14.075   1.086  1.00  0.00     0.173 A 
ATOM     81  F   UNL     1      10.279 -10.938   1.801  1.00  0.00    -0.203 F 
ATOM     82  C   UNL     1      11.146 -13.012   1.099  1.00  0.00     0.198 A 
ATOM     83  C   UNL     1       9.670 -14.872   0.743  1.00  0.00     0.198 A 
ATOM     84  F   UNL     1       7.354 -14.616   1.065  1.00  0.00    -0.203 F 
ATOM     85  F   UNL     1      12.379 -12.487   1.074  1.00  0.00    -0.200 F 
ATOM     86  C   UNL     1      10.950 -14.338   0.743  1.00  0.00     0.200 A 
ATOM     87  F   UNL     1       9.481 -16.156   0.409  1.00  0.00    -0.200 F 
ATOM     88  F   UNL     1      11.995 -15.100   0.393  1.00  0.00    -0.200 F 
ENDBRANCH  55  78
ENDBRANCH  29  30
ENDBRANCH  21  24
ENDBRANCH  19  20
ENDBRANCH   1  19
TORSDOF 13
