REMARK SMILES COc1ccc(NCc2ccc(C(=O)NCCCNC(=O)c3ccc(-c4c5nc(c(-c6c(F)c(F)c(F)c(F)c6F)c6ccc([nH]6)c(-c6c(F)c(F)c(F)c(F)c6F)c6nc(c(-c7c(F)c(F)c(F)c(F)c7F)c7ccc4[nH]7)C=C6)C=C5)cc3)o2)cc1
REMARK SMILES IDX 16 1 15 2 13 3 14 4 12 6 9 7 10 8 85 9 11 10 8 11 7 12 6 14
REMARK SMILES IDX 3 15 4 16 87 17 5 18 86 19 2 20 1 21 17 22 18 23 19 24 20 25
REMARK SMILES IDX 21 27 22 28 23 29 84 30 24 31 83 32 25 33 26 34 27 35 77 36
REMARK SMILES IDX 28 37 82 38 76 39 78 40 29 41 81 42 75 43 74 44 30 46 62 47
REMARK SMILES IDX 42 48 61 49 43 50 46 51 60 52 79 53 44 54 45 55 59 57 80 58
REMARK SMILES IDX 47 59 31 60 32 61 40 62 33 63 34 64 38 65 41 66 35 67 36 68
REMARK SMILES IDX 39 69 37 70 63 71 64 72 72 73 65 74 66 75 70 76 73 77 67 78
REMARK SMILES IDX 68 79 71 80 69 81 48 82 49 83 57 84 50 85 51 86 55 87 58 88
REMARK SMILES IDX 52 89 53 90 56 91 54 92
REMARK H PARENT 15 5 7 13 19 26 78 45 46 56
REMARK Flexibility Score: inf
ROOT
ATOM      1  C   UNL     1       1.184 -11.089   4.453  1.00  0.00     0.118 C 
ENDROOT
BRANCH   1   2
ATOM      2  N   UNL     1       0.296 -10.254   3.673  1.00  0.00    -0.349 N 
ATOM      3  C   UNL     1      -0.015  -8.917   3.778  1.00  0.00     0.286 C 
ATOM      4  O   UNL     1      -0.737  -8.473   2.883  1.00  0.00    -0.266 OA
ATOM      5  H   UNL     1      -0.166 -10.723   2.941  1.00  0.00     0.163 HD
BRANCH   3   6
ATOM      6  C   UNL     1       0.490  -8.102   4.869  1.00  0.00     0.191 A 
ATOM      7  C   UNL     1       0.970  -6.139   5.784  1.00  0.00     0.124 A 
ATOM      8  C   UNL     1       1.313  -7.091   6.716  1.00  0.00     0.048 A 
ATOM      9  O   UNL     1       0.471  -6.743   4.671  1.00  0.00    -0.454 OA
ATOM     10  C   UNL     1       0.984  -8.345   6.140  1.00  0.00     0.056 A 
BRANCH   7  11
ATOM     11  C   UNL     1       0.996  -4.647   5.775  1.00  0.00     0.188 C 
BRANCH  11  12
ATOM     12  N   UNL     1       1.812  -4.072   4.718  1.00  0.00    -0.378 N 
ATOM     13  H   UNL     1       2.723  -4.429   4.616  1.00  0.00     0.161 HD
BRANCH  12  14
ATOM     14  C   UNL     1       1.431  -3.074   3.845  1.00  0.00     0.035 A 
ATOM     15  C   UNL     1       0.793  -1.017   1.994  1.00  0.00     0.119 A 
ATOM     16  C   UNL     1      -0.128  -1.423   2.955  1.00  0.00     0.048 A 
ATOM     17  C   UNL     1       2.051  -1.609   1.977  1.00  0.00     0.048 A 
ATOM     18  C   UNL     1       0.190  -2.435   3.869  1.00  0.00     0.029 A 
ATOM     19  C   UNL     1       2.361  -2.622   2.896  1.00  0.00     0.029 A 
BRANCH  15  20
ATOM     20  O   UNL     1       0.363  -0.026   1.157  1.00  0.00    -0.497 OA
ATOM     21  C   UNL     1       1.046   0.075  -0.087  1.00  0.00     0.278 C 
ENDBRANCH  15  20
ENDBRANCH  12  14
ENDBRANCH  11  12
ENDBRANCH   7  11
ENDBRANCH   3   6
ENDBRANCH   1   2
BRANCH   1  22
ATOM     22  C   UNL     1       0.423 -11.913   5.490  1.00  0.00     0.042 C 
BRANCH  22  23
ATOM     23  C   UNL     1      -0.346 -13.090   4.889  1.00  0.00     0.118 C 
BRANCH  23  24
ATOM     24  N   UNL     1       0.546 -14.124   4.384  1.00  0.00    -0.352 N 
ATOM     25  C   UNL     1       0.640 -15.455   4.698  1.00  0.00     0.251 C 
ATOM     26  H   UNL     1       1.188 -13.816   3.704  1.00  0.00     0.163 HD
ATOM     27  O   UNL     1       1.614 -16.093   4.308  1.00  0.00    -0.269 OA
BRANCH  25  28
ATOM     28  C   UNL     1      -0.403 -16.138   5.496  1.00  0.00     0.039 A 
ATOM     29  C   UNL     1      -0.006 -17.121   6.410  1.00  0.00     0.014 A 
ATOM     30  C   UNL     1      -1.764 -15.891   5.293  1.00  0.00     0.014 A 
ATOM     31  C   UNL     1      -0.963 -17.829   7.141  1.00  0.00     0.010 A 
ATOM     32  C   UNL     1      -2.717 -16.557   6.065  1.00  0.00     0.010 A 
ATOM     33  C   UNL     1      -2.328 -17.541   6.986  1.00  0.00    -0.014 A 
BRANCH  33  34
ATOM     34  C   UNL     1      -3.360 -18.280   7.758  1.00  0.00     0.031 A 
ATOM     35  C   UNL     1      -4.326 -19.190   7.048  1.00  0.00     0.074 A 
ATOM     36  C   UNL     1      -3.466 -18.089   9.086  1.00  0.00     0.049 A 
ATOM     37  N   UNL     1      -5.349 -19.850   7.529  1.00  0.00    -0.248 NA
ATOM     38  C   UNL     1      -4.131 -19.360   5.599  1.00  0.00     0.031 C 
ATOM     39  C   UNL     1      -2.617 -17.203   9.884  1.00  0.00     0.029 A 
ATOM     40  N   UNL     1      -4.345 -18.618   9.999  1.00  0.00    -0.354 N 
ATOM     41  C   UNL     1      -5.934 -20.488   6.443  1.00  0.00     0.074 A 
ATOM     42  C   UNL     1      -5.171 -20.113   5.271  1.00  0.00     0.031 C 
ATOM     43  C   UNL     1      -3.011 -17.254  11.167  1.00  0.00     0.029 A 
ATOM     44  C   UNL     1      -4.157 -18.152  11.278  1.00  0.00     0.049 A 
ATOM     45  H   UNL     1      -5.044 -19.269   9.760  1.00  0.00     0.167 HD
ATOM     46  C   UNL     1      -7.001 -21.321   6.427  1.00  0.00     0.037 A 
ATOM     47  C   UNL     1      -4.838 -18.415  12.409  1.00  0.00     0.037 A 
ATOM     48  C   UNL     1      -7.729 -21.733   7.598  1.00  0.00     0.049 A 
ATOM     49  C   UNL     1      -5.992 -19.379  12.368  1.00  0.00     0.074 A 
ATOM     50  C   UNL     1      -8.783 -22.625   7.691  1.00  0.00     0.029 A 
ATOM     51  N   UNL     1      -7.470 -21.285   8.884  1.00  0.00    -0.354 N 
ATOM     52  N   UNL     1      -6.498 -20.021  11.343  1.00  0.00    -0.248 NA
ATOM     53  C   UNL     1      -6.663 -19.666  13.644  1.00  0.00     0.031 C 
ATOM     54  C   UNL     1      -9.181 -22.695   9.030  1.00  0.00     0.029 A 
ATOM     55  C   UNL     1      -8.349 -21.877   9.776  1.00  0.00     0.049 A 
ATOM     56  H   UNL     1      -6.765 -20.641   9.128  1.00  0.00     0.167 HD
ATOM     57  C   UNL     1      -7.521 -20.808  11.853  1.00  0.00     0.074 A 
ATOM     58  C   UNL     1      -7.558 -20.573  13.281  1.00  0.00     0.031 C 
ATOM     59  C   UNL     1      -8.355 -21.650  11.197  1.00  0.00     0.037 A 
BRANCH  46  60
ATOM     60  C   UNL     1      -7.451 -21.858   5.100  1.00  0.00     0.064 A 
ATOM     61  C   UNL     1      -6.720 -22.843   4.421  1.00  0.00     0.173 A 
ATOM     62  C   UNL     1      -8.659 -21.427   4.532  1.00  0.00     0.173 A 
ATOM     63  F   UNL     1      -5.553 -23.280   4.918  1.00  0.00    -0.203 F 
ATOM     64  C   UNL     1      -7.175 -23.366   3.213  1.00  0.00     0.198 A 
ATOM     65  C   UNL     1      -9.123 -21.970   3.337  1.00  0.00     0.198 A 
ATOM     66  F   UNL     1      -9.398 -20.490   5.146  1.00  0.00    -0.203 F 
ATOM     67  F   UNL     1      -6.444 -24.284   2.566  1.00  0.00    -0.200 F 
ATOM     68  C   UNL     1      -8.379 -22.936   2.677  1.00  0.00     0.200 A 
ATOM     69  F   UNL     1     -10.293 -21.561   2.826  1.00  0.00    -0.200 F 
ATOM     70  F   UNL     1      -8.822 -23.450   1.521  1.00  0.00    -0.200 F 
ENDBRANCH  46  60
BRANCH  47  71
ATOM     71  C   UNL     1      -4.435 -17.773  13.687  1.00  0.00     0.064 A 
ATOM     72  C   UNL     1      -3.842 -18.522  14.712  1.00  0.00     0.173 A 
ATOM     73  C   UNL     1      -4.652 -16.407  13.916  1.00  0.00     0.173 A 
ATOM     74  F   UNL     1      -3.634 -19.837  14.545  1.00  0.00    -0.203 F 
ATOM     75  C   UNL     1      -3.505 -17.936  15.930  1.00  0.00     0.198 A 
ATOM     76  C   UNL     1      -4.291 -15.816  15.125  1.00  0.00     0.198 A 
ATOM     77  F   UNL     1      -5.211 -15.646  12.964  1.00  0.00    -0.203 F 
ATOM     78  F   UNL     1      -2.986 -18.685  16.911  1.00  0.00    -0.200 F 
ATOM     79  C   UNL     1      -3.727 -16.582  16.134  1.00  0.00     0.200 A 
ATOM     80  F   UNL     1      -4.495 -14.505  15.314  1.00  0.00    -0.200 F 
ATOM     81  F   UNL     1      -3.405 -16.018  17.306  1.00  0.00    -0.200 F 
ENDBRANCH  47  71
BRANCH  59  82
ATOM     82  C   UNL     1      -9.344 -22.418  12.021  1.00  0.00     0.064 A 
ATOM     83  C   UNL     1     -10.477 -21.802  12.573  1.00  0.00     0.173 A 
ATOM     84  C   UNL     1      -9.174 -23.795  12.229  1.00  0.00     0.173 A 
ATOM     85  F   UNL     1     -10.674 -20.485  12.414  1.00  0.00    -0.203 F 
ATOM     86  C   UNL     1     -11.392 -22.535  13.324  1.00  0.00     0.198 A 
ATOM     87  C   UNL     1     -10.105 -24.529  12.958  1.00  0.00     0.198 A 
ATOM     88  F   UNL     1      -8.109 -24.430  11.716  1.00  0.00    -0.203 F 
ATOM     89  F   UNL     1     -12.445 -21.919  13.878  1.00  0.00    -0.200 F 
ATOM     90  C   UNL     1     -11.209 -23.897  13.510  1.00  0.00     0.200 A 
ATOM     91  F   UNL     1      -9.932 -25.846  13.129  1.00  0.00    -0.200 F 
ATOM     92  F   UNL     1     -12.094 -24.601  14.229  1.00  0.00    -0.200 F 
ENDBRANCH  59  82
ENDBRANCH  33  34
ENDBRANCH  25  28
ENDBRANCH  23  24
ENDBRANCH  22  23
ENDBRANCH   1  22
TORSDOF 14
