REMARK SMILES CSc1ccc(-c2cc(C[C@H]3CCCC3=O)ccc2[C@@H](C)C(=O)NCCCNC(=O)c2ccc(-c3c4nc(c(-c5c(F)c(F)c(F)c(F)c5F)c5ccc([nH]5)c(-c5c(F)c(F)c(F)c(F)c5F)c5nc(c(-c6c(F)c(F)c(F)c(F)c6F)c6ccc3[nH]6)C=C5)C=C4)cc2)cc1
REMARK SMILES IDX 25 1 24 2 22 3 23 4 20 6 21 7 19 8 7 9 8 10 9 11 18 12 17 13
REMARK SMILES IDX 6 14 3 15 4 16 95 17 5 18 94 19 2 20 1 21 10 22 11 23 12 24
REMARK SMILES IDX 15 25 13 26 14 27 16 28 26 29 27 30 28 31 29 32 30 34 31 35
REMARK SMILES IDX 32 36 93 37 33 38 92 39 34 40 35 41 36 42 86 43 37 44 91 45
REMARK SMILES IDX 85 46 87 47 38 48 90 49 84 50 83 51 39 53 71 54 51 55 70 56
REMARK SMILES IDX 52 57 55 58 69 59 88 60 53 61 54 62 68 64 89 65 56 66 40 67
REMARK SMILES IDX 41 68 49 69 42 70 43 71 47 72 50 73 44 74 45 75 48 76 46 77
REMARK SMILES IDX 72 78 73 79 81 80 74 81 75 82 79 83 82 84 76 85 77 86 80 87
REMARK SMILES IDX 78 88 57 89 58 90 66 91 59 92 60 93 64 94 67 95 61 96 62 97
REMARK SMILES IDX 65 98 63 99
REMARK H PARENT 24 5 28 33 87 52 55 63
REMARK Flexibility Score: inf
ROOT
ATOM      1  C   UNL     1      -0.184  -4.870   9.989  1.00  0.00     0.117 C 
ENDROOT
BRANCH   1   2
ATOM      2  N   UNL     1       0.416  -3.618   9.575  1.00  0.00    -0.356 N 
ATOM      3  C   UNL     1       0.527  -3.000   8.367  1.00  0.00     0.227 C 
ATOM      4  O   UNL     1       1.208  -1.966   8.361  1.00  0.00    -0.274 OA
ATOM      5  H   UNL     1       0.824  -3.113  10.315  1.00  0.00     0.163 HD
BRANCH   3   6
ATOM      6  C   UNL     1      -0.109  -3.508   7.059  1.00  0.00     0.106 C 
ATOM      7  C   UNL     1      -1.609  -3.792   7.116  1.00  0.00     0.023 C 
BRANCH   6   8
ATOM      8  C   UNL     1       0.728  -4.588   6.377  1.00  0.00    -0.028 A 
ATOM      9  C   UNL     1       1.584  -4.310   5.283  1.00  0.00    -0.014 A 
ATOM     10  C   UNL     1       2.433  -5.329   4.796  1.00  0.00     0.012 A 
ATOM     11  C   UNL     1       2.376  -6.635   5.299  1.00  0.00    -0.047 A 
ATOM     12  C   UNL     1       0.662  -5.913   6.836  1.00  0.00     0.005 A 
ATOM     13  C   UNL     1       1.484  -6.915   6.330  1.00  0.00     0.004 A 
BRANCH   9  14
ATOM     14  C   UNL     1       1.445  -3.092   4.468  1.00  0.00    -0.018 A 
ATOM     15  C   UNL     1       0.997  -0.819   2.846  1.00  0.00     0.007 A 
ATOM     16  C   UNL     1       0.468  -2.056   2.482  1.00  0.00     0.015 A 
ATOM     17  C   UNL     1       1.740  -0.721   4.030  1.00  0.00     0.015 A 
ATOM     18  C   UNL     1       0.693  -3.175   3.283  1.00  0.00     0.010 A 
ATOM     19  C   UNL     1       1.974  -1.850   4.830  1.00  0.00     0.010 A 
BRANCH  15  20
ATOM     20  S   UNL     1       0.676   0.650   1.886  1.00  0.00    -0.130 SA
ATOM     21  C   UNL     1       1.078   0.060   0.217  1.00  0.00     0.091 C 
ENDBRANCH  15  20
ENDBRANCH   9  14
BRANCH  11  22
ATOM     22  C   UNL     1       3.134  -7.761   4.641  1.00  0.00     0.047 C 
BRANCH  22  23
ATOM     23  C   UNL     1       2.449  -8.362   3.404  1.00  0.00     0.060 C 
ATOM     24  C   UNL     1       0.946  -8.665   3.502  1.00  0.00     0.012 C 
ATOM     25  C   UNL     1       2.494  -7.414   2.227  1.00  0.00     0.136 C 
ATOM     26  C   UNL     1       0.229  -7.461   2.899  1.00  0.00     0.009 C 
ATOM     27  C   UNL     1       1.124  -7.004   1.757  1.00  0.00     0.076 C 
ATOM     28  O   UNL     1       3.532  -7.037   1.696  1.00  0.00    -0.299 OA
ENDBRANCH  22  23
ENDBRANCH  11  22
ENDBRANCH   6   8
ENDBRANCH   3   6
ENDBRANCH   1   2
BRANCH   1  29
ATOM     29  C   UNL     1       0.849  -5.990  10.110  1.00  0.00     0.042 C 
BRANCH  29  30
ATOM     30  C   UNL     1       1.607  -6.000  11.428  1.00  0.00     0.118 C 
BRANCH  30  31
ATOM     31  N   UNL     1       0.765  -6.415  12.540  1.00  0.00    -0.352 N 
ATOM     32  C   UNL     1       0.816  -7.529  13.339  1.00  0.00     0.251 C 
ATOM     33  H   UNL     1       0.035  -5.790  12.755  1.00  0.00     0.163 HD
ATOM     34  O   UNL     1      -0.140  -7.783  14.066  1.00  0.00    -0.269 OA
BRANCH  32  35
ATOM     35  C   UNL     1       1.991  -8.433  13.340  1.00  0.00     0.039 A 
ATOM     36  C   UNL     1       1.781  -9.802  13.544  1.00  0.00     0.014 A 
ATOM     37  C   UNL     1       3.296  -7.948  13.221  1.00  0.00     0.014 A 
ATOM     38  C   UNL     1       2.867 -10.681  13.584  1.00  0.00     0.010 A 
ATOM     39  C   UNL     1       4.370  -8.834  13.174  1.00  0.00     0.010 A 
ATOM     40  C   UNL     1       4.170 -10.207  13.374  1.00  0.00    -0.014 A 
BRANCH  40  41
ATOM     41  C   UNL     1       5.338 -11.124  13.389  1.00  0.00     0.031 A 
ATOM     42  C   UNL     1       6.407 -10.971  14.436  1.00  0.00     0.074 A 
ATOM     43  C   UNL     1       5.476 -12.045  12.417  1.00  0.00     0.049 A 
ATOM     44  N   UNL     1       7.538 -11.618  14.569  1.00  0.00    -0.248 NA
ATOM     45  C   UNL     1       6.190  -9.928  15.450  1.00  0.00     0.031 C 
ATOM     46  C   UNL     1       4.539 -12.252  11.313  1.00  0.00     0.029 A 
ATOM     47  N   UNL     1       6.467 -12.966  12.191  1.00  0.00    -0.354 N 
ATOM     48  C   UNL     1       8.176 -11.042  15.660  1.00  0.00     0.074 A 
ATOM     49  C   UNL     1       7.331  -9.962  16.122  1.00  0.00     0.031 C 
ATOM     50  C   UNL     1       4.992 -13.247  10.534  1.00  0.00     0.029 A 
ATOM     51  C   UNL     1       6.266 -13.724  11.064  1.00  0.00     0.049 A 
ATOM     52  H   UNL     1       7.248 -13.074  12.781  1.00  0.00     0.167 HD
ATOM     53  C   UNL     1       9.350 -11.395  16.237  1.00  0.00     0.037 A 
ATOM     54  C   UNL     1       7.027 -14.690  10.515  1.00  0.00     0.037 A 
ATOM     55  C   UNL     1      10.169 -12.493  15.796  1.00  0.00     0.049 A 
ATOM     56  C   UNL     1       8.311 -15.087  11.188  1.00  0.00     0.074 A 
ATOM     57  C   UNL     1      11.329 -12.989  16.363  1.00  0.00     0.029 A 
ATOM     58  N   UNL     1       9.912 -13.265  14.671  1.00  0.00    -0.354 N 
ATOM     59  N   UNL     1       8.866 -14.590  12.267  1.00  0.00    -0.248 NA
ATOM     60  C   UNL     1       9.068 -16.186  10.574  1.00  0.00     0.031 C 
ATOM     61  C   UNL     1      11.799 -14.032  15.557  1.00  0.00     0.029 A 
ATOM     62  C   UNL     1      10.906 -14.218  14.513  1.00  0.00     0.049 A 
ATOM     63  H   UNL     1       9.138 -13.152  14.073  1.00  0.00     0.167 HD
ATOM     64  C   UNL     1      10.025 -15.324  12.473  1.00  0.00     0.074 A 
ATOM     65  C   UNL     1      10.086 -16.312  11.415  1.00  0.00     0.031 C 
ATOM     66  C   UNL     1      10.955 -15.191  13.451  1.00  0.00     0.037 A 
BRANCH  53  67
ATOM     67  C   UNL     1       9.817 -10.576  17.407  1.00  0.00     0.064 A 
ATOM     68  C   UNL     1       9.151 -10.604  18.642  1.00  0.00     0.173 A 
ATOM     69  C   UNL     1      10.950  -9.757  17.294  1.00  0.00     0.173 A 
ATOM     70  F   UNL     1       8.056 -11.362  18.802  1.00  0.00    -0.203 F 
ATOM     71  C   UNL     1       9.574  -9.809  19.704  1.00  0.00     0.198 A 
ATOM     72  C   UNL     1      11.390  -8.988  18.369  1.00  0.00     0.198 A 
ATOM     73  F   UNL     1      11.631  -9.698  16.139  1.00  0.00    -0.203 F 
ATOM     74  F   UNL     1       8.882  -9.803  20.852  1.00  0.00    -0.200 F 
ATOM     75  C   UNL     1      10.695  -9.005  19.568  1.00  0.00     0.200 A 
ATOM     76  F   UNL     1      12.482  -8.221  18.240  1.00  0.00    -0.200 F 
ATOM     77  F   UNL     1      11.100  -8.238  20.590  1.00  0.00    -0.200 F 
ENDBRANCH  53  67
BRANCH  54  78
ATOM     78  C   UNL     1       6.565 -15.363   9.275  1.00  0.00     0.064 A 
ATOM     79  C   UNL     1       6.077 -16.676   9.309  1.00  0.00     0.173 A 
ATOM     80  C   UNL     1       6.558 -14.694   8.042  1.00  0.00     0.173 A 
ATOM     81  F   UNL     1       6.079 -17.360  10.462  1.00  0.00    -0.203 F 
ATOM     82  C   UNL     1       5.604 -17.297   8.155  1.00  0.00     0.198 A 
ATOM     83  C   UNL     1       6.062 -15.308   6.894  1.00  0.00     0.198 A 
ATOM     84  F   UNL     1       7.005 -13.432   7.960  1.00  0.00    -0.203 F 
ATOM     85  F   UNL     1       5.164 -18.562   8.211  1.00  0.00    -0.200 F 
ATOM     86  C   UNL     1       5.588 -16.610   6.951  1.00  0.00     0.200 A 
ATOM     87  F   UNL     1       6.030 -14.634   5.736  1.00  0.00    -0.200 F 
ATOM     88  F   UNL     1       5.115 -17.201   5.846  1.00  0.00    -0.200 F 
ENDBRANCH  54  78
BRANCH  66  89
ATOM     89  C   UNL     1      12.110 -16.149  13.435  1.00  0.00     0.064 A 
ATOM     90  C   UNL     1      13.134 -16.047  12.482  1.00  0.00     0.173 A 
ATOM     91  C   UNL     1      12.214 -17.153  14.410  1.00  0.00     0.173 A 
ATOM     92  F   UNL     1      13.072 -15.114  11.520  1.00  0.00    -0.203 F 
ATOM     93  C   UNL     1      14.211 -16.930  12.494  1.00  0.00     0.198 A 
ATOM     94  C   UNL     1      13.306 -18.015  14.435  1.00  0.00     0.198 A 
ATOM     95  F   UNL     1      11.263 -17.288  15.346  1.00  0.00    -0.203 F 
ATOM     96  F   UNL     1      15.157 -16.842  11.549  1.00  0.00    -0.200 F 
ATOM     97  C   UNL     1      14.300 -17.907  13.474  1.00  0.00     0.200 A 
ATOM     98  F   UNL     1      13.397 -18.952  15.390  1.00  0.00    -0.200 F 
ATOM     99  F   UNL     1      15.342 -18.751  13.488  1.00  0.00    -0.200 F 
ENDBRANCH  66  89
ENDBRANCH  40  41
ENDBRANCH  32  35
ENDBRANCH  30  31
ENDBRANCH  29  30
ENDBRANCH   1  29
TORSDOF 15
