REMARK SMILES CCNC(=O)NC(=O)[C@@H](C)[NH2+][C@](C)(C(=O)NCCCNC(=O)c1ccc(-c2c3nc(c(-c4c(F)c(F)c(F)c(F)c4F)c4ccc([nH]4)c(-c4c(F)c(F)c(F)c(F)c4F)c4nc(c(-c5c(F)c(F)c(F)c(F)c5F)c5ccc2[nH]5)C=C4)C=C3)cc1)C(F)(F)F
REMARK SMILES IDX 17 1 16 2 14 3 15 4 12 6 13 7 11 8 9 11 10 12 7 13 3 14 4 15
REMARK SMILES IDX 5 17 6 18 8 20 2 21 1 22 86 23 87 24 88 25 89 26 18 27 19 28
REMARK SMILES IDX 20 29 21 30 22 32 23 33 24 34 85 35 25 36 84 37 26 38 27 39
REMARK SMILES IDX 28 40 78 41 29 42 83 43 77 44 79 45 30 46 82 47 76 48 75 49
REMARK SMILES IDX 31 51 63 52 43 53 62 54 44 55 47 56 61 57 80 58 45 59 46 60
REMARK SMILES IDX 60 62 81 63 48 64 32 65 33 66 41 67 34 68 35 69 39 70 42 71
REMARK SMILES IDX 36 72 37 73 40 74 38 75 64 76 65 77 73 78 66 79 67 80 71 81
REMARK SMILES IDX 74 82 68 83 69 84 72 85 70 86 49 87 50 88 58 89 51 90 52 91
REMARK SMILES IDX 56 92 59 93 53 94 54 95 57 96 55 97
REMARK H PARENT 16 5 11 9 11 10 3 16 6 19 20 31 79 50 47 61
REMARK Flexibility Score: inf
ROOT
ATOM      1  C   UNL     1       2.875  -0.090  -3.368  1.00  0.00     0.118 C 
ENDROOT
BRANCH   1   2
ATOM      2  N   UNL     1       2.733   1.356  -3.431  1.00  0.00    -0.350 N 
ATOM      3  C   UNL     1       1.705   2.193  -3.087  1.00  0.00     0.290 C 
ATOM      4  O   UNL     1       1.796   3.343  -3.518  1.00  0.00    -0.267 OA
ATOM      5  H   UNL     1       3.525   1.820  -3.786  1.00  0.00     0.163 HD
BRANCH   3   6
ATOM      6  C   UNL     1       0.595   1.720  -2.108  1.00  0.00     0.269 C 
ATOM      7  C   UNL     1      -0.283   0.627  -2.742  1.00  0.00     0.101 C 
BRANCH   6   8
ATOM      8  N   UNL     1       1.341   1.313  -0.860  1.00  0.00    -0.316 N 
ATOM      9  H   UNL     1       2.285   1.064  -1.154  1.00  0.00     0.348 HD
ATOM     10  H   UNL     1       1.224   2.124  -0.254  1.00  0.00     0.348 HD
BRANCH   8  11
ATOM     11  C   UNL     1       0.861   0.209  -0.019  1.00  0.00     0.271 C 
ATOM     12  C   UNL     1      -0.453   0.358   0.747  1.00  0.00     0.086 C 
BRANCH  11  13
ATOM     13  C   UNL     1       1.965  -0.181   0.979  1.00  0.00     0.285 C 
ATOM     14  N   UNL     1       2.191   3.054   2.138  1.00  0.00    -0.338 N 
ATOM     15  C   UNL     1       2.869   1.932   2.374  1.00  0.00     0.321 C 
ATOM     16  H   UNL     1       2.491   3.806   2.699  1.00  0.00     0.165 HD
ATOM     17  O   UNL     1       3.818   2.014   3.163  1.00  0.00    -0.248 OA
ATOM     18  N   UNL     1       2.633   0.688   1.842  1.00  0.00    -0.273 N 
ATOM     19  H   UNL     1       3.266   0.105   2.320  1.00  0.00     0.175 HD
ATOM     20  O   UNL     1       2.318  -1.370   1.031  1.00  0.00    -0.268 OA
BRANCH  14  21
ATOM     21  C   UNL     1       1.123   3.413   1.252  1.00  0.00     0.114 C 
ATOM     22  C   UNL     1      -0.015   4.162   1.909  1.00  0.00     0.027 C 
ENDBRANCH  14  21
ENDBRANCH  11  13
ENDBRANCH   8  11
ENDBRANCH   6   8
BRANCH   6  23
ATOM     23  C   UNL     1      -0.332   2.972  -1.947  1.00  0.00     0.453 C 
ATOM     24  F   UNL     1      -0.898   3.344  -3.120  1.00  0.00    -0.164 F 
ATOM     25  F   UNL     1      -1.365   2.694  -1.107  1.00  0.00    -0.164 F 
ATOM     26  F   UNL     1       0.295   4.048  -1.428  1.00  0.00    -0.164 F 
ENDBRANCH   6  23
ENDBRANCH   3   6
ENDBRANCH   1   2
BRANCH   1  27
ATOM     27  C   UNL     1       2.434  -0.732  -4.677  1.00  0.00     0.042 C 
BRANCH  27  28
ATOM     28  C   UNL     1       3.247  -0.258  -5.875  1.00  0.00     0.118 C 
BRANCH  28  29
ATOM     29  N   UNL     1       4.640  -0.675  -5.799  1.00  0.00    -0.352 N 
ATOM     30  C   UNL     1       5.321  -1.578  -6.576  1.00  0.00     0.251 C 
ATOM     31  H   UNL     1       5.170  -0.247  -5.088  1.00  0.00     0.163 HD
ATOM     32  O   UNL     1       6.435  -1.970  -6.237  1.00  0.00    -0.269 OA
BRANCH  30  33
ATOM     33  C   UNL     1       4.696  -2.094  -7.809  1.00  0.00     0.039 A 
ATOM     34  C   UNL     1       4.737  -3.465  -8.072  1.00  0.00     0.014 A 
ATOM     35  C   UNL     1       4.051  -1.225  -8.691  1.00  0.00     0.014 A 
ATOM     36  C   UNL     1       4.060  -3.972  -9.182  1.00  0.00     0.010 A 
ATOM     37  C   UNL     1       3.298  -1.741  -9.738  1.00  0.00     0.010 A 
ATOM     38  C   UNL     1       3.298  -3.120  -9.998  1.00  0.00    -0.014 A 
BRANCH  38  39
ATOM     39  C   UNL     1       2.499  -3.637 -11.138  1.00  0.00     0.031 A 
ATOM     40  C   UNL     1       2.798  -3.161 -12.534  1.00  0.00     0.074 A 
ATOM     41  C   UNL     1       1.452  -4.454 -10.909  1.00  0.00     0.049 A 
ATOM     42  N   UNL     1       2.140  -3.381 -13.643  1.00  0.00    -0.248 NA
ATOM     43  C   UNL     1       3.977  -2.294 -12.700  1.00  0.00     0.031 C 
ATOM     44  C   UNL     1       1.033  -4.948  -9.595  1.00  0.00     0.029 A 
ATOM     45  N   UNL     1       0.534  -4.997 -11.774  1.00  0.00    -0.354 N 
ATOM     46  C   UNL     1       2.806  -2.660 -14.626  1.00  0.00     0.074 A 
ATOM     47  C   UNL     1       3.891  -1.958 -13.978  1.00  0.00     0.031 C 
ATOM     48  C   UNL     1      -0.051  -5.726  -9.742  1.00  0.00     0.029 A 
ATOM     49  C   UNL     1      -0.434  -5.749 -11.150  1.00  0.00     0.049 A 
ATOM     50  H   UNL     1       0.565  -4.861 -12.748  1.00  0.00     0.167 HD
ATOM     51  C   UNL     1       2.545  -2.607 -15.953  1.00  0.00     0.037 A 
ATOM     52  C   UNL     1      -1.520  -6.365 -11.655  1.00  0.00     0.037 A 
ATOM     53  C   UNL     1       1.489  -3.341 -16.597  1.00  0.00     0.049 A 
ATOM     54  C   UNL     1      -1.784  -6.287 -13.136  1.00  0.00     0.074 A 
ATOM     55  C   UNL     1       1.196  -3.418 -17.947  1.00  0.00     0.029 A 
ATOM     56  N   UNL     1       0.553  -4.122 -15.936  1.00  0.00    -0.354 N 
ATOM     57  N   UNL     1      -1.101  -5.667 -14.067  1.00  0.00    -0.248 NA
ATOM     58  C   UNL     1      -2.967  -7.000 -13.639  1.00  0.00     0.031 C 
ATOM     59  C   UNL     1       0.045  -4.196 -18.098  1.00  0.00     0.029 A 
ATOM     60  C   UNL     1      -0.339  -4.659 -16.850  1.00  0.00     0.049 A 
ATOM     61  H   UNL     1       0.526  -4.271 -14.964  1.00  0.00     0.167 HD
ATOM     62  C   UNL     1      -1.748  -5.942 -15.264  1.00  0.00     0.074 A 
ATOM     63  C   UNL     1      -2.871  -6.796 -14.945  1.00  0.00     0.031 C 
ATOM     64  C   UNL     1      -1.440  -5.525 -16.517  1.00  0.00     0.037 A 
BRANCH  51  65
ATOM     65  C   UNL     1       3.412  -1.728 -16.807  1.00  0.00     0.064 A 
ATOM     66  C   UNL     1       4.752  -2.046 -17.073  1.00  0.00     0.173 A 
ATOM     67  C   UNL     1       2.873  -0.589 -17.425  1.00  0.00     0.173 A 
ATOM     68  F   UNL     1       5.320  -3.117 -16.499  1.00  0.00    -0.203 F 
ATOM     69  C   UNL     1       5.525  -1.247 -17.912  1.00  0.00     0.198 A 
ATOM     70  C   UNL     1       3.639   0.189 -18.288  1.00  0.00     0.198 A 
ATOM     71  F   UNL     1       1.595  -0.243 -17.208  1.00  0.00    -0.203 F 
ATOM     72  F   UNL     1       6.814  -1.548 -18.121  1.00  0.00    -0.200 F 
ATOM     73  C   UNL     1       4.965  -0.137 -18.527  1.00  0.00     0.200 A 
ATOM     74  F   UNL     1       3.091   1.251 -18.894  1.00  0.00    -0.200 F 
ATOM     75  F   UNL     1       5.705   0.620 -19.349  1.00  0.00    -0.200 F 
ENDBRANCH  51  65
BRANCH  52  76
ATOM     76  C   UNL     1      -2.449  -7.105 -10.758  1.00  0.00     0.064 A 
ATOM     77  C   UNL     1      -2.590  -8.497 -10.850  1.00  0.00     0.173 A 
ATOM     78  C   UNL     1      -3.240  -6.434  -9.813  1.00  0.00     0.173 A 
ATOM     79  F   UNL     1      -1.871  -9.184 -11.750  1.00  0.00    -0.203 F 
ATOM     80  C   UNL     1      -3.512  -9.183 -10.061  1.00  0.00     0.198 A 
ATOM     81  C   UNL     1      -4.135  -7.125  -8.999  1.00  0.00     0.198 A 
ATOM     82  F   UNL     1      -3.140  -5.103  -9.676  1.00  0.00    -0.203 F 
ATOM     83  F   UNL     1      -3.671 -10.504 -10.217  1.00  0.00    -0.200 F 
ATOM     84  C   UNL     1      -4.280  -8.497  -9.133  1.00  0.00     0.200 A 
ATOM     85  F   UNL     1      -4.863  -6.460  -8.092  1.00  0.00    -0.200 F 
ATOM     86  F   UNL     1      -5.169  -9.156  -8.377  1.00  0.00    -0.200 F 
ENDBRANCH  52  76
BRANCH  64  87
ATOM     87  C   UNL     1      -2.293  -6.025 -17.646  1.00  0.00     0.064 A 
ATOM     88  C   UNL     1      -3.609  -5.577 -17.834  1.00  0.00     0.173 A 
ATOM     89  C   UNL     1      -1.762  -6.917 -18.590  1.00  0.00     0.173 A 
ATOM     90  F   UNL     1      -4.168  -4.734 -16.951  1.00  0.00    -0.203 F 
ATOM     91  C   UNL     1      -4.368  -6.021 -18.913  1.00  0.00     0.198 A 
ATOM     92  C   UNL     1      -2.511  -7.332 -19.687  1.00  0.00     0.198 A 
ATOM     93  F   UNL     1      -0.505  -7.369 -18.461  1.00  0.00    -0.203 F 
ATOM     94  F   UNL     1      -5.638  -5.615 -19.048  1.00  0.00    -0.200 F 
ATOM     95  C   UNL     1      -3.816  -6.889 -19.844  1.00  0.00     0.200 A 
ATOM     96  F   UNL     1      -1.969  -8.155 -20.594  1.00  0.00    -0.200 F 
ATOM     97  F   UNL     1      -4.543  -7.302 -20.891  1.00  0.00    -0.200 F 
ENDBRANCH  64  87
ENDBRANCH  38  39
ENDBRANCH  30  33
ENDBRANCH  28  29
ENDBRANCH  27  28
ENDBRANCH   1  27
TORSDOF 15
