REMARK SMILES O=C(NCCCNC(=O)c1ccc(-c2c3nc(c(-c4c(F)c(F)c(F)c(F)c4F)c4ccc([nH]4)c(-c4c(F)c(F)c(F)c(F)c4F)c4nc(c(-c5c(F)c(F)c(F)c(F)c5F)c5ccc2[nH]5)C=C4)C=C3)cc1)C1=NN(c2ccc([N+](=O)[O-])cc2)[C@H](c2ccccc2)C1
REMARK SMILES IDX 5 1 4 2 3 3 1 4 2 5 73 7 74 8 92 9 75 10 85 11 76 12 77 13
REMARK SMILES IDX 84 14 78 15 83 16 79 17 80 18 81 19 82 20 86 21 87 22 91 23
REMARK SMILES IDX 88 24 90 25 89 26 6 27 7 28 8 29 9 31 10 32 11 33 72 34
REMARK SMILES IDX 12 35 71 36 13 37 14 38 15 39 65 40 16 41 70 42 64 43 66 44
REMARK SMILES IDX 17 45 69 46 63 47 62 48 18 50 50 51 30 52 49 53 31 54 34 55
REMARK SMILES IDX 48 56 67 57 32 58 33 59 47 61 68 62 35 63 19 64 20 65 28 66
REMARK SMILES IDX 21 67 22 68 26 69 29 70 23 71 24 72 27 73 25 74 51 75 52 76
REMARK SMILES IDX 60 77 53 78 54 79 58 80 61 81 55 82 56 83 59 84 57 85 36 86
REMARK SMILES IDX 37 87 45 88 38 89 39 90 43 91 46 92 40 93 41 94 44 95 42 96
REMARK H PARENT 3 6 7 30 66 49 34 60
REMARK Flexibility Score: inf
ROOT
ATOM      1  C   UNL     1       4.888  -2.196  -0.426  1.00  0.00     0.042 C 
ENDROOT
BRANCH   1   2
ATOM      2  C   UNL     1       4.330  -0.867  -0.915  1.00  0.00     0.118 C 
BRANCH   2   3
ATOM      3  N   UNL     1       2.890  -0.751  -0.721  1.00  0.00    -0.351 N 
ATOM      4  O   UNL     1       0.983   0.179   0.111  1.00  0.00    -0.268 OA
ATOM      5  C   UNL     1       2.205   0.184   0.019  1.00  0.00     0.267 C 
ATOM      6  H   UNL     1       2.338  -1.427  -1.177  1.00  0.00     0.163 HD
BRANCH   5   7
ATOM      7  C   UNL     1       2.981   1.215   0.787  1.00  0.00     0.128 C 
ATOM      8  N   UNL     1       3.978   1.861   0.276  1.00  0.00    -0.171 NA
ATOM      9  C   UNL     1       2.605   1.558   2.187  1.00  0.00     0.096 C 
ATOM     10  N   UNL     1       4.560   2.533   1.300  1.00  0.00    -0.257 N 
ATOM     11  C   UNL     1       3.777   2.489   2.551  1.00  0.00     0.144 C 
BRANCH  10  12
ATOM     12  C   UNL     1       5.480   3.519   0.976  1.00  0.00     0.061 A 
ATOM     13  C   UNL     1       5.159   4.534   0.061  1.00  0.00     0.035 A 
ATOM     14  C   UNL     1       6.785   3.474   1.487  1.00  0.00     0.035 A 
ATOM     15  C   UNL     1       6.099   5.502  -0.307  1.00  0.00     0.088 A 
ATOM     16  C   UNL     1       7.737   4.433   1.132  1.00  0.00     0.088 A 
ATOM     17  C   UNL     1       7.387   5.448   0.236  1.00  0.00     0.269 A 
BRANCH  17  18
ATOM     18  N   UNL     1       8.382   6.457  -0.143  1.00  0.00     0.062 N 
ATOM     19  O   UNL     1       8.075   7.266  -1.030  1.00  0.00    -0.258 OA
ATOM     20  O   UNL     1       9.469   6.446   0.453  1.00  0.00    -0.258 OA
ENDBRANCH  17  18
ENDBRANCH  10  12
BRANCH  11  21
ATOM     21  C   UNL     1       4.614   2.089   3.761  1.00  0.00    -0.023 A 
ATOM     22  C   UNL     1       4.679   0.786   4.278  1.00  0.00     0.006 A 
ATOM     23  C   UNL     1       5.380   3.083   4.402  1.00  0.00     0.006 A 
ATOM     24  C   UNL     1       5.468   0.493   5.397  1.00  0.00     0.000 A 
ATOM     25  C   UNL     1       6.199   2.782   5.492  1.00  0.00     0.000 A 
ATOM     26  C   UNL     1       6.236   1.487   5.995  1.00  0.00     0.000 A 
ENDBRANCH  11  21
ENDBRANCH   5   7
ENDBRANCH   2   3
ENDBRANCH   1   2
BRANCH   1  27
ATOM     27  C   UNL     1       4.424  -3.410  -1.218  1.00  0.00     0.118 C 
BRANCH  27  28
ATOM     28  N   UNL     1       4.831  -3.370  -2.614  1.00  0.00    -0.352 N 
ATOM     29  C   UNL     1       5.514  -4.282  -3.378  1.00  0.00     0.251 C 
ATOM     30  H   UNL     1       4.572  -2.549  -3.092  1.00  0.00     0.163 HD
ATOM     31  O   UNL     1       5.865  -3.965  -4.512  1.00  0.00    -0.269 OA
BRANCH  29  32
ATOM     32  C   UNL     1       5.859  -5.626  -2.859  1.00  0.00     0.039 A 
ATOM     33  C   UNL     1       7.088  -6.181  -3.232  1.00  0.00     0.014 A 
ATOM     34  C   UNL     1       4.984  -6.365  -2.058  1.00  0.00     0.014 A 
ATOM     35  C   UNL     1       7.460  -7.441  -2.757  1.00  0.00     0.010 A 
ATOM     36  C   UNL     1       5.390  -7.586  -1.519  1.00  0.00     0.010 A 
ATOM     37  C   UNL     1       6.629  -8.140  -1.868  1.00  0.00    -0.014 A 
BRANCH  37  38
ATOM     38  C   UNL     1       7.059  -9.443  -1.296  1.00  0.00     0.031 A 
ATOM     39  C   UNL     1       6.305 -10.707  -1.607  1.00  0.00     0.074 A 
ATOM     40  C   UNL     1       8.114  -9.480  -0.459  1.00  0.00     0.049 A 
ATOM     41  N   UNL     1       6.536 -11.929  -1.196  1.00  0.00    -0.248 NA
ATOM     42  C   UNL     1       5.120 -10.580  -2.470  1.00  0.00     0.031 C 
ATOM     43  C   UNL     1       8.889  -8.316  -0.024  1.00  0.00     0.029 A 
ATOM     44  N   UNL     1       8.716 -10.536   0.180  1.00  0.00    -0.354 N 
ATOM     45  C   UNL     1       5.523 -12.710  -1.738  1.00  0.00     0.074 A 
ATOM     46  C   UNL     1       4.647 -11.817  -2.466  1.00  0.00     0.031 C 
ATOM     47  C   UNL     1       9.879  -8.724   0.785  1.00  0.00     0.029 A 
ATOM     48  C   UNL     1       9.793 -10.172   0.950  1.00  0.00     0.049 A 
ATOM     49  H   UNL     1       8.404 -11.466   0.094  1.00  0.00     0.167 HD
ATOM     50  C   UNL     1       5.353 -14.051  -1.657  1.00  0.00     0.037 A 
ATOM     51  C   UNL     1      10.622 -10.921   1.701  1.00  0.00     0.037 A 
ATOM     52  C   UNL     1       6.244 -14.944  -0.962  1.00  0.00     0.049 A 
ATOM     53  C   UNL     1      10.430 -12.412   1.746  1.00  0.00     0.074 A 
ATOM     54  C   UNL     1       6.198 -16.325  -0.888  1.00  0.00     0.029 A 
ATOM     55  N   UNL     1       7.342 -14.541  -0.217  1.00  0.00    -0.354 N 
ATOM     56  N   UNL     1       9.519 -13.147   1.157  1.00  0.00    -0.248 NA
ATOM     57  C   UNL     1      11.392 -13.178   2.550  1.00  0.00     0.031 C 
ATOM     58  C   UNL     1       7.244 -16.756  -0.064  1.00  0.00     0.029 A 
ATOM     59  C   UNL     1       7.969 -15.647   0.337  1.00  0.00     0.049 A 
ATOM     60  H   UNL     1       7.634 -13.608  -0.099  1.00  0.00     0.167 HD
ATOM     61  C   UNL     1       9.808 -14.460   1.500  1.00  0.00     0.074 A 
ATOM     62  C   UNL     1      10.995 -14.423   2.330  1.00  0.00     0.031 C 
ATOM     63  C   UNL     1       9.148 -15.595   1.163  1.00  0.00     0.037 A 
BRANCH  50  64
ATOM     64  C   UNL     1       4.159 -14.646  -2.347  1.00  0.00     0.064 A 
ATOM     65  C   UNL     1       4.080 -14.719  -3.746  1.00  0.00     0.173 A 
ATOM     66  C   UNL     1       3.107 -15.197  -1.601  1.00  0.00     0.173 A 
ATOM     67  F   UNL     1       5.055 -14.198  -4.506  1.00  0.00    -0.203 F 
ATOM     68  C   UNL     1       2.981 -15.302  -4.372  1.00  0.00     0.198 A 
ATOM     69  C   UNL     1       2.023 -15.805  -2.230  1.00  0.00     0.198 A 
ATOM     70  F   UNL     1       3.136 -15.159  -0.260  1.00  0.00    -0.203 F 
ATOM     71  F   UNL     1       2.908 -15.324  -5.710  1.00  0.00    -0.200 F 
ATOM     72  C   UNL     1       1.958 -15.851  -3.614  1.00  0.00     0.200 A 
ATOM     73  F   UNL     1       1.041 -16.346  -1.496  1.00  0.00    -0.200 F 
ATOM     74  F   UNL     1       0.907 -16.422  -4.218  1.00  0.00    -0.200 F 
ENDBRANCH  50  64
BRANCH  51  75
ATOM     75  C   UNL     1      11.732 -10.275   2.449  1.00  0.00     0.064 A 
ATOM     76  C   UNL     1      13.066 -10.465   2.064  1.00  0.00     0.173 A 
ATOM     77  C   UNL     1      11.483  -9.464   3.564  1.00  0.00     0.173 A 
ATOM     78  F   UNL     1      13.355 -11.250   1.015  1.00  0.00    -0.203 F 
ATOM     79  C   UNL     1      14.111  -9.887   2.781  1.00  0.00     0.198 A 
ATOM     80  C   UNL     1      12.527  -8.863   4.264  1.00  0.00     0.198 A 
ATOM     81  F   UNL     1      10.223  -9.246   3.969  1.00  0.00    -0.203 F 
ATOM     82  F   UNL     1      15.380 -10.125   2.421  1.00  0.00    -0.200 F 
ATOM     83  C   UNL     1      13.841  -9.082   3.877  1.00  0.00     0.200 A 
ATOM     84  F   UNL     1      12.261  -8.075   5.314  1.00  0.00    -0.200 F 
ATOM     85  F   UNL     1      14.846  -8.525   4.566  1.00  0.00    -0.200 F 
ENDBRANCH  51  75
BRANCH  63  86
ATOM     86  C   UNL     1       9.708 -16.889   1.676  1.00  0.00     0.064 A 
ATOM     87  C   UNL     1       9.626 -17.239   3.032  1.00  0.00     0.173 A 
ATOM     88  C   UNL     1      10.320 -17.798   0.799  1.00  0.00     0.173 A 
ATOM     89  F   UNL     1       9.065 -16.397   3.913  1.00  0.00    -0.203 F 
ATOM     90  C   UNL     1      10.166 -18.435   3.497  1.00  0.00     0.198 A 
ATOM     91  C   UNL     1      10.831 -19.007   1.262  1.00  0.00     0.198 A 
ATOM     92  F   UNL     1      10.417 -17.515  -0.509  1.00  0.00    -0.203 F 
ATOM     93  F   UNL     1      10.126 -18.722   4.805  1.00  0.00    -0.200 F 
ATOM     94  C   UNL     1      10.763 -19.320   2.611  1.00  0.00     0.200 A 
ATOM     95  F   UNL     1      11.397 -19.866   0.403  1.00  0.00    -0.200 F 
ATOM     96  F   UNL     1      11.282 -20.471   3.060  1.00  0.00    -0.200 F 
ENDBRANCH  63  86
ENDBRANCH  37  38
ENDBRANCH  29  32
ENDBRANCH  27  28
ENDBRANCH   1  27
TORSDOF 13
