REMARK SMILES COc1ccc(/C=C2\SC(=O)N(CC(=O)N[C@H](C)C(=O)NCCCNC(=O)c3ccc(-c4c5nc(c(-c6c(F)c(F)c(F)c(F)c6F)c6ccc([nH]6)c(-c6c(F)c(F)c(F)c(F)c6F)c6nc(c(-c7c(F)c(F)c(F)c(F)c7F)c7ccc4[nH]7)C=C6)C=C5)cc3)C2=O)cc1OC
REMARK SMILES IDX 19 1 20 2 21 3 17 5 18 6 16 7 14 8 15 9 13 11 12 12 7 13
REMARK SMILES IDX 8 14 9 15 91 16 10 17 92 18 11 19 6 20 3 21 4 22 94 23 5 24
REMARK SMILES IDX 93 25 2 26 1 27 95 28 96 29 22 30 23 31 24 32 25 33 26 34
REMARK SMILES IDX 27 36 28 37 29 38 90 39 30 40 89 41 31 42 32 43 33 44 83 45
REMARK SMILES IDX 34 46 88 47 82 48 84 49 35 50 87 51 81 52 80 53 36 55 68 56
REMARK SMILES IDX 48 57 67 58 49 59 52 60 66 61 85 62 50 63 51 64 65 66 86 67
REMARK SMILES IDX 53 68 37 69 38 70 46 71 39 72 40 73 44 74 47 75 41 76 42 77
REMARK SMILES IDX 45 78 43 79 69 80 70 81 78 82 71 83 72 84 76 85 79 86 73 87
REMARK SMILES IDX 74 88 77 89 75 90 54 91 55 92 63 93 56 94 57 95 61 96 64 97
REMARK SMILES IDX 58 98 59 99 62 100 60 101
REMARK H PARENT 21 4 16 10 25 35 84 54 52 65
REMARK Flexibility Score: inf
ROOT
ATOM      1  C   UNL     1       4.514   9.662   7.297  1.00  0.00     0.242 C 
ATOM      2  O   UNL     1       5.663   9.995   6.995  1.00  0.00    -0.273 OA
ATOM      3  N   UNL     1       3.657  10.641   7.696  1.00  0.00    -0.354 N 
ATOM      4  H   UNL     1       3.988  11.557   7.552  1.00  0.00     0.163 HD
ENDROOT
BRANCH   1   5
ATOM      5  C   UNL     1       4.084   8.191   7.241  1.00  0.00     0.168 C 
ATOM      6  C   UNL     1       3.882   7.564   8.613  1.00  0.00     0.041 C 
BRANCH   5   7
ATOM      7  N   UNL     1       2.909   8.051   6.383  1.00  0.00    -0.343 N 
ATOM      8  C   UNL     1       2.501   7.030   5.587  1.00  0.00     0.240 C 
ATOM      9  O   UNL     1       1.325   7.052   5.214  1.00  0.00    -0.273 OA
ATOM     10  H   UNL     1       2.310   8.832   6.383  1.00  0.00     0.164 HD
BRANCH   8  11
ATOM     11  C   UNL     1       3.398   5.836   5.280  1.00  0.00     0.229 C 
BRANCH  11  12
ATOM     12  N   UNL     1       4.702   6.222   4.779  1.00  0.00    -0.259 N 
ATOM     13  C   UNL     1       6.686   7.635   2.111  1.00  0.00     0.029 C 
ATOM     14  C   UNL     1       6.276   7.073   3.260  1.00  0.00     0.083 C 
ATOM     15  S   UNL     1       7.242   6.440   4.540  1.00  0.00    -0.022 SA
ATOM     16  C   UNL     1       4.836   6.869   3.573  1.00  0.00     0.268 C 
ATOM     17  C   UNL     1       5.852   5.861   5.426  1.00  0.00     0.294 C 
ATOM     18  O   UNL     1       3.922   7.215   2.839  1.00  0.00    -0.268 OA
ATOM     19  O   UNL     1       5.937   5.250   6.478  1.00  0.00    -0.261 OA
BRANCH  13  20
ATOM     20  C   UNL     1       8.086   7.726   1.675  1.00  0.00    -0.020 A 
ATOM     21  C   UNL     1      10.807   7.825   0.974  1.00  0.00     0.160 A 
ATOM     22  C   UNL     1      10.026   8.992   0.977  1.00  0.00     0.051 A 
ATOM     23  C   UNL     1      10.224   6.596   1.290  1.00  0.00     0.161 A 
ATOM     24  C   UNL     1       8.668   8.943   1.321  1.00  0.00     0.012 A 
ATOM     25  C   UNL     1       8.863   6.563   1.607  1.00  0.00     0.058 A 
BRANCH  21  26
ATOM     26  O   UNL     1      12.158   7.965   0.810  1.00  0.00    -0.493 OA
ATOM     27  C   UNL     1      12.533   8.054  -0.563  1.00  0.00     0.278 C 
ENDBRANCH  21  26
BRANCH  23  28
ATOM     28  O   UNL     1      10.801   5.362   1.401  1.00  0.00    -0.493 OA
ATOM     29  C   UNL     1      12.079   5.153   0.832  1.00  0.00     0.278 C 
ENDBRANCH  23  28
ENDBRANCH  13  20
ENDBRANCH  11  12
ENDBRANCH   8  11
ENDBRANCH   5   7
ENDBRANCH   1   5
BRANCH   3  30
ATOM     30  C   UNL     1       2.339  10.565   8.298  1.00  0.00     0.117 C 
BRANCH  30  31
ATOM     31  C   UNL     1       2.389  10.871   9.788  1.00  0.00     0.042 C 
BRANCH  31  32
ATOM     32  C   UNL     1       2.871  12.280  10.104  1.00  0.00     0.118 C 
BRANCH  32  33
ATOM     33  N   UNL     1       2.004  13.305   9.539  1.00  0.00    -0.352 N 
ATOM     34  C   UNL     1       1.249  14.264  10.163  1.00  0.00     0.251 C 
ATOM     35  H   UNL     1       1.952  13.309   8.556  1.00  0.00     0.163 HD
ATOM     36  O   UNL     1       0.415  14.895   9.521  1.00  0.00    -0.269 OA
BRANCH  34  37
ATOM     37  C   UNL     1       1.423  14.529  11.605  1.00  0.00     0.039 A 
ATOM     38  C   UNL     1       0.292  14.778  12.386  1.00  0.00     0.014 A 
ATOM     39  C   UNL     1       2.694  14.557  12.185  1.00  0.00     0.014 A 
ATOM     40  C   UNL     1       0.434  14.995  13.757  1.00  0.00     0.010 A 
ATOM     41  C   UNL     1       2.825  14.675  13.565  1.00  0.00     0.010 A 
ATOM     42  C   UNL     1       1.698  14.909  14.364  1.00  0.00    -0.014 A 
BRANCH  42  43
ATOM     43  C   UNL     1       1.857  15.072  15.831  1.00  0.00     0.031 A 
ATOM     44  C   UNL     1       2.682  16.202  16.383  1.00  0.00     0.074 A 
ATOM     45  C   UNL     1       1.298  14.172  16.663  1.00  0.00     0.049 A 
ATOM     46  N   UNL     1       2.970  16.485  17.629  1.00  0.00    -0.248 NA
ATOM     47  C   UNL     1       3.289  17.120  15.406  1.00  0.00     0.031 C 
ATOM     48  C   UNL     1       0.519  13.005  16.246  1.00  0.00     0.029 A 
ATOM     49  N   UNL     1       1.304  14.094  18.033  1.00  0.00    -0.354 N 
ATOM     50  C   UNL     1       3.796  17.601  17.581  1.00  0.00     0.074 A 
ATOM     51  C   UNL     1       4.017  17.905  16.185  1.00  0.00     0.031 C 
ATOM     52  C   UNL     1       0.097  12.346  17.335  1.00  0.00     0.029 A 
ATOM     53  C   UNL     1       0.611  13.016  18.526  1.00  0.00     0.049 A 
ATOM     54  H   UNL     1       1.762  14.749  18.608  1.00  0.00     0.167 HD
ATOM     55  C   UNL     1       4.303  18.321  18.610  1.00  0.00     0.037 A 
ATOM     56  C   UNL     1       0.418  12.609  19.795  1.00  0.00     0.037 A 
ATOM     57  C   UNL     1       4.066  18.022  19.998  1.00  0.00     0.049 A 
ATOM     58  C   UNL     1       1.004  13.421  20.919  1.00  0.00     0.074 A 
ATOM     59  C   UNL     1       4.486  18.723  21.116  1.00  0.00     0.029 A 
ATOM     60  N   UNL     1       3.350  16.927  20.460  1.00  0.00    -0.354 N 
ATOM     61  N   UNL     1       1.720  14.518  20.864  1.00  0.00    -0.248 NA
ATOM     62  C   UNL     1       0.746  12.941  22.283  1.00  0.00     0.031 C 
ATOM     63  C   UNL     1       4.079  18.018  22.252  1.00  0.00     0.029 A 
ATOM     64  C   UNL     1       3.343  16.916  21.846  1.00  0.00     0.049 A 
ATOM     65  H   UNL     1       2.913  16.256  19.887  1.00  0.00     0.167 HD
ATOM     66  C   UNL     1       1.969  14.878  22.182  1.00  0.00     0.074 A 
ATOM     67  C   UNL     1       1.311  13.892  23.013  1.00  0.00     0.031 C 
ATOM     68  C   UNL     1       2.679  15.929  22.661  1.00  0.00     0.037 A 
BRANCH  55  69
ATOM     69  C   UNL     1       5.169  19.503  18.273  1.00  0.00     0.064 A 
ATOM     70  C   UNL     1       4.646  20.652  17.657  1.00  0.00     0.173 A 
ATOM     71  C   UNL     1       6.532  19.504  18.604  1.00  0.00     0.173 A 
ATOM     72  F   UNL     1       3.351  20.701  17.309  1.00  0.00    -0.203 F 
ATOM     73  C   UNL     1       5.461  21.740  17.357  1.00  0.00     0.198 A 
ATOM     74  C   UNL     1       7.337  20.608  18.335  1.00  0.00     0.198 A 
ATOM     75  F   UNL     1       7.085  18.436  19.199  1.00  0.00    -0.203 F 
ATOM     76  F   UNL     1       4.950  22.802  16.718  1.00  0.00    -0.200 F 
ATOM     77  C   UNL     1       6.803  21.721  17.704  1.00  0.00     0.200 A 
ATOM     78  F   UNL     1       8.630  20.594  18.686  1.00  0.00    -0.200 F 
ATOM     79  F   UNL     1       7.585  22.773  17.423  1.00  0.00    -0.200 F 
ENDBRANCH  55  69
BRANCH  56  80
ATOM     80  C   UNL     1      -0.379  11.385  20.072  1.00  0.00     0.064 A 
ATOM     81  C   UNL     1      -1.621  11.462  20.718  1.00  0.00     0.173 A 
ATOM     82  C   UNL     1       0.088  10.112  19.710  1.00  0.00     0.173 A 
ATOM     83  F   UNL     1      -2.103  12.654  21.101  1.00  0.00    -0.203 F 
ATOM     84  C   UNL     1      -2.351  10.313  21.018  1.00  0.00     0.198 A 
ATOM     85  C   UNL     1      -0.659   8.967  19.979  1.00  0.00     0.198 A 
ATOM     86  F   UNL     1       1.266   9.982  19.083  1.00  0.00    -0.203 F 
ATOM     87  F   UNL     1      -3.508  10.413  21.687  1.00  0.00    -0.200 F 
ATOM     88  C   UNL     1      -1.872   9.068  20.643  1.00  0.00     0.200 A 
ATOM     89  F   UNL     1      -0.201   7.767  19.598  1.00  0.00    -0.200 F 
ATOM     90  F   UNL     1      -2.575   7.963  20.928  1.00  0.00    -0.200 F 
ENDBRANCH  56  80
BRANCH  68  91
ATOM     91  C   UNL     1       2.744  16.092  24.154  1.00  0.00     0.064 A 
ATOM     92  C   UNL     1       3.453  15.196  24.968  1.00  0.00     0.173 A 
ATOM     93  C   UNL     1       2.106  17.177  24.776  1.00  0.00     0.173 A 
ATOM     94  F   UNL     1       4.070  14.135  24.427  1.00  0.00    -0.203 F 
ATOM     95  C   UNL     1       3.487  15.358  26.351  1.00  0.00     0.198 A 
ATOM     96  C   UNL     1       2.175  17.358  26.154  1.00  0.00     0.198 A 
ATOM     97  F   UNL     1       1.422  18.070  24.044  1.00  0.00    -0.203 F 
ATOM     98  F   UNL     1       4.116  14.453  27.113  1.00  0.00    -0.200 F 
ATOM     99  C   UNL     1       2.855  16.442  26.941  1.00  0.00     0.200 A 
ATOM    100  F   UNL     1       1.580  18.416  26.720  1.00  0.00    -0.200 F 
ATOM    101  F   UNL     1       2.894  16.598  28.272  1.00  0.00    -0.200 F 
ENDBRANCH  68  91
ENDBRANCH  42  43
ENDBRANCH  34  37
ENDBRANCH  32  33
ENDBRANCH  31  32
ENDBRANCH  30  31
ENDBRANCH   3  30
TORSDOF 16
