REMARK SMILES O=C(NCCCNC(=O)c1cc(NC(=O)c2cccnc2Cl)ccc1O)c1ccc(-c2c3nc(c(-c4c(F)c(F)c(F)c(F)c4F)c4ccc([nH]4)c(-c4c(F)c(F)c(F)c(F)c4F)c4nc(c(-c5c(F)c(F)c(F)c(F)c5F)c5ccc2[nH]5)C=C4)C=C3)cc1
REMARK SMILES IDX 5 1 4 2 3 3 1 4 2 5 27 7 28 8 89 9 29 10 88 11 30 12 31 13
REMARK SMILES IDX 32 14 82 15 33 16 87 17 81 18 83 19 34 20 86 21 80 22 79 23
REMARK SMILES IDX 35 25 67 26 47 27 66 28 48 29 51 30 65 31 84 32 49 33 50 34
REMARK SMILES IDX 64 36 85 37 52 38 36 39 37 40 45 41 38 42 39 43 43 44 46 45
REMARK SMILES IDX 40 46 41 47 44 48 42 49 68 50 69 51 77 52 70 53 71 54 75 55
REMARK SMILES IDX 78 56 72 57 73 58 76 59 74 60 53 61 54 62 62 63 55 64 56 65
REMARK SMILES IDX 60 66 63 67 57 68 58 69 61 70 59 71 6 72 7 73 8 74 9 76
REMARK SMILES IDX 10 77 11 78 25 79 12 80 24 81 23 82 26 83 13 85 14 86 15 88
REMARK SMILES IDX 16 89 17 90 21 91 18 92 20 93 22 94 19 95
REMARK H PARENT 3 6 83 24 51 35 7 75 26 84 13 87
REMARK Flexibility Score: inf
ROOT
ATOM      1  C   UNL     1       5.008  -0.343   2.329  1.00  0.00     0.042 C 
ENDROOT
BRANCH   1   2
ATOM      2  C   UNL     1       4.550  -0.843   0.968  1.00  0.00     0.118 C 
BRANCH   2   3
ATOM      3  N   UNL     1       3.105  -0.790   0.794  1.00  0.00    -0.352 N 
ATOM      4  O   UNL     1       1.107  -0.014   0.110  1.00  0.00    -0.269 OA
ATOM      5  C   UNL     1       2.330  -0.007  -0.023  1.00  0.00     0.251 C 
ATOM      6  H   UNL     1       2.600  -1.421   1.357  1.00  0.00     0.163 HD
BRANCH   5   7
ATOM      7  C   UNL     1       2.944   0.869  -1.044  1.00  0.00     0.039 A 
ATOM      8  C   UNL     1       4.004   0.429  -1.841  1.00  0.00     0.014 A 
ATOM      9  C   UNL     1       2.412   2.147  -1.239  1.00  0.00     0.014 A 
ATOM     10  C   UNL     1       4.627   1.310  -2.721  1.00  0.00     0.010 A 
ATOM     11  C   UNL     1       2.979   3.000  -2.188  1.00  0.00     0.010 A 
ATOM     12  C   UNL     1       4.111   2.599  -2.915  1.00  0.00    -0.014 A 
BRANCH  12  13
ATOM     13  C   UNL     1       4.721   3.509  -3.917  1.00  0.00     0.031 A 
ATOM     14  C   UNL     1       5.346   4.806  -3.494  1.00  0.00     0.074 A 
ATOM     15  C   UNL     1       4.669   3.176  -5.220  1.00  0.00     0.049 A 
ATOM     16  N   UNL     1       5.827   5.773  -4.234  1.00  0.00    -0.248 NA
ATOM     17  C   UNL     1       5.428   5.056  -2.048  1.00  0.00     0.031 C 
ATOM     18  C   UNL     1       4.086   1.943  -5.750  1.00  0.00     0.029 A 
ATOM     19  N   UNL     1       5.094   3.852  -6.336  1.00  0.00    -0.354 N 
ATOM     20  C   UNL     1       6.246   6.756  -3.347  1.00  0.00     0.074 A 
ATOM     21  C   UNL     1       5.936   6.279  -2.015  1.00  0.00     0.031 C 
ATOM     22  C   UNL     1       4.190   1.948  -7.087  1.00  0.00     0.029 A 
ATOM     23  C   UNL     1       4.784   3.212  -7.510  1.00  0.00     0.049 A 
ATOM     24  H   UNL     1       5.574   4.711  -6.298  1.00  0.00     0.167 HD
ATOM     25  C   UNL     1       6.836   7.945  -3.623  1.00  0.00     0.037 A 
ATOM     26  C   UNL     1       4.919   3.613  -8.787  1.00  0.00     0.037 A 
ATOM     27  C   UNL     1       7.140   8.404  -4.955  1.00  0.00     0.049 A 
ATOM     28  C   UNL     1       5.532   4.953  -9.074  1.00  0.00     0.074 A 
ATOM     29  C   UNL     1       7.779   9.570  -5.341  1.00  0.00     0.029 A 
ATOM     30  N   UNL     1       6.811   7.725  -6.121  1.00  0.00    -0.354 N 
ATOM     31  N   UNL     1       5.962   5.860  -8.230  1.00  0.00    -0.248 NA
ATOM     32  C   UNL     1       5.681   5.328 -10.486  1.00  0.00     0.031 C 
ATOM     33  C   UNL     1       7.774   9.629  -6.738  1.00  0.00     0.029 A 
ATOM     34  C   UNL     1       7.201   8.465  -7.226  1.00  0.00     0.049 A 
ATOM     35  H   UNL     1       6.366   6.848  -6.157  1.00  0.00     0.167 HD
ATOM     36  C   UNL     1       6.458   6.899  -9.005  1.00  0.00     0.074 A 
ATOM     37  C   UNL     1       6.276   6.510 -10.389  1.00  0.00     0.031 C 
ATOM     38  C   UNL     1       7.022   8.063  -8.601  1.00  0.00     0.037 A 
BRANCH  25  39
ATOM     39  C   UNL     1       7.149   8.850  -2.464  1.00  0.00     0.064 A 
ATOM     40  C   UNL     1       8.126   8.529  -1.510  1.00  0.00     0.173 A 
ATOM     41  C   UNL     1       6.463  10.065  -2.311  1.00  0.00     0.173 A 
ATOM     42  F   UNL     1       8.810   7.378  -1.603  1.00  0.00    -0.203 F 
ATOM     43  C   UNL     1       8.370   9.364  -0.421  1.00  0.00     0.198 A 
ATOM     44  C   UNL     1       6.734  10.916  -1.242  1.00  0.00     0.198 A 
ATOM     45  F   UNL     1       5.527  10.431  -3.199  1.00  0.00    -0.203 F 
ATOM     46  F   UNL     1       9.258   9.001   0.514  1.00  0.00    -0.200 F 
ATOM     47  C   UNL     1       7.677  10.558  -0.291  1.00  0.00     0.200 A 
ATOM     48  F   UNL     1       6.076  12.077  -1.127  1.00  0.00    -0.200 F 
ATOM     49  F   UNL     1       7.909  11.358   0.759  1.00  0.00    -0.200 F 
ENDBRANCH  25  39
BRANCH  26  50
ATOM     50  C   UNL     1       4.441   2.724  -9.876  1.00  0.00     0.064 A 
ATOM     51  C   UNL     1       5.343   2.055 -10.712  1.00  0.00     0.173 A 
ATOM     52  C   UNL     1       3.071   2.474 -10.056  1.00  0.00     0.173 A 
ATOM     53  F   UNL     1       6.660   2.273 -10.587  1.00  0.00    -0.203 F 
ATOM     54  C   UNL     1       4.893   1.171 -11.691  1.00  0.00     0.198 A 
ATOM     55  C   UNL     1       2.625   1.568 -11.014  1.00  0.00     0.198 A 
ATOM     56  F   UNL     1       2.169   3.082  -9.272  1.00  0.00    -0.203 F 
ATOM     57  F   UNL     1       5.774   0.560 -12.495  1.00  0.00    -0.200 F 
ATOM     58  C   UNL     1       3.536   0.919 -11.833  1.00  0.00     0.200 A 
ATOM     59  F   UNL     1       1.315   1.312 -11.133  1.00  0.00    -0.200 F 
ATOM     60  F   UNL     1       3.107   0.051 -12.759  1.00  0.00    -0.200 F 
ENDBRANCH  26  50
BRANCH  38  61
ATOM     61  C   UNL     1       7.534   8.994  -9.662  1.00  0.00     0.064 A 
ATOM     62  C   UNL     1       6.670   9.749 -10.466  1.00  0.00     0.173 A 
ATOM     63  C   UNL     1       8.916   9.192  -9.814  1.00  0.00     0.173 A 
ATOM     64  F   UNL     1       5.342   9.583 -10.372  1.00  0.00    -0.203 F 
ATOM     65  C   UNL     1       7.170  10.665 -11.389  1.00  0.00     0.198 A 
ATOM     66  C   UNL     1       9.411  10.130 -10.715  1.00  0.00     0.198 A 
ATOM     67  F   UNL     1       9.785   8.496  -9.065  1.00  0.00    -0.203 F 
ATOM     68  F   UNL     1       6.327  11.356 -12.169  1.00  0.00    -0.200 F 
ATOM     69  C   UNL     1       8.538  10.864 -11.503  1.00  0.00     0.200 A 
ATOM     70  F   UNL     1      10.732  10.331 -10.812  1.00  0.00    -0.200 F 
ATOM     71  F   UNL     1       9.016  11.763 -12.374  1.00  0.00    -0.200 F 
ENDBRANCH  38  61
ENDBRANCH  12  13
ENDBRANCH   5   7
ENDBRANCH   2   3
ENDBRANCH   1   2
BRANCH   1  72
ATOM     72  C   UNL     1       4.472  -1.127   3.517  1.00  0.00     0.118 C 
BRANCH  72  73
ATOM     73  N   UNL     1       4.801  -2.542   3.481  1.00  0.00    -0.352 N 
ATOM     74  C   UNL     1       5.289  -3.343   4.484  1.00  0.00     0.255 C 
ATOM     75  H   UNL     1       4.653  -2.989   2.616  1.00  0.00     0.163 HD
ATOM     76  O   UNL     1       5.516  -4.531   4.259  1.00  0.00    -0.269 OA
BRANCH  74  77
ATOM     77  C   UNL     1       5.671  -2.765   5.790  1.00  0.00     0.083 A 
ATOM     78  C   UNL     1       6.997  -2.986   6.187  1.00  0.00     0.043 A 
ATOM     79  C   UNL     1       4.819  -2.011   6.596  1.00  0.00     0.128 A 
ATOM     80  C   UNL     1       7.527  -2.343   7.302  1.00  0.00     0.042 A 
ATOM     81  C   UNL     1       5.315  -1.416   7.753  1.00  0.00     0.049 A 
ATOM     82  C   UNL     1       6.665  -1.573   8.094  1.00  0.00     0.030 A 
BRANCH  79  83
ATOM     83  O   UNL     1       3.506  -1.846   6.257  1.00  0.00    -0.507 OA
ATOM     84  H   UNL     1       3.170  -2.245   5.479  1.00  0.00     0.293 HD
ENDBRANCH  79  83
BRANCH  80  85
ATOM     85  N   UNL     1       8.880  -2.391   7.690  1.00  0.00    -0.322 N 
ATOM     86  C   UNL     1      10.023  -2.834   7.058  1.00  0.00     0.258 C 
ATOM     87  H   UNL     1       9.043  -2.036   8.594  1.00  0.00     0.170 HD
ATOM     88  O   UNL     1      11.088  -2.869   7.672  1.00  0.00    -0.269 OA
BRANCH  86  89
ATOM     89  C   UNL     1      10.024  -3.284   5.666  1.00  0.00     0.077 A 
ATOM     90  C   UNL     1      10.286  -4.632   5.405  1.00  0.00     0.018 A 
ATOM     91  C   UNL     1       9.757  -2.444   4.595  1.00  0.00     0.141 A 
ATOM     92  C   UNL     1      10.185  -5.100   4.098  1.00  0.00     0.021 A 
ATOM     93  N   UNL     1       9.645  -2.877   3.315  1.00  0.00    -0.244 NA
ATOM     94  Cl  UNL     1       9.486  -0.752   4.750  1.00  0.00    -0.061 Cl
ATOM     95  C   UNL     1       9.846  -4.197   3.101  1.00  0.00     0.113 A 
ENDBRANCH  86  89
ENDBRANCH  80  85
ENDBRANCH  74  77
ENDBRANCH  72  73
ENDBRANCH   1  72
TORSDOF 13
