REMARK SMILES O=C(NCCCNC(=O)c1cc([C@@H]2C=NN=C2c2ccc(F)cc2)c2c(ccc3ccccc32)n1)c1ccc(-c2c3nc(c(-c4c(F)c(F)c(F)c(F)c4F)c4ccc([nH]4)c(-c4c(F)c(F)c(F)c(F)c4F)c4nc(c(-c5c(F)c(F)c(F)c(F)c5F)c5ccc2[nH]5)C=C4)C=C3)cc1
REMARK SMILES IDX 5 1 4 2 3 3 1 4 2 5 36 7 37 8 98 9 38 10 97 11 39 12 40 13
REMARK SMILES IDX 41 14 91 15 42 16 96 17 90 18 92 19 43 20 95 21 89 22 88 23
REMARK SMILES IDX 44 25 76 26 56 27 75 28 57 29 60 30 74 31 93 32 58 33 59 34
REMARK SMILES IDX 73 36 94 37 61 38 45 39 46 40 54 41 47 42 48 43 52 44 55 45
REMARK SMILES IDX 49 46 50 47 53 48 51 49 77 50 78 51 86 52 79 53 80 54 84 55
REMARK SMILES IDX 87 56 81 57 82 58 85 59 83 60 62 61 63 62 71 63 64 64 65 65
REMARK SMILES IDX 69 66 72 67 66 68 67 69 70 70 68 71 6 72 7 73 8 74 9 76
REMARK SMILES IDX 10 77 11 78 35 79 12 80 26 81 25 82 27 83 34 84 28 85 29 86
REMARK SMILES IDX 33 87 30 88 32 89 31 90 13 91 14 92 17 93 15 94 16 95 18 96
REMARK SMILES IDX 19 97 24 98 20 99 23 100 21 101 22 102
REMARK H PARENT 3 6 92 24 60 35 7 75
REMARK Flexibility Score: inf
ROOT
ATOM      1  C   UNL     1       4.998   2.143  -0.429  1.00  0.00     0.042 C 
ENDROOT
BRANCH   1   2
ATOM      2  C   UNL     1       4.593   0.968   0.454  1.00  0.00     0.118 C 
BRANCH   2   3
ATOM      3  N   UNL     1       3.164   0.839   0.659  1.00  0.00    -0.352 N 
ATOM      4  O   UNL     1       1.064   0.193   0.643  1.00  0.00    -0.269 OA
ATOM      5  C   UNL     1       2.136   0.197   0.030  1.00  0.00     0.251 C 
ATOM      6  H   UNL     1       2.858   1.340   1.450  1.00  0.00     0.163 HD
BRANCH   5   7
ATOM      7  C   UNL     1       2.178  -0.429  -1.323  1.00  0.00     0.039 A 
ATOM      8  C   UNL     1       3.299  -0.572  -2.140  1.00  0.00     0.014 A 
ATOM      9  C   UNL     1       0.933  -0.873  -1.819  1.00  0.00     0.014 A 
ATOM     10  C   UNL     1       3.163  -1.076  -3.440  1.00  0.00     0.010 A 
ATOM     11  C   UNL     1       0.794  -1.377  -3.109  1.00  0.00     0.010 A 
ATOM     12  C   UNL     1       1.906  -1.446  -3.939  1.00  0.00    -0.014 A 
BRANCH  12  13
ATOM     13  C   UNL     1       1.812  -2.025  -5.283  1.00  0.00     0.031 A 
ATOM     14  C   UNL     1       2.540  -3.319  -5.470  1.00  0.00     0.074 A 
ATOM     15  C   UNL     1       1.018  -1.553  -6.269  1.00  0.00     0.049 A 
ATOM     16  N   UNL     1       3.486  -3.596  -6.309  1.00  0.00    -0.248 NA
ATOM     17  C   UNL     1       2.211  -4.425  -4.557  1.00  0.00     0.031 C 
ATOM     18  C   UNL     1       0.004  -0.498  -6.205  1.00  0.00     0.029 A 
ATOM     19  N   UNL     1       0.909  -1.996  -7.557  1.00  0.00    -0.354 N 
ATOM     20  C   UNL     1       3.795  -4.944  -6.122  1.00  0.00     0.074 A 
ATOM     21  C   UNL     1       3.042  -5.381  -4.974  1.00  0.00     0.031 C 
ATOM     22  C   UNL     1      -0.749  -0.524  -7.331  1.00  0.00     0.029 A 
ATOM     23  C   UNL     1      -0.182  -1.492  -8.255  1.00  0.00     0.049 A 
ATOM     24  H   UNL     1       1.552  -2.623  -7.959  1.00  0.00     0.167 HD
ATOM     25  C   UNL     1       4.546  -5.653  -7.011  1.00  0.00     0.037 A 
ATOM     26  C   UNL     1      -0.606  -1.876  -9.487  1.00  0.00     0.037 A 
ATOM     27  C   UNL     1       5.296  -4.793  -7.881  1.00  0.00     0.049 A 
ATOM     28  C   UNL     1       0.537  -2.536 -10.163  1.00  0.00     0.074 A 
ATOM     29  C   UNL     1       6.315  -3.881  -7.691  1.00  0.00     0.029 A 
ATOM     30  N   UNL     1       4.803  -4.536  -9.135  1.00  0.00    -0.354 N 
ATOM     31  N   UNL     1       1.620  -1.919 -10.541  1.00  0.00    -0.248 NA
ATOM     32  C   UNL     1       0.643  -3.981 -10.041  1.00  0.00     0.031 C 
ATOM     33  C   UNL     1       6.031  -2.820  -8.599  1.00  0.00     0.029 A 
ATOM     34  C   UNL     1       4.894  -3.181  -9.324  1.00  0.00     0.049 A 
ATOM     35  H   UNL     1       4.451  -5.197  -9.774  1.00  0.00     0.167 HD
ATOM     36  C   UNL     1       2.639  -2.824 -10.295  1.00  0.00     0.074 A 
ATOM     37  C   UNL     1       1.971  -4.101 -10.063  1.00  0.00     0.031 C 
ATOM     38  C   UNL     1       3.908  -2.401 -10.031  1.00  0.00     0.037 A 
BRANCH  25  39
ATOM     39  C   UNL     1       4.414  -7.130  -7.263  1.00  0.00     0.064 A 
ATOM     40  C   UNL     1       3.210  -7.835  -7.051  1.00  0.00     0.173 A 
ATOM     41  C   UNL     1       5.406  -7.820  -7.988  1.00  0.00     0.173 A 
ATOM     42  F   UNL     1       2.148  -7.252  -6.481  1.00  0.00    -0.203 F 
ATOM     43  C   UNL     1       3.015  -9.134  -7.518  1.00  0.00     0.198 A 
ATOM     44  C   UNL     1       5.190  -9.105  -8.496  1.00  0.00     0.198 A 
ATOM     45  F   UNL     1       6.575  -7.230  -8.278  1.00  0.00    -0.203 F 
ATOM     46  F   UNL     1       1.841  -9.743  -7.302  1.00  0.00    -0.200 F 
ATOM     47  C   UNL     1       3.995  -9.760  -8.261  1.00  0.00     0.200 A 
ATOM     48  F   UNL     1       6.122  -9.683  -9.266  1.00  0.00    -0.200 F 
ATOM     49  F   UNL     1       3.767 -10.970  -8.788  1.00  0.00    -0.200 F 
ENDBRANCH  25  39
BRANCH  26  50
ATOM     50  C   UNL     1      -1.993  -2.039  -9.992  1.00  0.00     0.064 A 
ATOM     51  C   UNL     1      -3.045  -2.378  -9.120  1.00  0.00     0.173 A 
ATOM     52  C   UNL     1      -2.250  -2.191 -11.367  1.00  0.00     0.173 A 
ATOM     53  F   UNL     1      -2.873  -2.335  -7.791  1.00  0.00    -0.203 F 
ATOM     54  C   UNL     1      -4.262  -2.874  -9.590  1.00  0.00     0.198 A 
ATOM     55  C   UNL     1      -3.470  -2.693 -11.837  1.00  0.00     0.198 A 
ATOM     56  F   UNL     1      -1.288  -1.933 -12.266  1.00  0.00    -0.203 F 
ATOM     57  F   UNL     1      -5.207  -3.252  -8.717  1.00  0.00    -0.200 F 
ATOM     58  C   UNL     1      -4.469  -3.048 -10.947  1.00  0.00     0.200 A 
ATOM     59  F   UNL     1      -3.650  -2.894 -13.150  1.00  0.00    -0.200 F 
ATOM     60  F   UNL     1      -5.608  -3.598 -11.389  1.00  0.00    -0.200 F 
ENDBRANCH  26  50
BRANCH  38  61
ATOM     61  C   UNL     1       4.234  -0.950 -10.254  1.00  0.00     0.064 A 
ATOM     62  C   UNL     1       5.304  -0.637 -11.103  1.00  0.00     0.173 A 
ATOM     63  C   UNL     1       3.658   0.104  -9.523  1.00  0.00     0.173 A 
ATOM     64  F   UNL     1       5.925  -1.611 -11.787  1.00  0.00    -0.203 F 
ATOM     65  C   UNL     1       5.789   0.663 -11.205  1.00  0.00     0.198 A 
ATOM     66  C   UNL     1       4.123   1.412  -9.655  1.00  0.00     0.198 A 
ATOM     67  F   UNL     1       2.693  -0.124  -8.624  1.00  0.00    -0.203 F 
ATOM     68  F   UNL     1       6.860   0.916 -11.969  1.00  0.00    -0.200 F 
ATOM     69  C   UNL     1       5.196   1.688 -10.485  1.00  0.00     0.200 A 
ATOM     70  F   UNL     1       3.564   2.400  -8.939  1.00  0.00    -0.200 F 
ATOM     71  F   UNL     1       5.684   2.934 -10.564  1.00  0.00    -0.200 F 
ENDBRANCH  38  61
ENDBRANCH  12  13
ENDBRANCH   5   7
ENDBRANCH   2   3
ENDBRANCH   1   2
BRANCH   1  72
ATOM     72  C   UNL     1       4.518   3.511   0.052  1.00  0.00     0.118 C 
BRANCH  72  73
ATOM     73  N   UNL     1       5.104   3.924   1.319  1.00  0.00    -0.351 N 
ATOM     74  C   UNL     1       5.933   4.982   1.641  1.00  0.00     0.269 C 
ATOM     75  H   UNL     1       4.869   3.348   2.082  1.00  0.00     0.163 HD
ATOM     76  O   UNL     1       6.368   5.052   2.786  1.00  0.00    -0.268 OA
BRANCH  74  77
ATOM     77  C   UNL     1       6.262   6.047   0.642  1.00  0.00     0.129 A 
ATOM     78  C   UNL     1       5.290   6.583  -0.164  1.00  0.00     0.039 A 
ATOM     79  N   UNL     1       7.512   6.528   0.644  1.00  0.00    -0.243 NA
ATOM     80  C   UNL     1       5.599   7.604  -1.097  1.00  0.00    -0.021 A 
ATOM     81  C   UNL     1       7.819   7.548  -0.169  1.00  0.00     0.072 A 
ATOM     82  C   UNL     1       6.936   8.172  -1.107  1.00  0.00     0.012 A 
ATOM     83  C   UNL     1       9.112   7.991  -0.001  1.00  0.00     0.029 A 
ATOM     84  C   UNL     1       7.506   9.299  -1.885  1.00  0.00    -0.009 A 
ATOM     85  C   UNL     1       9.632   9.052  -0.725  1.00  0.00     0.011 A 
ATOM     86  C   UNL     1       8.853   9.707  -1.664  1.00  0.00    -0.018 A 
ATOM     87  C   UNL     1       6.839  10.077  -2.860  1.00  0.00     0.009 A 
ATOM     88  C   UNL     1       9.440  10.779  -2.363  1.00  0.00     0.009 A 
ATOM     89  C   UNL     1       7.421  11.141  -3.563  1.00  0.00     0.001 A 
ATOM     90  C   UNL     1       8.729  11.495  -3.314  1.00  0.00     0.001 A 
BRANCH  80  91
ATOM     91  C   UNL     1       4.376   7.986  -1.901  1.00  0.00     0.115 C 
ATOM     92  C   UNL     1       4.446   7.906  -3.380  1.00  0.00     0.123 C 
ATOM     93  C   UNL     1       3.737   9.330  -1.773  1.00  0.00     0.083 C 
ATOM     94  N   UNL     1       3.829   8.886  -3.958  1.00  0.00    -0.162 NA
ATOM     95  N   UNL     1       3.372   9.792  -2.937  1.00  0.00    -0.154 NA
BRANCH  93  96
ATOM     96  C   UNL     1       3.384   9.969  -0.484  1.00  0.00    -0.001 A 
ATOM     97  C   UNL     1       2.211  10.734  -0.434  1.00  0.00     0.013 A 
ATOM     98  C   UNL     1       4.142   9.805   0.682  1.00  0.00     0.013 A 
ATOM     99  C   UNL     1       1.780  11.282   0.777  1.00  0.00     0.040 A 
ATOM    100  C   UNL     1       3.706  10.348   1.893  1.00  0.00     0.040 A 
ATOM    101  C   UNL     1       2.524  11.073   1.931  1.00  0.00     0.123 A 
ATOM    102  F   UNL     1       2.099  11.578   3.095  1.00  0.00    -0.207 F 
ENDBRANCH  93  96
ENDBRANCH  80  91
ENDBRANCH  74  77
ENDBRANCH  72  73
ENDBRANCH   1  72
TORSDOF 12
