REMARK SMILES Cc1onc2c(=O)n(C)nc(C(=O)NCCCNC(=O)c3ccc(-c4c5nc(c(-c6c(F)c(F)c(F)c(F)c6F)c6ccc([nH]6)c(-c6c(F)c(F)c(F)c(F)c6F)c6nc(c(-c7c(F)c(F)c(F)c(F)c7F)c7ccc4[nH]7)C=C6)C=C5)cc3)c12
REMARK SMILES IDX 17 1 16 2 15 3 14 4 12 5 13 6 11 8 1 9 2 10 3 11 84 12 4 13
REMARK SMILES IDX 5 14 6 15 10 16 7 17 8 18 9 19 18 20 19 21 20 23 21 24 22 25
REMARK SMILES IDX 83 26 23 27 82 28 24 29 25 30 26 31 76 32 27 33 81 34 75 35
REMARK SMILES IDX 77 36 28 37 80 38 74 39 73 40 29 42 61 43 41 44 60 45 42 46
REMARK SMILES IDX 45 47 59 48 78 49 43 50 44 51 58 53 79 54 46 55 30 56 31 57
REMARK SMILES IDX 39 58 32 59 33 60 37 61 40 62 34 63 35 64 38 65 36 66 62 67
REMARK SMILES IDX 63 68 71 69 64 70 65 71 69 72 72 73 66 74 67 75 70 76 68 77
REMARK SMILES IDX 47 78 48 79 56 80 49 81 50 82 54 83 57 84 51 85 52 86 55 87
REMARK SMILES IDX 53 88
REMARK H PARENT 14 7 18 22 77 41 45 52
REMARK Flexibility Score: inf
ROOT
ATOM      1  C   UNL     1       8.209   0.829   1.110  1.00  0.00     0.118 C 
ENDROOT
BRANCH   1   2
ATOM      2  C   UNL     1       7.172   1.972   1.126  1.00  0.00     0.042 C 
BRANCH   2   3
ATOM      3  C   UNL     1       6.255   2.091  -0.103  1.00  0.00     0.118 C 
BRANCH   3   4
ATOM      4  N   UNL     1       5.231   1.058  -0.182  1.00  0.00    -0.351 N 
ATOM      5  C   UNL     1       3.857   1.118  -0.327  1.00  0.00     0.272 C 
ATOM      6  O   UNL     1       3.273   0.072  -0.602  1.00  0.00    -0.267 OA
ATOM      7  H   UNL     1       5.585   0.142  -0.119  1.00  0.00     0.163 HD
BRANCH   5   8
ATOM      8  C   UNL     1       3.028   2.406  -0.170  1.00  0.00     0.161 A 
ATOM      9  C   UNL     1       0.541  -0.021   0.248  1.00  0.00     0.091 C 
ATOM     10  C   UNL     1       0.611   1.452   0.176  1.00  0.00     0.144 A 
ATOM     11  O   UNL     1      -0.600   2.074   0.294  1.00  0.00    -0.360 OA
ATOM     12  C   UNL     1       1.589   2.409   0.018  1.00  0.00     0.083 A 
ATOM     13  N   UNL     1      -0.433   3.445   0.241  1.00  0.00    -0.074 NA
ATOM     14  C   UNL     1       0.881   3.628   0.085  1.00  0.00     0.183 A 
ATOM     15  C   UNL     1       1.549   4.904   0.007  1.00  0.00     0.296 A 
ATOM     16  N   UNL     1       3.636   3.562  -0.239  1.00  0.00    -0.164 NA
ATOM     17  O   UNL     1       0.969   5.994   0.069  1.00  0.00    -0.265 OA
ATOM     18  N   UNL     1       2.941   4.774  -0.131  1.00  0.00    -0.230 N 
ATOM     19  C   UNL     1       3.735   5.985  -0.181  1.00  0.00     0.178 C 
ENDBRANCH   5   8
ENDBRANCH   3   4
ENDBRANCH   2   3
ENDBRANCH   1   2
BRANCH   1  20
ATOM     20  N   UNL     1       9.148   0.963   0.007  1.00  0.00    -0.352 N 
ATOM     21  C   UNL     1      10.513   0.914  -0.092  1.00  0.00     0.251 C 
ATOM     22  H   UNL     1       8.706   1.125  -0.858  1.00  0.00     0.163 HD
ATOM     23  O   UNL     1      11.008   1.315  -1.147  1.00  0.00    -0.269 OA
BRANCH  21  24
ATOM     24  C   UNL     1      11.430   0.405   0.959  1.00  0.00     0.039 A 
ATOM     25  C   UNL     1      12.705   0.995   1.026  1.00  0.00     0.014 A 
ATOM     26  C   UNL     1      11.168  -0.723   1.737  1.00  0.00     0.014 A 
ATOM     27  C   UNL     1      13.692   0.493   1.880  1.00  0.00     0.010 A 
ATOM     28  C   UNL     1      12.163  -1.227   2.595  1.00  0.00     0.010 A 
ATOM     29  C   UNL     1      13.426  -0.614   2.690  1.00  0.00    -0.014 A 
BRANCH  29  30
ATOM     30  C   UNL     1      14.409  -0.936   3.754  1.00  0.00     0.031 A 
ATOM     31  C   UNL     1      13.800  -1.187   5.092  1.00  0.00     0.074 A 
ATOM     32  C   UNL     1      15.622  -1.494   3.551  1.00  0.00     0.049 A 
ATOM     33  N   UNL     1      13.305  -2.342   5.427  1.00  0.00    -0.248 NA
ATOM     34  C   UNL     1      13.454  -0.103   6.009  1.00  0.00     0.031 C 
ATOM     35  C   UNL     1      15.893  -2.526   2.546  1.00  0.00     0.029 A 
ATOM     36  N   UNL     1      16.754  -1.480   4.344  1.00  0.00    -0.354 N 
ATOM     37  C   UNL     1      12.501  -2.132   6.530  1.00  0.00     0.074 A 
ATOM     38  C   UNL     1      12.644  -0.734   6.872  1.00  0.00     0.031 C 
ATOM     39  C   UNL     1      17.038  -3.159   2.879  1.00  0.00     0.029 A 
ATOM     40  C   UNL     1      17.659  -2.483   4.018  1.00  0.00     0.049 A 
ATOM     41  H   UNL     1      16.903  -0.828   5.066  1.00  0.00     0.167 HD
ATOM     42  C   UNL     1      11.767  -3.127   7.093  1.00  0.00     0.037 A 
ATOM     43  C   UNL     1      18.544  -3.055   4.878  1.00  0.00     0.037 A 
ATOM     44  C   UNL     1      11.995  -4.440   6.561  1.00  0.00     0.049 A 
ATOM     45  C   UNL     1      17.636  -3.952   5.673  1.00  0.00     0.074 A 
ATOM     46  C   UNL     1      11.362  -5.415   5.828  1.00  0.00     0.029 A 
ATOM     47  N   UNL     1      13.228  -4.951   6.860  1.00  0.00    -0.354 N 
ATOM     48  N   UNL     1      17.186  -5.122   5.301  1.00  0.00    -0.248 NA
ATOM     49  C   UNL     1      16.983  -3.404   6.866  1.00  0.00     0.031 C 
ATOM     50  C   UNL     1      12.385  -6.351   5.448  1.00  0.00     0.029 A 
ATOM     51  C   UNL     1      13.604  -5.891   5.949  1.00  0.00     0.049 A 
ATOM     52  H   UNL     1      13.773  -4.675   7.633  1.00  0.00     0.167 HD
ATOM     53  C   UNL     1      16.023  -5.317   6.048  1.00  0.00     0.074 A 
ATOM     54  C   UNL     1      16.068  -4.332   7.104  1.00  0.00     0.031 C 
ATOM     55  C   UNL     1      14.997  -6.108   5.615  1.00  0.00     0.037 A 
BRANCH  42  56
ATOM     56  C   UNL     1      11.041  -2.992   8.370  1.00  0.00     0.064 A 
ATOM     57  C   UNL     1      11.637  -3.526   9.525  1.00  0.00     0.173 A 
ATOM     58  C   UNL     1       9.725  -2.537   8.454  1.00  0.00     0.173 A 
ATOM     59  F   UNL     1      12.913  -3.948   9.489  1.00  0.00    -0.203 F 
ATOM     60  C   UNL     1      10.924  -3.659  10.707  1.00  0.00     0.198 A 
ATOM     61  C   UNL     1       9.014  -2.657   9.649  1.00  0.00     0.198 A 
ATOM     62  F   UNL     1       9.117  -2.015   7.379  1.00  0.00    -0.203 F 
ATOM     63  F   UNL     1      11.505  -4.222  11.775  1.00  0.00    -0.200 F 
ATOM     64  C   UNL     1       9.607  -3.234  10.767  1.00  0.00     0.200 A 
ATOM     65  F   UNL     1       7.743  -2.237   9.716  1.00  0.00    -0.200 F 
ATOM     66  F   UNL     1       8.908  -3.387  11.899  1.00  0.00    -0.200 F 
ENDBRANCH  42  56
BRANCH  43  67
ATOM     67  C   UNL     1      19.581  -2.148   5.471  1.00  0.00     0.064 A 
ATOM     68  C   UNL     1      20.366  -1.378   4.584  1.00  0.00     0.173 A 
ATOM     69  C   UNL     1      19.875  -1.982   6.833  1.00  0.00     0.173 A 
ATOM     70  F   UNL     1      20.271  -1.576   3.259  1.00  0.00    -0.203 F 
ATOM     71  C   UNL     1      21.258  -0.402   5.032  1.00  0.00     0.198 A 
ATOM     72  C   UNL     1      20.735  -0.977   7.285  1.00  0.00     0.198 A 
ATOM     73  F   UNL     1      19.345  -2.784   7.764  1.00  0.00    -0.203 F 
ATOM     74  F   UNL     1      21.954   0.327   4.149  1.00  0.00    -0.200 F 
ATOM     75  C   UNL     1      21.408  -0.171   6.386  1.00  0.00     0.200 A 
ATOM     76  F   UNL     1      20.891  -0.781   8.603  1.00  0.00    -0.200 F 
ATOM     77  F   UNL     1      22.206   0.813   6.824  1.00  0.00    -0.200 F 
ENDBRANCH  43  67
BRANCH  55  78
ATOM     78  C   UNL     1      15.376  -7.094   4.565  1.00  0.00     0.064 A 
ATOM     79  C   UNL     1      16.263  -8.131   4.891  1.00  0.00     0.173 A 
ATOM     80  C   UNL     1      14.854  -7.056   3.266  1.00  0.00     0.173 A 
ATOM     81  F   UNL     1      16.773  -8.221   6.130  1.00  0.00    -0.203 F 
ATOM     82  C   UNL     1      16.609  -9.098   3.955  1.00  0.00     0.198 A 
ATOM     83  C   UNL     1      15.182  -8.041   2.339  1.00  0.00     0.198 A 
ATOM     84  F   UNL     1      14.012  -6.080   2.890  1.00  0.00    -0.203 F 
ATOM     85  F   UNL     1      17.457 -10.079   4.291  1.00  0.00    -0.200 F 
ATOM     86  C   UNL     1      16.059  -9.060   2.684  1.00  0.00     0.200 A 
ATOM     87  F   UNL     1      14.635  -8.018   1.115  1.00  0.00    -0.200 F 
ATOM     88  F   UNL     1      16.364 -10.014   1.793  1.00  0.00    -0.200 F 
ENDBRANCH  55  78
ENDBRANCH  29  30
ENDBRANCH  21  24
ENDBRANCH   1  20
TORSDOF 10
