REMARK SMILES C[C@H](c1ccoc1)[NH+]1CC[NH+]([C@@H](C)C(=O)NCCCNC(=O)c2ccc(-c3c4nc(c(-c5c(F)c(F)c(F)c(F)c5F)c5ccc([nH]5)c(-c5c(F)c(F)c(F)c(F)c5F)c5nc(c(-c6c(F)c(F)c(F)c(F)c6F)c6ccc3[nH]6)C=C5)C=C4)cc2)CC1
REMARK SMILES IDX 17 1 16 2 14 3 15 4 12 6 13 7 11 8 8 9 9 10 87 11 10 13
REMARK SMILES IDX 86 14 2 16 1 17 3 18 4 19 7 20 5 21 6 22 18 23 19 24 20 25
REMARK SMILES IDX 21 26 22 28 23 29 24 30 85 31 25 32 84 33 26 34 27 35 28 36
REMARK SMILES IDX 78 37 29 38 83 39 77 40 79 41 30 42 82 43 76 44 75 45 31 47
REMARK SMILES IDX 63 48 43 49 62 50 44 51 47 52 61 53 80 54 45 55 46 56 60 58
REMARK SMILES IDX 81 59 48 60 32 61 33 62 41 63 34 64 35 65 39 66 42 67 36 68
REMARK SMILES IDX 37 69 40 70 38 71 64 72 65 73 73 74 66 75 67 76 71 77 74 78
REMARK SMILES IDX 68 79 69 80 72 81 70 82 49 83 50 84 58 85 51 86 52 87 56 88
REMARK SMILES IDX 59 89 53 90 54 91 57 92 55 93
REMARK H PARENT 16 5 8 12 11 15 20 27 79 46 47 57
REMARK Flexibility Score: inf
ROOT
ATOM      1  C   UNL     1      -3.386  -1.138   2.102  1.00  0.00     0.118 C 
ENDROOT
BRANCH   1   2
ATOM      2  N   UNL     1      -3.677   0.153   2.716  1.00  0.00    -0.351 N 
ATOM      3  C   UNL     1      -3.695   1.447   2.272  1.00  0.00     0.278 C 
ATOM      4  O   UNL     1      -3.997   2.284   3.136  1.00  0.00    -0.268 OA
ATOM      5  H   UNL     1      -3.915   0.075   3.668  1.00  0.00     0.163 HD
BRANCH   3   6
ATOM      6  C   UNL     1      -3.375   1.927   0.813  1.00  0.00     0.271 C 
ATOM      7  C   UNL     1      -4.258   1.282  -0.252  1.00  0.00     0.086 C 
BRANCH   6   8
ATOM      8  N   UNL     1      -1.923   2.104   0.573  1.00  0.00    -0.316 N 
ATOM      9  N   UNL     1      -0.463   0.452  -1.506  1.00  0.00    -0.320 N 
ATOM     10  C   UNL     1      -1.092  -0.070  -0.301  1.00  0.00     0.325 C 
ATOM     11  C   UNL     1      -1.058   1.758  -1.862  1.00  0.00     0.325 C 
ATOM     12  H   UNL     1      -0.698  -0.203  -2.252  1.00  0.00     0.348 HD
ATOM     13  C   UNL     1      -1.073   0.960   0.839  1.00  0.00     0.325 C 
ATOM     14  C   UNL     1      -1.502   2.716  -0.701  1.00  0.00     0.325 C 
ATOM     15  H   UNL     1      -1.770   2.800   1.302  1.00  0.00     0.349 HD
BRANCH   9  16
ATOM     16  C   UNL     1       1.004   0.331  -1.627  1.00  0.00     0.215 C 
ATOM     17  C   UNL     1       1.270  -0.704  -2.730  1.00  0.00     0.081 C 
BRANCH  16  18
ATOM     18  C   UNL     1       1.720  -0.053  -0.350  1.00  0.00     0.047 A 
ATOM     19  C   UNL     1       1.801  -1.335   0.286  1.00  0.00     0.052 A 
ATOM     20  C   UNL     1       2.451   0.787   0.472  1.00  0.00     0.204 A 
ATOM     21  C   UNL     1       2.476  -1.153   1.469  1.00  0.00     0.195 A 
ATOM     22  O   UNL     1       2.885   0.134   1.580  1.00  0.00    -0.472 OA
ENDBRANCH  16  18
ENDBRANCH   9  16
ENDBRANCH   6   8
ENDBRANCH   3   6
ENDBRANCH   1   2
BRANCH   1  23
ATOM     23  C   UNL     1      -2.093  -1.786   2.620  1.00  0.00     0.042 C 
BRANCH  23  24
ATOM     24  C   UNL     1      -2.233  -2.556   3.925  1.00  0.00     0.118 C 
BRANCH  24  25
ATOM     25  N   UNL     1      -2.632  -3.935   3.702  1.00  0.00    -0.352 N 
ATOM     26  C   UNL     1      -1.928  -5.110   3.818  1.00  0.00     0.251 C 
ATOM     27  H   UNL     1      -3.568  -4.047   3.420  1.00  0.00     0.163 HD
ATOM     28  O   UNL     1      -2.418  -6.134   3.347  1.00  0.00    -0.269 OA
BRANCH  26  29
ATOM     29  C   UNL     1      -0.598  -5.187   4.481  1.00  0.00     0.039 A 
ATOM     30  C   UNL     1       0.315  -6.152   4.031  1.00  0.00     0.014 A 
ATOM     31  C   UNL     1      -0.260  -4.406   5.589  1.00  0.00     0.014 A 
ATOM     32  C   UNL     1       1.557  -6.306   4.660  1.00  0.00     0.010 A 
ATOM     33  C   UNL     1       1.014  -4.495   6.157  1.00  0.00     0.010 A 
ATOM     34  C   UNL     1       1.928  -5.463   5.718  1.00  0.00    -0.014 A 
BRANCH  34  35
ATOM     35  C   UNL     1       3.240  -5.611   6.406  1.00  0.00     0.031 A 
ATOM     36  C   UNL     1       3.293  -5.976   7.868  1.00  0.00     0.074 A 
ATOM     37  C   UNL     1       4.385  -5.365   5.740  1.00  0.00     0.049 A 
ATOM     38  N   UNL     1       4.329  -6.071   8.665  1.00  0.00    -0.248 NA
ATOM     39  C   UNL     1       2.006  -6.239   8.529  1.00  0.00     0.031 C 
ATOM     40  C   UNL     1       4.478  -4.962   4.337  1.00  0.00     0.029 A 
ATOM     41  N   UNL     1       5.693  -5.407   6.161  1.00  0.00    -0.354 N 
ATOM     42  C   UNL     1       3.815  -6.373   9.920  1.00  0.00     0.074 A 
ATOM     43  C   UNL     1       2.375  -6.400   9.791  1.00  0.00     0.031 C 
ATOM     44  C   UNL     1       5.770  -4.811   4.007  1.00  0.00     0.029 A 
ATOM     45  C   UNL     1       6.597  -5.074   5.182  1.00  0.00     0.049 A 
ATOM     46  H   UNL     1       5.956  -5.652   7.077  1.00  0.00     0.167 HD
ATOM     47  C   UNL     1       4.482  -6.628  11.072  1.00  0.00     0.037 A 
ATOM     48  C   UNL     1       7.940  -4.984   5.227  1.00  0.00     0.037 A 
ATOM     49  C   UNL     1       5.916  -6.649  11.193  1.00  0.00     0.049 A 
ATOM     50  C   UNL     1       8.660  -5.294   6.511  1.00  0.00     0.074 A 
ATOM     51  C   UNL     1       6.686  -6.971  12.297  1.00  0.00     0.029 A 
ATOM     52  N   UNL     1       6.798  -6.335  10.169  1.00  0.00    -0.354 N 
ATOM     53  N   UNL     1       8.166  -5.641   7.674  1.00  0.00    -0.248 NA
ATOM     54  C   UNL     1      10.128  -5.207   6.485  1.00  0.00     0.031 C 
ATOM     55  C   UNL     1       8.034  -6.815  11.952  1.00  0.00     0.029 A 
ATOM     56  C   UNL     1       8.104  -6.438  10.621  1.00  0.00     0.049 A 
ATOM     57  H   UNL     1       6.535  -6.077   9.256  1.00  0.00     0.167 HD
ATOM     58  C   UNL     1       9.257  -5.834   8.510  1.00  0.00     0.074 A 
ATOM     59  C   UNL     1      10.442  -5.582   7.717  1.00  0.00     0.031 C 
ATOM     60  C   UNL     1       9.274  -6.189   9.819  1.00  0.00     0.037 A 
BRANCH  47  61
ATOM     61  C   UNL     1       3.663  -6.911  12.300  1.00  0.00     0.064 A 
ATOM     62  C   UNL     1       2.929  -8.099  12.439  1.00  0.00     0.173 A 
ATOM     63  C   UNL     1       3.633  -5.995  13.362  1.00  0.00     0.173 A 
ATOM     64  F   UNL     1       2.916  -9.004  11.449  1.00  0.00    -0.203 F 
ATOM     65  C   UNL     1       2.168  -8.342  13.579  1.00  0.00     0.198 A 
ATOM     66  C   UNL     1       2.895  -6.255  14.514  1.00  0.00     0.198 A 
ATOM     67  F   UNL     1       4.324  -4.847  13.285  1.00  0.00    -0.203 F 
ATOM     68  F   UNL     1       1.431  -9.459  13.665  1.00  0.00    -0.200 F 
ATOM     69  C   UNL     1       2.155  -7.424  14.617  1.00  0.00     0.200 A 
ATOM     70  F   UNL     1       2.895  -5.372  15.522  1.00  0.00    -0.200 F 
ATOM     71  F   UNL     1       1.424  -7.660  15.715  1.00  0.00    -0.200 F 
ENDBRANCH  47  61
BRANCH  48  72
ATOM     72  C   UNL     1       8.694  -4.612   4.002  1.00  0.00     0.064 A 
ATOM     73  C   UNL     1       9.464  -5.563   3.317  1.00  0.00     0.173 A 
ATOM     74  C   UNL     1       8.653  -3.310   3.486  1.00  0.00     0.173 A 
ATOM     75  F   UNL     1       9.552  -6.816   3.786  1.00  0.00    -0.203 F 
ATOM     76  C   UNL     1      10.175  -5.221   2.168  1.00  0.00     0.198 A 
ATOM     77  C   UNL     1       9.344  -2.975   2.322  1.00  0.00     0.198 A 
ATOM     78  F   UNL     1       7.929  -2.365   4.103  1.00  0.00    -0.203 F 
ATOM     79  F   UNL     1      10.932  -6.140   1.554  1.00  0.00    -0.200 F 
ATOM     80  C   UNL     1      10.108  -3.930   1.668  1.00  0.00     0.200 A 
ATOM     81  F   UNL     1       9.268  -1.730   1.835  1.00  0.00    -0.200 F 
ATOM     82  F   UNL     1      10.785  -3.604   0.558  1.00  0.00    -0.200 F 
ENDBRANCH  48  72
BRANCH  60  83
ATOM     83  C   UNL     1      10.616  -6.354  10.469  1.00  0.00     0.064 A 
ATOM     84  C   UNL     1      11.416  -5.249  10.792  1.00  0.00     0.173 A 
ATOM     85  C   UNL     1      11.087  -7.631  10.811  1.00  0.00     0.173 A 
ATOM     86  F   UNL     1      11.016  -4.009  10.472  1.00  0.00    -0.203 F 
ATOM     87  C   UNL     1      12.650  -5.418  11.414  1.00  0.00     0.198 A 
ATOM     88  C   UNL     1      12.309  -7.794  11.457  1.00  0.00     0.198 A 
ATOM     89  F   UNL     1      10.356  -8.719  10.529  1.00  0.00    -0.203 F 
ATOM     90  F   UNL     1      13.418  -4.351  11.676  1.00  0.00    -0.200 F 
ATOM     91  C   UNL     1      13.092  -6.688  11.752  1.00  0.00     0.200 A 
ATOM     92  F   UNL     1      12.730  -9.021  11.793  1.00  0.00    -0.200 F 
ATOM     93  F   UNL     1      14.278  -6.848  12.357  1.00  0.00    -0.200 F 
ENDBRANCH  60  83
ENDBRANCH  34  35
ENDBRANCH  26  29
ENDBRANCH  24  25
ENDBRANCH  23  24
ENDBRANCH   1  23
TORSDOF 13
