REMARK SMILES Cc1nc([C@@H]2C[N@@H+]3CCC[C@@H]3CO2)sc1CC(=O)NCCCNC(=O)c1ccc(-c2c3nc(c(-c4c(F)c(F)c(F)c(F)c4F)c4ccc([nH]4)c(-c4c(F)c(F)c(F)c(F)c4F)c4nc(c(-c5c(F)c(F)c(F)c(F)c5F)c5ccc2[nH]5)C=C4)C=C3)cc1
REMARK SMILES IDX 21 1 20 2 19 3 17 4 18 5 16 7 15 8 1 9 2 10 3 11 4 12 14 13
REMARK SMILES IDX 5 14 6 15 13 16 7 17 12 18 8 19 11 20 9 22 10 23 22 24 23 25
REMARK SMILES IDX 24 26 25 28 26 29 27 30 88 31 28 32 87 33 29 34 30 35 31 36
REMARK SMILES IDX 81 37 32 38 86 39 80 40 82 41 33 42 85 43 79 44 78 45 34 47
REMARK SMILES IDX 66 48 46 49 65 50 47 51 50 52 64 53 83 54 48 55 49 56 63 58
REMARK SMILES IDX 84 59 51 60 35 61 36 62 44 63 37 64 38 65 42 66 45 67 39 68
REMARK SMILES IDX 40 69 43 70 41 71 67 72 68 73 76 74 69 75 70 76 74 77 77 78
REMARK SMILES IDX 71 79 72 80 75 81 73 82 52 83 53 84 61 85 54 86 55 87 59 88
REMARK SMILES IDX 62 89 56 90 57 91 60 92 58 93
REMARK H PARENT 19 6 7 21 23 27 82 46 50 57
REMARK Flexibility Score: inf
ROOT
ATOM      1  C   UNL     1       1.427   5.432  -4.368  1.00  0.00     0.042 C 
ENDROOT
BRANCH   1   2
ATOM      2  C   UNL     1       0.280   6.435  -4.449  1.00  0.00     0.117 C 
BRANCH   2   3
ATOM      3  N   UNL     1      -0.993   5.784  -4.695  1.00  0.00    -0.356 N 
ATOM      4  C   UNL     1      -2.017   5.522  -3.831  1.00  0.00     0.225 C 
ATOM      5  O   UNL     1      -2.989   4.897  -4.261  1.00  0.00    -0.275 OA
ATOM      6  H   UNL     1      -1.141   5.488  -5.622  1.00  0.00     0.163 HD
BRANCH   4   7
ATOM      7  C   UNL     1      -1.990   6.057  -2.409  1.00  0.00     0.148 C 
BRANCH   7   8
ATOM      8  C   UNL     1      -0.924   5.424  -1.571  1.00  0.00     0.037 A 
ATOM      9  C   UNL     1       0.472   7.459  -0.771  1.00  0.00     0.068 C 
ATOM     10  C   UNL     1       0.108   6.020  -0.862  1.00  0.00     0.052 A 
ATOM     11  N   UNL     1       0.946   5.136  -0.219  1.00  0.00    -0.243 NA
ATOM     12  C   UNL     1       0.624   3.890  -0.502  1.00  0.00     0.128 A 
ATOM     13  S   UNL     1      -0.844   3.714  -1.371  1.00  0.00    -0.120 S 
BRANCH  12  14
ATOM     14  C   UNL     1       1.489   2.695  -0.152  1.00  0.00     0.232 C 
ATOM     15  C   UNL     1       1.792   2.645   1.373  1.00  0.00     0.302 C 
ATOM     16  O   UNL     1       2.660   2.753  -0.995  1.00  0.00    -0.359 OA
ATOM     17  N   UNL     1       3.196   2.629   1.807  1.00  0.00    -0.328 N 
ATOM     18  C   UNL     1       3.634   3.672  -0.495  1.00  0.00     0.226 C 
ATOM     19  C   UNL     1       3.398   3.221   3.135  1.00  0.00     0.262 C 
ATOM     20  C   UNL     1       4.160   3.228   0.869  1.00  0.00     0.210 C 
ATOM     21  H   UNL     1       3.395   1.629   1.841  1.00  0.00     0.348 HD
ATOM     22  C   UNL     1       4.772   3.866   3.071  1.00  0.00     0.068 C 
ATOM     23  C   UNL     1       4.837   4.357   1.638  1.00  0.00     0.073 C 
ENDBRANCH  12  14
ENDBRANCH   7   8
ENDBRANCH   4   7
ENDBRANCH   2   3
ENDBRANCH   1   2
BRANCH   1  24
ATOM     24  C   UNL     1       1.743   4.760  -5.699  1.00  0.00     0.118 C 
BRANCH  24  25
ATOM     25  N   UNL     1       2.253   5.697  -6.693  1.00  0.00    -0.352 N 
ATOM     26  C   UNL     1       3.408   5.649  -7.431  1.00  0.00     0.251 C 
ATOM     27  H   UNL     1       1.683   6.483  -6.858  1.00  0.00     0.163 HD
ATOM     28  O   UNL     1       3.758   6.628  -8.087  1.00  0.00    -0.269 OA
BRANCH  26  29
ATOM     29  C   UNL     1       4.242   4.430  -7.428  1.00  0.00     0.039 A 
ATOM     30  C   UNL     1       5.631   4.558  -7.335  1.00  0.00     0.014 A 
ATOM     31  C   UNL     1       3.659   3.165  -7.529  1.00  0.00     0.014 A 
ATOM     32  C   UNL     1       6.430   3.413  -7.277  1.00  0.00     0.010 A 
ATOM     33  C   UNL     1       4.447   2.027  -7.391  1.00  0.00     0.010 A 
ATOM     34  C   UNL     1       5.841   2.138  -7.268  1.00  0.00    -0.014 A 
BRANCH  34  35
ATOM     35  C   UNL     1       6.656   0.902  -7.154  1.00  0.00     0.031 A 
ATOM     36  C   UNL     1       6.650  -0.100  -8.277  1.00  0.00     0.074 A 
ATOM     37  C   UNL     1       7.339   0.646  -6.021  1.00  0.00     0.049 A 
ATOM     38  N   UNL     1       7.176  -1.298  -8.323  1.00  0.00    -0.248 NA
ATOM     39  C   UNL     1       5.934   0.288  -9.504  1.00  0.00     0.031 C 
ATOM     40  C   UNL     1       7.405   1.526  -4.853  1.00  0.00     0.029 A 
ATOM     41  N   UNL     1       8.096  -0.442  -5.658  1.00  0.00    -0.354 N 
ATOM     42  C   UNL     1       6.848  -1.805  -9.574  1.00  0.00     0.074 A 
ATOM     43  C   UNL     1       6.026  -0.814 -10.233  1.00  0.00     0.031 C 
ATOM     44  C   UNL     1       8.171   0.951  -3.911  1.00  0.00     0.029 A 
ATOM     45  C   UNL     1       8.608  -0.358  -4.386  1.00  0.00     0.049 A 
ATOM     46  H   UNL     1       8.256  -1.209  -6.254  1.00  0.00     0.167 HD
ATOM     47  C   UNL     1       7.223  -2.980 -10.134  1.00  0.00     0.037 A 
ATOM     48  C   UNL     1       9.329  -1.248  -3.677  1.00  0.00     0.037 A 
ATOM     49  C   UNL     1       8.052  -3.958  -9.482  1.00  0.00     0.049 A 
ATOM     50  C   UNL     1       9.685  -2.571  -4.308  1.00  0.00     0.074 A 
ATOM     51  C   UNL     1       8.499  -5.173  -9.970  1.00  0.00     0.029 A 
ATOM     52  N   UNL     1       8.566  -3.827  -8.200  1.00  0.00    -0.354 N 
ATOM     53  N   UNL     1       9.405  -3.021  -5.507  1.00  0.00    -0.248 NA
ATOM     54  C   UNL     1      10.463  -3.509  -3.486  1.00  0.00     0.031 C 
ATOM     55  C   UNL     1       9.248  -5.797  -8.969  1.00  0.00     0.029 A 
ATOM     56  C   UNL     1       9.318  -4.945  -7.879  1.00  0.00     0.049 A 
ATOM     57  H   UNL     1       8.417  -3.055  -7.607  1.00  0.00     0.167 HD
ATOM     58  C   UNL     1      10.014  -4.265  -5.600  1.00  0.00     0.074 A 
ATOM     59  C   UNL     1      10.685  -4.498  -4.340  1.00  0.00     0.031 C 
ATOM     60  C   UNL     1      10.018  -5.139  -6.636  1.00  0.00     0.037 A 
BRANCH  47  61
ATOM     61  C   UNL     1       6.756  -3.267 -11.531  1.00  0.00     0.064 A 
ATOM     62  C   UNL     1       7.260  -2.554 -12.630  1.00  0.00     0.173 A 
ATOM     63  C   UNL     1       5.848  -4.306 -11.785  1.00  0.00     0.173 A 
ATOM     64  F   UNL     1       8.123  -1.544 -12.441  1.00  0.00    -0.203 F 
ATOM     65  C   UNL     1       6.857  -2.856 -13.928  1.00  0.00     0.198 A 
ATOM     66  C   UNL     1       5.472  -4.627 -13.087  1.00  0.00     0.198 A 
ATOM     67  F   UNL     1       5.340  -5.024 -10.772  1.00  0.00    -0.203 F 
ATOM     68  F   UNL     1       7.321  -2.134 -14.957  1.00  0.00    -0.200 F 
ATOM     69  C   UNL     1       5.972  -3.899 -14.156  1.00  0.00     0.200 A 
ATOM     70  F   UNL     1       4.629  -5.645 -13.308  1.00  0.00    -0.200 F 
ATOM     71  F   UNL     1       5.598  -4.200 -15.407  1.00  0.00    -0.200 F 
ENDBRANCH  47  61
BRANCH  48  72
ATOM     72  C   UNL     1       9.776  -0.934  -2.292  1.00  0.00     0.064 A 
ATOM     73  C   UNL     1      11.139  -0.810  -1.987  1.00  0.00     0.173 A 
ATOM     74  C   UNL     1       8.861  -0.813  -1.235  1.00  0.00     0.173 A 
ATOM     75  F   UNL     1      12.056  -0.937  -2.958  1.00  0.00    -0.203 F 
ATOM     76  C   UNL     1      11.572  -0.626  -0.675  1.00  0.00     0.198 A 
ATOM     77  C   UNL     1       9.293  -0.590   0.071  1.00  0.00     0.198 A 
ATOM     78  F   UNL     1       7.545  -0.915  -1.470  1.00  0.00    -0.203 F 
ATOM     79  F   UNL     1      12.884  -0.589  -0.404  1.00  0.00    -0.200 F 
ATOM     80  C   UNL     1      10.649  -0.514   0.352  1.00  0.00     0.200 A 
ATOM     81  F   UNL     1       8.398  -0.465   1.059  1.00  0.00    -0.200 F 
ATOM     82  F   UNL     1      11.066  -0.348   1.615  1.00  0.00    -0.200 F 
ENDBRANCH  48  72
BRANCH  60  83
ATOM     83  C   UNL     1      10.839  -6.388  -6.491  1.00  0.00     0.064 A 
ATOM     84  C   UNL     1      10.464  -7.429  -5.631  1.00  0.00     0.173 A 
ATOM     85  C   UNL     1      11.992  -6.563  -7.273  1.00  0.00     0.173 A 
ATOM     86  F   UNL     1       9.378  -7.306  -4.853  1.00  0.00    -0.203 F 
ATOM     87  C   UNL     1      11.227  -8.591  -5.540  1.00  0.00     0.198 A 
ATOM     88  C   UNL     1      12.733  -7.739  -7.205  1.00  0.00     0.198 A 
ATOM     89  F   UNL     1      12.390  -5.600  -8.118  1.00  0.00    -0.203 F 
ATOM     90  F   UNL     1      10.877  -9.554  -4.676  1.00  0.00    -0.200 F 
ATOM     91  C   UNL     1      12.354  -8.749  -6.334  1.00  0.00     0.200 A 
ATOM     92  F   UNL     1      13.811  -7.897  -7.986  1.00  0.00    -0.200 F 
ATOM     93  F   UNL     1      13.078  -9.873  -6.255  1.00  0.00    -0.200 F 
ENDBRANCH  60  83
ENDBRANCH  34  35
ENDBRANCH  26  29
ENDBRANCH  24  25
ENDBRANCH   1  24
TORSDOF 12
