REMARK SMILES NS(=O)(=O)c1ccc(C(=O)N2CC[C@H](c3ccccc3C(=O)NCCCNC(=O)c3ccc(-c4c5nc(c(-c6c(F)c(F)c(F)c(F)c6F)c6ccc([nH]6)c(-c6c(F)c(F)c(F)c(F)c6F)c6nc(c(-c7c(F)c(F)c(F)c(F)c7F)c7ccc4[nH]7)C=C6)C=C5)cc3)C2)cc1
REMARK SMILES IDX 21 1 22 2 23 3 20 5 15 6 16 7 17 8 19 9 18 10 14 11 11 12
REMARK SMILES IDX 12 13 93 14 13 15 9 16 10 17 8 18 5 19 6 20 95 21 7 22 94 23
REMARK SMILES IDX 2 24 3 25 4 26 1 27 24 30 25 31 26 32 27 33 28 34 29 36
REMARK SMILES IDX 30 37 31 38 92 39 32 40 91 41 33 42 34 43 35 44 85 45 36 46
REMARK SMILES IDX 90 47 84 48 86 49 37 50 89 51 83 52 82 53 38 55 70 56 50 57
REMARK SMILES IDX 69 58 51 59 54 60 68 61 87 62 52 63 53 64 67 66 88 67 55 68
REMARK SMILES IDX 39 69 40 70 48 71 41 72 42 73 46 74 49 75 43 76 44 77 47 78
REMARK SMILES IDX 45 79 71 80 72 81 80 82 73 83 74 84 78 85 81 86 75 87 76 88
REMARK SMILES IDX 79 89 77 90 56 91 57 92 65 93 58 94 59 95 63 96 66 97 60 98
REMARK SMILES IDX 61 99 64 100 62 101
REMARK H PARENT 23 4 1 28 1 29 27 35 86 54 54 65
REMARK Flexibility Score: inf
ROOT
ATOM      1  C   UNL     1       5.143  -3.000  -8.619  1.00  0.00     0.251 C 
ATOM      2  O   UNL     1       5.681  -1.937  -8.938  1.00  0.00    -0.269 OA
ATOM      3  N   UNL     1       5.972  -4.086  -8.490  1.00  0.00    -0.352 N 
ATOM      4  H   UNL     1       6.329  -4.480  -9.319  1.00  0.00     0.163 HD
ENDROOT
BRANCH   1   5
ATOM      5  C   UNL     1       3.644  -3.133  -8.723  1.00  0.00     0.043 A 
ATOM      6  C   UNL     1       2.721  -3.840  -7.904  1.00  0.00    -0.030 A 
ATOM      7  C   UNL     1       1.349  -3.754  -8.238  1.00  0.00     0.005 A 
ATOM      8  C   UNL     1       0.884  -2.978  -9.300  1.00  0.00     0.000 A 
ATOM      9  C   UNL     1       3.140  -2.364  -9.801  1.00  0.00     0.014 A 
ATOM     10  C   UNL     1       1.781  -2.277 -10.083  1.00  0.00     0.001 A 
BRANCH   6  11
ATOM     11  C   UNL     1       3.108  -4.616  -6.667  1.00  0.00     0.041 C 
ATOM     12  N   UNL     1       2.533  -5.400  -4.474  1.00  0.00    -0.338 N 
ATOM     13  C   UNL     1       3.790  -4.684  -4.408  1.00  0.00     0.120 C 
ATOM     14  C   UNL     1       2.087  -5.490  -5.867  1.00  0.00     0.128 C 
ATOM     15  C   UNL     1       3.615  -3.689  -5.546  1.00  0.00     0.032 C 
BRANCH  12  16
ATOM     16  C   UNL     1       1.621  -5.646  -3.458  1.00  0.00     0.253 C 
ATOM     17  O   UNL     1       0.828  -6.584  -3.530  1.00  0.00    -0.269 OA
BRANCH  16  18
ATOM     18  C   UNL     1       1.462  -4.658  -2.337  1.00  0.00     0.040 A 
ATOM     19  C   UNL     1       0.827  -2.737  -0.380  1.00  0.00     0.082 A 
ATOM     20  C   UNL     1       0.375  -4.054  -0.239  1.00  0.00     0.022 A 
ATOM     21  C   UNL     1       1.596  -2.375  -1.477  1.00  0.00     0.022 A 
ATOM     22  C   UNL     1       0.701  -5.013  -1.213  1.00  0.00     0.015 A 
ATOM     23  C   UNL     1       1.874  -3.324  -2.454  1.00  0.00     0.015 A 
BRANCH  19  24
ATOM     24  S   UNL     1       0.348  -1.516   0.802  1.00  0.00     0.238 S 
ATOM     25  O   UNL     1       1.033  -1.792   2.044  1.00  0.00    -0.207 OA
ATOM     26  O   UNL     1      -1.078  -1.328   0.708  1.00  0.00    -0.207 OA
BRANCH  24  27
ATOM     27  N   UNL     1       1.027  -0.086   0.222  1.00  0.00    -0.225 NA
ATOM     28  H   UNL     1       0.796   0.680   0.854  1.00  0.00     0.137 HD
ATOM     29  H   UNL     1       0.655   0.114  -0.706  1.00  0.00     0.137 HD
ENDBRANCH  24  27
ENDBRANCH  19  24
ENDBRANCH  16  18
ENDBRANCH  12  16
ENDBRANCH   6  11
ENDBRANCH   1   5
BRANCH   3  30
ATOM     30  C   UNL     1       6.367  -4.701  -7.245  1.00  0.00     0.118 C 
BRANCH  30  31
ATOM     31  C   UNL     1       6.396  -6.211  -7.344  1.00  0.00     0.042 C 
BRANCH  31  32
ATOM     32  C   UNL     1       7.580  -6.781  -6.596  1.00  0.00     0.118 C 
BRANCH  32  33
ATOM     33  N   UNL     1       7.612  -6.427  -5.180  1.00  0.00    -0.352 N 
ATOM     34  C   UNL     1       7.963  -7.205  -4.101  1.00  0.00     0.251 C 
ATOM     35  H   UNL     1       7.344  -5.504  -4.968  1.00  0.00     0.163 HD
ATOM     36  O   UNL     1       7.859  -6.761  -2.963  1.00  0.00    -0.269 OA
BRANCH  34  37
ATOM     37  C   UNL     1       8.408  -8.595  -4.330  1.00  0.00     0.039 A 
ATOM     38  C   UNL     1       7.896  -9.612  -3.524  1.00  0.00     0.014 A 
ATOM     39  C   UNL     1       9.248  -8.900  -5.402  1.00  0.00     0.014 A 
ATOM     40  C   UNL     1       8.135 -10.942  -3.868  1.00  0.00     0.010 A 
ATOM     41  C   UNL     1       9.366 -10.214  -5.822  1.00  0.00     0.010 A 
ATOM     42  C   UNL     1       8.812 -11.251  -5.059  1.00  0.00    -0.014 A 
BRANCH  42  43
ATOM     43  C   UNL     1       8.948 -12.645  -5.544  1.00  0.00     0.031 A 
ATOM     44  C   UNL     1      10.315 -13.223  -5.777  1.00  0.00     0.074 A 
ATOM     45  C   UNL     1       7.843 -13.348  -5.865  1.00  0.00     0.049 A 
ATOM     46  N   UNL     1      10.650 -14.374  -6.301  1.00  0.00    -0.248 NA
ATOM     47  C   UNL     1      11.463 -12.376  -5.412  1.00  0.00     0.031 C 
ATOM     48  C   UNL     1       6.465 -12.865  -5.743  1.00  0.00     0.029 A 
ATOM     49  N   UNL     1       7.704 -14.615  -6.373  1.00  0.00    -0.354 N 
ATOM     50  C   UNL     1      12.037 -14.378  -6.342  1.00  0.00     0.074 A 
ATOM     51  C   UNL     1      12.483 -13.090  -5.863  1.00  0.00     0.031 C 
ATOM     52  C   UNL     1       5.622 -13.834  -6.131  1.00  0.00     0.029 A 
ATOM     53  C   UNL     1       6.397 -14.985  -6.579  1.00  0.00     0.049 A 
ATOM     54  H   UNL     1       8.469 -15.203  -6.571  1.00  0.00     0.167 HD
ATOM     55  C   UNL     1      12.866 -15.381  -6.717  1.00  0.00     0.037 A 
ATOM     56  C   UNL     1       5.885 -16.123  -7.085  1.00  0.00     0.037 A 
ATOM     57  C   UNL     1      12.411 -16.668  -7.167  1.00  0.00     0.049 A 
ATOM     58  C   UNL     1       6.829 -17.215  -7.510  1.00  0.00     0.074 A 
ATOM     59  C   UNL     1      13.162 -17.779  -7.503  1.00  0.00     0.029 A 
ATOM     60  N   UNL     1      11.078 -17.013  -7.350  1.00  0.00    -0.354 N 
ATOM     61  N   UNL     1       8.139 -17.242  -7.465  1.00  0.00    -0.248 NA
ATOM     62  C   UNL     1       6.223 -18.437  -8.055  1.00  0.00     0.031 C 
ATOM     63  C   UNL     1      12.288 -18.776  -7.948  1.00  0.00     0.029 A 
ATOM     64  C   UNL     1      10.988 -18.309  -7.830  1.00  0.00     0.049 A 
ATOM     65  H   UNL     1      10.311 -16.424  -7.165  1.00  0.00     0.167 HD
ATOM     66  C   UNL     1       8.514 -18.485  -7.954  1.00  0.00     0.074 A 
ATOM     67  C   UNL     1       7.290 -19.195  -8.265  1.00  0.00     0.031 C 
ATOM     68  C   UNL     1       9.758 -18.994  -8.136  1.00  0.00     0.037 A 
BRANCH  55  69
ATOM     69  C   UNL     1      14.344 -15.124  -6.650  1.00  0.00     0.064 A 
ATOM     70  C   UNL     1      15.009 -14.948  -5.426  1.00  0.00     0.173 A 
ATOM     71  C   UNL     1      15.113 -15.080  -7.823  1.00  0.00     0.173 A 
ATOM     72  F   UNL     1      14.321 -14.965  -4.274  1.00  0.00    -0.203 F 
ATOM     73  C   UNL     1      16.380 -14.705  -5.381  1.00  0.00     0.198 A 
ATOM     74  C   UNL     1      16.489 -14.874  -7.772  1.00  0.00     0.198 A 
ATOM     75  F   UNL     1      14.530 -15.243  -9.020  1.00  0.00    -0.203 F 
ATOM     76  F   UNL     1      16.981 -14.482  -4.204  1.00  0.00    -0.200 F 
ATOM     77  C   UNL     1      17.120 -14.677  -6.553  1.00  0.00     0.200 A 
ATOM     78  F   UNL     1      17.205 -14.860  -8.905  1.00  0.00    -0.200 F 
ATOM     79  F   UNL     1      18.440 -14.453  -6.508  1.00  0.00    -0.200 F 
ENDBRANCH  55  69
BRANCH  56  80
ATOM     80  C   UNL     1       4.412 -16.291  -7.206  1.00  0.00     0.064 A 
ATOM     81  C   UNL     1       3.728 -17.233  -6.425  1.00  0.00     0.173 A 
ATOM     82  C   UNL     1       3.658 -15.523  -8.107  1.00  0.00     0.173 A 
ATOM     83  F   UNL     1       4.405 -18.006  -5.562  1.00  0.00    -0.203 F 
ATOM     84  C   UNL     1       2.353 -17.418  -6.556  1.00  0.00     0.198 A 
ATOM     85  C   UNL     1       2.278 -15.686  -8.214  1.00  0.00     0.198 A 
ATOM     86  F   UNL     1       4.261 -14.604  -8.875  1.00  0.00    -0.203 F 
ATOM     87  F   UNL     1       1.734 -18.362  -5.835  1.00  0.00    -0.200 F 
ATOM     88  C   UNL     1       1.628 -16.640  -7.446  1.00  0.00     0.200 A 
ATOM     89  F   UNL     1       1.580 -14.920  -9.064  1.00  0.00    -0.200 F 
ATOM     90  F   UNL     1       0.306 -16.816  -7.572  1.00  0.00    -0.200 F 
ENDBRANCH  56  80
BRANCH  68  91
ATOM     91  C   UNL     1       9.855 -20.390  -8.681  1.00  0.00     0.064 A 
ATOM     92  C   UNL     1       9.519 -20.684 -10.010  1.00  0.00     0.173 A 
ATOM     93  C   UNL     1      10.330 -21.436  -7.875  1.00  0.00     0.173 A 
ATOM     94  F   UNL     1       9.046 -19.722 -10.817  1.00  0.00    -0.203 F 
ATOM     95  C   UNL     1       9.630 -21.980 -10.505  1.00  0.00     0.198 A 
ATOM     96  C   UNL     1      10.474 -22.723  -8.385  1.00  0.00     0.198 A 
ATOM     97  F   UNL     1      10.673 -21.206  -6.599  1.00  0.00    -0.203 F 
ATOM     98  F   UNL     1       9.253 -22.249 -11.763  1.00  0.00    -0.200 F 
ATOM     99  C   UNL     1      10.115 -22.996  -9.696  1.00  0.00     0.200 A 
ATOM    100  F   UNL     1      10.961 -23.699  -7.606  1.00  0.00    -0.200 F 
ATOM    101  F   UNL     1      10.232 -24.241 -10.178  1.00  0.00    -0.200 F 
ENDBRANCH  68  91
ENDBRANCH  42  43
ENDBRANCH  34  37
ENDBRANCH  32  33
ENDBRANCH  31  32
ENDBRANCH  30  31
ENDBRANCH   3  30
TORSDOF 15
