REMARK SMILES COc1cc(-c2ccc(NC(=O)CCC(=O)NCCCNC(=O)c3ccc(-c4c5nc(c(-c6c(F)c(F)c(F)c(F)c6F)c6ccc([nH]6)c(-c6c(F)c(F)c(F)c(F)c6F)c6nc(c(-c7c(F)c(F)c(F)c(F)c7F)c7ccc4[nH]7)C=C6)C=C5)cc3)c(OC)c2)ccc1N
REMARK SMILES IDX 15 1 16 2 17 3 14 5 13 6 11 7 10 8 12 10 9 11 6 12 7 13
REMARK SMILES IDX 90 14 8 15 87 16 5 17 3 18 4 19 93 20 92 21 91 22 2 23 1 24
REMARK SMILES IDX 94 25 88 28 89 29 18 30 19 31 20 32 21 33 22 34 23 36 24 37
REMARK SMILES IDX 25 38 86 39 26 40 85 41 27 42 28 43 29 44 79 45 30 46 84 47
REMARK SMILES IDX 78 48 80 49 31 50 83 51 77 52 76 53 32 55 64 56 44 57 63 58
REMARK SMILES IDX 45 59 48 60 62 61 81 62 46 63 47 64 61 66 82 67 49 68 33 69
REMARK SMILES IDX 34 70 42 71 35 72 36 73 40 74 43 75 37 76 38 77 41 78 39 79
REMARK SMILES IDX 65 80 66 81 74 82 67 83 68 84 72 85 75 86 69 87 70 88 73 89
REMARK SMILES IDX 71 90 50 91 51 92 59 93 52 94 53 95 57 96 60 97 54 98 55 99
REMARK SMILES IDX 58 100 56 101
REMARK H PARENT 17 4 10 9 94 26 94 27 21 35 80 54 48 65
REMARK Flexibility Score: inf
ROOT
ATOM      1  C   UNL     1      -4.645   3.179  -4.576  1.00  0.00     0.220 C 
ATOM      2  O   UNL     1      -4.134   2.582  -3.617  1.00  0.00    -0.275 OA
ATOM      3  N   UNL     1      -4.548   2.530  -5.784  1.00  0.00    -0.356 N 
ATOM      4  H   UNL     1      -3.879   1.808  -5.763  1.00  0.00     0.163 HD
ENDROOT
BRANCH   1   5
ATOM      5  C   UNL     1      -5.281   4.563  -4.323  1.00  0.00     0.110 C 
BRANCH   5   6
ATOM      6  C   UNL     1      -4.292   5.570  -3.640  1.00  0.00     0.110 C 
BRANCH   6   7
ATOM      7  C   UNL     1      -4.065   6.992  -4.232  1.00  0.00     0.224 C 
ATOM      8  N   UNL     1      -2.957   7.315  -5.007  1.00  0.00    -0.323 N 
ATOM      9  H   UNL     1      -2.783   8.273  -5.154  1.00  0.00     0.170 HD
ATOM     10  O   UNL     1      -4.851   7.908  -3.960  1.00  0.00    -0.275 OA
BRANCH   8  11
ATOM     11  C   UNL     1      -2.062   6.415  -5.600  1.00  0.00     0.083 A 
ATOM     12  C   UNL     1      -0.308   4.338  -5.175  1.00  0.00    -0.014 A 
ATOM     13  C   UNL     1       0.161   5.614  -5.550  1.00  0.00     0.011 A 
ATOM     14  C   UNL     1      -1.634   4.089  -5.557  1.00  0.00     0.057 A 
ATOM     15  C   UNL     1      -0.721   6.685  -5.716  1.00  0.00     0.031 A 
ATOM     16  C   UNL     1      -2.473   5.155  -5.931  1.00  0.00     0.142 A 
BRANCH  12  17
ATOM     17  C   UNL     1       0.533   3.426  -4.315  1.00  0.00    -0.014 A 
ATOM     18  C   UNL     1       0.842   1.585  -2.673  1.00  0.00     0.142 A 
ATOM     19  C   UNL     1       0.043   2.300  -3.611  1.00  0.00     0.057 A 
ATOM     20  C   UNL     1       2.188   1.928  -2.467  1.00  0.00     0.074 A 
ATOM     21  C   UNL     1       2.657   3.073  -3.096  1.00  0.00     0.030 A 
ATOM     22  C   UNL     1       1.861   3.783  -4.002  1.00  0.00     0.011 A 
BRANCH  18  23
ATOM     23  O   UNL     1       0.227   0.529  -2.035  1.00  0.00    -0.495 OA
ATOM     24  C   UNL     1       0.372   0.534  -0.610  1.00  0.00     0.278 C 
ENDBRANCH  18  23
BRANCH  20  25
ATOM     25  N   UNL     1       3.043   1.256  -1.598  1.00  0.00    -0.396 N 
ATOM     26  H   UNL     1       2.736   0.441  -1.139  1.00  0.00     0.156 HD
ATOM     27  H   UNL     1       3.954   1.596  -1.444  1.00  0.00     0.156 HD
ENDBRANCH  20  25
ENDBRANCH  12  17
BRANCH  16  28
ATOM     28  O   UNL     1      -3.702   4.946  -6.482  1.00  0.00    -0.495 OA
ATOM     29  C   UNL     1      -4.418   6.030  -7.111  1.00  0.00     0.278 C 
ENDBRANCH  16  28
ENDBRANCH   8  11
ENDBRANCH   6   7
ENDBRANCH   5   6
ENDBRANCH   1   5
BRANCH   3  30
ATOM     30  C   UNL     1      -5.194   2.646  -7.098  1.00  0.00     0.117 C 
BRANCH  30  31
ATOM     31  C   UNL     1      -4.439   3.060  -8.418  1.00  0.00     0.042 C 
BRANCH  31  32
ATOM     32  C   UNL     1      -2.916   2.921  -8.639  1.00  0.00     0.118 C 
BRANCH  32  33
ATOM     33  N   UNL     1      -2.648   2.395  -9.990  1.00  0.00    -0.352 N 
ATOM     34  C   UNL     1      -2.322   2.922 -11.211  1.00  0.00     0.251 C 
ATOM     35  H   UNL     1      -2.723   1.414 -10.023  1.00  0.00     0.163 HD
ATOM     36  O   UNL     1      -2.563   2.193 -12.194  1.00  0.00    -0.269 OA
BRANCH  34  37
ATOM     37  C   UNL     1      -1.673   4.236 -11.498  1.00  0.00     0.039 A 
ATOM     38  C   UNL     1      -1.896   4.803 -12.771  1.00  0.00     0.014 A 
ATOM     39  C   UNL     1      -0.689   4.818 -10.696  1.00  0.00     0.014 A 
ATOM     40  C   UNL     1      -1.159   5.907 -13.237  1.00  0.00     0.010 A 
ATOM     41  C   UNL     1       0.040   5.945 -11.158  1.00  0.00     0.010 A 
ATOM     42  C   UNL     1      -0.172   6.499 -12.438  1.00  0.00    -0.014 A 
BRANCH  42  43
ATOM     43  C   UNL     1       0.636   7.660 -12.948  1.00  0.00     0.031 A 
ATOM     44  C   UNL     1       2.108   7.516 -13.264  1.00  0.00     0.074 A 
ATOM     45  C   UNL     1       0.065   8.868 -13.142  1.00  0.00     0.049 A 
ATOM     46  N   UNL     1       2.976   8.429 -13.641  1.00  0.00    -0.248 NA
ATOM     47  C   UNL     1       2.679   6.170 -13.135  1.00  0.00     0.031 C 
ATOM     48  C   UNL     1      -1.344   9.180 -12.917  1.00  0.00     0.029 A 
ATOM     49  N   UNL     1       0.605  10.065 -13.565  1.00  0.00    -0.354 N 
ATOM     50  C   UNL     1       4.195   7.774 -13.771  1.00  0.00     0.074 A 
ATOM     51  C   UNL     1       3.961   6.390 -13.415  1.00  0.00     0.031 C 
ATOM     52  C   UNL     1      -1.560  10.476 -13.199  1.00  0.00     0.029 A 
ATOM     53  C   UNL     1      -0.298  11.102 -13.592  1.00  0.00     0.049 A 
ATOM     54  H   UNL     1       1.549  10.168 -13.825  1.00  0.00     0.167 HD
ATOM     55  C   UNL     1       5.400   8.271 -14.158  1.00  0.00     0.037 A 
ATOM     56  C   UNL     1      -0.138  12.412 -13.878  1.00  0.00     0.037 A 
ATOM     57  C   UNL     1       5.653   9.636 -14.550  1.00  0.00     0.049 A 
ATOM     58  C   UNL     1       1.215  12.947 -14.271  1.00  0.00     0.074 A 
ATOM     59  C   UNL     1       6.840  10.202 -14.989  1.00  0.00     0.029 A 
ATOM     60  N   UNL     1       4.709  10.649 -14.555  1.00  0.00    -0.354 N 
ATOM     61  N   UNL     1       2.351  12.308 -14.405  1.00  0.00    -0.248 NA
ATOM     62  C   UNL     1       1.302  14.389 -14.555  1.00  0.00     0.031 C 
ATOM     63  C   UNL     1       6.624  11.565 -15.221  1.00  0.00     0.029 A 
ATOM     64  C   UNL     1       5.291  11.839 -14.969  1.00  0.00     0.049 A 
ATOM     65  H   UNL     1       3.764  10.542 -14.301  1.00  0.00     0.167 HD
ATOM     66  C   UNL     1       3.275  13.259 -14.818  1.00  0.00     0.074 A 
ATOM     67  C   UNL     1       2.576  14.518 -14.921  1.00  0.00     0.031 C 
ATOM     68  C   UNL     1       4.594  13.092 -15.091  1.00  0.00     0.037 A 
BRANCH  55  69
ATOM     69  C   UNL     1       6.570   7.327 -14.168  1.00  0.00     0.064 A 
ATOM     70  C   UNL     1       6.712   6.340 -15.153  1.00  0.00     0.173 A 
ATOM     71  C   UNL     1       7.595   7.458 -13.217  1.00  0.00     0.173 A 
ATOM     72  F   UNL     1       5.761   6.174 -16.084  1.00  0.00    -0.203 F 
ATOM     73  C   UNL     1       7.823   5.499 -15.169  1.00  0.00     0.198 A 
ATOM     74  C   UNL     1       8.716   6.634 -13.252  1.00  0.00     0.198 A 
ATOM     75  F   UNL     1       7.517   8.399 -12.264  1.00  0.00    -0.203 F 
ATOM     76  F   UNL     1       7.919   4.536 -16.096  1.00  0.00    -0.200 F 
ATOM     77  C   UNL     1       8.826   5.650 -14.223  1.00  0.00     0.200 A 
ATOM     78  F   UNL     1       9.693   6.793 -12.347  1.00  0.00    -0.200 F 
ATOM     79  F   UNL     1       9.897   4.844 -14.244  1.00  0.00    -0.200 F 
ENDBRANCH  55  69
BRANCH  56  80
ATOM     80  C   UNL     1      -1.304  13.332 -13.801  1.00  0.00     0.064 A 
ATOM     81  C   UNL     1      -1.862  13.888 -14.961  1.00  0.00     0.173 A 
ATOM     82  C   UNL     1      -1.866  13.692 -12.568  1.00  0.00     0.173 A 
ATOM     83  F   UNL     1      -1.337  13.600 -16.161  1.00  0.00    -0.203 F 
ATOM     84  C   UNL     1      -2.931  14.780 -14.889  1.00  0.00     0.198 A 
ATOM     85  C   UNL     1      -2.951  14.563 -12.499  1.00  0.00     0.198 A 
ATOM     86  F   UNL     1      -1.362  13.193 -11.429  1.00  0.00    -0.203 F 
ATOM     87  F   UNL     1      -3.417  15.332 -16.009  1.00  0.00    -0.200 F 
ATOM     88  C   UNL     1      -3.479  15.111 -13.658  1.00  0.00     0.200 A 
ATOM     89  F   UNL     1      -3.482  14.874 -11.309  1.00  0.00    -0.200 F 
ATOM     90  F   UNL     1      -4.508  15.966 -13.589  1.00  0.00    -0.200 F 
ENDBRANCH  56  80
BRANCH  68  91
ATOM     91  C   UNL     1       5.365  14.288 -15.573  1.00  0.00     0.064 A 
ATOM     92  C   UNL     1       5.729  15.330 -14.707  1.00  0.00     0.173 A 
ATOM     93  C   UNL     1       5.785  14.370 -16.910  1.00  0.00     0.173 A 
ATOM     94  F   UNL     1       5.340  15.308 -13.424  1.00  0.00    -0.203 F 
ATOM     95  C   UNL     1       6.470  16.417 -15.166  1.00  0.00     0.198 A 
ATOM     96  C   UNL     1       6.545  15.446 -17.360  1.00  0.00     0.198 A 
ATOM     97  F   UNL     1       5.467  13.399 -17.779  1.00  0.00    -0.203 F 
ATOM     98  F   UNL     1       6.776  17.419 -14.330  1.00  0.00    -0.200 F 
ATOM     99  C   UNL     1       6.884  16.471 -16.489  1.00  0.00     0.200 A 
ATOM    100  F   UNL     1       6.952  15.492 -18.636  1.00  0.00    -0.200 F 
ATOM    101  F   UNL     1       7.603  17.514 -16.926  1.00  0.00    -0.200 F 
ENDBRANCH  68  91
ENDBRANCH  42  43
ENDBRANCH  34  37
ENDBRANCH  32  33
ENDBRANCH  31  32
ENDBRANCH  30  31
ENDBRANCH   3  30
TORSDOF 17
