REMARK SMILES CCCc1nnc(SCC(=O)NCCCNC(=O)c2ccc(-c3c4nc(c(-c5c(F)c(F)c(F)c(F)c5F)c5ccc([nH]5)c(-c5c(F)c(F)c(F)c(F)c5F)c5nc(c(-c6c(F)c(F)c(F)c(F)c6F)c6ccc3[nH]6)C=C5)C=C4)cc2)n1C[C@H]1CCCO1
REMARK SMILES IDX 13 1 12 2 10 3 11 4 9 6 8 7 7 8 4 9 5 10 82 11 6 12 3 13
REMARK SMILES IDX 2 14 1 15 83 16 84 17 85 18 88 19 86 20 87 21 14 22 15 23
REMARK SMILES IDX 16 24 17 25 18 27 19 28 20 29 81 30 21 31 80 32 22 33 23 34
REMARK SMILES IDX 24 35 74 36 25 37 79 38 73 39 75 40 26 41 78 42 72 43 71 44
REMARK SMILES IDX 27 46 59 47 39 48 58 49 40 50 43 51 57 52 76 53 41 54 42 55
REMARK SMILES IDX 56 57 77 58 44 59 28 60 29 61 37 62 30 63 31 64 35 65 38 66
REMARK SMILES IDX 32 67 33 68 36 69 34 70 60 71 61 72 69 73 62 74 63 75 67 76
REMARK SMILES IDX 70 77 64 78 65 79 68 80 66 81 45 82 46 83 54 84 47 85 48 86
REMARK SMILES IDX 52 87 55 88 49 89 50 90 53 91 51 92
REMARK H PARENT 12 5 16 26 75 45 43 56
REMARK Flexibility Score: inf
ROOT
ATOM      1  C   UNL     1      -2.185   7.385   2.979  1.00  0.00     0.117 C 
ENDROOT
BRANCH   1   2
ATOM      2  N   UNL     1      -2.220   6.408   1.914  1.00  0.00    -0.355 N 
ATOM      3  C   UNL     1      -1.580   5.215   1.832  1.00  0.00     0.230 C 
ATOM      4  O   UNL     1      -1.783   4.546   0.818  1.00  0.00    -0.274 OA
ATOM      5  H   UNL     1      -2.786   6.640   1.143  1.00  0.00     0.163 HD
BRANCH   3   6
ATOM      6  C   UNL     1      -0.678   4.753   2.968  1.00  0.00     0.178 C 
BRANCH   6   7
ATOM      7  S   UNL     1       1.021   5.239   2.725  1.00  0.00    -0.076 SA
BRANCH   7   8
ATOM      8  C   UNL     1       1.971   3.855   2.301  1.00  0.00     0.191 A 
ATOM      9  C   UNL     1       2.881   2.504   0.856  1.00  0.00     0.133 A 
ATOM     10  N   UNL     1       3.844   2.998   1.610  1.00  0.00    -0.134 NA
ATOM     11  N   UNL     1       1.669   2.817   1.452  1.00  0.00    -0.303 N 
ATOM     12  N   UNL     1       3.270   3.853   2.511  1.00  0.00    -0.123 NA
BRANCH   9  13
ATOM     13  C   UNL     1       3.087   1.985  -0.533  1.00  0.00     0.077 C 
BRANCH  13  14
ATOM     14  C   UNL     1       2.977   0.476  -0.724  1.00  0.00     0.005 C 
ATOM     15  C   UNL     1       1.603   0.005  -1.181  1.00  0.00     0.004 C 
ENDBRANCH  13  14
ENDBRANCH   9  13
BRANCH  11  16
ATOM     16  C   UNL     1       0.396   2.251   1.094  1.00  0.00     0.158 C 
BRANCH  16  17
ATOM     17  C   UNL     1      -0.075   1.014   1.889  1.00  0.00     0.138 C 
ATOM     18  C   UNL     1      -0.572   1.185   3.319  1.00  0.00     0.036 C 
ATOM     19  O   UNL     1      -1.210   0.457   1.191  1.00  0.00    -0.376 OA
ATOM     20  C   UNL     1      -2.061   1.429   3.196  1.00  0.00     0.031 C 
ATOM     21  C   UNL     1      -2.423   0.844   1.851  1.00  0.00     0.160 C 
ENDBRANCH  16  17
ENDBRANCH  11  16
ENDBRANCH   7   8
ENDBRANCH   6   7
ENDBRANCH   3   6
ENDBRANCH   1   2
BRANCH   1  22
ATOM     22  C   UNL     1      -0.993   8.335   2.888  1.00  0.00     0.042 C 
BRANCH  22  23
ATOM     23  C   UNL     1      -0.935   9.066   1.561  1.00  0.00     0.118 C 
BRANCH  23  24
ATOM     24  N   UNL     1      -2.109   9.912   1.349  1.00  0.00    -0.352 N 
ATOM     25  C   UNL     1      -2.372  10.745   0.288  1.00  0.00     0.251 C 
ATOM     26  H   UNL     1      -2.797   9.880   2.053  1.00  0.00     0.163 HD
ATOM     27  O   UNL     1      -3.233  11.617   0.362  1.00  0.00    -0.269 OA
BRANCH  25  28
ATOM     28  C   UNL     1      -1.593  10.567  -0.942  1.00  0.00     0.039 A 
ATOM     29  C   UNL     1      -1.056  11.662  -1.620  1.00  0.00     0.014 A 
ATOM     30  C   UNL     1      -1.363   9.263  -1.373  1.00  0.00     0.014 A 
ATOM     31  C   UNL     1      -0.233  11.426  -2.715  1.00  0.00     0.010 A 
ATOM     32  C   UNL     1      -0.417   9.030  -2.331  1.00  0.00     0.010 A 
ATOM     33  C   UNL     1       0.087  10.103  -3.056  1.00  0.00    -0.014 A 
BRANCH  33  34
ATOM     34  C   UNL     1       1.002   9.814  -4.147  1.00  0.00     0.031 A 
ATOM     35  C   UNL     1       2.345  10.440  -4.030  1.00  0.00     0.074 A 
ATOM     36  C   UNL     1       0.729   8.879  -5.081  1.00  0.00     0.049 A 
ATOM     37  N   UNL     1       2.876  11.328  -4.804  1.00  0.00    -0.248 NA
ATOM     38  C   UNL     1       3.154  10.122  -2.842  1.00  0.00     0.031 C 
ATOM     39  C   UNL     1      -0.403   7.945  -5.145  1.00  0.00     0.029 A 
ATOM     40  N   UNL     1       1.489   8.495  -6.138  1.00  0.00    -0.354 N 
ATOM     41  C   UNL     1       4.157  11.554  -4.308  1.00  0.00     0.074 A 
ATOM     42  C   UNL     1       4.211  10.917  -3.018  1.00  0.00     0.031 C 
ATOM     43  C   UNL     1      -0.134   6.966  -6.036  1.00  0.00     0.029 A 
ATOM     44  C   UNL     1       1.090   7.307  -6.732  1.00  0.00     0.049 A 
ATOM     45  H   UNL     1       2.260   9.017  -6.457  1.00  0.00     0.167 HD
ATOM     46  C   UNL     1       5.143  12.054  -5.105  1.00  0.00     0.037 A 
ATOM     47  C   UNL     1       1.742   6.641  -7.713  1.00  0.00     0.037 A 
ATOM     48  C   UNL     1       4.593  12.668  -6.288  1.00  0.00     0.049 A 
ATOM     49  C   UNL     1       2.663   7.610  -8.360  1.00  0.00     0.074 A 
ATOM     50  C   UNL     1       3.726  13.719  -6.516  1.00  0.00     0.029 A 
ATOM     51  N   UNL     1       4.614  11.951  -7.460  1.00  0.00    -0.354 N 
ATOM     52  N   UNL     1       2.262   8.636  -9.060  1.00  0.00    -0.248 NA
ATOM     53  C   UNL     1       4.019   7.699  -7.842  1.00  0.00     0.031 C 
ATOM     54  C   UNL     1       2.904  13.290  -7.601  1.00  0.00     0.029 A 
ATOM     55  C   UNL     1       3.362  12.039  -8.015  1.00  0.00     0.049 A 
ATOM     56  H   UNL     1       5.385  11.465  -7.833  1.00  0.00     0.167 HD
ATOM     57  C   UNL     1       3.131   9.661  -8.714  1.00  0.00     0.074 A 
ATOM     58  C   UNL     1       4.245   9.001  -8.037  1.00  0.00     0.031 C 
ATOM     59  C   UNL     1       2.733  10.967  -8.754  1.00  0.00     0.037 A 
BRANCH  46  60
ATOM     60  C   UNL     1       6.602  11.683  -4.990  1.00  0.00     0.064 A 
ATOM     61  C   UNL     1       7.554  12.373  -5.766  1.00  0.00     0.173 A 
ATOM     62  C   UNL     1       7.066  10.500  -4.374  1.00  0.00     0.173 A 
ATOM     63  F   UNL     1       7.220  13.497  -6.419  1.00  0.00    -0.203 F 
ATOM     64  C   UNL     1       8.846  11.877  -5.965  1.00  0.00     0.198 A 
ATOM     65  C   UNL     1       8.372  10.039  -4.528  1.00  0.00     0.198 A 
ATOM     66  F   UNL     1       6.252   9.682  -3.696  1.00  0.00    -0.203 F 
ATOM     67  F   UNL     1       9.675  12.502  -6.812  1.00  0.00    -0.200 F 
ATOM     68  C   UNL     1       9.253  10.708  -5.349  1.00  0.00     0.200 A 
ATOM     69  F   UNL     1       8.739   8.892  -3.939  1.00  0.00    -0.200 F 
ATOM     70  F   UNL     1      10.469  10.200  -5.585  1.00  0.00    -0.200 F 
ENDBRANCH  46  60
BRANCH  47  71
ATOM     71  C   UNL     1       1.840   5.179  -7.913  1.00  0.00     0.064 A 
ATOM     72  C   UNL     1       2.264   4.646  -9.140  1.00  0.00     0.173 A 
ATOM     73  C   UNL     1       1.788   4.287  -6.823  1.00  0.00     0.173 A 
ATOM     74  F   UNL     1       2.376   5.439 -10.215  1.00  0.00    -0.203 F 
ATOM     75  C   UNL     1       2.647   3.306  -9.262  1.00  0.00     0.198 A 
ATOM     76  C   UNL     1       2.164   2.949  -6.948  1.00  0.00     0.198 A 
ATOM     77  F   UNL     1       1.465   4.718  -5.595  1.00  0.00    -0.203 F 
ATOM     78  F   UNL     1       3.109   2.848 -10.433  1.00  0.00    -0.200 F 
ATOM     79  C   UNL     1       2.609   2.463  -8.163  1.00  0.00     0.200 A 
ATOM     80  F   UNL     1       2.156   2.153  -5.869  1.00  0.00    -0.200 F 
ATOM     81  F   UNL     1       3.038   1.197  -8.264  1.00  0.00    -0.200 F 
ENDBRANCH  47  71
BRANCH  59  82
ATOM     82  C   UNL     1       1.416  11.278  -9.416  1.00  0.00     0.064 A 
ATOM     83  C   UNL     1       0.171  10.809  -8.958  1.00  0.00     0.173 A 
ATOM     84  C   UNL     1       1.400  12.200 -10.470  1.00  0.00     0.173 A 
ATOM     85  F   UNL     1       0.086  10.008  -7.891  1.00  0.00    -0.203 F 
ATOM     86  C   UNL     1      -1.023  11.205  -9.558  1.00  0.00     0.198 A 
ATOM     87  C   UNL     1       0.204  12.625 -11.044  1.00  0.00     0.198 A 
ATOM     88  F   UNL     1       2.550  12.730 -10.915  1.00  0.00    -0.203 F 
ATOM     89  F   UNL     1      -2.193  10.729  -9.108  1.00  0.00    -0.200 F 
ATOM     90  C   UNL     1      -1.006  12.119 -10.597  1.00  0.00     0.200 A 
ATOM     91  F   UNL     1       0.224  13.547 -12.017  1.00  0.00    -0.200 F 
ATOM     92  F   UNL     1      -2.155  12.532 -11.150  1.00  0.00    -0.200 F 
ENDBRANCH  59  82
ENDBRANCH  33  34
ENDBRANCH  25  28
ENDBRANCH  23  24
ENDBRANCH  22  23
ENDBRANCH   1  22
TORSDOF 16
