REMARK SMILES CC[C@@]1(C(=O)NCCCNC(=O)c2ccc(-c3c4nc(c(-c5c(F)c(F)c(F)c(F)c5F)c5ccc([nH]5)c(-c5c(F)c(F)c(F)c(F)c5F)c5nc(c(-c6c(F)c(F)c(F)c(F)c6F)c6ccc3[nH]6)C=C5)C=C4)cc2)CCN(C(=O)N(C)CCc2cccs2)C1
REMARK SMILES IDX 4 1 5 2 6 3 3 5 76 6 90 7 77 8 78 9 2 10 1 11 79 12 80 13
REMARK SMILES IDX 81 14 82 15 83 16 84 17 85 18 86 19 89 20 87 21 88 22 7 23
REMARK SMILES IDX 8 24 9 25 10 26 11 27 12 29 13 30 14 31 75 32 15 33 74 34
REMARK SMILES IDX 16 35 17 36 18 37 68 38 19 39 73 40 67 41 69 42 20 43 72 44
REMARK SMILES IDX 66 45 65 46 21 48 53 49 33 50 52 51 34 52 37 53 51 54 70 55
REMARK SMILES IDX 35 56 36 57 50 59 71 60 38 61 22 62 23 63 31 64 24 65 25 66
REMARK SMILES IDX 29 67 32 68 26 69 27 70 30 71 28 72 54 73 55 74 63 75 56 76
REMARK SMILES IDX 57 77 61 78 64 79 58 80 59 81 62 82 60 83 39 84 40 85 48 86
REMARK SMILES IDX 41 87 42 88 46 89 49 90 43 91 44 92 47 93 45 94
REMARK H PARENT 6 4 10 28 69 47 37 58
REMARK Flexibility Score: inf
ROOT
ATOM      1  C   UNL     1       0.301   0.418   1.770  1.00  0.00     0.228 C 
ATOM      2  O   UNL     1       0.896  -0.629   1.466  1.00  0.00    -0.274 OA
ATOM      3  N   UNL     1      -0.982   0.442   1.365  1.00  0.00    -0.355 N 
ATOM      4  H   UNL     1      -1.282  -0.431   1.021  1.00  0.00     0.163 HD
ENDROOT
BRANCH   1   5
ATOM      5  C   UNL     1       1.042   1.483   2.604  1.00  0.00     0.068 C 
ATOM      6  C   UNL     1       0.420   2.836   2.972  1.00  0.00     0.040 C 
ATOM      7  C   UNL     1       2.205   1.949   1.705  1.00  0.00     0.138 C 
ATOM      8  C   UNL     1       0.600   3.724   1.750  1.00  0.00     0.122 C 
ATOM      9  N   UNL     1       1.749   3.184   1.058  1.00  0.00    -0.324 N 
BRANCH   5  10
ATOM     10  C   UNL     1       1.535   0.684   3.856  1.00  0.00     0.015 C 
ATOM     11  C   UNL     1       1.716   1.444   5.163  1.00  0.00     0.005 C 
ENDBRANCH   5  10
BRANCH   9  12
ATOM     12  C   UNL     1       2.514   3.703   0.042  1.00  0.00     0.319 C 
ATOM     13  O   UNL     1       3.385   3.006  -0.480  1.00  0.00    -0.248 OA
BRANCH  12  14
ATOM     14  N   UNL     1       2.366   5.027  -0.319  1.00  0.00    -0.327 N 
ATOM     15  C   UNL     1       1.107   5.746  -0.397  1.00  0.00     0.148 C 
BRANCH  14  16
ATOM     16  C   UNL     1       3.547   5.713  -0.876  1.00  0.00     0.126 C 
BRANCH  16  17
ATOM     17  C   UNL     1       4.577   6.188   0.170  1.00  0.00     0.068 C 
BRANCH  17  18
ATOM     18  C   UNL     1       5.497   5.149   0.760  1.00  0.00     0.006 A 
ATOM     19  C   UNL     1       5.905   5.035   2.078  1.00  0.00     0.015 A 
ATOM     20  S   UNL     1       6.310   3.997  -0.222  1.00  0.00    -0.149 S 
ATOM     21  C   UNL     1       6.731   3.894   2.300  1.00  0.00     0.012 A 
ATOM     22  C   UNL     1       6.953   3.190   1.139  1.00  0.00     0.065 A 
ENDBRANCH  17  18
ENDBRANCH  16  17
ENDBRANCH  14  16
ENDBRANCH  12  14
ENDBRANCH   9  12
ENDBRANCH   1   5
BRANCH   3  23
ATOM     23  C   UNL     1      -2.025   1.440   1.313  1.00  0.00     0.117 C 
BRANCH  23  24
ATOM     24  C   UNL     1      -2.196   1.975  -0.105  1.00  0.00     0.042 C 
BRANCH  24  25
ATOM     25  C   UNL     1      -2.897   0.985  -1.030  1.00  0.00     0.118 C 
BRANCH  25  26
ATOM     26  N   UNL     1      -4.277   0.750  -0.621  1.00  0.00    -0.352 N 
ATOM     27  C   UNL     1      -5.447   1.268  -1.105  1.00  0.00     0.251 C 
ATOM     28  H   UNL     1      -4.384   0.116   0.125  1.00  0.00     0.163 HD
ATOM     29  O   UNL     1      -6.470   1.196  -0.414  1.00  0.00    -0.269 OA
BRANCH  27  30
ATOM     30  C   UNL     1      -5.511   1.906  -2.435  1.00  0.00     0.039 A 
ATOM     31  C   UNL     1      -6.369   2.993  -2.627  1.00  0.00     0.014 A 
ATOM     32  C   UNL     1      -4.785   1.397  -3.514  1.00  0.00     0.014 A 
ATOM     33  C   UNL     1      -6.458   3.596  -3.884  1.00  0.00     0.010 A 
ATOM     34  C   UNL     1      -4.801   2.055  -4.740  1.00  0.00     0.010 A 
ATOM     35  C   UNL     1      -5.652   3.150  -4.943  1.00  0.00    -0.014 A 
BRANCH  35  36
ATOM     36  C   UNL     1      -5.698   3.805  -6.275  1.00  0.00     0.031 A 
ATOM     37  C   UNL     1      -6.140   3.030  -7.486  1.00  0.00     0.074 A 
ATOM     38  C   UNL     1      -5.279   5.078  -6.401  1.00  0.00     0.049 A 
ATOM     39  N   UNL     1      -6.192   3.408  -8.739  1.00  0.00    -0.248 NA
ATOM     40  C   UNL     1      -6.547   1.633  -7.268  1.00  0.00     0.031 C 
ATOM     41  C   UNL     1      -4.766   5.910  -5.311  1.00  0.00     0.029 A 
ATOM     42  N   UNL     1      -5.211   5.894  -7.501  1.00  0.00    -0.354 N 
ATOM     43  C   UNL     1      -6.615   2.295  -9.453  1.00  0.00     0.074 A 
ATOM     44  C   UNL     1      -6.751   1.210  -8.506  1.00  0.00     0.031 C 
ATOM     45  C   UNL     1      -4.463   7.127  -5.791  1.00  0.00     0.029 A 
ATOM     46  C   UNL     1      -4.728   7.149  -7.226  1.00  0.00     0.049 A 
ATOM     47  H   UNL     1      -5.483   5.607  -8.403  1.00  0.00     0.167 HD
ATOM     48  C   UNL     1      -6.891   2.193 -10.776  1.00  0.00     0.037 A 
ATOM     49  C   UNL     1      -4.522   8.200  -8.041  1.00  0.00     0.037 A 
ATOM     50  C   UNL     1      -6.788   3.286 -11.707  1.00  0.00     0.049 A 
ATOM     51  C   UNL     1      -4.865   8.071  -9.500  1.00  0.00     0.074 A 
ATOM     52  C   UNL     1      -7.111   3.309 -13.052  1.00  0.00     0.029 A 
ATOM     53  N   UNL     1      -6.326   4.554 -11.385  1.00  0.00    -0.354 N 
ATOM     54  N   UNL     1      -5.336   7.035 -10.150  1.00  0.00    -0.248 NA
ATOM     55  C   UNL     1      -4.658   9.262 -10.335  1.00  0.00     0.031 C 
ATOM     56  C   UNL     1      -6.808   4.580 -13.553  1.00  0.00     0.029 A 
ATOM     57  C   UNL     1      -6.339   5.362 -12.510  1.00  0.00     0.049 A 
ATOM     58  H   UNL     1      -6.032   4.837 -10.489  1.00  0.00     0.167 HD
ATOM     59  C   UNL     1      -5.499   7.451 -11.464  1.00  0.00     0.074 A 
ATOM     60  C   UNL     1      -5.100   8.843 -11.512  1.00  0.00     0.031 C 
ATOM     61  C   UNL     1      -5.935   6.745 -12.536  1.00  0.00     0.037 A 
BRANCH  48  62
ATOM     62  C   UNL     1      -7.343   0.856 -11.290  1.00  0.00     0.064 A 
ATOM     63  C   UNL     1      -8.598   0.326 -10.954  1.00  0.00     0.173 A 
ATOM     64  C   UNL     1      -6.525   0.108 -12.151  1.00  0.00     0.173 A 
ATOM     65  F   UNL     1      -9.414   0.994 -10.125  1.00  0.00    -0.203 F 
ATOM     66  C   UNL     1      -9.004  -0.917 -11.435  1.00  0.00     0.198 A 
ATOM     67  C   UNL     1      -6.948  -1.120 -12.654  1.00  0.00     0.198 A 
ATOM     68  F   UNL     1      -5.318   0.571 -12.509  1.00  0.00    -0.203 F 
ATOM     69  F   UNL     1     -10.186  -1.425 -11.058  1.00  0.00    -0.200 F 
ATOM     70  C   UNL     1      -8.182  -1.635 -12.289  1.00  0.00     0.200 A 
ATOM     71  F   UNL     1      -6.157  -1.807 -13.490  1.00  0.00    -0.200 F 
ATOM     72  F   UNL     1      -8.577  -2.828 -12.755  1.00  0.00    -0.200 F 
ENDBRANCH  48  62
BRANCH  49  73
ATOM     73  C   UNL     1      -3.998   9.475  -7.487  1.00  0.00     0.064 A 
ATOM     74  C   UNL     1      -4.818  10.607  -7.391  1.00  0.00     0.173 A 
ATOM     75  C   UNL     1      -2.675   9.586  -7.033  1.00  0.00     0.173 A 
ATOM     76  F   UNL     1      -6.085  10.554  -7.827  1.00  0.00    -0.203 F 
ATOM     77  C   UNL     1      -4.331  11.809  -6.880  1.00  0.00     0.198 A 
ATOM     78  C   UNL     1      -2.197  10.780  -6.497  1.00  0.00     0.198 A 
ATOM     79  F   UNL     1      -1.853   8.529  -7.093  1.00  0.00    -0.203 F 
ATOM     80  F   UNL     1      -5.125  12.887  -6.837  1.00  0.00    -0.200 F 
ATOM     81  C   UNL     1      -3.023  11.892  -6.428  1.00  0.00     0.200 A 
ATOM     82  F   UNL     1      -0.939  10.852  -6.043  1.00  0.00    -0.200 F 
ATOM     83  F   UNL     1      -2.557  13.045  -5.928  1.00  0.00    -0.200 F 
ENDBRANCH  49  73
BRANCH  61  84
ATOM     84  C   UNL     1      -6.018   7.475 -13.844  1.00  0.00     0.064 A 
ATOM     85  C   UNL     1      -4.865   7.838 -14.555  1.00  0.00     0.173 A 
ATOM     86  C   UNL     1      -7.265   7.793 -14.403  1.00  0.00     0.173 A 
ATOM     87  F   UNL     1      -3.650   7.569 -14.054  1.00  0.00    -0.203 F 
ATOM     88  C   UNL     1      -4.957   8.521 -15.765  1.00  0.00     0.198 A 
ATOM     89  C   UNL     1      -7.353   8.450 -15.627  1.00  0.00     0.198 A 
ATOM     90  F   UNL     1      -8.397   7.462 -13.764  1.00  0.00    -0.203 F 
ATOM     91  F   UNL     1      -3.842   8.905 -16.401  1.00  0.00    -0.200 F 
ATOM     92  C   UNL     1      -6.200   8.821 -16.302  1.00  0.00     0.200 A 
ATOM     93  F   UNL     1      -8.555   8.729 -16.150  1.00  0.00    -0.200 F 
ATOM     94  F   UNL     1      -6.287   9.477 -17.467  1.00  0.00    -0.200 F 
ENDBRANCH  61  84
ENDBRANCH  35  36
ENDBRANCH  27  30
ENDBRANCH  25  26
ENDBRANCH  24  25
ENDBRANCH  23  24
ENDBRANCH   3  23
TORSDOF 16
