REMARK SMILES CC[NH+](CC)[C@](C)(C(=O)NCCCNC(=O)c1ccc(-c2c3nc(c(-c4c(F)c(F)c(F)c(F)c4F)c4ccc([nH]4)c(-c4c(F)c(F)c(F)c(F)c4F)c4nc(c(-c5c(F)c(F)c(F)c(F)c5F)c5ccc2[nH]5)C=C4)C=C3)cc1)c1cc(F)c(C)cc1F
REMARK SMILES IDX 12 1 11 2 10 3 8 4 9 5 6 7 7 8 3 9 2 11 1 12 4 13 5 14 80 15
REMARK SMILES IDX 81 16 87 17 82 18 86 19 88 20 83 21 84 22 85 23 13 24 14 25
REMARK SMILES IDX 15 26 16 28 17 29 18 30 79 31 19 32 78 33 20 34 21 35 22 36
REMARK SMILES IDX 72 37 23 38 77 39 71 40 73 41 24 42 76 43 70 44 69 45 25 47
REMARK SMILES IDX 57 48 37 49 56 50 38 51 41 52 55 53 74 54 39 55 40 56 54 58
REMARK SMILES IDX 75 59 42 60 26 61 27 62 35 63 28 64 29 65 33 66 36 67 30 68
REMARK SMILES IDX 31 69 34 70 32 71 58 72 59 73 67 74 60 75 61 76 65 77 68 78
REMARK SMILES IDX 62 79 63 80 66 81 64 82 43 83 44 84 52 85 45 86 46 87 50 88
REMARK SMILES IDX 53 89 47 90 48 91 51 92 49 93
REMARK H PARENT 10 6 3 10 14 27 73 46 41 57
REMARK Flexibility Score: inf
ROOT
ATOM      1  C   UNL     1       0.144   1.061   0.942  1.00  0.00     0.042 C 
ENDROOT
BRANCH   1   2
ATOM      2  C   UNL     1       1.188   0.775  -0.118  1.00  0.00     0.118 C 
BRANCH   2   3
ATOM      3  N   UNL     1       2.053  -0.338   0.218  1.00  0.00    -0.350 N 
ATOM      4  C   UNL     1       2.720  -1.250  -0.550  1.00  0.00     0.286 C 
ATOM      5  O   UNL     1       3.607  -1.859   0.067  1.00  0.00    -0.267 OA
ATOM      6  H   UNL     1       2.186  -0.461   1.186  1.00  0.00     0.163 HD
BRANCH   4   7
ATOM      7  C   UNL     1       2.375  -1.563  -2.066  1.00  0.00     0.202 C 
ATOM      8  C   UNL     1       0.827  -1.654  -2.225  1.00  0.00     0.096 C 
BRANCH   7   9
ATOM      9  N   UNL     1       2.971  -0.583  -3.062  1.00  0.00    -0.319 N 
ATOM     10  H   UNL     1       3.948  -0.876  -3.044  1.00  0.00     0.349 HD
BRANCH   9  11
ATOM     11  C   UNL     1       3.130   0.825  -2.697  1.00  0.00     0.259 C 
ATOM     12  C   UNL     1       4.295   1.142  -1.760  1.00  0.00     0.071 C 
ENDBRANCH   9  11
BRANCH   9  13
ATOM     13  C   UNL     1       2.406  -0.756  -4.419  1.00  0.00     0.259 C 
ATOM     14  C   UNL     1       3.168  -0.056  -5.543  1.00  0.00     0.071 C 
ENDBRANCH   9  13
ENDBRANCH   7   9
BRANCH   7  15
ATOM     15  C   UNL     1       2.965  -2.997  -2.331  1.00  0.00     0.060 A 
ATOM     16  C   UNL     1       2.227  -4.164  -2.043  1.00  0.00     0.053 A 
ATOM     17  C   UNL     1       4.277  -3.186  -2.805  1.00  0.00     0.133 A 
ATOM     18  C   UNL     1       2.738  -5.431  -2.328  1.00  0.00     0.126 A 
ATOM     19  C   UNL     1       4.783  -4.458  -3.095  1.00  0.00     0.046 A 
ATOM     20  F   UNL     1       5.098  -2.146  -3.010  1.00  0.00    -0.206 F 
ATOM     21  F   UNL     1       1.979  -6.505  -2.067  1.00  0.00    -0.207 F 
ATOM     22  C   UNL     1       4.004  -5.597  -2.885  1.00  0.00    -0.012 A 
ATOM     23  C   UNL     1       4.502  -6.965  -3.229  1.00  0.00     0.047 C 
ENDBRANCH   7  15
ENDBRANCH   4   7
ENDBRANCH   2   3
ENDBRANCH   1   2
BRANCH   1  24
ATOM     24  C   UNL     1       0.744   1.529   2.258  1.00  0.00     0.118 C 
BRANCH  24  25
ATOM     25  N   UNL     1       1.446   2.805   2.149  1.00  0.00    -0.352 N 
ATOM     26  C   UNL     1       1.090   4.067   2.568  1.00  0.00     0.251 C 
ATOM     27  H   UNL     1       2.320   2.754   1.699  1.00  0.00     0.163 HD
ATOM     28  O   UNL     1       1.743   5.039   2.218  1.00  0.00    -0.269 OA
BRANCH  26  29
ATOM     29  C   UNL     1      -0.109   4.248   3.414  1.00  0.00     0.039 A 
ATOM     30  C   UNL     1      -0.984   5.303   3.148  1.00  0.00     0.014 A 
ATOM     31  C   UNL     1      -0.383   3.358   4.450  1.00  0.00     0.014 A 
ATOM     32  C   UNL     1      -2.187   5.395   3.852  1.00  0.00     0.010 A 
ATOM     33  C   UNL     1      -1.631   3.372   5.055  1.00  0.00     0.010 A 
ATOM     34  C   UNL     1      -2.547   4.393   4.768  1.00  0.00    -0.014 A 
BRANCH  34  35
ATOM     35  C   UNL     1      -3.866   4.383   5.450  1.00  0.00     0.031 A 
ATOM     36  C   UNL     1      -3.928   4.381   6.954  1.00  0.00     0.074 A 
ATOM     37  C   UNL     1      -4.997   4.261   4.727  1.00  0.00     0.049 A 
ATOM     38  N   UNL     1      -4.959   4.213   7.743  1.00  0.00    -0.248 NA
ATOM     39  C   UNL     1      -2.650   4.537   7.668  1.00  0.00     0.031 C 
ATOM     40  C   UNL     1      -5.067   4.179   3.266  1.00  0.00     0.029 A 
ATOM     41  N   UNL     1      -6.307   4.168   5.125  1.00  0.00    -0.354 N 
ATOM     42  C   UNL     1      -4.447   4.200   9.033  1.00  0.00     0.074 A 
ATOM     43  C   UNL     1      -3.010   4.317   8.922  1.00  0.00     0.031 C 
ATOM     44  C   UNL     1      -6.352   4.082   2.891  1.00  0.00     0.029 A 
ATOM     45  C   UNL     1      -7.194   4.050   4.082  1.00  0.00     0.049 A 
ATOM     46  H   UNL     1      -6.585   4.185   6.069  1.00  0.00     0.167 HD
ATOM     47  C   UNL     1      -5.116   4.128  10.208  1.00  0.00     0.037 A 
ATOM     48  C   UNL     1      -8.534   3.926   4.090  1.00  0.00     0.037 A 
ATOM     49  C   UNL     1      -6.549   4.080  10.315  1.00  0.00     0.049 A 
ATOM     50  C   UNL     1      -9.259   3.905   5.407  1.00  0.00     0.074 A 
ATOM     51  C   UNL     1      -7.330   4.093  11.456  1.00  0.00     0.029 A 
ATOM     52  N   UNL     1      -7.416   4.026   9.234  1.00  0.00    -0.354 N 
ATOM     53  N   UNL     1      -8.769   3.958   6.622  1.00  0.00    -0.248 NA
ATOM     54  C   UNL     1     -10.725   3.813   5.355  1.00  0.00     0.031 C 
ATOM     55  C   UNL     1      -8.672   4.017  11.066  1.00  0.00     0.029 A 
ATOM     56  C   UNL     1      -8.726   3.996   9.682  1.00  0.00     0.049 A 
ATOM     57  H   UNL     1      -7.141   4.010   8.289  1.00  0.00     0.167 HD
ATOM     58  C   UNL     1      -9.862   3.932   7.476  1.00  0.00     0.074 A 
ATOM     59  C   UNL     1     -11.043   3.873   6.640  1.00  0.00     0.031 C 
ATOM     60  C   UNL     1      -9.886   3.952   8.831  1.00  0.00     0.037 A 
BRANCH  47  61
ATOM     61  C   UNL     1      -4.302   4.117  11.470  1.00  0.00     0.064 A 
ATOM     62  C   UNL     1      -3.598   5.252  11.900  1.00  0.00     0.173 A 
ATOM     63  C   UNL     1      -4.240   2.965  12.268  1.00  0.00     0.173 A 
ATOM     64  F   UNL     1      -3.612   6.375  11.166  1.00  0.00    -0.203 F 
ATOM     65  C   UNL     1      -2.833   5.223  13.063  1.00  0.00     0.198 A 
ATOM     66  C   UNL     1      -3.500   2.950  13.447  1.00  0.00     0.198 A 
ATOM     67  F   UNL     1      -4.898   1.854  11.905  1.00  0.00    -0.203 F 
ATOM     68  F   UNL     1      -2.122   6.301  13.422  1.00  0.00    -0.200 F 
ATOM     69  C   UNL     1      -2.790   4.074  13.839  1.00  0.00     0.200 A 
ATOM     70  F   UNL     1      -3.468   1.843  14.202  1.00  0.00    -0.200 F 
ATOM     71  F   UNL     1      -2.056   4.049  14.960  1.00  0.00    -0.200 F 
ENDBRANCH  47  61
BRANCH  48  72
ATOM     72  C   UNL     1      -9.281   3.855   2.807  1.00  0.00     0.064 A 
ATOM     73  C   UNL     1     -10.071   4.932   2.380  1.00  0.00     0.173 A 
ATOM     74  C   UNL     1      -9.222   2.723   1.984  1.00  0.00     0.173 A 
ATOM     75  F   UNL     1     -10.173   6.030   3.144  1.00  0.00    -0.203 F 
ATOM     76  C   UNL     1     -10.790   4.871   1.189  1.00  0.00     0.198 A 
ATOM     77  C   UNL     1      -9.921   2.672   0.779  1.00  0.00     0.198 A 
ATOM     78  F   UNL     1      -8.473   1.669   2.343  1.00  0.00    -0.203 F 
ATOM     79  F   UNL     1     -11.570   5.898   0.826  1.00  0.00    -0.200 F 
ATOM     80  C   UNL     1     -10.710   3.743   0.387  1.00  0.00     0.200 A 
ATOM     81  F   UNL     1      -9.831   1.586  -0.001  1.00  0.00    -0.200 F 
ATOM     82  F   UNL     1     -11.399   3.685  -0.761  1.00  0.00    -0.200 F 
ENDBRANCH  48  72
BRANCH  60  83
ATOM     83  C   UNL     1     -11.232   3.949   9.492  1.00  0.00     0.064 A 
ATOM     84  C   UNL     1     -12.024   2.793   9.537  1.00  0.00     0.173 A 
ATOM     85  C   UNL     1     -11.710   5.104  10.128  1.00  0.00     0.173 A 
ATOM     86  F   UNL     1     -11.614   1.670   8.929  1.00  0.00    -0.203 F 
ATOM     87  C   UNL     1     -13.259   2.800  10.179  1.00  0.00     0.198 A 
ATOM     88  C   UNL     1     -12.934   5.099  10.792  1.00  0.00     0.198 A 
ATOM     89  F   UNL     1     -10.985   6.232  10.117  1.00  0.00    -0.203 F 
ATOM     90  F   UNL     1     -14.020   1.697  10.175  1.00  0.00    -0.200 F 
ATOM     91  C   UNL     1     -13.709   3.950  10.812  1.00  0.00     0.200 A 
ATOM     92  F   UNL     1     -13.362   6.207  11.412  1.00  0.00    -0.200 F 
ATOM     93  F   UNL     1     -14.895   3.952  11.436  1.00  0.00    -0.200 F 
ENDBRANCH  60  83
ENDBRANCH  34  35
ENDBRANCH  26  29
ENDBRANCH  24  25
ENDBRANCH   1  24
TORSDOF 14
