REMARK SMILES CCOc1cccc(OCC)c1-c1ccc([C@@H](C)C(=O)NCCCNC(=O)c2ccc(-c3c4nc(c(-c5c(F)c(F)c(F)c(F)c5F)c5ccc([nH]5)c(-c5c(F)c(F)c(F)c(F)c5F)c5nc(c(-c6c(F)c(F)c(F)c(F)c6F)c6ccc3[nH]6)C=C5)C=C4)cc2)cc1F
REMARK SMILES IDX 22 1 21 2 19 3 20 4 17 6 18 7 16 8 13 9 14 10 92 11 15 12
REMARK SMILES IDX 91 13 93 14 12 15 4 16 5 17 6 18 8 19 7 20 3 21 2 22 1 23
REMARK SMILES IDX 9 24 10 25 11 26 23 27 24 28 25 29 26 30 27 32 28 33 29 34
REMARK SMILES IDX 90 35 30 36 89 37 31 38 32 39 33 40 83 41 34 42 88 43 82 44
REMARK SMILES IDX 84 45 35 46 87 47 81 48 80 49 36 51 68 52 48 53 67 54 49 55
REMARK SMILES IDX 52 56 66 57 85 58 50 59 51 60 65 62 86 63 53 64 37 65 38 66
REMARK SMILES IDX 46 67 39 68 40 69 44 70 47 71 41 72 42 73 45 74 43 75 69 76
REMARK SMILES IDX 70 77 78 78 71 79 72 80 76 81 79 82 73 83 74 84 77 85 75 86
REMARK SMILES IDX 54 87 55 88 63 89 56 90 57 91 61 92 64 93 58 94 59 95 62 96
REMARK SMILES IDX 60 97
REMARK H PARENT 21 5 25 31 84 50 52 61
REMARK Flexibility Score: inf
ROOT
ATOM      1  C   UNL     1       2.275  -5.054   0.254  1.00  0.00     0.117 C 
ENDROOT
BRANCH   1   2
ATOM      2  N   UNL     1       0.878  -4.760  -0.032  1.00  0.00    -0.356 N 
ATOM      3  C   UNL     1       0.227  -4.083  -1.020  1.00  0.00     0.227 C 
ATOM      4  O   UNL     1      -1.000  -3.998  -0.872  1.00  0.00    -0.274 OA
ATOM      5  H   UNL     1       0.265  -5.135   0.641  1.00  0.00     0.163 HD
BRANCH   3   6
ATOM      6  C   UNL     1       0.884  -3.425  -2.257  1.00  0.00     0.105 C 
ATOM      7  C   UNL     1       1.807  -4.335  -3.061  1.00  0.00     0.023 C 
BRANCH   6   8
ATOM      8  C   UNL     1       1.482  -2.058  -1.973  1.00  0.00    -0.033 A 
ATOM      9  C   UNL     1       2.502   0.482  -1.184  1.00  0.00     0.025 A 
ATOM     10  C   UNL     1       2.934  -0.700  -0.587  1.00  0.00     0.012 A 
ATOM     11  C   UNL     1       1.536   0.367  -2.193  1.00  0.00     0.131 A 
ATOM     12  C   UNL     1       2.527  -1.934  -1.069  1.00  0.00     0.005 A 
ATOM     13  C   UNL     1       0.999  -0.880  -2.557  1.00  0.00     0.044 A 
ATOM     14  F   UNL     1       1.068   1.462  -2.811  1.00  0.00    -0.206 F 
BRANCH   9  15
ATOM     15  C   UNL     1       3.003   1.758  -0.647  1.00  0.00     0.069 A 
ATOM     16  C   UNL     1       2.078   2.566   0.071  1.00  0.00     0.130 A 
ATOM     17  C   UNL     1       2.454   3.746   0.719  1.00  0.00     0.047 A 
ATOM     18  C   UNL     1       3.780   4.143   0.691  1.00  0.00     0.008 A 
ATOM     19  C   UNL     1       4.350   2.188  -0.683  1.00  0.00     0.130 A 
ATOM     20  C   UNL     1       4.708   3.376  -0.011  1.00  0.00     0.047 A 
BRANCH  16  21
ATOM     21  O   UNL     1       0.744   2.227   0.070  1.00  0.00    -0.493 OA
BRANCH  21  22
ATOM     22  C   UNL     1       0.283   1.734   1.330  1.00  0.00     0.226 C 
ATOM     23  C   UNL     1      -0.307   0.348   1.120  1.00  0.00     0.049 C 
ENDBRANCH  21  22
ENDBRANCH  16  21
BRANCH  19  24
ATOM     24  O   UNL     1       5.456   1.677  -1.309  1.00  0.00    -0.493 OA
BRANCH  24  25
ATOM     25  C   UNL     1       5.581   0.351  -1.796  1.00  0.00     0.226 C 
ATOM     26  C   UNL     1       6.133  -0.566  -0.712  1.00  0.00     0.049 C 
ENDBRANCH  24  25
ENDBRANCH  19  24
ENDBRANCH   9  15
ENDBRANCH   6   8
ENDBRANCH   3   6
ENDBRANCH   1   2
BRANCH   1  27
ATOM     27  C   UNL     1       2.853  -4.135   1.339  1.00  0.00     0.042 C 
BRANCH  27  28
ATOM     28  C   UNL     1       2.655  -4.596   2.774  1.00  0.00     0.118 C 
BRANCH  28  29
ATOM     29  N   UNL     1       3.538  -5.692   3.128  1.00  0.00    -0.352 N 
ATOM     30  C   UNL     1       4.550  -5.786   4.047  1.00  0.00     0.251 C 
ATOM     31  H   UNL     1       3.381  -6.518   2.615  1.00  0.00     0.163 HD
ATOM     32  O   UNL     1       5.274  -6.786   4.005  1.00  0.00    -0.269 OA
BRANCH  30  33
ATOM     33  C   UNL     1       4.817  -4.750   5.080  1.00  0.00     0.039 A 
ATOM     34  C   UNL     1       6.130  -4.625   5.557  1.00  0.00     0.014 A 
ATOM     35  C   UNL     1       3.813  -3.977   5.668  1.00  0.00     0.014 A 
ATOM     36  C   UNL     1       6.431  -3.737   6.595  1.00  0.00     0.010 A 
ATOM     37  C   UNL     1       4.128  -3.022   6.642  1.00  0.00     0.010 A 
ATOM     38  C   UNL     1       5.433  -2.917   7.143  1.00  0.00    -0.014 A 
BRANCH  38  39
ATOM     39  C   UNL     1       5.739  -2.000   8.275  1.00  0.00     0.031 A 
ATOM     40  C   UNL     1       5.100  -2.212   9.624  1.00  0.00     0.074 A 
ATOM     41  C   UNL     1       6.575  -0.961   8.092  1.00  0.00     0.049 A 
ATOM     42  N   UNL     1       5.250  -1.527  10.731  1.00  0.00    -0.248 NA
ATOM     43  C   UNL     1       4.143  -3.323   9.736  1.00  0.00     0.031 C 
ATOM     44  C   UNL     1       7.212  -0.604   6.824  1.00  0.00     0.029 A 
ATOM     45  N   UNL     1       7.031  -0.012   8.973  1.00  0.00    -0.354 N 
ATOM     46  C   UNL     1       4.392  -2.108  11.657  1.00  0.00     0.074 A 
ATOM     47  C   UNL     1       3.687  -3.167  10.970  1.00  0.00     0.031 C 
ATOM     48  C   UNL     1       7.996   0.469   7.014  1.00  0.00     0.029 A 
ATOM     49  C   UNL     1       7.902   0.888   8.410  1.00  0.00     0.049 A 
ATOM     50  H   UNL     1       6.759   0.021   9.919  1.00  0.00     0.167 HD
ATOM     51  C   UNL     1       4.224  -1.806  12.968  1.00  0.00     0.037 A 
ATOM     52  C   UNL     1       8.559   1.928   8.959  1.00  0.00     0.037 A 
ATOM     53  C   UNL     1       4.955  -0.779  13.664  1.00  0.00     0.049 A 
ATOM     54  C   UNL     1       8.403   2.208  10.428  1.00  0.00     0.074 A 
ATOM     55  C   UNL     1       4.912  -0.446  15.007  1.00  0.00     0.029 A 
ATOM     56  N   UNL     1       5.865   0.082  13.069  1.00  0.00    -0.354 N 
ATOM     57  N   UNL     1       7.652   1.598  11.312  1.00  0.00    -0.248 NA
ATOM     58  C   UNL     1       9.205   3.309  10.980  1.00  0.00     0.031 C 
ATOM     59  C   UNL     1       5.768   0.642  15.217  1.00  0.00     0.029 A 
ATOM     60  C   UNL     1       6.379   0.956  14.014  1.00  0.00     0.049 A 
ATOM     61  H   UNL     1       6.110   0.073  12.115  1.00  0.00     0.167 HD
ATOM     62  C   UNL     1       7.904   2.224  12.525  1.00  0.00     0.074 A 
ATOM     63  C   UNL     1       8.895   3.248  12.267  1.00  0.00     0.031 C 
ATOM     64  C   UNL     1       7.363   1.973  13.743  1.00  0.00     0.037 A 
BRANCH  51  65
ATOM     65  C   UNL     1       3.205  -2.600  13.736  1.00  0.00     0.064 A 
ATOM     66  C   UNL     1       3.404  -3.955  14.044  1.00  0.00     0.173 A 
ATOM     67  C   UNL     1       2.021  -1.994  14.184  1.00  0.00     0.173 A 
ATOM     68  F   UNL     1       4.513  -4.586  13.630  1.00  0.00    -0.203 F 
ATOM     69  C   UNL     1       2.439  -4.682  14.737  1.00  0.00     0.198 A 
ATOM     70  C   UNL     1       1.073  -2.717  14.904  1.00  0.00     0.198 A 
ATOM     71  F   UNL     1       1.783  -0.700  13.923  1.00  0.00    -0.203 F 
ATOM     72  F   UNL     1       2.625  -5.990  14.966  1.00  0.00    -0.200 F 
ATOM     73  C   UNL     1       1.277  -4.062  15.170  1.00  0.00     0.200 A 
ATOM     74  F   UNL     1      -0.044  -2.113  15.332  1.00  0.00    -0.200 F 
ATOM     75  F   UNL     1       0.350  -4.764  15.837  1.00  0.00    -0.200 F 
ENDBRANCH  51  65
BRANCH  52  76
ATOM     76  C   UNL     1       9.465   2.750   8.116  1.00  0.00     0.064 A 
ATOM     77  C   UNL     1      10.857   2.662   8.257  1.00  0.00     0.173 A 
ATOM     78  C   UNL     1       8.960   3.623   7.142  1.00  0.00     0.173 A 
ATOM     79  F   UNL     1      11.386   1.855   9.188  1.00  0.00    -0.203 F 
ATOM     80  C   UNL     1      11.710   3.427   7.465  1.00  0.00     0.198 A 
ATOM     81  C   UNL     1       9.815   4.368   6.333  1.00  0.00     0.198 A 
ATOM     82  F   UNL     1       7.636   3.737   6.965  1.00  0.00    -0.203 F 
ATOM     83  F   UNL     1      13.036   3.350   7.644  1.00  0.00    -0.200 F 
ATOM     84  C   UNL     1      11.188   4.274   6.498  1.00  0.00     0.200 A 
ATOM     85  F   UNL     1       9.308   5.175   5.391  1.00  0.00    -0.200 F 
ATOM     86  F   UNL     1      12.009   5.003   5.730  1.00  0.00    -0.200 F 
ENDBRANCH  52  76
BRANCH  64  87
ATOM     87  C   UNL     1       7.852   2.804  14.893  1.00  0.00     0.064 A 
ATOM     88  C   UNL     1       7.510   4.159  15.020  1.00  0.00     0.173 A 
ATOM     89  C   UNL     1       8.659   2.235  15.889  1.00  0.00     0.173 A 
ATOM     90  F   UNL     1       6.752   4.754  14.086  1.00  0.00    -0.203 F 
ATOM     91  C   UNL     1       7.986   4.921  16.083  1.00  0.00     0.198 A 
ATOM     92  C   UNL     1       9.110   2.992  16.967  1.00  0.00     0.198 A 
ATOM     93  F   UNL     1       9.009   0.942  15.819  1.00  0.00    -0.203 F 
ATOM     94  F   UNL     1       7.692   6.226  16.154  1.00  0.00    -0.200 F 
ATOM     95  C   UNL     1       8.782   4.336  17.058  1.00  0.00     0.200 A 
ATOM     96  F   UNL     1       9.869   2.423  17.913  1.00  0.00    -0.200 F 
ATOM     97  F   UNL     1       9.240   5.072  18.080  1.00  0.00    -0.200 F 
ENDBRANCH  64  87
ENDBRANCH  38  39
ENDBRANCH  30  33
ENDBRANCH  28  29
ENDBRANCH  27  28
ENDBRANCH   1  27
TORSDOF 16
