REMARK SMILES Cc1cc(OCCc2nc(CC(=O)NCCCNC(=O)c3ccc(-c4c5nc(c(-c6c(F)c(F)c(F)c(F)c6F)c6ccc([nH]6)c(-c6c(F)c(F)c(F)c(F)c6F)c6nc(c(-c7c(F)c(F)c(F)c(F)c7F)c7ccc4[nH]7)C=C6)C=C5)cc3)cs2)ccc1Cl
REMARK SMILES IDX 12 1 13 2 14 3 11 5 10 6 8 7 9 8 85 9 84 10 7 11 6 12 5 13
REMARK SMILES IDX 4 14 1 15 2 16 3 17 88 18 87 19 89 20 86 21 15 22 16 23
REMARK SMILES IDX 17 24 18 25 19 26 20 28 21 29 22 30 83 31 23 32 82 33 24 34
REMARK SMILES IDX 25 35 26 36 76 37 27 38 81 39 75 40 77 41 28 42 80 43 74 44
REMARK SMILES IDX 73 45 29 47 61 48 41 49 60 50 42 51 45 52 59 53 78 54 43 55
REMARK SMILES IDX 44 56 58 58 79 59 46 60 30 61 31 62 39 63 32 64 33 65 37 66
REMARK SMILES IDX 40 67 34 68 35 69 38 70 36 71 62 72 63 73 71 74 64 75 65 76
REMARK SMILES IDX 69 77 72 78 66 79 67 80 70 81 68 82 47 83 48 84 56 85 49 86
REMARK SMILES IDX 50 87 54 88 57 89 51 90 52 91 55 92 53 93
REMARK H PARENT 14 4 18 27 77 46 45 57
REMARK Flexibility Score: inf
ROOT
ATOM      1  C   UNL     1       2.005   1.952   0.134  1.00  0.00     0.226 C 
ATOM      2  O   UNL     1       2.615   3.014   0.358  1.00  0.00    -0.275 OA
ATOM      3  N   UNL     1       1.975   1.625  -1.205  1.00  0.00    -0.356 N 
ATOM      4  H   UNL     1       2.031   2.434  -1.763  1.00  0.00     0.163 HD
ENDROOT
BRANCH   1   5
ATOM      5  C   UNL     1       1.350   1.241   1.355  1.00  0.00     0.157 C 
BRANCH   5   6
ATOM      6  C   UNL     1       0.082   1.942   1.886  1.00  0.00     0.061 A 
ATOM      7  C   UNL     1      -2.139   2.051   2.386  1.00  0.00     0.096 A 
ATOM      8  N   UNL     1      -1.138   1.242   2.053  1.00  0.00    -0.246 NA
ATOM      9  S   UNL     1      -1.639   3.684   2.652  1.00  0.00    -0.127 S 
ATOM     10  C   UNL     1      -0.017   3.268   2.269  1.00  0.00     0.091 A 
BRANCH   7  11
ATOM     11  C   UNL     1      -3.596   1.659   2.666  1.00  0.00     0.109 C 
BRANCH  11  12
ATOM     12  C   UNL     1      -4.630   1.892   1.532  1.00  0.00     0.237 C 
BRANCH  12  13
ATOM     13  O   UNL     1      -5.152   0.679   0.911  1.00  0.00    -0.493 OA
BRANCH  13  14
ATOM     14  C   UNL     1      -4.175   0.046   0.192  1.00  0.00     0.119 A 
ATOM     15  C   UNL     1      -1.228   1.717  -1.017  1.00  0.00     0.046 C 
ATOM     16  C   UNL     1      -2.047   0.491  -0.727  1.00  0.00    -0.029 A 
ATOM     17  C   UNL     1      -3.393   0.793  -0.665  1.00  0.00     0.051 A 
ATOM     18  C   UNL     1      -1.636  -0.792  -0.301  1.00  0.00     0.044 A 
ATOM     19  C   UNL     1      -2.552  -1.685   0.261  1.00  0.00     0.024 A 
ATOM     20  Cl  UNL     1      -0.043  -1.419  -0.314  1.00  0.00    -0.084 Cl
ATOM     21  C   UNL     1      -3.828  -1.246   0.557  1.00  0.00     0.048 A 
ENDBRANCH  13  14
ENDBRANCH  12  13
ENDBRANCH  11  12
ENDBRANCH   7  11
ENDBRANCH   5   6
ENDBRANCH   1   5
BRANCH   3  22
ATOM     22  C   UNL     1       1.882   0.411  -2.047  1.00  0.00     0.117 C 
BRANCH  22  23
ATOM     23  C   UNL     1       0.707   0.206  -3.061  1.00  0.00     0.042 C 
BRANCH  23  24
ATOM     24  C   UNL     1       0.615   1.081  -4.334  1.00  0.00     0.118 C 
BRANCH  24  25
ATOM     25  N   UNL     1       0.097   0.272  -5.458  1.00  0.00    -0.352 N 
ATOM     26  C   UNL     1      -0.958   0.358  -6.318  1.00  0.00     0.251 C 
ATOM     27  H   UNL     1       0.650  -0.524  -5.627  1.00  0.00     0.163 HD
ATOM     28  O   UNL     1      -1.232  -0.672  -6.978  1.00  0.00    -0.269 OA
BRANCH  26  29
ATOM     29  C   UNL     1      -1.778   1.566  -6.573  1.00  0.00     0.039 A 
ATOM     30  C   UNL     1      -3.086   1.397  -7.066  1.00  0.00     0.014 A 
ATOM     31  C   UNL     1      -1.254   2.857  -6.508  1.00  0.00     0.014 A 
ATOM     32  C   UNL     1      -3.860   2.495  -7.470  1.00  0.00     0.010 A 
ATOM     33  C   UNL     1      -2.045   3.962  -6.871  1.00  0.00     0.010 A 
ATOM     34  C   UNL     1      -3.352   3.797  -7.364  1.00  0.00    -0.014 A 
BRANCH  34  35
ATOM     35  C   UNL     1      -4.163   4.981  -7.776  1.00  0.00     0.031 A 
ATOM     36  C   UNL     1      -3.731   5.849  -8.932  1.00  0.00     0.074 A 
ATOM     37  C   UNL     1      -5.269   5.317  -7.080  1.00  0.00     0.049 A 
ATOM     38  N   UNL     1      -4.245   6.975  -9.367  1.00  0.00    -0.248 NA
ATOM     39  C   UNL     1      -2.551   5.400  -9.684  1.00  0.00     0.031 C 
ATOM     40  C   UNL     1      -5.795   4.583  -5.930  1.00  0.00     0.029 A 
ATOM     41  N   UNL     1      -6.140   6.371  -7.227  1.00  0.00    -0.354 N 
ATOM     42  C   UNL     1      -3.435   7.382 -10.421  1.00  0.00     0.074 A 
ATOM     43  C   UNL     1      -2.378   6.401 -10.541  1.00  0.00     0.031 C 
ATOM     44  C   UNL     1      -6.899   5.201  -5.480  1.00  0.00     0.029 A 
ATOM     45  C   UNL     1      -7.140   6.396  -6.284  1.00  0.00     0.049 A 
ATOM     46  H   UNL     1      -6.056   7.043  -7.941  1.00  0.00     0.167 HD
ATOM     47  C   UNL     1      -3.568   8.466 -11.226  1.00  0.00     0.037 A 
ATOM     48  C   UNL     1      -8.129   7.288  -6.076  1.00  0.00     0.037 A 
ATOM     49  C   UNL     1      -4.642   9.422 -11.138  1.00  0.00     0.049 A 
ATOM     50  C   UNL     1      -8.256   8.482  -6.984  1.00  0.00     0.074 A 
ATOM     51  C   UNL     1      -4.898  10.512 -11.954  1.00  0.00     0.029 A 
ATOM     52  N   UNL     1      -5.642   9.402 -10.178  1.00  0.00    -0.354 N 
ATOM     53  N   UNL     1      -7.510   8.828  -8.004  1.00  0.00    -0.248 NA
ATOM     54  C   UNL     1      -9.364   9.408  -6.711  1.00  0.00     0.031 C 
ATOM     55  C   UNL     1      -6.028  11.175 -11.463  1.00  0.00     0.029 A 
ATOM     56  C   UNL     1      -6.503  10.473 -10.367  1.00  0.00     0.049 A 
ATOM     57  H   UNL     1      -5.728   8.728  -9.466  1.00  0.00     0.167 HD
ATOM     58  C   UNL     1      -8.068   9.995  -8.506  1.00  0.00     0.074 A 
ATOM     59  C   UNL     1      -9.226  10.291  -7.691  1.00  0.00     0.031 C 
ATOM     60  C   UNL     1      -7.653  10.757  -9.549  1.00  0.00     0.037 A 
BRANCH  47  61
ATOM     61  C   UNL     1      -2.523   8.683 -12.284  1.00  0.00     0.064 A 
ATOM     62  C   UNL     1      -2.439   7.859 -13.417  1.00  0.00     0.173 A 
ATOM     63  C   UNL     1      -1.627   9.759 -12.189  1.00  0.00     0.173 A 
ATOM     64  F   UNL     1      -3.268   6.814 -13.554  1.00  0.00    -0.203 F 
ATOM     65  C   UNL     1      -1.478   8.087 -14.399  1.00  0.00     0.198 A 
ATOM     66  C   UNL     1      -0.686  10.001 -13.188  1.00  0.00     0.198 A 
ATOM     67  F   UNL     1      -1.671  10.586 -11.133  1.00  0.00    -0.203 F 
ATOM     68  F   UNL     1      -1.387   7.259 -15.450  1.00  0.00    -0.200 F 
ATOM     69  C   UNL     1      -0.607   9.160 -14.287  1.00  0.00     0.200 A 
ATOM     70  F   UNL     1       0.145  11.047 -13.085  1.00  0.00    -0.200 F 
ATOM     71  F   UNL     1       0.312   9.381 -15.237  1.00  0.00    -0.200 F 
ENDBRANCH  47  61
BRANCH  48  72
ATOM     72  C   UNL     1      -9.092   7.079  -4.963  1.00  0.00     0.064 A 
ATOM     73  C   UNL     1     -10.427   6.736  -5.220  1.00  0.00     0.173 A 
ATOM     74  C   UNL     1      -8.701   7.220  -3.623  1.00  0.00     0.173 A 
ATOM     75  F   UNL     1     -10.854   6.616  -6.486  1.00  0.00    -0.203 F 
ATOM     76  C   UNL     1     -11.338   6.557  -4.181  1.00  0.00     0.198 A 
ATOM     77  C   UNL     1      -9.607   7.012  -2.584  1.00  0.00     0.198 A 
ATOM     78  F   UNL     1      -7.436   7.546  -3.322  1.00  0.00    -0.203 F 
ATOM     79  F   UNL     1     -12.617   6.271  -4.457  1.00  0.00    -0.200 F 
ATOM     80  C   UNL     1     -10.925   6.688  -2.864  1.00  0.00     0.200 A 
ATOM     81  F   UNL     1      -9.201   7.128  -1.312  1.00  0.00    -0.200 F 
ATOM     82  F   UNL     1     -11.800   6.509  -1.865  1.00  0.00    -0.200 F 
ENDBRANCH  48  72
BRANCH  60  83
ATOM     83  C   UNL     1      -8.469  11.972  -9.879  1.00  0.00     0.064 A 
ATOM     84  C   UNL     1      -8.440  13.116  -9.069  1.00  0.00     0.173 A 
ATOM     85  C   UNL     1      -9.261  12.006 -11.037  1.00  0.00     0.173 A 
ATOM     86  F   UNL     1      -7.711  13.127  -7.942  1.00  0.00    -0.203 F 
ATOM     87  C   UNL     1      -9.192  14.242  -9.393  1.00  0.00     0.198 A 
ATOM     88  C   UNL     1      -9.990  13.143 -11.373  1.00  0.00     0.198 A 
ATOM     89  F   UNL     1      -9.319  10.939 -11.848  1.00  0.00    -0.203 F 
ATOM     90  F   UNL     1      -9.183  15.309  -8.582  1.00  0.00    -0.200 F 
ATOM     91  C   UNL     1      -9.960  14.258 -10.548  1.00  0.00     0.200 A 
ATOM     92  F   UNL     1     -10.724  13.160 -12.494  1.00  0.00    -0.200 F 
ATOM     93  F   UNL     1     -10.679  15.344 -10.862  1.00  0.00    -0.200 F 
ENDBRANCH  60  83
ENDBRANCH  34  35
ENDBRANCH  26  29
ENDBRANCH  24  25
ENDBRANCH  23  24
ENDBRANCH  22  23
ENDBRANCH   3  22
TORSDOF 15
