REMARK SMILES C[C@H]1CCCCC[C@H]1NC(=O)c1csc(/C=C/C(=O)NCCCNC(=O)c2ccc(-c3c4nc(c(-c5c(F)c(F)c(F)c(F)c5F)c5ccc([nH]5)c(-c5c(F)c(F)c(F)c(F)c5F)c5nc(c(-c6c(F)c(F)c(F)c(F)c6F)c6ccc3[nH]6)C=C5)C=C4)cc2)c1
REMARK SMILES IDX 18 1 19 2 20 3 17 5 16 6 15 7 12 8 13 9 90 10 14 11 10 12
REMARK SMILES IDX 9 13 11 15 8 16 2 17 1 18 3 19 4 20 7 22 6 23 5 24 21 26
REMARK SMILES IDX 22 27 23 28 24 29 25 30 26 32 27 33 28 34 89 35 29 36 88 37
REMARK SMILES IDX 30 38 31 39 32 40 82 41 33 42 87 43 81 44 83 45 34 46 86 47
REMARK SMILES IDX 80 48 79 49 35 51 67 52 47 53 66 54 48 55 51 56 65 57 84 58
REMARK SMILES IDX 49 59 50 60 64 62 85 63 52 64 36 65 37 66 45 67 38 68 39 69
REMARK SMILES IDX 43 70 46 71 40 72 41 73 44 74 42 75 68 76 69 77 77 78 70 79
REMARK SMILES IDX 71 80 75 81 78 82 72 83 73 84 76 85 74 86 53 87 54 88 62 89
REMARK SMILES IDX 55 90 56 91 60 92 63 93 57 94 58 95 61 96 59 97
REMARK H PARENT 20 4 9 14 24 31 83 50 51 61
REMARK Flexibility Score: 90.00
ROOT
ATOM      1  C   UNL     1      -5.407   1.504  -5.302  1.00  0.00     0.244 C 
ATOM      2  O   UNL     1      -6.098   0.669  -5.880  1.00  0.00    -0.270 OA
ATOM      3  N   UNL     1      -4.971   2.603  -5.975  1.00  0.00    -0.352 N 
ATOM      4  H   UNL     1      -5.169   2.602  -6.939  1.00  0.00     0.163 HD
ENDROOT
BRANCH   1   5
ATOM      5  C   UNL     1      -5.131   1.353  -3.860  1.00  0.00     0.072 C 
ATOM      6  C   UNL     1      -3.894   1.429  -3.348  1.00  0.00     0.024 C 
BRANCH   6   7
ATOM      7  C   UNL     1      -3.620   1.322  -1.954  1.00  0.00     0.028 A 
ATOM      8  C   UNL     1      -2.552   1.621   0.133  1.00  0.00     0.051 A 
ATOM      9  C   UNL     1      -3.577   0.754   0.458  1.00  0.00     0.079 A 
ATOM     10  C   UNL     1      -2.614   1.969  -1.256  1.00  0.00     0.033 A 
ATOM     11  S   UNL     1      -4.511   0.301  -0.896  1.00  0.00    -0.144 S 
BRANCH   8  12
ATOM     12  C   UNL     1      -1.589   2.167   1.080  1.00  0.00     0.252 C 
ATOM     13  N   UNL     1      -0.874   1.308   1.875  1.00  0.00    -0.349 N 
ATOM     14  H   UNL     1      -0.359   1.733   2.599  1.00  0.00     0.164 HD
ATOM     15  O   UNL     1      -1.378   3.374   1.159  1.00  0.00    -0.269 OA
BRANCH  13  16
ATOM     16  C   UNL     1      -0.765  -0.151   1.803  1.00  0.00     0.085 C 
BRANCH  16  17
ATOM     17  C   UNL     1       0.669  -0.581   1.421  1.00  0.00     0.008 C 
ATOM     18  C   UNL     1       1.754  -0.031   2.359  1.00  0.00     0.010 C 
BRANCH  17  19
ATOM     19  C   UNL     1       0.792  -2.106   1.225  1.00  0.00     0.005 C 
BRANCH  19  20
ATOM     20  C   UNL     1       0.739  -2.943   2.501  1.00  0.00     0.000 CG0
ATOM     21  G   UNL     1      -0.650  -3.269   3.043  1.00  0.00     0.000 G0
ENDBRANCH  19  20
ENDBRANCH  17  19
ENDBRANCH  16  17
BRANCH  16  22
ATOM     22  C   UNL     1      -1.319  -0.774   3.091  1.00  0.00     0.025 C 
BRANCH  22  23
ATOM     23  C   UNL     1      -1.749  -2.224   2.893  1.00  0.00     0.002 C 
BRANCH  23  24
ATOM     24  C   UNL     1      -0.650  -3.269   3.043  1.00  0.00     0.000 CG0
ATOM     25  G   UNL     1       0.739  -2.943   2.501  1.00  0.00     0.000 G0
ENDBRANCH  23  24
ENDBRANCH  22  23
ENDBRANCH  16  22
ENDBRANCH  13  16
ENDBRANCH   8  12
ENDBRANCH   6   7
ENDBRANCH   1   5
BRANCH   3  26
ATOM     26  C   UNL     1      -4.260   3.780  -5.501  1.00  0.00     0.118 C 
BRANCH  26  27
ATOM     27  C   UNL     1      -2.822   3.813  -6.016  1.00  0.00     0.042 C 
BRANCH  27  28
ATOM     28  C   UNL     1      -2.712   4.141  -7.504  1.00  0.00     0.118 C 
BRANCH  28  29
ATOM     29  N   UNL     1      -3.051   5.527  -7.788  1.00  0.00    -0.352 N 
ATOM     30  C   UNL     1      -2.323   6.506  -8.417  1.00  0.00     0.251 C 
ATOM     31  H   UNL     1      -3.943   5.807  -7.480  1.00  0.00     0.163 HD
ATOM     32  O   UNL     1      -2.716   7.669  -8.380  1.00  0.00    -0.269 OA
BRANCH  30  33
ATOM     33  C   UNL     1      -1.067   6.184  -9.129  1.00  0.00     0.039 A 
ATOM     34  C   UNL     1       0.013   7.065  -9.013  1.00  0.00     0.014 A 
ATOM     35  C   UNL     1      -0.962   5.060  -9.954  1.00  0.00     0.014 A 
ATOM     36  C   UNL     1       1.212   6.795  -9.679  1.00  0.00     0.010 A 
ATOM     37  C   UNL     1       0.252   4.760 -10.572  1.00  0.00     0.010 A 
ATOM     38  C   UNL     1       1.349   5.626 -10.443  1.00  0.00    -0.014 A 
BRANCH  38  39
ATOM     39  C   UNL     1       2.631   5.292 -11.114  1.00  0.00     0.031 A 
ATOM     40  C   UNL     1       2.716   5.270 -12.615  1.00  0.00     0.074 A 
ATOM     41  C   UNL     1       3.699   4.944 -10.373  1.00  0.00     0.049 A 
ATOM     42  N   UNL     1       3.715   4.912 -13.382  1.00  0.00    -0.248 NA
ATOM     43  C   UNL     1       1.512   5.683 -13.351  1.00  0.00     0.031 C 
ATOM     44  C   UNL     1       3.732   4.893  -8.911  1.00  0.00     0.029 A 
ATOM     45  N   UNL     1       4.960   4.553 -10.748  1.00  0.00    -0.354 N 
ATOM     46  C   UNL     1       3.254   5.037 -14.686  1.00  0.00     0.074 A 
ATOM     47  C   UNL     1       1.875   5.469 -14.607  1.00  0.00     0.031 C 
ATOM     48  C   UNL     1       4.954   4.504  -8.512  1.00  0.00     0.029 A 
ATOM     49  C   UNL     1       5.778   4.245  -9.689  1.00  0.00     0.049 A 
ATOM     50  H   UNL     1       5.250   4.498 -11.687  1.00  0.00     0.167 HD
ATOM     51  C   UNL     1       3.926   4.827 -15.843  1.00  0.00     0.037 A 
ATOM     52  C   UNL     1       7.047   3.795  -9.669  1.00  0.00     0.037 A 
ATOM     53  C   UNL     1       5.308   4.429 -15.921  1.00  0.00     0.049 A 
ATOM     54  C   UNL     1       7.772   3.576 -10.969  1.00  0.00     0.074 A 
ATOM     55  C   UNL     1       6.093   4.250 -17.047  1.00  0.00     0.029 A 
ATOM     56  N   UNL     1       6.111   4.152 -14.825  1.00  0.00    -0.354 N 
ATOM     57  N   UNL     1       7.341   3.747 -12.194  1.00  0.00    -0.248 NA
ATOM     58  C   UNL     1       9.161   3.103 -10.881  1.00  0.00     0.031 C 
ATOM     59  C   UNL     1       7.362   3.831 -16.633  1.00  0.00     0.029 A 
ATOM     60  C   UNL     1       7.379   3.787 -15.248  1.00  0.00     0.049 A 
ATOM     61  H   UNL     1       5.823   4.206 -13.885  1.00  0.00     0.167 HD
ATOM     62  C   UNL     1       8.409   3.428 -13.021  1.00  0.00     0.074 A 
ATOM     63  C   UNL     1       9.513   3.064 -12.158  1.00  0.00     0.031 C 
ATOM     64  C   UNL     1       8.468   3.435 -14.375  1.00  0.00     0.037 A 
BRANCH  51  65
ATOM     65  C   UNL     1       3.177   5.027 -17.127  1.00  0.00     0.064 A 
ATOM     66  C   UNL     1       2.828   6.308 -17.581  1.00  0.00     0.173 A 
ATOM     67  C   UNL     1       2.841   3.929 -17.934  1.00  0.00     0.173 A 
ATOM     68  F   UNL     1       3.117   7.388 -16.840  1.00  0.00    -0.203 F 
ATOM     69  C   UNL     1       2.149   6.481 -18.785  1.00  0.00     0.198 A 
ATOM     70  C   UNL     1       2.185   4.108 -19.150  1.00  0.00     0.198 A 
ATOM     71  F   UNL     1       3.157   2.684 -17.549  1.00  0.00    -0.203 F 
ATOM     72  F   UNL     1       1.790   7.710 -19.178  1.00  0.00    -0.200 F 
ATOM     73  C   UNL     1       1.834   5.382 -19.571  1.00  0.00     0.200 A 
ATOM     74  F   UNL     1       1.891   3.047 -19.914  1.00  0.00    -0.200 F 
ATOM     75  F   UNL     1       1.187   5.551 -20.732  1.00  0.00    -0.200 F 
ENDBRANCH  51  65
BRANCH  52  76
ATOM     76  C   UNL     1       7.721   3.540  -8.371  1.00  0.00     0.064 A 
ATOM     77  C   UNL     1       8.744   4.383  -7.916  1.00  0.00     0.173 A 
ATOM     78  C   UNL     1       7.358   2.454  -7.561  1.00  0.00     0.173 A 
ATOM     79  F   UNL     1       9.139   5.421  -8.668  1.00  0.00    -0.203 F 
ATOM     80  C   UNL     1       9.390   4.141  -6.706  1.00  0.00     0.198 A 
ATOM     81  C   UNL     1       7.989   2.228  -6.340  1.00  0.00     0.198 A 
ATOM     82  F   UNL     1       6.383   1.621  -7.951  1.00  0.00    -0.203 F 
ATOM     83  F   UNL     1      10.392   4.939  -6.313  1.00  0.00    -0.200 F 
ATOM     84  C   UNL     1       9.009   3.067  -5.917  1.00  0.00     0.200 A 
ATOM     85  F   UNL     1       7.609   1.196  -5.574  1.00  0.00    -0.200 F 
ATOM     86  F   UNL     1       9.628   2.836  -4.751  1.00  0.00    -0.200 F 
ENDBRANCH  52  76
BRANCH  64  87
ATOM     87  C   UNL     1       9.778   3.066 -15.006  1.00  0.00     0.064 A 
ATOM     88  C   UNL     1      10.225   1.738 -15.043  1.00  0.00     0.173 A 
ATOM     89  C   UNL     1      10.574   4.048 -15.614  1.00  0.00     0.173 A 
ATOM     90  F   UNL     1       9.505   0.767 -14.460  1.00  0.00    -0.203 F 
ATOM     91  C   UNL     1      11.433   1.408 -15.650  1.00  0.00     0.198 A 
ATOM     92  C   UNL     1      11.770   3.711 -16.241  1.00  0.00     0.198 A 
ATOM     93  F   UNL     1      10.187   5.332 -15.608  1.00  0.00    -0.203 F 
ATOM     94  F   UNL     1      11.861   0.138 -15.639  1.00  0.00    -0.200 F 
ATOM     95  C   UNL     1      12.201   2.393 -16.254  1.00  0.00     0.200 A 
ATOM     96  F   UNL     1      12.507   4.662 -16.832  1.00  0.00    -0.200 F 
ATOM     97  F   UNL     1      13.362   2.072 -16.842  1.00  0.00    -0.200 F 
ENDBRANCH  64  87
ENDBRANCH  38  39
ENDBRANCH  30  33
ENDBRANCH  28  29
ENDBRANCH  27  28
ENDBRANCH  26  27
ENDBRANCH   3  26
TORSDOF 13
