REMARK SMILES O=Cc1cn(-c2ccc(Cl)cc2)nc1C(=O)NCCCNC(=O)c1ccc(-c2c3nc(c(-c4c(F)c(F)c(F)c(F)c4F)c4ccc([nH]4)c(-c4c(F)c(F)c(F)c(F)c4F)c4nc(c(-c5c(F)c(F)c(F)c(F)c5F)c5ccc2[nH]5)C=C4)C=C3)cc1
REMARK SMILES IDX 19 1 18 2 17 3 15 4 16 5 14 7 3 8 4 9 5 10 13 11 2 12 1 13
REMARK SMILES IDX 6 14 7 15 12 16 8 17 11 18 9 19 10 20 20 21 21 22 22 23
REMARK SMILES IDX 23 25 24 26 25 27 86 28 26 29 85 30 27 31 28 32 29 33 79 34
REMARK SMILES IDX 30 35 84 36 78 37 80 38 31 39 83 40 77 41 76 42 32 44 64 45
REMARK SMILES IDX 44 46 63 47 45 48 48 49 62 50 81 51 46 52 47 53 61 55 82 56
REMARK SMILES IDX 49 57 33 58 34 59 42 60 35 61 36 62 40 63 43 64 37 65 38 66
REMARK SMILES IDX 41 67 39 68 65 69 66 70 74 71 67 72 68 73 72 74 75 75 69 76
REMARK SMILES IDX 70 77 73 78 71 79 50 80 51 81 59 82 52 83 53 84 57 85 60 86
REMARK SMILES IDX 54 87 55 88 58 89 56 90
REMARK H PARENT 17 6 21 24 80 43 48 54
REMARK Flexibility Score: inf
ROOT
ATOM      1  C   UNL     1       1.515   2.593   0.262  1.00  0.00     0.042 C 
ENDROOT
BRANCH   1   2
ATOM      2  C   UNL     1       2.499   1.462   0.031  1.00  0.00     0.118 C 
BRANCH   2   3
ATOM      3  N   UNL     1       3.818   1.594   0.622  1.00  0.00    -0.351 N 
ATOM      4  C   UNL     1       4.570   0.655   1.307  1.00  0.00     0.272 C 
ATOM      5  O   UNL     1       5.686   1.009   1.692  1.00  0.00    -0.267 OA
ATOM      6  H   UNL     1       4.238   2.479   0.522  1.00  0.00     0.163 HD
BRANCH   4   7
ATOM      7  C   UNL     1       4.040  -0.705   1.561  1.00  0.00     0.161 A 
ATOM      8  C   UNL     1       3.241  -1.550   0.729  1.00  0.00     0.066 A 
ATOM      9  C   UNL     1       2.969  -2.649   1.501  1.00  0.00     0.127 A 
ATOM     10  N   UNL     1       3.753  -2.553   2.614  1.00  0.00    -0.239 N 
ATOM     11  N   UNL     1       4.284  -1.319   2.746  1.00  0.00    -0.162 NA
BRANCH   8  12
ATOM     12  C   UNL     1       2.735  -1.399  -0.612  1.00  0.00     0.264 C 
ATOM     13  O   UNL     1       1.619  -1.783  -0.948  1.00  0.00    -0.298 OA
ENDBRANCH   8  12
BRANCH  10  14
ATOM     14  C   UNL     1       4.013  -3.622   3.499  1.00  0.00     0.065 A 
ATOM     15  C   UNL     1       4.022  -4.928   2.978  1.00  0.00     0.030 A 
ATOM     16  C   UNL     1       4.215  -3.402   4.863  1.00  0.00     0.030 A 
ATOM     17  C   UNL     1       4.184  -6.019   3.824  1.00  0.00     0.023 A 
ATOM     18  C   UNL     1       4.333  -4.508   5.714  1.00  0.00     0.023 A 
ATOM     19  C   UNL     1       4.311  -5.806   5.193  1.00  0.00     0.041 A 
ATOM     20  Cl  UNL     1       4.425  -7.161   6.246  1.00  0.00    -0.084 Cl
ENDBRANCH  10  14
ENDBRANCH   4   7
ENDBRANCH   2   3
ENDBRANCH   1   2
BRANCH   1  21
ATOM     21  C   UNL     1       1.835   3.841  -0.521  1.00  0.00     0.118 C 
BRANCH  21  22
ATOM     22  N   UNL     1       1.695   3.724  -1.979  1.00  0.00    -0.352 N 
ATOM     23  C   UNL     1       1.701   4.767  -2.909  1.00  0.00     0.251 C 
ATOM     24  H   UNL     1       1.587   2.814  -2.339  1.00  0.00     0.163 HD
ATOM     25  O   UNL     1       1.358   4.617  -4.056  1.00  0.00    -0.269 OA
BRANCH  23  26
ATOM     26  C   UNL     1       2.159   6.082  -2.413  1.00  0.00     0.039 A 
ATOM     27  C   UNL     1       1.420   7.255  -2.587  1.00  0.00     0.014 A 
ATOM     28  C   UNL     1       3.266   6.046  -1.583  1.00  0.00     0.014 A 
ATOM     29  C   UNL     1       1.755   8.368  -1.816  1.00  0.00     0.010 A 
ATOM     30  C   UNL     1       3.386   7.016  -0.637  1.00  0.00     0.010 A 
ATOM     31  C   UNL     1       2.725   8.225  -0.815  1.00  0.00    -0.014 A 
BRANCH  31  32
ATOM     32  C   UNL     1       3.048   9.280   0.139  1.00  0.00     0.031 A 
ATOM     33  C   UNL     1       1.894   9.767   0.946  1.00  0.00     0.074 A 
ATOM     34  C   UNL     1       4.341   9.542   0.452  1.00  0.00     0.049 A 
ATOM     35  N   UNL     1       1.393  10.958   0.987  1.00  0.00    -0.248 NA
ATOM     36  C   UNL     1       1.113   8.777   1.710  1.00  0.00     0.031 C 
ATOM     37  C   UNL     1       5.545   8.847  -0.044  1.00  0.00     0.029 A 
ATOM     38  N   UNL     1       4.862  10.379   1.389  1.00  0.00    -0.354 N 
ATOM     39  C   UNL     1       0.375  10.915   1.942  1.00  0.00     0.074 A 
ATOM     40  C   UNL     1       0.117   9.524   2.192  1.00  0.00     0.031 C 
ATOM     41  C   UNL     1       6.588   9.088   0.776  1.00  0.00     0.029 A 
ATOM     42  C   UNL     1       6.191  10.117   1.711  1.00  0.00     0.049 A 
ATOM     43  H   UNL     1       4.344  11.107   1.803  1.00  0.00     0.167 HD
ATOM     44  C   UNL     1       0.043  12.028   2.655  1.00  0.00     0.037 A 
ATOM     45  C   UNL     1       6.918  10.698   2.693  1.00  0.00     0.037 A 
ATOM     46  C   UNL     1       0.621  13.199   2.047  1.00  0.00     0.049 A 
ATOM     47  C   UNL     1       6.222  11.952   3.055  1.00  0.00     0.074 A 
ATOM     48  C   UNL     1       0.421  13.921   0.892  1.00  0.00     0.029 A 
ATOM     49  N   UNL     1       1.863  13.528   2.525  1.00  0.00    -0.354 N 
ATOM     50  N   UNL     1       6.080  12.962   2.240  1.00  0.00    -0.248 NA
ATOM     51  C   UNL     1       5.322  11.941   4.199  1.00  0.00     0.031 C 
ATOM     52  C   UNL     1       1.700  14.452   0.548  1.00  0.00     0.029 A 
ATOM     53  C   UNL     1       2.619  14.086   1.533  1.00  0.00     0.049 A 
ATOM     54  H   UNL     1       2.166  13.383   3.450  1.00  0.00     0.167 HD
ATOM     55  C   UNL     1       4.826  13.472   2.530  1.00  0.00     0.074 A 
ATOM     56  C   UNL     1       4.484  12.915   3.834  1.00  0.00     0.031 C 
ATOM     57  C   UNL     1       4.067  14.040   1.548  1.00  0.00     0.037 A 
BRANCH  44  58
ATOM     58  C   UNL     1      -0.362  12.048   4.121  1.00  0.00     0.064 A 
ATOM     59  C   UNL     1      -0.696  13.287   4.715  1.00  0.00     0.173 A 
ATOM     60  C   UNL     1      -0.122  10.995   5.030  1.00  0.00     0.173 A 
ATOM     61  F   UNL     1      -0.936  14.367   3.956  1.00  0.00    -0.203 F 
ATOM     62  C   UNL     1      -0.696  13.473   6.101  1.00  0.00     0.198 A 
ATOM     63  C   UNL     1      -0.173  11.173   6.414  1.00  0.00     0.198 A 
ATOM     64  F   UNL     1       0.282   9.784   4.636  1.00  0.00    -0.203 F 
ATOM     65  F   UNL     1      -0.887  14.697   6.610  1.00  0.00    -0.200 F 
ATOM     66  C   UNL     1      -0.425  12.417   6.950  1.00  0.00     0.200 A 
ATOM     67  F   UNL     1       0.111  10.139   7.219  1.00  0.00    -0.200 F 
ATOM     68  F   UNL     1      -0.359  12.604   8.274  1.00  0.00    -0.200 F 
ENDBRANCH  44  58
BRANCH  45  69
ATOM     69  C   UNL     1       7.990  10.095   3.515  1.00  0.00     0.064 A 
ATOM     70  C   UNL     1       8.941  10.888   4.175  1.00  0.00     0.173 A 
ATOM     71  C   UNL     1       7.939   8.736   3.884  1.00  0.00     0.173 A 
ATOM     72  F   UNL     1       9.022  12.200   3.910  1.00  0.00    -0.203 F 
ATOM     73  C   UNL     1       9.777  10.357   5.164  1.00  0.00     0.198 A 
ATOM     74  C   UNL     1       8.774   8.207   4.869  1.00  0.00     0.198 A 
ATOM     75  F   UNL     1       7.010   7.921   3.361  1.00  0.00    -0.203 F 
ATOM     76  F   UNL     1      10.634  11.156   5.815  1.00  0.00    -0.200 F 
ATOM     77  C   UNL     1       9.685   9.020   5.518  1.00  0.00     0.200 A 
ATOM     78  F   UNL     1       8.646   6.922   5.230  1.00  0.00    -0.200 F 
ATOM     79  F   UNL     1      10.441   8.526   6.508  1.00  0.00    -0.200 F 
ENDBRANCH  45  69
BRANCH  57  80
ATOM     80  C   UNL     1       4.764  14.493   0.299  1.00  0.00     0.064 A 
ATOM     81  C   UNL     1       5.328  13.633  -0.657  1.00  0.00     0.173 A 
ATOM     82  C   UNL     1       4.717  15.859  -0.006  1.00  0.00     0.173 A 
ATOM     83  F   UNL     1       5.342  12.309  -0.472  1.00  0.00    -0.203 F 
ATOM     84  C   UNL     1       5.837  14.127  -1.858  1.00  0.00     0.198 A 
ATOM     85  C   UNL     1       5.191  16.345  -1.220  1.00  0.00     0.198 A 
ATOM     86  F   UNL     1       4.148  16.718   0.854  1.00  0.00    -0.203 F 
ATOM     87  F   UNL     1       6.370  13.288  -2.759  1.00  0.00    -0.200 F 
ATOM     88  C   UNL     1       5.755  15.480  -2.143  1.00  0.00     0.200 A 
ATOM     89  F   UNL     1       5.066  17.647  -1.508  1.00  0.00    -0.200 F 
ATOM     90  F   UNL     1       6.196  15.949  -3.319  1.00  0.00    -0.200 F 
ENDBRANCH  57  80
ENDBRANCH  31  32
ENDBRANCH  23  26
ENDBRANCH  21  22
ENDBRANCH   1  21
TORSDOF 12
