REMARK SMILES O=C(NCCCNC(=O)c1cc(NC(=S)NC(=O)c2ccccc2Cl)c(Cl)cc1Cl)c1ccc(-c2c3nc(c(-c4c(F)c(F)c(F)c(F)c4F)c4ccc([nH]4)c(-c4c(F)c(F)c(F)c(F)c4F)c4nc(c(-c5c(F)c(F)c(F)c(F)c5F)c5ccc2[nH]5)C=C4)C=C3)cc1
REMARK SMILES IDX 6 1 5 2 4 3 3 4 1 5 2 6 31 8 32 9 93 10 33 11 92 12 34 13
REMARK SMILES IDX 35 14 36 15 86 16 37 17 91 18 85 19 87 20 38 21 90 22 84 23
REMARK SMILES IDX 83 24 39 26 71 27 51 28 70 29 52 30 55 31 69 32 88 33 53 34
REMARK SMILES IDX 54 35 68 37 89 38 56 39 40 40 41 41 49 42 42 43 43 44 47 45
REMARK SMILES IDX 50 46 44 47 45 48 48 49 46 50 72 51 73 52 81 53 74 54 75 55
REMARK SMILES IDX 79 56 82 57 76 58 77 59 80 60 78 61 57 62 58 63 66 64 59 65
REMARK SMILES IDX 60 66 64 67 67 68 61 69 62 70 65 71 63 72 7 73 8 74 9 76
REMARK SMILES IDX 10 77 11 78 29 79 12 80 28 81 30 82 26 83 27 84 13 85 14 87
REMARK SMILES IDX 15 88 16 89 17 90 18 92 19 93 20 94 24 95 21 96 23 97 25 98
REMARK SMILES IDX 22 99
REMARK H PARENT 3 7 87 25 55 36 7 75 13 86 16 91
REMARK Flexibility Score: inf
ROOT
ATOM      1  C   UNL     1       4.439  -3.499  -0.335  1.00  0.00     0.118 C 
ENDROOT
BRANCH   1   2
ATOM      2  C   UNL     1       4.881  -2.131   0.169  1.00  0.00     0.042 C 
BRANCH   2   3
ATOM      3  C   UNL     1       4.394  -1.012  -0.722  1.00  0.00     0.118 C 
BRANCH   3   4
ATOM      4  N   UNL     1       2.952  -0.807  -0.617  1.00  0.00    -0.352 N 
ATOM      5  O   UNL     1       1.032   0.256  -0.086  1.00  0.00    -0.269 OA
ATOM      6  C   UNL     1       2.244   0.319  -0.268  1.00  0.00     0.251 C 
ATOM      7  H   UNL     1       2.402  -1.596  -0.830  1.00  0.00     0.163 HD
BRANCH   6   8
ATOM      8  C   UNL     1       2.951   1.604  -0.082  1.00  0.00     0.039 A 
ATOM      9  C   UNL     1       4.027   1.934  -0.903  1.00  0.00     0.014 A 
ATOM     10  C   UNL     1       2.550   2.483   0.928  1.00  0.00     0.014 A 
ATOM     11  C   UNL     1       4.834   3.007  -0.581  1.00  0.00     0.010 A 
ATOM     12  C   UNL     1       3.265   3.665   1.140  1.00  0.00     0.010 A 
ATOM     13  C   UNL     1       4.431   3.921   0.403  1.00  0.00    -0.014 A 
BRANCH  13  14
ATOM     14  C   UNL     1       5.193   5.185   0.532  1.00  0.00     0.031 A 
ATOM     15  C   UNL     1       5.868   5.568   1.814  1.00  0.00     0.074 A 
ATOM     16  C   UNL     1       5.298   5.966  -0.562  1.00  0.00     0.049 A 
ATOM     17  N   UNL     1       6.577   6.636   2.081  1.00  0.00    -0.248 NA
ATOM     18  C   UNL     1       5.723   4.646   2.949  1.00  0.00     0.031 C 
ATOM     19  C   UNL     1       4.673   5.682  -1.859  1.00  0.00     0.029 A 
ATOM     20  N   UNL     1       5.985   7.130  -0.779  1.00  0.00    -0.354 N 
ATOM     21  C   UNL     1       6.938   6.530   3.417  1.00  0.00     0.074 A 
ATOM     22  C   UNL     1       6.350   5.304   3.915  1.00  0.00     0.031 C 
ATOM     23  C   UNL     1       5.066   6.597  -2.752  1.00  0.00     0.029 A 
ATOM     24  C   UNL     1       5.878   7.593  -2.068  1.00  0.00     0.049 A 
ATOM     25  H   UNL     1       6.505   7.589  -0.081  1.00  0.00     0.167 HD
ATOM     26  C   UNL     1       7.694   7.382   4.151  1.00  0.00     0.037 A 
ATOM     27  C   UNL     1       6.349   8.717  -2.633  1.00  0.00     0.037 A 
ATOM     28  C   UNL     1       8.272   8.596   3.629  1.00  0.00     0.049 A 
ATOM     29  C   UNL     1       7.141   9.662  -1.782  1.00  0.00     0.074 A 
ATOM     30  C   UNL     1       9.075   9.518   4.277  1.00  0.00     0.029 A 
ATOM     31  N   UNL     1       8.098   9.063   2.332  1.00  0.00    -0.354 N 
ATOM     32  N   UNL     1       7.495   9.541  -0.526  1.00  0.00    -0.248 NA
ATOM     33  C   UNL     1       7.588  10.903  -2.421  1.00  0.00     0.031 C 
ATOM     34  C   UNL     1       9.332  10.572   3.393  1.00  0.00     0.029 A 
ATOM     35  C   UNL     1       8.751  10.276   2.171  1.00  0.00     0.049 A 
ATOM     36  H   UNL     1       7.585   8.600   1.630  1.00  0.00     0.167 HD
ATOM     37  C   UNL     1       8.223  10.681  -0.226  1.00  0.00     0.074 A 
ATOM     38  C   UNL     1       8.278  11.469  -1.442  1.00  0.00     0.031 C 
ATOM     39  C   UNL     1       8.790  11.045   0.951  1.00  0.00     0.037 A 
BRANCH  26  40
ATOM     40  C   UNL     1       7.904   7.054   5.603  1.00  0.00     0.064 A 
ATOM     41  C   UNL     1       8.674   5.955   6.016  1.00  0.00     0.173 A 
ATOM     42  C   UNL     1       7.344   7.867   6.602  1.00  0.00     0.173 A 
ATOM     43  F   UNL     1       9.226   5.137   5.106  1.00  0.00    -0.203 F 
ATOM     44  C   UNL     1       8.845   5.663   7.368  1.00  0.00     0.198 A 
ATOM     45  C   UNL     1       7.544   7.592   7.952  1.00  0.00     0.198 A 
ATOM     46  F   UNL     1       6.603   8.935   6.268  1.00  0.00    -0.203 F 
ATOM     47  F   UNL     1       9.535   4.575   7.734  1.00  0.00    -0.200 F 
ATOM     48  C   UNL     1       8.285   6.485   8.335  1.00  0.00     0.200 A 
ATOM     49  F   UNL     1       7.015   8.397   8.884  1.00  0.00    -0.200 F 
ATOM     50  F   UNL     1       8.453   6.204   9.634  1.00  0.00    -0.200 F 
ENDBRANCH  26  40
BRANCH  27  51
ATOM     51  C   UNL     1       6.057   9.002  -4.061  1.00  0.00     0.064 A 
ATOM     52  C   UNL     1       7.078   9.014  -5.019  1.00  0.00     0.173 A 
ATOM     53  C   UNL     1       4.745   9.237  -4.503  1.00  0.00     0.173 A 
ATOM     54  F   UNL     1       8.349   8.806  -4.645  1.00  0.00    -0.203 F 
ATOM     55  C   UNL     1       6.801   9.264  -6.362  1.00  0.00     0.198 A 
ATOM     56  C   UNL     1       4.465   9.451  -5.850  1.00  0.00     0.198 A 
ATOM     57  F   UNL     1       3.728   9.225  -3.628  1.00  0.00    -0.203 F 
ATOM     58  F   UNL     1       7.802   9.309  -7.252  1.00  0.00    -0.200 F 
ATOM     59  C   UNL     1       5.494   9.473  -6.777  1.00  0.00     0.200 A 
ATOM     60  F   UNL     1       3.198   9.626  -6.249  1.00  0.00    -0.200 F 
ATOM     61  F   UNL     1       5.228   9.700  -8.070  1.00  0.00    -0.200 F 
ENDBRANCH  27  51
BRANCH  39  62
ATOM     62  C   UNL     1       9.551  12.339   0.961  1.00  0.00     0.064 A 
ATOM     63  C   UNL     1       8.902  13.579   0.858  1.00  0.00     0.173 A 
ATOM     64  C   UNL     1      10.947  12.337   1.096  1.00  0.00     0.173 A 
ATOM     65  F   UNL     1       7.570  13.634   0.706  1.00  0.00    -0.203 F 
ATOM     66  C   UNL     1       9.627  14.767   0.856  1.00  0.00     0.198 A 
ATOM     67  C   UNL     1      11.665  13.528   1.132  1.00  0.00     0.198 A 
ATOM     68  F   UNL     1      11.615  11.178   1.202  1.00  0.00    -0.203 F 
ATOM     69  F   UNL     1       8.993  15.936   0.694  1.00  0.00    -0.200 F 
ATOM     70  C   UNL     1      11.007  14.741   1.002  1.00  0.00     0.200 A 
ATOM     71  F   UNL     1      12.996  13.501   1.289  1.00  0.00    -0.200 F 
ATOM     72  F   UNL     1      11.702  15.886   1.007  1.00  0.00    -0.200 F 
ENDBRANCH  39  62
ENDBRANCH  13  14
ENDBRANCH   6   8
ENDBRANCH   3   4
ENDBRANCH   2   3
ENDBRANCH   1   2
BRANCH   1  73
ATOM     73  N   UNL     1       5.584  -4.372  -0.616  1.00  0.00    -0.352 N 
ATOM     74  C   UNL     1       6.465  -5.298  -0.112  1.00  0.00     0.252 C 
ATOM     75  H   UNL     1       5.820  -4.238  -1.562  1.00  0.00     0.163 HD
ATOM     76  O   UNL     1       7.283  -5.551  -1.006  1.00  0.00    -0.269 OA
BRANCH  74  77
ATOM     77  C   UNL     1       6.620  -6.108   1.245  1.00  0.00     0.060 A 
ATOM     78  C   UNL     1       5.791  -6.202   3.090  1.00  0.00     0.043 A 
ATOM     79  C   UNL     1       7.971  -7.339   1.000  1.00  0.00     0.055 A 
ATOM     80  C   UNL     1       6.148  -7.385   4.242  1.00  0.00     0.060 A 
ATOM     81  C   UNL     1       8.361  -8.466   2.344  1.00  0.00     0.044 A 
ATOM     82  Cl  UNL     1       8.981  -7.555  -0.382  1.00  0.00    -0.083 Cl
ATOM     83  C   UNL     1       7.460  -8.475   3.890  1.00  0.00     0.066 A 
ATOM     84  Cl  UNL     1       7.777  -9.761   4.993  1.00  0.00    -0.082 Cl
BRANCH  80  85
ATOM     85  N   UNL     1       5.018  -7.591   5.064  1.00  0.00    -0.331 N 
ATOM     86  H   UNL     1       5.170  -8.201   5.822  1.00  0.00     0.169 HD
BRANCH  85  87
ATOM     87  C   UNL     1       3.733  -7.083   4.987  1.00  0.00     0.177 C 
ATOM     88  S   UNL     1       2.704  -7.479   6.258  1.00  0.00    -0.040 S 
BRANCH  87  89
ATOM     89  N   UNL     1       3.136  -6.273   3.964  1.00  0.00    -0.299 N 
ATOM     90  C   UNL     1       3.135  -5.522   2.680  1.00  0.00     0.258 C 
ATOM     91  H   UNL     1       2.219  -6.141   4.297  1.00  0.00     0.172 HD
ATOM     92  O   UNL     1       2.181  -4.816   2.369  1.00  0.00    -0.269 OA
BRANCH  90  93
ATOM     93  C   UNL     1       4.331  -5.548   1.763  1.00  0.00     0.058 A 
ATOM     94  C   UNL     1       5.554  -4.282   2.233  1.00  0.00     0.015 A 
ATOM     95  C   UNL     1       4.705  -7.225   1.576  1.00  0.00     0.053 A 
ATOM     96  C   UNL     1       7.196  -4.682   2.786  1.00  0.00     0.001 A 
ATOM     97  C   UNL     1       6.279  -7.769   2.139  1.00  0.00     0.021 A 
ATOM     98  Cl  UNL     1       3.508  -8.394   1.191  1.00  0.00    -0.083 Cl
ATOM     99  C   UNL     1       7.626  -6.430   2.853  1.00  0.00     0.002 A 
ENDBRANCH  90  93
ENDBRANCH  87  89
ENDBRANCH  85  87
ENDBRANCH  80  85
ENDBRANCH  74  77
ENDBRANCH   1  73
TORSDOF 14
