REMARK SMILES CC(C)[C@@H](C)[N@@H+]1[C@@H](C(=O)NCCCNC(=O)c2ccc(-c3c4nc(c(-c5c(F)c(F)c(F)c(F)c5F)c5ccc([nH]5)c(-c5c(F)c(F)c(F)c(F)c5F)c5nc(c(-c6c(F)c(F)c(F)c(F)c6F)c6ccc3[nH]6)C=C5)C=C4)cc2)C[C@H]2CCCC[C@H]21
REMARK SMILES IDX 12 1 11 2 10 3 8 4 9 5 7 7 6 8 86 9 80 11 81 12 85 13 82 14
REMARK SMILES IDX 84 15 83 16 4 17 5 18 2 19 1 20 3 21 13 22 14 23 15 24 16 26
REMARK SMILES IDX 17 27 18 28 79 29 19 30 78 31 20 32 21 33 22 34 72 35 23 36
REMARK SMILES IDX 77 37 71 38 73 39 24 40 76 41 70 42 69 43 25 45 57 46 37 47
REMARK SMILES IDX 56 48 38 49 41 50 55 51 74 52 39 53 40 54 54 56 75 57 42 58
REMARK SMILES IDX 26 59 27 60 35 61 28 62 29 63 33 64 36 65 30 66 31 67 34 68
REMARK SMILES IDX 32 69 58 70 59 71 67 72 60 73 61 74 65 75 68 76 62 77 63 78
REMARK SMILES IDX 66 79 64 80 43 81 44 82 52 83 45 84 46 85 50 86 53 87 47 88
REMARK SMILES IDX 48 89 51 90 49 91
REMARK H PARENT 10 6 6 10 14 25 73 44 41 55
REMARK Flexibility Score: inf
ROOT
ATOM      1  C   UNL     1      -4.722   3.987   3.508  1.00  0.00     0.042 C 
ENDROOT
BRANCH   1   2
ATOM      2  C   UNL     1      -3.878   3.040   4.346  1.00  0.00     0.118 C 
BRANCH   2   3
ATOM      3  N   UNL     1      -4.173   1.649   4.061  1.00  0.00    -0.351 N 
ATOM      4  C   UNL     1      -3.326   0.648   3.665  1.00  0.00     0.278 C 
ATOM      5  O   UNL     1      -3.831  -0.456   3.458  1.00  0.00    -0.268 OA
ATOM      6  H   UNL     1      -5.116   1.387   4.168  1.00  0.00     0.163 HD
BRANCH   4   7
ATOM      7  C   UNL     1      -1.823   0.972   3.516  1.00  0.00     0.275 C 
ATOM      8  N   UNL     1      -1.059  -0.203   3.023  1.00  0.00    -0.320 N 
ATOM      9  C   UNL     1      -0.119  -0.634   4.053  1.00  0.00     0.188 C 
ATOM     10  H   UNL     1      -1.651  -1.026   2.918  1.00  0.00     0.349 HD
ATOM     11  C   UNL     1      -1.212   1.311   4.882  1.00  0.00     0.085 C 
ATOM     12  C   UNL     1       0.155   0.654   4.830  1.00  0.00     0.054 C 
ATOM     13  C   UNL     1      -0.773  -1.710   4.946  1.00  0.00     0.065 C 
ATOM     14  C   UNL     1       0.830   0.453   6.179  1.00  0.00     0.010 C 
ATOM     15  C   UNL     1       0.011  -1.929   6.239  1.00  0.00     0.006 C 
ATOM     16  C   UNL     1       0.178  -0.632   7.025  1.00  0.00     0.001 C 
BRANCH   8  17
ATOM     17  C   UNL     1      -0.711  -0.181   1.594  1.00  0.00     0.184 C 
ATOM     18  C   UNL     1      -1.515  -1.327   0.951  1.00  0.00     0.075 C 
BRANCH  17  19
ATOM     19  C   UNL     1       0.795  -0.248   1.159  1.00  0.00     0.041 C 
ATOM     20  C   UNL     1       0.948  -0.174  -0.372  1.00  0.00     0.013 C 
ATOM     21  C   UNL     1       1.655   0.875   1.753  1.00  0.00     0.013 C 
ENDBRANCH  17  19
ENDBRANCH   8  17
ENDBRANCH   4   7
ENDBRANCH   2   3
ENDBRANCH   1   2
BRANCH   1  22
ATOM     22  C   UNL     1      -6.209   3.931   3.831  1.00  0.00     0.118 C 
BRANCH  22  23
ATOM     23  N   UNL     1      -6.519   4.437   5.162  1.00  0.00    -0.352 N 
ATOM     24  C   UNL     1      -7.189   5.575   5.548  1.00  0.00     0.251 C 
ATOM     25  H   UNL     1      -6.197   3.875   5.904  1.00  0.00     0.163 HD
ATOM     26  O   UNL     1      -7.194   5.917   6.723  1.00  0.00    -0.269 OA
BRANCH  24  27
ATOM     27  C   UNL     1      -7.872   6.410   4.536  1.00  0.00     0.039 A 
ATOM     28  C   UNL     1      -7.702   7.796   4.577  1.00  0.00     0.014 A 
ATOM     29  C   UNL     1      -8.657   5.829   3.538  1.00  0.00     0.014 A 
ATOM     30  C   UNL     1      -8.224   8.588   3.551  1.00  0.00     0.010 A 
ATOM     31  C   UNL     1      -9.102   6.605   2.473  1.00  0.00     0.010 A 
ATOM     32  C   UNL     1      -8.872   7.989   2.459  1.00  0.00    -0.014 A 
BRANCH  32  33
ATOM     33  C   UNL     1      -9.274   8.773   1.264  1.00  0.00     0.031 A 
ATOM     34  C   UNL     1     -10.719   8.858   0.865  1.00  0.00     0.074 A 
ATOM     35  C   UNL     1      -8.322   9.313   0.477  1.00  0.00     0.049 A 
ATOM     36  N   UNL     1     -11.250   9.362  -0.220  1.00  0.00    -0.248 NA
ATOM     37  C   UNL     1     -11.695   8.272   1.797  1.00  0.00     0.031 C 
ATOM     38  C   UNL     1      -6.881   9.259   0.733  1.00  0.00     0.029 A 
ATOM     39  N   UNL     1      -8.420   9.992  -0.712  1.00  0.00    -0.354 N 
ATOM     40  C   UNL     1     -12.615   9.142  -0.108  1.00  0.00     0.074 A 
ATOM     41  C   UNL     1     -12.829   8.417   1.126  1.00  0.00     0.031 C 
ATOM     42  C   UNL     1      -6.232   9.881  -0.263  1.00  0.00     0.029 A 
ATOM     43  C   UNL     1      -7.204  10.335  -1.252  1.00  0.00     0.049 A 
ATOM     44  H   UNL     1      -9.280  10.212  -1.138  1.00  0.00     0.167 HD
ATOM     45  C   UNL     1     -13.603   9.529  -0.951  1.00  0.00     0.037 A 
ATOM     46  C   UNL     1      -6.903  10.924  -2.425  1.00  0.00     0.037 A 
ATOM     47  C   UNL     1     -13.387  10.268  -2.167  1.00  0.00     0.049 A 
ATOM     48  C   UNL     1      -8.016  11.314  -3.358  1.00  0.00     0.074 A 
ATOM     49  C   UNL     1     -14.328  10.770  -3.049  1.00  0.00     0.029 A 
ATOM     50  N   UNL     1     -12.141  10.604  -2.675  1.00  0.00    -0.354 N 
ATOM     51  N   UNL     1      -9.309  11.163  -3.209  1.00  0.00    -0.248 NA
ATOM     52  C   UNL     1      -7.628  11.952  -4.624  1.00  0.00     0.031 C 
ATOM     53  C   UNL     1     -13.650  11.369  -4.116  1.00  0.00     0.029 A 
ATOM     54  C   UNL     1     -12.288  11.279  -3.877  1.00  0.00     0.049 A 
ATOM     55  H   UNL     1     -11.280  10.395  -2.247  1.00  0.00     0.167 HD
ATOM     56  C   UNL     1      -9.890  11.696  -4.351  1.00  0.00     0.074 A 
ATOM     57  C   UNL     1      -8.809  12.195  -5.176  1.00  0.00     0.031 C 
ATOM     58  C   UNL     1     -11.201  11.762  -4.689  1.00  0.00     0.037 A 
BRANCH  45  59
ATOM     59  C   UNL     1     -15.011   9.165  -0.584  1.00  0.00     0.064 A 
ATOM     60  C   UNL     1     -15.672   9.780   0.490  1.00  0.00     0.173 A 
ATOM     61  C   UNL     1     -15.724   8.223  -1.340  1.00  0.00     0.173 A 
ATOM     62  F   UNL     1     -15.031  10.680   1.251  1.00  0.00    -0.203 F 
ATOM     63  C   UNL     1     -16.986   9.446   0.809  1.00  0.00     0.198 A 
ATOM     64  C   UNL     1     -17.047   7.913  -1.036  1.00  0.00     0.198 A 
ATOM     65  F   UNL     1     -15.141   7.609  -2.381  1.00  0.00    -0.203 F 
ATOM     66  F   UNL     1     -17.581  10.015   1.866  1.00  0.00    -0.200 F 
ATOM     67  C   UNL     1     -17.674   8.519   0.042  1.00  0.00     0.200 A 
ATOM     68  F   UNL     1     -17.716   7.026  -1.786  1.00  0.00    -0.200 F 
ATOM     69  F   UNL     1     -18.942   8.206   0.344  1.00  0.00    -0.200 F 
ENDBRANCH  45  59
BRANCH  46  70
ATOM     70  C   UNL     1      -5.483  11.170  -2.788  1.00  0.00     0.064 A 
ATOM     71  C   UNL     1      -4.967  12.472  -2.832  1.00  0.00     0.173 A 
ATOM     72  C   UNL     1      -4.614  10.112  -3.094  1.00  0.00     0.173 A 
ATOM     73  F   UNL     1      -5.765  13.517  -2.568  1.00  0.00    -0.203 F 
ATOM     74  C   UNL     1      -3.640  12.709  -3.184  1.00  0.00     0.198 A 
ATOM     75  C   UNL     1      -3.280  10.348  -3.419  1.00  0.00     0.198 A 
ATOM     76  F   UNL     1      -5.057   8.847  -3.062  1.00  0.00    -0.203 F 
ATOM     77  F   UNL     1      -3.183  13.966  -3.259  1.00  0.00    -0.200 F 
ATOM     78  C   UNL     1      -2.796  11.646  -3.471  1.00  0.00     0.200 A 
ATOM     79  F   UNL     1      -2.464   9.318  -3.681  1.00  0.00    -0.200 F 
ATOM     80  F   UNL     1      -1.518  11.874  -3.804  1.00  0.00    -0.200 F 
ENDBRANCH  46  70
BRANCH  58  81
ATOM     81  C   UNL     1     -11.542  12.401  -6.002  1.00  0.00     0.064 A 
ATOM     82  C   UNL     1     -11.299  11.745  -7.217  1.00  0.00     0.173 A 
ATOM     83  C   UNL     1     -12.164  13.658  -6.045  1.00  0.00     0.173 A 
ATOM     84  F   UNL     1     -10.689  10.550  -7.229  1.00  0.00    -0.203 F 
ATOM     85  C   UNL     1     -11.656  12.329  -8.429  1.00  0.00     0.198 A 
ATOM     86  C   UNL     1     -12.544  14.227  -7.256  1.00  0.00     0.198 A 
ATOM     87  F   UNL     1     -12.421  14.324  -4.909  1.00  0.00    -0.203 F 
ATOM     88  F   UNL     1     -11.382  11.701  -9.580  1.00  0.00    -0.200 F 
ATOM     89  C   UNL     1     -12.286  13.565  -8.447  1.00  0.00     0.200 A 
ATOM     90  F   UNL     1     -13.163  15.416  -7.272  1.00  0.00    -0.200 F 
ATOM     91  F   UNL     1     -12.639  14.121  -9.614  1.00  0.00    -0.200 F 
ENDBRANCH  58  81
ENDBRANCH  32  33
ENDBRANCH  24  27
ENDBRANCH  22  23
ENDBRANCH   1  22
TORSDOF 12
