REMARK SMILES CC(C)(C)NS(=O)(=O)c1csc(C(=O)Nc2ccccc2C(=O)NCCCNC(=O)c2ccc(-c3c4nc(c(-c5c(F)c(F)c(F)c(F)c5F)c5ccc([nH]5)c(-c5c(F)c(F)c(F)c(F)c5F)c5nc(c(-c6c(F)c(F)c(F)c(F)c6F)c6ccc3[nH]6)C=C5)C=C4)cc2)c1
REMARK SMILES IDX 22 1 23 2 24 3 21 5 16 6 17 7 18 8 20 9 19 10 15 11 13 12
REMARK SMILES IDX 14 13 12 15 9 16 10 17 94 18 11 19 6 20 7 21 8 22 5 23 2 25
REMARK SMILES IDX 1 26 3 27 4 28 25 29 26 30 27 31 28 32 29 33 30 35 31 36
REMARK SMILES IDX 32 37 93 38 33 39 92 40 34 41 35 42 36 43 86 44 37 45 91 46
REMARK SMILES IDX 85 47 87 48 38 49 90 50 84 51 83 52 39 54 71 55 51 56 70 57
REMARK SMILES IDX 52 58 55 59 69 60 88 61 53 62 54 63 68 65 89 66 56 67 40 68
REMARK SMILES IDX 41 69 49 70 42 71 43 72 47 73 50 74 44 75 45 76 48 77 46 78
REMARK SMILES IDX 72 79 73 80 81 81 74 82 75 83 79 84 82 85 76 86 77 87 80 88
REMARK SMILES IDX 78 89 57 90 58 91 66 92 59 93 60 94 64 95 67 96 61 97 62 98
REMARK SMILES IDX 65 99 63 100
REMARK H PARENT 24 4 15 14 5 24 28 34 87 53 55 64
REMARK Flexibility Score: inf
ROOT
ATOM      1  C   UNL     1       4.587   1.856   1.133  1.00  0.00     0.253 C 
ATOM      2  O   UNL     1       5.302   1.021   1.689  1.00  0.00    -0.269 OA
ATOM      3  N   UNL     1       5.153   2.587   0.117  1.00  0.00    -0.352 N 
ATOM      4  H   UNL     1       6.129   2.509   0.012  1.00  0.00     0.163 HD
ENDROOT
BRANCH   1   5
ATOM      5  C   UNL     1       3.192   2.084   1.648  1.00  0.00     0.063 A 
ATOM      6  C   UNL     1       2.019   2.467   0.959  1.00  0.00     0.054 A 
ATOM      7  C   UNL     1       0.895   2.860   1.720  1.00  0.00     0.027 A 
ATOM      8  C   UNL     1       0.848   2.703   3.104  1.00  0.00     0.002 A 
ATOM      9  C   UNL     1       3.104   1.895   3.049  1.00  0.00     0.016 A 
ATOM     10  C   UNL     1       1.942   2.176   3.767  1.00  0.00     0.001 A 
BRANCH   6  11
ATOM     11  N   UNL     1       1.750   2.505  -0.432  1.00  0.00    -0.321 N 
ATOM     12  C   UNL     1       2.137   1.792  -1.552  1.00  0.00     0.265 C 
ATOM     13  O   UNL     1       1.841   2.335  -2.622  1.00  0.00    -0.268 OA
ATOM     14  H   UNL     1       1.122   3.228  -0.660  1.00  0.00     0.170 HD
BRANCH  12  15
ATOM     15  C   UNL     1       2.742   0.473  -1.481  1.00  0.00     0.094 A 
ATOM     16  C   UNL     1       2.910  -1.718  -0.808  1.00  0.00     0.093 A 
ATOM     17  C   UNL     1       3.178  -1.873  -2.147  1.00  0.00     0.087 A 
ATOM     18  C   UNL     1       2.955  -0.363  -0.411  1.00  0.00     0.047 A 
ATOM     19  S   UNL     1       3.181  -0.346  -2.937  1.00  0.00    -0.137 S 
BRANCH  16  20
ATOM     20  S   UNL     1       2.415  -2.930   0.312  1.00  0.00     0.241 S 
ATOM     21  O   UNL     1       3.074  -2.594   1.554  1.00  0.00    -0.207 OA
ATOM     22  O   UNL     1       2.657  -4.181  -0.363  1.00  0.00    -0.207 OA
BRANCH  20  23
ATOM     23  N   UNL     1       0.740  -2.811   0.527  1.00  0.00    -0.206 NA
ATOM     24  H   UNL     1       0.347  -2.911  -0.409  1.00  0.00     0.141 HD
BRANCH  23  25
ATOM     25  C   UNL     1      -0.009  -1.669   1.142  1.00  0.00     0.025 C 
ATOM     26  C   UNL     1      -0.111  -0.467   0.202  1.00  0.00     0.028 C 
ATOM     27  C   UNL     1       0.551  -1.257   2.505  1.00  0.00     0.028 C 
ATOM     28  C   UNL     1      -1.458  -2.154   1.333  1.00  0.00     0.028 C 
ENDBRANCH  23  25
ENDBRANCH  20  23
ENDBRANCH  16  20
ENDBRANCH  12  15
ENDBRANCH   6  11
ENDBRANCH   1   5
BRANCH   3  29
ATOM     29  C   UNL     1       4.481   3.451  -0.806  1.00  0.00     0.118 C 
BRANCH  29  30
ATOM     30  C   UNL     1       5.271   4.545  -1.454  1.00  0.00     0.042 C 
BRANCH  30  31
ATOM     31  C   UNL     1       6.005   4.084  -2.698  1.00  0.00     0.118 C 
BRANCH  31  32
ATOM     32  N   UNL     1       5.168   3.576  -3.796  1.00  0.00    -0.352 N 
ATOM     33  C   UNL     1       5.135   3.940  -5.127  1.00  0.00     0.251 C 
ATOM     34  H   UNL     1       4.533   2.867  -3.542  1.00  0.00     0.163 HD
ATOM     35  O   UNL     1       4.380   3.393  -5.923  1.00  0.00    -0.269 OA
BRANCH  33  36
ATOM     36  C   UNL     1       5.974   5.068  -5.568  1.00  0.00     0.039 A 
ATOM     37  C   UNL     1       5.382   6.125  -6.261  1.00  0.00     0.014 A 
ATOM     38  C   UNL     1       7.287   5.159  -5.120  1.00  0.00     0.014 A 
ATOM     39  C   UNL     1       6.068   7.334  -6.366  1.00  0.00     0.010 A 
ATOM     40  C   UNL     1       7.877   6.407  -5.053  1.00  0.00     0.010 A 
ATOM     41  C   UNL     1       7.285   7.509  -5.688  1.00  0.00    -0.014 A 
BRANCH  41  42
ATOM     42  C   UNL     1       7.984   8.818  -5.644  1.00  0.00     0.031 A 
ATOM     43  C   UNL     1       9.414   8.900  -6.110  1.00  0.00     0.074 A 
ATOM     44  C   UNL     1       7.375   9.898  -5.115  1.00  0.00     0.049 A 
ATOM     45  N   UNL     1      10.247   9.907  -6.056  1.00  0.00    -0.248 NA
ATOM     46  C   UNL     1      10.005   7.668  -6.662  1.00  0.00     0.031 C 
ATOM     47  C   UNL     1       6.019   9.930  -4.561  1.00  0.00     0.029 A 
ATOM     48  N   UNL     1       7.824  11.186  -4.951  1.00  0.00    -0.354 N 
ATOM     49  C   UNL     1      11.453   9.417  -6.540  1.00  0.00     0.074 A 
ATOM     50  C   UNL     1      11.277   8.007  -6.787  1.00  0.00     0.031 C 
ATOM     51  C   UNL     1       5.730  11.182  -4.169  1.00  0.00     0.029 A 
ATOM     52  C   UNL     1       6.895  12.031  -4.394  1.00  0.00     0.049 A 
ATOM     53  H   UNL     1       8.729  11.477  -5.210  1.00  0.00     0.167 HD
ATOM     54  C   UNL     1      12.595  10.092  -6.806  1.00  0.00     0.037 A 
ATOM     55  C   UNL     1       6.979  13.342  -4.098  1.00  0.00     0.037 A 
ATOM     56  C   UNL     1      12.749  11.506  -6.605  1.00  0.00     0.049 A 
ATOM     57  C   UNL     1       8.261  14.072  -4.402  1.00  0.00     0.074 A 
ATOM     58  C   UNL     1      13.838  12.304  -6.897  1.00  0.00     0.029 A 
ATOM     59  N   UNL     1      11.774  12.332  -6.063  1.00  0.00    -0.354 N 
ATOM     60  N   UNL     1       9.370  13.615  -4.932  1.00  0.00    -0.248 NA
ATOM     61  C   UNL     1       8.302  15.503  -4.070  1.00  0.00     0.031 C 
ATOM     62  C   UNL     1      13.543  13.607  -6.484  1.00  0.00     0.029 A 
ATOM     63  C   UNL     1      12.247  13.631  -5.992  1.00  0.00     0.049 A 
ATOM     64  H   UNL     1      10.881  12.039  -5.773  1.00  0.00     0.167 HD
ATOM     65  C   UNL     1      10.226  14.705  -5.029  1.00  0.00     0.074 A 
ATOM     66  C   UNL     1       9.499  15.850  -4.520  1.00  0.00     0.031 C 
ATOM     67  C   UNL     1      11.498  14.756  -5.495  1.00  0.00     0.037 A 
BRANCH  54  68
ATOM     68  C   UNL     1      13.749   9.309  -7.361  1.00  0.00     0.064 A 
ATOM     69  C   UNL     1      13.702   8.735  -8.642  1.00  0.00     0.173 A 
ATOM     70  C   UNL     1      14.922   9.141  -6.612  1.00  0.00     0.173 A 
ATOM     71  F   UNL     1      12.596   8.848  -9.394  1.00  0.00    -0.203 F 
ATOM     72  C   UNL     1      14.771   7.993  -9.136  1.00  0.00     0.198 A 
ATOM     73  C   UNL     1      16.005   8.431  -7.125  1.00  0.00     0.198 A 
ATOM     74  F   UNL     1      15.021   9.668  -5.382  1.00  0.00    -0.203 F 
ATOM     75  F   UNL     1      14.676   7.401 -10.335  1.00  0.00    -0.200 F 
ATOM     76  C   UNL     1      15.925   7.849  -8.381  1.00  0.00     0.200 A 
ATOM     77  F   UNL     1      17.124   8.304  -6.399  1.00  0.00    -0.200 F 
ATOM     78  F   UNL     1      16.957   7.143  -8.861  1.00  0.00    -0.200 F 
ENDBRANCH  54  68
BRANCH  55  79
ATOM     79  C   UNL     1       5.813  14.062  -3.514  1.00  0.00     0.064 A 
ATOM     80  C   UNL     1       5.143  15.057  -4.241  1.00  0.00     0.173 A 
ATOM     81  C   UNL     1       5.359  13.792  -2.215  1.00  0.00     0.173 A 
ATOM     82  F   UNL     1       5.549  15.367  -5.482  1.00  0.00    -0.203 F 
ATOM     83  C   UNL     1       4.088  15.775  -3.682  1.00  0.00     0.198 A 
ATOM     84  C   UNL     1       4.282  14.488  -1.668  1.00  0.00     0.198 A 
ATOM     85  F   UNL     1       5.958  12.847  -1.476  1.00  0.00    -0.203 F 
ATOM     86  F   UNL     1       3.507  16.761  -4.379  1.00  0.00    -0.200 F 
ATOM     87  C   UNL     1       3.655  15.487  -2.397  1.00  0.00     0.200 A 
ATOM     88  F   UNL     1       3.856  14.195  -0.431  1.00  0.00    -0.200 F 
ATOM     89  F   UNL     1       2.642  16.178  -1.858  1.00  0.00    -0.200 F 
ENDBRANCH  55  79
BRANCH  67  90
ATOM     90  C   UNL     1      12.170  16.098  -5.518  1.00  0.00     0.064 A 
ATOM     91  C   UNL     1      12.565  16.746  -4.339  1.00  0.00     0.173 A 
ATOM     92  C   UNL     1      12.465  16.720  -6.741  1.00  0.00     0.173 A 
ATOM     93  F   UNL     1      12.295  16.199  -3.144  1.00  0.00    -0.203 F 
ATOM     94  C   UNL     1      13.205  17.982  -4.383  1.00  0.00     0.198 A 
ATOM     95  C   UNL     1      13.137  17.937  -6.783  1.00  0.00     0.198 A 
ATOM     96  F   UNL     1      12.118  16.136  -7.898  1.00  0.00    -0.203 F 
ATOM     97  F   UNL     1      13.525  18.608  -3.243  1.00  0.00    -0.200 F 
ATOM     98  C   UNL     1      13.498  18.571  -5.604  1.00  0.00     0.200 A 
ATOM     99  F   UNL     1      13.437  18.495  -7.964  1.00  0.00    -0.200 F 
ATOM    100  F   UNL     1      14.124  19.755  -5.644  1.00  0.00    -0.200 F 
ENDBRANCH  67  90
ENDBRANCH  41  42
ENDBRANCH  33  36
ENDBRANCH  31  32
ENDBRANCH  30  31
ENDBRANCH  29  30
ENDBRANCH   3  29
TORSDOF 15
