REMARK SMILES C[NH2+][C@]1(C(=O)NCCCNC(=O)c2ccc(-c3c4nc(c(-c5c(F)c(F)c(F)c(F)c5F)c5ccc([nH]5)c(-c5c(F)c(F)c(F)c(F)c5F)c5nc(c(-c6c(F)c(F)c(F)c(F)c6F)c6ccc3[nH]6)C=C5)C=C4)cc2)CCC[C@@H]([N@@H+](C)CC(C)C)C1
REMARK SMILES IDX 7 1 6 2 4 3 5 4 3 6 76 7 86 8 77 9 79 10 78 11 2 12 1 13
REMARK SMILES IDX 80 16 81 17 82 19 83 20 84 21 85 22 8 23 9 24 10 25 11 26
REMARK SMILES IDX 12 28 13 29 14 30 75 31 15 32 74 33 16 34 17 35 18 36 68 37
REMARK SMILES IDX 19 38 73 39 67 40 69 41 20 42 72 43 66 44 65 45 21 47 53 48
REMARK SMILES IDX 33 49 52 50 34 51 37 52 51 53 70 54 35 55 36 56 50 58 71 59
REMARK SMILES IDX 38 60 22 61 23 62 31 63 24 64 25 65 29 66 32 67 26 68 27 69
REMARK SMILES IDX 30 70 28 71 54 72 55 73 63 74 56 75 57 76 61 77 64 78 58 79
REMARK SMILES IDX 59 80 62 81 60 82 39 83 40 84 48 85 41 86 42 87 46 88 49 89
REMARK SMILES IDX 43 90 44 91 47 92 45 93
REMARK H PARENT 6 5 2 14 2 15 80 18 10 27 69 46 37 57
REMARK Flexibility Score: inf
ROOT
ATOM      1  C   UNL     1       0.617   0.852   1.026  1.00  0.00     0.118 C 
ENDROOT
BRANCH   1   2
ATOM      2  N   UNL     1       1.085   0.442  -0.282  1.00  0.00    -0.351 N 
ATOM      3  C   UNL     1       0.429   0.168  -1.446  1.00  0.00     0.281 C 
ATOM      4  O   UNL     1       1.168  -0.187  -2.377  1.00  0.00    -0.268 OA
ATOM      5  H   UNL     1       2.063   0.341  -0.342  1.00  0.00     0.163 HD
BRANCH   3   6
ATOM      6  C   UNL     1      -1.157   0.168  -1.603  1.00  0.00     0.181 C 
ATOM      7  C   UNL     1      -1.635  -1.090  -0.856  1.00  0.00     0.079 C 
ATOM      8  C   UNL     1      -1.786   1.467  -1.061  1.00  0.00     0.144 C 
ATOM      9  C   UNL     1      -3.138  -1.241  -0.714  1.00  0.00     0.013 C 
ATOM     10  C   UNL     1      -3.253   1.394  -0.574  1.00  0.00     0.190 C 
ATOM     11  C   UNL     1      -3.908   0.019  -0.335  1.00  0.00     0.065 C 
BRANCH   6  12
ATOM     12  N   UNL     1      -1.387   0.029  -3.066  1.00  0.00    -0.336 N 
ATOM     13  C   UNL     1      -2.686   0.255  -3.648  1.00  0.00     0.331 C 
ATOM     14  H   UNL     1      -0.750   0.684  -3.521  1.00  0.00     0.346 HD
ATOM     15  H   UNL     1      -1.249  -0.970  -3.216  1.00  0.00     0.346 HD
ENDBRANCH   6  12
BRANCH  10  16
ATOM     16  N   UNL     1      -3.563   2.406   0.464  1.00  0.00    -0.335 N 
ATOM     17  C   UNL     1      -4.989   2.704   0.580  1.00  0.00     0.332 C 
ATOM     18  H   UNL     1      -3.071   3.188   0.033  1.00  0.00     0.348 HD
BRANCH  16  19
ATOM     19  C   UNL     1      -2.877   2.406   1.768  1.00  0.00     0.265 C 
BRANCH  19  20
ATOM     20  C   UNL     1      -3.236   1.369   2.869  1.00  0.00     0.038 C 
ATOM     21  C   UNL     1      -2.592  -0.006   2.689  1.00  0.00     0.013 C 
ATOM     22  C   UNL     1      -2.797   1.893   4.245  1.00  0.00     0.013 C 
ENDBRANCH  19  20
ENDBRANCH  16  19
ENDBRANCH  10  16
ENDBRANCH   3   6
ENDBRANCH   1   2
BRANCH   1  23
ATOM     23  C   UNL     1       1.133  -0.016   2.160  1.00  0.00     0.042 C 
BRANCH  23  24
ATOM     24  C   UNL     1       2.633   0.060   2.381  1.00  0.00     0.118 C 
BRANCH  24  25
ATOM     25  N   UNL     1       3.066   1.355   2.890  1.00  0.00    -0.352 N 
ATOM     26  C   UNL     1       3.580   1.712   4.113  1.00  0.00     0.251 C 
ATOM     27  H   UNL     1       2.975   2.098   2.250  1.00  0.00     0.163 HD
ATOM     28  O   UNL     1       3.713   2.905   4.387  1.00  0.00    -0.269 OA
BRANCH  26  29
ATOM     29  C   UNL     1       3.946   0.689   5.118  1.00  0.00     0.039 A 
ATOM     30  C   UNL     1       3.686   0.943   6.468  1.00  0.00     0.014 A 
ATOM     31  C   UNL     1       4.559  -0.509   4.749  1.00  0.00     0.014 A 
ATOM     32  C   UNL     1       3.962  -0.035   7.428  1.00  0.00     0.010 A 
ATOM     33  C   UNL     1       4.731  -1.523   5.687  1.00  0.00     0.010 A 
ATOM     34  C   UNL     1       4.440  -1.297   7.040  1.00  0.00    -0.014 A 
BRANCH  34  35
ATOM     35  C   UNL     1       4.649  -2.389   8.027  1.00  0.00     0.031 A 
ATOM     36  C   UNL     1       6.018  -2.986   8.218  1.00  0.00     0.074 A 
ATOM     37  C   UNL     1       3.595  -2.895   8.698  1.00  0.00     0.049 A 
ATOM     38  N   UNL     1       6.385  -4.000   8.962  1.00  0.00    -0.248 NA
ATOM     39  C   UNL     1       7.118  -2.384   7.447  1.00  0.00     0.031 C 
ATOM     40  C   UNL     1       2.210  -2.439   8.567  1.00  0.00     0.029 A 
ATOM     41  N   UNL     1       3.522  -3.913   9.617  1.00  0.00    -0.354 N 
ATOM     42  C   UNL     1       7.745  -4.165   8.734  1.00  0.00     0.074 A 
ATOM     43  C   UNL     1       8.129  -3.188   7.740  1.00  0.00     0.031 C 
ATOM     44  C   UNL     1       1.430  -3.154   9.392  1.00  0.00     0.029 A 
ATOM     45  C   UNL     1       2.248  -4.150  10.077  1.00  0.00     0.049 A 
ATOM     46  H   UNL     1       4.307  -4.424   9.919  1.00  0.00     0.167 HD
ATOM     47  C   UNL     1       8.602  -5.034   9.321  1.00  0.00     0.037 A 
ATOM     48  C   UNL     1       1.790  -5.075  10.942  1.00  0.00     0.037 A 
ATOM     49  C   UNL     1       8.222  -5.987  10.331  1.00  0.00     0.049 A 
ATOM     50  C   UNL     1       2.763  -6.038  11.570  1.00  0.00     0.074 A 
ATOM     51  C   UNL     1       9.027  -6.869  11.031  1.00  0.00     0.029 A 
ATOM     52  N   UNL     1       6.926  -6.184  10.783  1.00  0.00    -0.354 N 
ATOM     53  N   UNL     1       4.059  -6.135  11.400  1.00  0.00    -0.248 NA
ATOM     54  C   UNL     1       2.208  -7.016  12.516  1.00  0.00     0.031 C 
ATOM     55  C   UNL     1       8.210  -7.639  11.864  1.00  0.00     0.029 A 
ATOM     56  C   UNL     1       6.905  -7.192  11.733  1.00  0.00     0.049 A 
ATOM     57  H   UNL     1       6.137  -5.682  10.474  1.00  0.00     0.167 HD
ATOM     58  C   UNL     1       4.479  -7.157  12.241  1.00  0.00     0.074 A 
ATOM     59  C   UNL     1       3.301  -7.639  12.931  1.00  0.00     0.031 C 
ATOM     60  C   UNL     1       5.727  -7.652  12.424  1.00  0.00     0.037 A 
BRANCH  47  61
ATOM     61  C   UNL     1      10.042  -4.995   8.891  1.00  0.00     0.064 A 
ATOM     62  C   UNL     1      10.874  -3.908   9.200  1.00  0.00     0.173 A 
ATOM     63  C   UNL     1      10.610  -6.079   8.205  1.00  0.00     0.173 A 
ATOM     64  F   UNL     1      10.380  -2.840   9.845  1.00  0.00    -0.203 F 
ATOM     65  C   UNL     1      12.212  -3.896   8.813  1.00  0.00     0.198 A 
ATOM     66  C   UNL     1      11.956  -6.079   7.851  1.00  0.00     0.198 A 
ATOM     67  F   UNL     1       9.861  -7.147   7.890  1.00  0.00    -0.203 F 
ATOM     68  F   UNL     1      12.974  -2.825   9.076  1.00  0.00    -0.200 F 
ATOM     69  C   UNL     1      12.754  -4.985   8.148  1.00  0.00     0.200 A 
ATOM     70  F   UNL     1      12.482  -7.139   7.221  1.00  0.00    -0.200 F 
ATOM     71  F   UNL     1      14.045  -4.978   7.788  1.00  0.00    -0.200 F 
ENDBRANCH  47  61
BRANCH  48  72
ATOM     72  C   UNL     1       0.342  -5.129  11.282  1.00  0.00     0.064 A 
ATOM     73  C   UNL     1      -0.108  -4.811  12.572  1.00  0.00     0.173 A 
ATOM     74  C   UNL     1      -0.618  -5.517  10.336  1.00  0.00     0.173 A 
ATOM     75  F   UNL     1       0.772  -4.453  13.518  1.00  0.00    -0.203 F 
ATOM     76  C   UNL     1      -1.456  -4.909  12.909  1.00  0.00     0.198 A 
ATOM     77  C   UNL     1      -1.970  -5.582  10.665  1.00  0.00     0.198 A 
ATOM     78  F   UNL     1      -0.243  -5.826   9.085  1.00  0.00    -0.203 F 
ATOM     79  F   UNL     1      -1.850  -4.655  14.165  1.00  0.00    -0.200 F 
ATOM     80  C   UNL     1      -2.387  -5.289  11.955  1.00  0.00     0.200 A 
ATOM     81  F   UNL     1      -2.868  -5.933   9.735  1.00  0.00    -0.200 F 
ATOM     82  F   UNL     1      -3.684  -5.382  12.280  1.00  0.00    -0.200 F 
ENDBRANCH  48  72
BRANCH  60  83
ATOM     83  C   UNL     1       5.897  -8.740  13.446  1.00  0.00     0.064 A 
ATOM     84  C   UNL     1       5.404 -10.036  13.237  1.00  0.00     0.173 A 
ATOM     85  C   UNL     1       6.600  -8.489  14.635  1.00  0.00     0.173 A 
ATOM     86  F   UNL     1       4.713 -10.325  12.124  1.00  0.00    -0.203 F 
ATOM     87  C   UNL     1       5.584 -11.033  14.193  1.00  0.00     0.198 A 
ATOM     88  C   UNL     1       6.809  -9.497  15.571  1.00  0.00     0.198 A 
ATOM     89  F   UNL     1       7.100  -7.269  14.881  1.00  0.00    -0.203 F 
ATOM     90  F   UNL     1       5.058 -12.250  13.996  1.00  0.00    -0.200 F 
ATOM     91  C   UNL     1       6.293 -10.765  15.354  1.00  0.00     0.200 A 
ATOM     92  F   UNL     1       7.510  -9.240  16.685  1.00  0.00    -0.200 F 
ATOM     93  F   UNL     1       6.474 -11.728  16.268  1.00  0.00    -0.200 F 
ENDBRANCH  60  83
ENDBRANCH  34  35
ENDBRANCH  26  29
ENDBRANCH  24  25
ENDBRANCH  23  24
ENDBRANCH   1  23
TORSDOF 14
