REMARK SMILES Cc1cc(C(=O)NNC(=O)[C@H]2[C@@H](C(=O)NCCCNC(=O)c3ccc(-c4c5nc(c(-c6c(F)c(F)c(F)c(F)c6F)c6ccc([nH]6)c(-c6c(F)c(F)c(F)c(F)c6F)c6nc(c(-c7c(F)c(F)c(F)c(F)c7F)c7ccc4[nH]7)C=C6)C=C5)cc3)[C@@H]3C=C[C@H]2C3)cs1
REMARK SMILES IDX 16 1 15 2 13 3 14 4 12 6 11 7 88 8 85 9 87 10 89 11 86 12
REMARK SMILES IDX 9 13 8 14 10 16 7 17 5 18 6 19 4 21 1 22 2 23 3 24 91 25
REMARK SMILES IDX 90 26 17 27 18 28 19 29 20 30 21 32 22 33 23 34 84 35 24 36
REMARK SMILES IDX 83 37 25 38 26 39 27 40 77 41 28 42 82 43 76 44 78 45 29 46
REMARK SMILES IDX 81 47 75 48 74 49 30 51 62 52 42 53 61 54 43 55 46 56 60 57
REMARK SMILES IDX 79 58 44 59 45 60 59 62 80 63 47 64 31 65 32 66 40 67 33 68
REMARK SMILES IDX 34 69 38 70 41 71 35 72 36 73 39 74 37 75 63 76 64 77 72 78
REMARK SMILES IDX 65 79 66 80 70 81 73 82 67 83 68 84 71 85 69 86 48 87 49 88
REMARK SMILES IDX 57 89 50 90 51 91 55 92 58 93 52 94 53 95 56 96 54 97
REMARK H PARENT 15 5 8 15 7 20 19 31 78 50 46 61
REMARK Flexibility Score: inf
ROOT
ATOM      1  C   UNL     1      -2.689  -9.053  -3.568  1.00  0.00     0.117 C 
ENDROOT
BRANCH   1   2
ATOM      2  N   UNL     1      -2.897  -9.284  -2.152  1.00  0.00    -0.356 N 
ATOM      3  C   UNL     1      -2.554  -8.492  -1.097  1.00  0.00     0.224 C 
ATOM      4  O   UNL     1      -2.978  -8.797   0.017  1.00  0.00    -0.275 OA
ATOM      5  H   UNL     1      -3.347 -10.129  -1.920  1.00  0.00     0.163 HD
BRANCH   3   6
ATOM      6  C   UNL     1      -1.783  -7.207  -1.385  1.00  0.00     0.098 C 
ATOM      7  C   UNL     1      -1.127  -6.487  -0.148  1.00  0.00     0.100 C 
ATOM      8  C   UNL     1      -2.049  -5.248   0.015  1.00  0.00     0.025 C 
ATOM      9  C   UNL     1      -2.825  -6.168  -1.872  1.00  0.00     0.025 C 
ATOM     10  C   UNL     1      -1.675  -4.323  -1.141  1.00  0.00    -0.027 C 
ATOM     11  C   UNL     1      -3.403  -5.698  -0.533  1.00  0.00     0.017 C 
ATOM     12  C   UNL     1      -2.110  -4.901  -2.272  1.00  0.00    -0.027 C 
BRANCH   7  13
ATOM     13  C   UNL     1      -0.709  -7.465   0.943  1.00  0.00     0.242 C 
ATOM     14  N   UNL     1      -0.589  -7.146   2.259  1.00  0.00    -0.267 N 
ATOM     15  H   UNL     1      -0.312  -7.878   2.856  1.00  0.00     0.191 HD
ATOM     16  O   UNL     1      -0.255  -8.572   0.617  1.00  0.00    -0.273 OA
BRANCH  14  17
ATOM     17  N   UNL     1      -0.808  -5.926   2.862  1.00  0.00    -0.263 N 
ATOM     18  C   UNL     1      -0.763  -5.686   4.228  1.00  0.00     0.270 C 
ATOM     19  O   UNL     1      -0.732  -4.508   4.590  1.00  0.00    -0.267 OA
ATOM     20  H   UNL     1      -1.013  -5.162   2.275  1.00  0.00     0.191 HD
BRANCH  18  21
ATOM     21  C   UNL     1      -0.681  -6.785   5.204  1.00  0.00     0.052 A 
ATOM     22  C   UNL     1      -0.829 -10.393   6.414  1.00  0.00     0.056 C 
ATOM     23  C   UNL     1      -0.711  -8.921   6.207  1.00  0.00     0.002 A 
ATOM     24  C   UNL     1      -1.037  -8.176   5.088  1.00  0.00     0.029 A 
ATOM     25  S   UNL     1      -0.125  -7.932   7.467  1.00  0.00    -0.148 S 
ATOM     26  C   UNL     1      -0.231  -6.536   6.493  1.00  0.00     0.079 A 
ENDBRANCH  18  21
ENDBRANCH  14  17
ENDBRANCH   7  13
ENDBRANCH   3   6
ENDBRANCH   1   2
BRANCH   1  27
ATOM     27  C   UNL     1      -2.004 -10.226  -4.245  1.00  0.00     0.042 C 
BRANCH  27  28
ATOM     28  C   UNL     1      -2.772 -11.535  -4.128  1.00  0.00     0.118 C 
BRANCH  28  29
ATOM     29  N   UNL     1      -4.114 -11.460  -4.690  1.00  0.00    -0.352 N 
ATOM     30  C   UNL     1      -4.684 -12.175  -5.715  1.00  0.00     0.251 C 
ATOM     31  H   UNL     1      -4.704 -10.792  -4.271  1.00  0.00     0.163 HD
ATOM     32  O   UNL     1      -5.772 -11.841  -6.165  1.00  0.00    -0.269 OA
BRANCH  30  33
ATOM     33  C   UNL     1      -3.969 -13.333  -6.290  1.00  0.00     0.039 A 
ATOM     34  C   UNL     1      -3.963 -13.505  -7.675  1.00  0.00     0.014 A 
ATOM     35  C   UNL     1      -3.304 -14.245  -5.467  1.00  0.00     0.014 A 
ATOM     36  C   UNL     1      -3.230 -14.551  -8.237  1.00  0.00     0.010 A 
ATOM     37  C   UNL     1      -2.492 -15.220  -6.031  1.00  0.00     0.010 A 
ATOM     38  C   UNL     1      -2.455 -15.392  -7.422  1.00  0.00    -0.014 A 
BRANCH  38  39
ATOM     39  C   UNL     1      -1.616 -16.471  -8.002  1.00  0.00     0.031 A 
ATOM     40  C   UNL     1      -1.887 -17.907  -7.644  1.00  0.00     0.074 A 
ATOM     41  C   UNL     1      -0.582 -16.156  -8.806  1.00  0.00     0.049 A 
ATOM     42  N   UNL     1      -1.231 -18.986  -7.992  1.00  0.00    -0.248 NA
ATOM     43  C   UNL     1      -3.031 -18.165  -6.754  1.00  0.00     0.031 C 
ATOM     44  C   UNL     1      -0.190 -14.798  -9.190  1.00  0.00     0.029 A 
ATOM     45  N   UNL     1       0.336 -16.956  -9.440  1.00  0.00    -0.354 N 
ATOM     46  C   UNL     1      -1.876 -20.040  -7.359  1.00  0.00     0.074 A 
ATOM     47  C   UNL     1      -2.930 -19.470  -6.550  1.00  0.00     0.031 C 
ATOM     48  C   UNL     1       0.864 -14.862 -10.019  1.00  0.00     0.029 A 
ATOM     49  C   UNL     1       1.253 -16.258 -10.188  1.00  0.00     0.049 A 
ATOM     50  H   UNL     1       0.336 -17.938  -9.366  1.00  0.00     0.167 HD
ATOM     51  C   UNL     1      -1.634 -21.368  -7.468  1.00  0.00     0.037 A 
ATOM     52  C   UNL     1       2.293 -16.698 -10.921  1.00  0.00     0.037 A 
ATOM     53  C   UNL     1      -0.596 -21.934  -8.288  1.00  0.00     0.049 A 
ATOM     54  C   UNL     1       2.558 -18.179 -10.999  1.00  0.00     0.074 A 
ATOM     55  C   UNL     1      -0.290 -23.267  -8.495  1.00  0.00     0.029 A 
ATOM     56  N   UNL     1       0.307 -21.195  -9.038  1.00  0.00    -0.354 N 
ATOM     57  N   UNL     1       1.901 -19.170 -10.447  1.00  0.00    -0.248 NA
ATOM     58  C   UNL     1       3.706 -18.602 -11.812  1.00  0.00     0.031 C 
ATOM     59  C   UNL     1       0.829 -23.334  -9.330  1.00  0.00     0.029 A 
ATOM     60  C   UNL     1       1.182 -22.045  -9.695  1.00  0.00     0.049 A 
ATOM     61  H   UNL     1       0.324 -20.212  -9.095  1.00  0.00     0.167 HD
ATOM     62  C   UNL     1       2.528 -20.331 -10.878  1.00  0.00     0.074 A 
ATOM     63  C   UNL     1       3.609 -19.922 -11.750  1.00  0.00     0.031 C 
ATOM     64  C   UNL     1       2.238 -21.621 -10.578  1.00  0.00     0.037 A 
BRANCH  51  65
ATOM     65  C   UNL     1      -2.517 -22.303  -6.691  1.00  0.00     0.064 A 
ATOM     66  C   UNL     1      -3.870 -22.478  -7.021  1.00  0.00     0.173 A 
ATOM     67  C   UNL     1      -1.996 -23.067  -5.636  1.00  0.00     0.173 A 
ATOM     68  F   UNL     1      -4.422 -21.763  -8.013  1.00  0.00    -0.203 F 
ATOM     69  C   UNL     1      -4.674 -23.363  -6.307  1.00  0.00     0.198 A 
ATOM     70  C   UNL     1      -2.795 -23.976  -4.947  1.00  0.00     0.198 A 
ATOM     71  F   UNL     1      -0.708 -22.943  -5.282  1.00  0.00    -0.203 F 
ATOM     72  F   UNL     1      -5.975 -23.476  -6.609  1.00  0.00    -0.200 F 
ATOM     73  C   UNL     1      -4.134 -24.118  -5.277  1.00  0.00     0.200 A 
ATOM     74  F   UNL     1      -2.267 -24.716  -3.962  1.00  0.00    -0.200 F 
ATOM     75  F   UNL     1      -4.905 -24.979  -4.600  1.00  0.00    -0.200 F 
ENDBRANCH  51  65
BRANCH  52  76
ATOM     76  C   UNL     1       3.155 -15.736 -11.660  1.00  0.00     0.064 A 
ATOM     77  C   UNL     1       3.186 -15.726 -13.062  1.00  0.00     0.173 A 
ATOM     78  C   UNL     1       3.993 -14.835 -10.986  1.00  0.00     0.173 A 
ATOM     79  F   UNL     1       2.417 -16.581 -13.754  1.00  0.00    -0.203 F 
ATOM     80  C   UNL     1       4.048 -14.882 -13.760  1.00  0.00     0.198 A 
ATOM     81  C   UNL     1       4.829 -13.966 -11.685  1.00  0.00     0.198 A 
ATOM     82  F   UNL     1       3.999 -14.796  -9.645  1.00  0.00    -0.203 F 
ATOM     83  F   UNL     1       4.104 -14.943 -15.097  1.00  0.00    -0.200 F 
ATOM     84  C   UNL     1       4.866 -14.001 -13.071  1.00  0.00     0.200 A 
ATOM     85  F   UNL     1       5.605 -13.104 -11.016  1.00  0.00    -0.200 F 
ATOM     86  F   UNL     1       5.699 -13.193 -13.741  1.00  0.00    -0.200 F 
ENDBRANCH  52  76
BRANCH  64  87
ATOM     87  C   UNL     1       3.060 -22.687 -11.247  1.00  0.00     0.064 A 
ATOM     88  C   UNL     1       4.409 -22.896 -10.924  1.00  0.00     0.173 A 
ATOM     89  C   UNL     1       2.475 -23.532 -12.203  1.00  0.00     0.173 A 
ATOM     90  F   UNL     1       5.019 -22.107 -10.026  1.00  0.00    -0.203 F 
ATOM     91  C   UNL     1       5.151 -23.888 -11.559  1.00  0.00     0.198 A 
ATOM     92  C   UNL     1       3.210 -24.547 -12.808  1.00  0.00     0.198 A 
ATOM     93  F   UNL     1       1.186 -23.382 -12.542  1.00  0.00    -0.203 F 
ATOM     94  F   UNL     1       6.453 -24.030 -11.278  1.00  0.00    -0.200 F 
ATOM     95  C   UNL     1       4.549 -24.717 -12.494  1.00  0.00     0.200 A 
ATOM     96  F   UNL     1       2.622 -25.359 -13.698  1.00  0.00    -0.200 F 
ATOM     97  F   UNL     1       5.264 -25.676 -13.099  1.00  0.00    -0.200 F 
ENDBRANCH  64  87
ENDBRANCH  38  39
ENDBRANCH  30  33
ENDBRANCH  28  29
ENDBRANCH  27  28
ENDBRANCH   1  27
TORSDOF 13
