REMARK SMILES Cc1nc(C(C)C)[nH]c(=O)c1C(=O)N(C)CC(=O)NCCCNC(=O)c1ccc(-c2c3nc(c(-c4c(F)c(F)c(F)c(F)c4F)c4ccc([nH]4)c(-c4c(F)c(F)c(F)c(F)c4F)c4nc(c(-c5c(F)c(F)c(F)c(F)c5F)c5ccc2[nH]5)C=C4)C=C3)cc1
REMARK SMILES IDX 20 1 19 2 17 3 18 4 16 6 14 7 15 8 12 9 13 10 11 11 1 12
REMARK SMILES IDX 2 13 3 14 4 15 9 16 8 17 10 18 5 20 6 21 7 22 21 23 22 24
REMARK SMILES IDX 23 25 24 26 25 28 26 29 27 30 88 31 28 32 87 33 29 34 30 35
REMARK SMILES IDX 31 36 81 37 32 38 86 39 80 40 82 41 33 42 85 43 79 44 78 45
REMARK SMILES IDX 34 47 66 48 46 49 65 50 47 51 50 52 64 53 83 54 48 55 49 56
REMARK SMILES IDX 63 58 84 59 51 60 35 61 36 62 44 63 37 64 38 65 42 66 45 67
REMARK SMILES IDX 39 68 40 69 43 70 41 71 67 72 68 73 76 74 69 75 70 76 74 77
REMARK SMILES IDX 77 78 71 79 72 80 75 81 73 82 52 83 53 84 61 85 54 86 55 87
REMARK SMILES IDX 59 88 62 89 56 90 57 91 60 92 58 93
REMARK H PARENT 19 5 8 19 23 27 82 46 50 57
REMARK Flexibility Score: inf
ROOT
ATOM      1  C   UNL     1      -2.315  -4.458  -2.749  1.00  0.00     0.117 C 
ENDROOT
BRANCH   1   2
ATOM      2  N   UNL     1      -1.081  -5.180  -2.550  1.00  0.00    -0.354 N 
ATOM      3  C   UNL     1      -0.395  -5.417  -1.397  1.00  0.00     0.239 C 
ATOM      4  O   UNL     1       0.501  -6.267  -1.445  1.00  0.00    -0.273 OA
ATOM      5  H   UNL     1      -0.676  -5.556  -3.365  1.00  0.00     0.163 HD
BRANCH   3   6
ATOM      6  C   UNL     1      -0.872  -4.852  -0.047  1.00  0.00     0.219 C 
BRANCH   6   7
ATOM      7  N   UNL     1      -1.261  -3.435   0.106  1.00  0.00    -0.332 N 
ATOM      8  C   UNL     1      -2.395  -3.199   0.984  1.00  0.00     0.147 C 
BRANCH   7   9
ATOM      9  C   UNL     1      -0.321  -2.497  -0.307  1.00  0.00     0.261 C 
ATOM     10  O   UNL     1       0.645  -2.875  -0.979  1.00  0.00    -0.269 OA
BRANCH   9  11
ATOM     11  C   UNL     1      -0.405  -1.018  -0.026  1.00  0.00     0.126 A 
ATOM     12  C   UNL     1      -2.873  -0.576  -0.477  1.00  0.00     0.068 C 
ATOM     13  C   UNL     1      -1.465  -0.179  -0.123  1.00  0.00     0.058 A 
ATOM     14  N   UNL     1      -1.386   1.198  -0.005  1.00  0.00    -0.239 NA
ATOM     15  C   UNL     1      -0.224   1.758   0.024  1.00  0.00     0.111 A 
ATOM     16  C   UNL     1       0.909  -0.323   0.191  1.00  0.00     0.264 A 
ATOM     17  N   UNL     1       0.921   1.034   0.057  1.00  0.00    -0.310 N 
ATOM     18  O   UNL     1       1.941  -0.903   0.517  1.00  0.00    -0.269 OA
ATOM     19  H   UNL     1       1.784   1.501  -0.017  1.00  0.00     0.171 HD
BRANCH  15  20
ATOM     20  C   UNL     1      -0.114   3.276   0.015  1.00  0.00     0.049 C 
ATOM     21  C   UNL     1       0.637   3.793   1.237  1.00  0.00     0.016 C 
ATOM     22  C   UNL     1       0.533   3.766  -1.279  1.00  0.00     0.016 C 
ENDBRANCH  15  20
ENDBRANCH   9  11
ENDBRANCH   7   9
ENDBRANCH   6   7
ENDBRANCH   3   6
ENDBRANCH   1   2
BRANCH   1  23
ATOM     23  C   UNL     1      -2.098  -3.096  -3.392  1.00  0.00     0.042 C 
BRANCH  23  24
ATOM     24  C   UNL     1      -1.518  -3.155  -4.799  1.00  0.00     0.118 C 
BRANCH  24  25
ATOM     25  N   UNL     1      -2.425  -3.771  -5.757  1.00  0.00    -0.352 N 
ATOM     26  C   UNL     1      -2.893  -3.291  -6.957  1.00  0.00     0.251 C 
ATOM     27  H   UNL     1      -2.753  -4.665  -5.508  1.00  0.00     0.163 HD
ATOM     28  O   UNL     1      -3.788  -3.881  -7.548  1.00  0.00    -0.269 OA
BRANCH  26  29
ATOM     29  C   UNL     1      -2.330  -2.046  -7.524  1.00  0.00     0.039 A 
ATOM     30  C   UNL     1      -3.198  -1.102  -8.081  1.00  0.00     0.014 A 
ATOM     31  C   UNL     1      -0.953  -1.813  -7.516  1.00  0.00     0.014 A 
ATOM     32  C   UNL     1      -2.690   0.105  -8.568  1.00  0.00     0.010 A 
ATOM     33  C   UNL     1      -0.458  -0.580  -7.926  1.00  0.00     0.010 A 
ATOM     34  C   UNL     1      -1.320   0.390  -8.461  1.00  0.00    -0.014 A 
BRANCH  34  35
ATOM     35  C   UNL     1      -0.751   1.683  -8.921  1.00  0.00     0.031 A 
ATOM     36  C   UNL     1       0.259   1.694 -10.036  1.00  0.00     0.074 A 
ATOM     37  C   UNL     1      -1.079   2.827  -8.291  1.00  0.00     0.049 A 
ATOM     38  N   UNL     1       0.982   2.686 -10.492  1.00  0.00    -0.248 NA
ATOM     39  C   UNL     1       0.510   0.410 -10.712  1.00  0.00     0.031 C 
ATOM     40  C   UNL     1      -2.028   2.944  -7.183  1.00  0.00     0.029 A 
ATOM     41  N   UNL     1      -0.634   4.112  -8.482  1.00  0.00    -0.354 N 
ATOM     42  C   UNL     1       1.777   2.143 -11.493  1.00  0.00     0.074 A 
ATOM     43  C   UNL     1       1.494   0.726 -11.540  1.00  0.00     0.031 C 
ATOM     44  C   UNL     1      -2.104   4.230  -6.802  1.00  0.00     0.029 A 
ATOM     45  C   UNL     1      -1.175   5.020  -7.603  1.00  0.00     0.049 A 
ATOM     46  H   UNL     1       0.012   4.360  -9.182  1.00  0.00     0.167 HD
ATOM     47  C   UNL     1       2.646   2.776 -12.317  1.00  0.00     0.037 A 
ATOM     48  C   UNL     1      -0.931   6.336  -7.450  1.00  0.00     0.037 A 
ATOM     49  C   UNL     1       2.912   4.189 -12.278  1.00  0.00     0.049 A 
ATOM     50  C   UNL     1       0.075   7.004  -8.353  1.00  0.00     0.074 A 
ATOM     51  C   UNL     1       3.760   4.930 -13.084  1.00  0.00     0.029 A 
ATOM     52  N   UNL     1       2.328   5.077 -11.387  1.00  0.00    -0.354 N 
ATOM     53  N   UNL     1       0.791   6.489  -9.323  1.00  0.00    -0.248 NA
ATOM     54  C   UNL     1       0.304   8.441  -8.141  1.00  0.00     0.031 C 
ATOM     55  C   UNL     1       3.722   6.258 -12.651  1.00  0.00     0.029 A 
ATOM     56  C   UNL     1       2.806   6.357 -11.617  1.00  0.00     0.049 A 
ATOM     57  H   UNL     1       1.673   4.834 -10.694  1.00  0.00     0.167 HD
ATOM     58  C   UNL     1       1.513   7.544  -9.867  1.00  0.00     0.074 A 
ATOM     59  C   UNL     1       1.146   8.729  -9.123  1.00  0.00     0.031 C 
ATOM     60  C   UNL     1       2.399   7.532 -10.892  1.00  0.00     0.037 A 
BRANCH  47  61
ATOM     61  C   UNL     1       3.365   1.947 -13.342  1.00  0.00     0.064 A 
ATOM     62  C   UNL     1       2.688   1.390 -14.438  1.00  0.00     0.173 A 
ATOM     63  C   UNL     1       4.753   1.756 -13.262  1.00  0.00     0.173 A 
ATOM     64  F   UNL     1       1.359   1.534 -14.555  1.00  0.00    -0.203 F 
ATOM     65  C   UNL     1       3.370   0.653 -15.402  1.00  0.00     0.198 A 
ATOM     66  C   UNL     1       5.436   1.046 -14.247  1.00  0.00     0.198 A 
ATOM     67  F   UNL     1       5.450   2.273 -12.240  1.00  0.00    -0.203 F 
ATOM     68  F   UNL     1       2.694   0.094 -16.416  1.00  0.00    -0.200 F 
ATOM     69  C   UNL     1       4.744   0.490 -15.312  1.00  0.00     0.200 A 
ATOM     70  F   UNL     1       6.766   0.904 -14.167  1.00  0.00    -0.200 F 
ATOM     71  F   UNL     1       5.400  -0.205 -16.250  1.00  0.00    -0.200 F 
ENDBRANCH  47  61
BRANCH  48  72
ATOM     72  C   UNL     1      -1.649   7.123  -6.411  1.00  0.00     0.064 A 
ATOM     73  C   UNL     1      -2.542   8.143  -6.773  1.00  0.00     0.173 A 
ATOM     74  C   UNL     1      -1.425   6.912  -5.043  1.00  0.00     0.173 A 
ATOM     75  F   UNL     1      -2.777   8.399  -8.069  1.00  0.00    -0.203 F 
ATOM     76  C   UNL     1      -3.148   8.947  -5.809  1.00  0.00     0.198 A 
ATOM     77  C   UNL     1      -2.059   7.693  -4.079  1.00  0.00     0.198 A 
ATOM     78  F   UNL     1      -0.586   5.946  -4.639  1.00  0.00    -0.203 F 
ATOM     79  F   UNL     1      -3.940   9.960  -6.188  1.00  0.00    -0.200 F 
ATOM     80  C   UNL     1      -2.908   8.720  -4.463  1.00  0.00     0.200 A 
ATOM     81  F   UNL     1      -1.836   7.460  -2.779  1.00  0.00    -0.200 F 
ATOM     82  F   UNL     1      -3.483   9.499  -3.537  1.00  0.00    -0.200 F 
ENDBRANCH  48  72
BRANCH  60  83
ATOM     83  C   UNL     1       2.975   8.848 -11.329  1.00  0.00     0.064 A 
ATOM     84  C   UNL     1       3.910   9.546 -10.551  1.00  0.00     0.173 A 
ATOM     85  C   UNL     1       2.627   9.387 -12.578  1.00  0.00     0.173 A 
ATOM     86  F   UNL     1       4.266   9.081  -9.344  1.00  0.00    -0.203 F 
ATOM     87  C   UNL     1       4.456  10.747 -10.997  1.00  0.00     0.198 A 
ATOM     88  C   UNL     1       3.200  10.569 -13.035  1.00  0.00     0.198 A 
ATOM     89  F   UNL     1       1.743   8.754 -13.365  1.00  0.00    -0.203 F 
ATOM     90  F   UNL     1       5.312  11.421 -10.217  1.00  0.00    -0.200 F 
ATOM     91  C   UNL     1       4.109  11.252 -12.242  1.00  0.00     0.200 A 
ATOM     92  F   UNL     1       2.876  11.046 -14.245  1.00  0.00    -0.200 F 
ATOM     93  F   UNL     1       4.647  12.400 -12.674  1.00  0.00    -0.200 F 
ENDBRANCH  60  83
ENDBRANCH  34  35
ENDBRANCH  26  29
ENDBRANCH  24  25
ENDBRANCH  23  24
ENDBRANCH   1  23
TORSDOF 14
