REMARK SMILES O=C(CCc1cnc(C2CCCCC2)o1)NCCCNC(=O)c1ccc(-c2c3nc(c(-c4c(F)c(F)c(F)c(F)c4F)c4ccc([nH]4)c(-c4c(F)c(F)c(F)c(F)c4F)c4nc(c(-c5c(F)c(F)c(F)c(F)c5F)c5ccc2[nH]5)C=C4)C=C3)cc1
REMARK SMILES IDX 17 1 16 2 1 3 2 4 3 6 4 7 5 8 6 9 15 10 7 11 8 12 9 13 10 14
REMARK SMILES IDX 14 15 11 16 13 17 12 18 18 19 19 20 20 21 21 22 22 24 23 25
REMARK SMILES IDX 24 26 85 27 25 28 84 29 26 30 27 31 28 32 78 33 29 34 83 35
REMARK SMILES IDX 77 36 79 37 30 38 82 39 76 40 75 41 31 43 63 44 43 45 62 46
REMARK SMILES IDX 44 47 47 48 61 49 80 50 45 51 46 52 60 54 81 55 48 56 32 57
REMARK SMILES IDX 33 58 41 59 34 60 35 61 39 62 42 63 36 64 37 65 40 66 38 67
REMARK SMILES IDX 64 68 65 69 73 70 66 71 67 72 71 73 74 74 68 75 69 76 72 77
REMARK SMILES IDX 70 78 49 79 50 80 58 81 51 82 52 83 56 84 59 85 53 86 54 87
REMARK SMILES IDX 57 88 55 89
REMARK H PARENT 16 5 20 23 79 42 47 53
REMARK Flexibility Score: inf
ROOT
ATOM      1  C   UNL     1       1.889  -1.430  -1.869  1.00  0.00     0.117 C 
ENDROOT
BRANCH   1   2
ATOM      2  N   UNL     1       2.704  -0.653  -0.958  1.00  0.00    -0.356 N 
ATOM      3  O   UNL     1       0.964   0.087   0.345  1.00  0.00    -0.275 OA
ATOM      4  C   UNL     1       2.167   0.034   0.108  1.00  0.00     0.220 C 
ATOM      5  H   UNL     1       3.676  -0.614  -1.106  1.00  0.00     0.163 HD
BRANCH   4   6
ATOM      6  C   UNL     1       3.176   0.766   0.969  1.00  0.00     0.108 C 
BRANCH   6   7
ATOM      7  C   UNL     1       4.039  -0.180   1.799  1.00  0.00     0.087 C 
BRANCH   7   8
ATOM      8  C   UNL     1       5.169  -0.743   1.020  1.00  0.00     0.125 A 
ATOM      9  C   UNL     1       6.266  -0.208   0.386  1.00  0.00     0.157 A 
ATOM     10  O   UNL     1       5.184  -2.094   0.811  1.00  0.00    -0.445 OA
ATOM     11  N   UNL     1       6.966  -1.199  -0.247  1.00  0.00    -0.222 NA
ATOM     12  C   UNL     1       6.312  -2.302   0.062  1.00  0.00     0.197 A 
BRANCH  12  13
ATOM     13  C   UNL     1       6.624  -3.715  -0.320  1.00  0.00     0.076 C 
ATOM     14  C   UNL     1       6.324  -3.931  -1.808  1.00  0.00     0.013 C 
ATOM     15  C   UNL     1       8.083  -4.053   0.019  1.00  0.00     0.013 C 
ATOM     16  C   UNL     1       6.770  -5.302  -2.311  1.00  0.00     0.001 C 
ATOM     17  C   UNL     1       8.480  -5.440  -0.479  1.00  0.00     0.001 C 
ATOM     18  C   UNL     1       8.228  -5.582  -1.975  1.00  0.00     0.000 C 
ENDBRANCH  12  13
ENDBRANCH   7   8
ENDBRANCH   6   7
ENDBRANCH   4   6
ENDBRANCH   1   2
BRANCH   1  19
ATOM     19  C   UNL     1       2.102  -1.033  -3.327  1.00  0.00     0.042 C 
BRANCH  19  20
ATOM     20  C   UNL     1       3.488  -1.351  -3.882  1.00  0.00     0.118 C 
BRANCH  20  21
ATOM     21  N   UNL     1       3.766  -2.776  -3.956  1.00  0.00    -0.352 N 
ATOM     22  C   UNL     1       4.489  -3.501  -4.873  1.00  0.00     0.251 C 
ATOM     23  H   UNL     1       3.372  -3.310  -3.229  1.00  0.00     0.163 HD
ATOM     24  O   UNL     1       4.529  -4.723  -4.770  1.00  0.00    -0.269 OA
BRANCH  22  25
ATOM     25  C   UNL     1       5.148  -2.843  -6.025  1.00  0.00     0.039 A 
ATOM     26  C   UNL     1       5.074  -3.488  -7.265  1.00  0.00     0.014 A 
ATOM     27  C   UNL     1       5.783  -1.603  -5.925  1.00  0.00     0.014 A 
ATOM     28  C   UNL     1       5.502  -2.832  -8.419  1.00  0.00     0.010 A 
ATOM     29  C   UNL     1       6.150  -0.920  -7.084  1.00  0.00     0.010 A 
ATOM     30  C   UNL     1       5.967  -1.511  -8.342  1.00  0.00    -0.014 A 
BRANCH  30  31
ATOM     31  C   UNL     1       6.134  -0.696  -9.570  1.00  0.00     0.031 A 
ATOM     32  C   UNL     1       7.482  -0.203  -9.995  1.00  0.00     0.074 A 
ATOM     33  C   UNL     1       5.030  -0.329 -10.252  1.00  0.00     0.049 A 
ATOM     34  N   UNL     1       7.794   0.590 -10.990  1.00  0.00    -0.248 NA
ATOM     35  C   UNL     1       8.630  -0.638  -9.187  1.00  0.00     0.031 C 
ATOM     36  C   UNL     1       3.658  -0.707  -9.902  1.00  0.00     0.029 A 
ATOM     37  N   UNL     1       4.880   0.454 -11.369  1.00  0.00    -0.354 N 
ATOM     38  C   UNL     1       9.169   0.758 -10.921  1.00  0.00     0.074 A 
ATOM     39  C   UNL     1       9.629   0.012  -9.768  1.00  0.00     0.031 C 
ATOM     40  C   UNL     1       2.811  -0.172 -10.793  1.00  0.00     0.029 A 
ATOM     41  C   UNL     1       3.572   0.620 -11.753  1.00  0.00     0.049 A 
ATOM     42  H   UNL     1       5.638   0.859 -11.849  1.00  0.00     0.167 HD
ATOM     43  C   UNL     1       9.972   1.461 -11.755  1.00  0.00     0.037 A 
ATOM     44  C   UNL     1       3.042   1.339 -12.760  1.00  0.00     0.037 A 
ATOM     45  C   UNL     1       9.509   2.188 -12.908  1.00  0.00     0.049 A 
ATOM     46  C   UNL     1       3.957   2.107 -13.670  1.00  0.00     0.074 A 
ATOM     47  C   UNL     1      10.252   2.892 -13.841  1.00  0.00     0.029 A 
ATOM     48  N   UNL     1       8.179   2.308 -13.284  1.00  0.00    -0.354 N 
ATOM     49  N   UNL     1       5.262   2.209 -13.630  1.00  0.00    -0.248 NA
ATOM     50  C   UNL     1       3.327   2.859 -14.764  1.00  0.00     0.031 C 
ATOM     51  C   UNL     1       9.368   3.465 -14.763  1.00  0.00     0.029 A 
ATOM     52  C   UNL     1       8.079   3.087 -14.426  1.00  0.00     0.049 A 
ATOM     53  H   UNL     1       7.419   1.900 -12.810  1.00  0.00     0.167 HD
ATOM     54  C   UNL     1       5.614   3.011 -14.706  1.00  0.00     0.074 A 
ATOM     55  C   UNL     1       4.384   3.365 -15.385  1.00  0.00     0.031 C 
ATOM     56  C   UNL     1       6.847   3.415 -15.096  1.00  0.00     0.037 A 
BRANCH  43  57
ATOM     57  C   UNL     1      11.440   1.480 -11.448  1.00  0.00     0.064 A 
ATOM     58  C   UNL     1      12.245   0.351 -11.658  1.00  0.00     0.173 A 
ATOM     59  C   UNL     1      12.055   2.649 -10.977  1.00  0.00     0.173 A 
ATOM     60  F   UNL     1      11.702  -0.794 -12.098  1.00  0.00    -0.203 F 
ATOM     61  C   UNL     1      13.610   0.385 -11.385  1.00  0.00     0.198 A 
ATOM     62  C   UNL     1      13.424   2.687 -10.728  1.00  0.00     0.198 A 
ATOM     63  F   UNL     1      11.329   3.757 -10.766  1.00  0.00    -0.203 F 
ATOM     64  F   UNL     1      14.354  -0.717 -11.555  1.00  0.00    -0.200 F 
ATOM     65  C   UNL     1      14.199   1.554 -10.926  1.00  0.00     0.200 A 
ATOM     66  F   UNL     1      13.994   3.820 -10.294  1.00  0.00    -0.200 F 
ATOM     67  F   UNL     1      15.514   1.587 -10.668  1.00  0.00    -0.200 F 
ENDBRANCH  43  57
BRANCH  44  68
ATOM     68  C   UNL     1       1.572   1.343 -12.969  1.00  0.00     0.064 A 
ATOM     69  C   UNL     1       1.000   0.669 -14.057  1.00  0.00     0.173 A 
ATOM     70  C   UNL     1       0.710   2.005 -12.083  1.00  0.00     0.173 A 
ATOM     71  F   UNL     1       1.787   0.038 -14.940  1.00  0.00    -0.203 F 
ATOM     72  C   UNL     1      -0.378   0.667 -14.258  1.00  0.00     0.198 A 
ATOM     73  C   UNL     1      -0.670   1.982 -12.272  1.00  0.00     0.198 A 
ATOM     74  F   UNL     1       1.208   2.659 -11.024  1.00  0.00    -0.203 F 
ATOM     75  F   UNL     1      -0.896   0.044 -15.325  1.00  0.00    -0.200 F 
ATOM     76  C   UNL     1      -1.213   1.319 -13.362  1.00  0.00     0.200 A 
ATOM     77  F   UNL     1      -1.475   2.602 -11.397  1.00  0.00    -0.200 F 
ATOM     78  F   UNL     1      -2.539   1.311 -13.553  1.00  0.00    -0.200 F 
ENDBRANCH  44  68
BRANCH  56  79
ATOM     79  C   UNL     1       6.932   4.254 -16.335  1.00  0.00     0.064 A 
ATOM     80  C   UNL     1       6.574   5.609 -16.329  1.00  0.00     0.173 A 
ATOM     81  C   UNL     1       7.429   3.706 -17.527  1.00  0.00     0.173 A 
ATOM     82  F   UNL     1       6.077   6.171 -15.217  1.00  0.00    -0.203 F 
ATOM     83  C   UNL     1       6.698   6.384 -17.479  1.00  0.00     0.198 A 
ATOM     84  C   UNL     1       7.574   4.489 -18.667  1.00  0.00     0.198 A 
ATOM     85  F   UNL     1       7.788   2.414 -17.579  1.00  0.00    -0.203 F 
ATOM     86  F   UNL     1       6.320   7.670 -17.462  1.00  0.00    -0.200 F 
ATOM     87  C   UNL     1       7.205   5.826 -18.643  1.00  0.00     0.200 A 
ATOM     88  F   UNL     1       8.071   3.952 -19.790  1.00  0.00    -0.200 F 
ATOM     89  F   UNL     1       7.334   6.577 -19.746  1.00  0.00    -0.200 F 
ENDBRANCH  56  79
ENDBRANCH  30  31
ENDBRANCH  22  25
ENDBRANCH  20  21
ENDBRANCH  19  20
ENDBRANCH   1  19
TORSDOF 13
