REMARK SMILES CCc1n[nH]c(C(=O)N[C@@]2(C(=O)NCCCNC(=O)c3ccc(-c4c5nc(c(-c6c(F)c(F)c(F)c(F)c6F)c6ccc([nH]6)c(-c6c(F)c(F)c(F)c(F)c6F)c6nc(c(-c7c(F)c(F)c(F)c(F)c7F)c7ccc4[nH]7)C=C6)C=C5)cc3)CCCC[C@H]2C)n1
REMARK SMILES IDX 14 1 13 2 11 3 12 4 10 6 83 7 87 8 84 9 86 10 88 11 85 12
REMARK SMILES IDX 9 13 7 14 8 15 6 17 3 18 4 19 89 20 5 21 2 23 1 24 15 25
REMARK SMILES IDX 16 26 17 27 18 28 19 30 20 31 21 32 82 33 22 34 81 35 23 36
REMARK SMILES IDX 24 37 25 38 75 39 26 40 80 41 74 42 76 43 27 44 79 45 73 46
REMARK SMILES IDX 72 47 28 49 60 50 40 51 59 52 41 53 44 54 58 55 77 56 42 57
REMARK SMILES IDX 43 58 57 60 78 61 45 62 29 63 30 64 38 65 31 66 32 67 36 68
REMARK SMILES IDX 39 69 33 70 34 71 37 72 35 73 61 74 62 75 70 76 63 77 64 78
REMARK SMILES IDX 68 79 71 80 65 81 66 82 69 83 67 84 46 85 47 86 55 87 48 88
REMARK SMILES IDX 49 89 53 90 56 91 50 92 51 93 54 94 52 95
REMARK H PARENT 13 5 9 16 5 22 17 29 76 48 44 59
REMARK Flexibility Score: inf
ROOT
ATOM      1  C   UNL     1       0.173   4.355   0.125  1.00  0.00     0.117 C 
ENDROOT
BRANCH   1   2
ATOM      2  N   UNL     1       1.240   4.507   1.092  1.00  0.00    -0.354 N 
ATOM      3  C   UNL     1       1.408   4.046   2.360  1.00  0.00     0.246 C 
ATOM      4  O   UNL     1       2.456   4.413   2.910  1.00  0.00    -0.272 OA
ATOM      5  H   UNL     1       1.993   5.052   0.767  1.00  0.00     0.163 HD
BRANCH   3   6
ATOM      6  C   UNL     1       0.323   3.236   3.152  1.00  0.00     0.122 C 
ATOM      7  C   UNL     1      -0.287   2.066   2.363  1.00  0.00     0.039 C 
ATOM      8  C   UNL     1      -0.884   4.178   3.512  1.00  0.00     0.021 C 
ATOM      9  C   UNL     1      -1.279   1.245   3.168  1.00  0.00     0.003 C 
ATOM     10  C   UNL     1      -2.017   3.408   4.234  1.00  0.00     0.006 C 
ATOM     11  C   UNL     1      -0.517   5.426   4.324  1.00  0.00     0.011 C 
ATOM     12  C   UNL     1      -2.463   2.143   3.499  1.00  0.00     0.000 C 
BRANCH   6  13
ATOM     13  N   UNL     1       1.025   2.814   4.413  1.00  0.00    -0.335 N 
ATOM     14  C   UNL     1       1.794   1.741   4.810  1.00  0.00     0.289 C 
ATOM     15  O   UNL     1       2.265   1.797   5.949  1.00  0.00    -0.266 OA
ATOM     16  H   UNL     1       0.906   3.470   5.138  1.00  0.00     0.165 HD
BRANCH  14  17
ATOM     17  C   UNL     1       1.914   0.542   4.019  1.00  0.00     0.214 A 
ATOM     18  C   UNL     1       1.673  -0.894   2.489  1.00  0.00     0.151 A 
ATOM     19  N   UNL     1       1.596  -1.634   3.604  1.00  0.00    -0.158 NA
ATOM     20  N   UNL     1       2.004   0.419   2.711  1.00  0.00    -0.207 NA
ATOM     21  N   UNL     1       1.843  -0.713   4.555  1.00  0.00    -0.255 N 
ATOM     22  H   UNL     1       1.957  -0.917   5.511  1.00  0.00     0.192 HD
BRANCH  18  23
ATOM     23  C   UNL     1       1.174  -1.396   1.175  1.00  0.00     0.076 C 
ATOM     24  C   UNL     1       1.407  -0.467  -0.010  1.00  0.00     0.012 C 
ENDBRANCH  18  23
ENDBRANCH  14  17
ENDBRANCH   6  13
ENDBRANCH   3   6
ENDBRANCH   1   2
BRANCH   1  25
ATOM     25  C   UNL     1      -0.403   5.677  -0.339  1.00  0.00     0.042 C 
BRANCH  25  26
ATOM     26  C   UNL     1       0.558   6.495  -1.176  1.00  0.00     0.118 C 
BRANCH  26  27
ATOM     27  N   UNL     1       0.912   5.830  -2.424  1.00  0.00    -0.352 N 
ATOM     28  C   UNL     1       0.508   6.072  -3.716  1.00  0.00     0.251 C 
ATOM     29  H   UNL     1       1.546   5.084  -2.326  1.00  0.00     0.163 HD
ATOM     30  O   UNL     1       0.746   5.251  -4.592  1.00  0.00    -0.269 OA
BRANCH  28  31
ATOM     31  C   UNL     1      -0.237   7.307  -4.044  1.00  0.00     0.039 A 
ATOM     32  C   UNL     1      -1.277   7.248  -4.976  1.00  0.00     0.014 A 
ATOM     33  C   UNL     1       0.088   8.522  -3.443  1.00  0.00     0.014 A 
ATOM     34  C   UNL     1      -2.037   8.390  -5.236  1.00  0.00     0.010 A 
ATOM     35  C   UNL     1      -0.745   9.621  -3.603  1.00  0.00     0.010 A 
ATOM     36  C   UNL     1      -1.810   9.572  -4.513  1.00  0.00    -0.014 A 
BRANCH  36  37
ATOM     37  C   UNL     1      -2.660  10.775  -4.698  1.00  0.00     0.031 A 
ATOM     38  C   UNL     1      -2.043  12.070  -5.154  1.00  0.00     0.074 A 
ATOM     39  C   UNL     1      -3.968  10.721  -4.382  1.00  0.00     0.049 A 
ATOM     40  N   UNL     1      -2.598  13.247  -5.295  1.00  0.00    -0.248 NA
ATOM     41  C   UNL     1      -0.602  12.049  -5.458  1.00  0.00     0.031 C 
ATOM     42  C   UNL     1      -4.668   9.540  -3.873  1.00  0.00     0.029 A 
ATOM     43  N   UNL     1      -4.942  11.687  -4.432  1.00  0.00    -0.354 N 
ATOM     44  C   UNL     1      -1.575  14.102  -5.684  1.00  0.00     0.074 A 
ATOM     45  C   UNL     1      -0.354  13.328  -5.694  1.00  0.00     0.031 C 
ATOM     46  C   UNL     1      -5.963   9.842  -3.686  1.00  0.00     0.029 A 
ATOM     47  C   UNL     1      -6.175  11.247  -4.015  1.00  0.00     0.049 A 
ATOM     48  H   UNL     1      -4.773  12.607  -4.737  1.00  0.00     0.167 HD
ATOM     49  C   UNL     1      -1.651  15.409  -6.030  1.00  0.00     0.037 A 
ATOM     50  C   UNL     1      -7.343  11.908  -3.900  1.00  0.00     0.037 A 
ATOM     51  C   UNL     1      -2.875  16.166  -6.046  1.00  0.00     0.049 A 
ATOM     52  C   UNL     1      -7.400  13.362  -4.286  1.00  0.00     0.074 A 
ATOM     53  C   UNL     1      -3.074  17.474  -6.448  1.00  0.00     0.029 A 
ATOM     54  N   UNL     1      -4.109  15.680  -5.637  1.00  0.00    -0.354 N 
ATOM     55  N   UNL     1      -6.442  14.139  -4.730  1.00  0.00    -0.248 NA
ATOM     56  C   UNL     1      -8.703  14.028  -4.162  1.00  0.00     0.031 C 
ATOM     57  C   UNL     1      -4.415  17.800  -6.225  1.00  0.00     0.029 A 
ATOM     58  C   UNL     1      -5.067  16.675  -5.748  1.00  0.00     0.049 A 
ATOM     59  H   UNL     1      -4.278  14.765  -5.316  1.00  0.00     0.167 HD
ATOM     60  C   UNL     1      -7.030  15.374  -4.967  1.00  0.00     0.074 A 
ATOM     61  C   UNL     1      -8.433  15.237  -4.635  1.00  0.00     0.031 C 
ATOM     62  C   UNL     1      -6.461  16.519  -5.419  1.00  0.00     0.037 A 
BRANCH  49  63
ATOM     63  C   UNL     1      -0.379  16.104  -6.421  1.00  0.00     0.064 A 
ATOM     64  C   UNL     1       0.305  15.785  -7.605  1.00  0.00     0.173 A 
ATOM     65  C   UNL     1       0.143  17.134  -5.623  1.00  0.00     0.173 A 
ATOM     66  F   UNL     1      -0.142  14.800  -8.399  1.00  0.00    -0.203 F 
ATOM     67  C   UNL     1       1.478  16.448  -7.958  1.00  0.00     0.198 A 
ATOM     68  C   UNL     1       1.296  17.819  -5.997  1.00  0.00     0.198 A 
ATOM     69  F   UNL     1      -0.472  17.484  -4.483  1.00  0.00    -0.203 F 
ATOM     70  F   UNL     1       2.141  16.088  -9.066  1.00  0.00    -0.200 F 
ATOM     71  C   UNL     1       1.966  17.471  -7.160  1.00  0.00     0.200 A 
ATOM     72  F   UNL     1       1.758  18.817  -5.232  1.00  0.00    -0.200 F 
ATOM     73  F   UNL     1       3.088  18.116  -7.507  1.00  0.00    -0.200 F 
ENDBRANCH  49  63
BRANCH  50  74
ATOM     74  C   UNL     1      -8.556  11.199  -3.412  1.00  0.00     0.064 A 
ATOM     75  C   UNL     1      -9.646  10.964  -4.263  1.00  0.00     0.173 A 
ATOM     76  C   UNL     1      -8.657  10.750  -2.087  1.00  0.00     0.173 A 
ATOM     77  F   UNL     1      -9.606  11.389  -5.535  1.00  0.00    -0.203 F 
ATOM     78  C   UNL     1     -10.799  10.334  -3.800  1.00  0.00     0.198 A 
ATOM     79  C   UNL     1      -9.797  10.089  -1.635  1.00  0.00     0.198 A 
ATOM     80  F   UNL     1      -7.640  10.941  -1.234  1.00  0.00    -0.203 F 
ATOM     81  F   UNL     1     -11.846  10.171  -4.621  1.00  0.00    -0.200 F 
ATOM     82  C   UNL     1     -10.872   9.892  -2.488  1.00  0.00     0.200 A 
ATOM     83  F   UNL     1      -9.855   9.647  -0.371  1.00  0.00    -0.200 F 
ATOM     84  F   UNL     1     -11.979   9.282  -2.044  1.00  0.00    -0.200 F 
ENDBRANCH  50  74
BRANCH  62  85
ATOM     85  C   UNL     1      -7.362  17.704  -5.617  1.00  0.00     0.064 A 
ATOM     86  C   UNL     1      -7.926  18.394  -4.534  1.00  0.00     0.173 A 
ATOM     87  C   UNL     1      -7.630  18.180  -6.910  1.00  0.00     0.173 A 
ATOM     88  F   UNL     1      -7.713  17.971  -3.279  1.00  0.00    -0.203 F 
ATOM     89  C   UNL     1      -8.750  19.498  -4.740  1.00  0.00     0.198 A 
ATOM     90  C   UNL     1      -8.423  19.306  -7.110  1.00  0.00     0.198 A 
ATOM     91  F   UNL     1      -7.107  17.563  -7.981  1.00  0.00    -0.203 F 
ATOM     92  F   UNL     1      -9.323  20.108  -3.693  1.00  0.00    -0.200 F 
ATOM     93  C   UNL     1      -8.991  19.958  -6.026  1.00  0.00     0.200 A 
ATOM     94  F   UNL     1      -8.639  19.759  -8.353  1.00  0.00    -0.200 F 
ATOM     95  F   UNL     1      -9.776  21.026  -6.221  1.00  0.00    -0.200 F 
ENDBRANCH  62  85
ENDBRANCH  36  37
ENDBRANCH  28  31
ENDBRANCH  26  27
ENDBRANCH  25  26
ENDBRANCH   1  25
TORSDOF 13
