REMARK SMILES C=C(C(=O)NCCCNC(=O)c1ccc(-c2c3nc(c(-c4c(F)c(F)c(F)c(F)c4F)c4ccc([nH]4)c(-c4c(F)c(F)c(F)c(F)c4F)c4nc(c(-c5c(F)c(F)c(F)c(F)c5F)c5ccc2[nH]5)C=C4)C=C3)cc1)[C@@H]1CC[C@]2(C)CCCC(=C)[C@H]2[C@H]1O
REMARK SMILES IDX 7 1 6 2 5 3 3 4 4 5 2 7 1 8 75 9 76 10 86 11 77 12 85 13
REMARK SMILES IDX 78 14 83 15 79 16 80 17 82 18 84 19 81 20 87 21 8 23 9 24
REMARK SMILES IDX 10 25 11 27 12 28 13 29 74 30 14 31 73 32 15 33 16 34 17 35
REMARK SMILES IDX 67 36 18 37 72 38 66 39 68 40 19 41 71 42 65 43 64 44 20 46
REMARK SMILES IDX 52 47 32 48 51 49 33 50 36 51 50 52 69 53 34 54 35 55 49 57
REMARK SMILES IDX 70 58 37 59 21 60 22 61 30 62 23 63 24 64 28 65 31 66 25 67
REMARK SMILES IDX 26 68 29 69 27 70 53 71 54 72 62 73 55 74 56 75 60 76 63 77
REMARK SMILES IDX 57 78 58 79 61 80 59 81 38 82 39 83 47 84 40 85 41 86 45 87
REMARK SMILES IDX 48 88 42 89 43 90 46 91 44 92
REMARK H PARENT 5 6 87 22 9 26 68 45 36 56
REMARK Flexibility Score: inf
ROOT
ATOM      1  C   UNL     1      -1.849   2.345   0.802  1.00  0.00     0.042 C 
ENDROOT
BRANCH   1   2
ATOM      2  C   UNL     1      -1.471   0.900   1.141  1.00  0.00     0.118 C 
BRANCH   2   3
ATOM      3  N   UNL     1      -1.826  -0.029   0.076  1.00  0.00    -0.352 N 
ATOM      4  C   UNL     1      -1.096  -0.615  -0.916  1.00  0.00     0.246 C 
ATOM      5  O   UNL     1      -1.669  -1.382  -1.689  1.00  0.00    -0.270 OA
ATOM      6  H   UNL     1      -2.777  -0.283   0.071  1.00  0.00     0.163 HD
BRANCH   4   7
ATOM      7  C   UNL     1       0.373  -0.377  -1.057  1.00  0.00     0.015 C 
ATOM      8  C   UNL     1       0.813   0.896  -1.054  1.00  0.00     0.019 C 
BRANCH   7   9
ATOM      9  C   UNL     1       1.252  -1.579  -1.447  1.00  0.00     0.053 C 
ATOM     10  C   UNL     1       0.914  -2.937  -0.775  1.00  0.00     0.012 C 
ATOM     11  C   UNL     1       2.777  -1.317  -1.282  1.00  0.00     0.129 C 
ATOM     12  C   UNL     1       1.386  -3.073   0.675  1.00  0.00     0.008 C 
ATOM     13  C   UNL     1       3.146  -1.322   0.232  1.00  0.00     0.050 C 
ATOM     14  C   UNL     1       2.878  -2.709   0.903  1.00  0.00    -0.024 C 
ATOM     15  C   UNL     1       4.494  -0.735   0.637  1.00  0.00    -0.071 C 
ATOM     16  C   UNL     1       3.788  -3.838   0.359  1.00  0.00     0.012 C 
ATOM     17  C   UNL     1       3.121  -2.603   2.437  1.00  0.00     0.008 C 
ATOM     18  C   UNL     1       4.679  -0.638   2.135  1.00  0.00     0.031 C 
ATOM     19  C   UNL     1       5.442  -0.290  -0.203  1.00  0.00     0.008 C 
ATOM     20  C   UNL     1       4.483  -2.001   2.793  1.00  0.00     0.005 C 
BRANCH  11  21
ATOM     21  O   UNL     1       3.526  -2.281  -2.026  1.00  0.00    -0.392 OA
ATOM     22  H   UNL     1       3.325  -3.171  -1.697  1.00  0.00     0.211 HD
ENDBRANCH  11  21
ENDBRANCH   7   9
ENDBRANCH   4   7
ENDBRANCH   2   3
ENDBRANCH   1   2
BRANCH   1  23
ATOM     23  C   UNL     1      -3.349   2.593   0.691  1.00  0.00     0.118 C 
BRANCH  23  24
ATOM     24  N   UNL     1      -3.978   2.783   1.987  1.00  0.00    -0.352 N 
ATOM     25  C   UNL     1      -4.445   3.925   2.588  1.00  0.00     0.251 C 
ATOM     26  H   UNL     1      -4.085   1.962   2.520  1.00  0.00     0.163 HD
ATOM     27  O   UNL     1      -4.746   3.896   3.783  1.00  0.00    -0.269 OA
BRANCH  25  28
ATOM     28  C   UNL     1      -4.576   5.198   1.840  1.00  0.00     0.039 A 
ATOM     29  C   UNL     1      -4.228   6.393   2.482  1.00  0.00     0.014 A 
ATOM     30  C   UNL     1      -5.090   5.240   0.542  1.00  0.00     0.014 A 
ATOM     31  C   UNL     1      -4.332   7.612   1.804  1.00  0.00     0.010 A 
ATOM     32  C   UNL     1      -5.122   6.446  -0.161  1.00  0.00     0.010 A 
ATOM     33  C   UNL     1      -4.747   7.645   0.463  1.00  0.00    -0.014 A 
BRANCH  33  34
ATOM     34  C   UNL     1      -4.799   8.920  -0.301  1.00  0.00     0.031 A 
ATOM     35  C   UNL     1      -6.112   9.448  -0.808  1.00  0.00     0.074 A 
ATOM     36  C   UNL     1      -3.655   9.566  -0.601  1.00  0.00     0.049 A 
ATOM     37  N   UNL     1      -6.350  10.482  -1.577  1.00  0.00    -0.248 NA
ATOM     38  C   UNL     1      -7.319   8.701  -0.420  1.00  0.00     0.031 C 
ATOM     39  C   UNL     1      -2.314   9.139  -0.202  1.00  0.00     0.029 A 
ATOM     40  N   UNL     1      -3.437  10.711  -1.327  1.00  0.00    -0.354 N 
ATOM     41  C   UNL     1      -7.724  10.496  -1.780  1.00  0.00     0.074 A 
ATOM     42  C   UNL     1      -8.264   9.345  -1.088  1.00  0.00     0.031 C 
ATOM     43  C   UNL     1      -1.414  10.015  -0.676  1.00  0.00     0.029 A 
ATOM     44  C   UNL     1      -2.109  11.043  -1.445  1.00  0.00     0.049 A 
ATOM     45  H   UNL     1      -4.162  11.243  -1.726  1.00  0.00     0.167 HD
ATOM     46  C   UNL     1      -8.469  11.398  -2.464  1.00  0.00     0.037 A 
ATOM     47  C   UNL     1      -1.516  12.053  -2.111  1.00  0.00     0.037 A 
ATOM     48  C   UNL     1      -7.935  12.560  -3.125  1.00  0.00     0.049 A 
ATOM     49  C   UNL     1      -2.366  13.034  -2.870  1.00  0.00     0.074 A 
ATOM     50  C   UNL     1      -8.617  13.568  -3.783  1.00  0.00     0.029 A 
ATOM     51  N   UNL     1      -6.585  12.867  -3.211  1.00  0.00    -0.354 N 
ATOM     52  N   UNL     1      -3.669  13.070  -3.005  1.00  0.00    -0.248 NA
ATOM     53  C   UNL     1      -1.661  14.118  -3.570  1.00  0.00     0.031 C 
ATOM     54  C   UNL     1      -7.677  14.465  -4.304  1.00  0.00     0.029 A 
ATOM     55  C   UNL     1      -6.413  14.038  -3.934  1.00  0.00     0.049 A 
ATOM     56  H   UNL     1      -5.858  12.334  -2.818  1.00  0.00     0.167 HD
ATOM     57  C   UNL     1      -3.942  14.184  -3.785  1.00  0.00     0.074 A 
ATOM     58  C   UNL     1      -2.670  14.810  -4.081  1.00  0.00     0.031 C 
ATOM     59  C   UNL     1      -5.139  14.646  -4.221  1.00  0.00     0.037 A 
BRANCH  46  60
ATOM     60  C   UNL     1      -9.950  11.165  -2.531  1.00  0.00     0.064 A 
ATOM     61  C   UNL     1     -10.774  11.336  -1.408  1.00  0.00     0.173 A 
ATOM     62  C   UNL     1     -10.560  10.804  -3.743  1.00  0.00     0.173 A 
ATOM     63  F   UNL     1     -10.239  11.671  -0.225  1.00  0.00    -0.203 F 
ATOM     64  C   UNL     1     -12.148  11.128  -1.489  1.00  0.00     0.198 A 
ATOM     65  C   UNL     1     -11.938  10.624  -3.826  1.00  0.00     0.198 A 
ATOM     66  F   UNL     1      -9.820  10.634  -4.848  1.00  0.00    -0.203 F 
ATOM     67  F   UNL     1     -12.908  11.253  -0.392  1.00  0.00    -0.200 F 
ATOM     68  C   UNL     1     -12.730  10.779  -2.698  1.00  0.00     0.200 A 
ATOM     69  F   UNL     1     -12.501  10.298  -4.998  1.00  0.00    -0.200 F 
ATOM     70  F   UNL     1     -14.054  10.585  -2.775  1.00  0.00    -0.200 F 
ENDBRANCH  46  60
BRANCH  47  71
ATOM     71  C   UNL     1      -0.038  12.193  -2.080  1.00  0.00     0.064 A 
ATOM     72  C   UNL     1       0.570  13.241  -1.375  1.00  0.00     0.173 A 
ATOM     73  C   UNL     1       0.796  11.287  -2.751  1.00  0.00     0.173 A 
ATOM     74  F   UNL     1      -0.188  14.145  -0.737  1.00  0.00    -0.203 F 
ATOM     75  C   UNL     1       1.955  13.386  -1.354  1.00  0.00     0.198 A 
ATOM     76  C   UNL     1       2.183  11.418  -2.708  1.00  0.00     0.198 A 
ATOM     77  F   UNL     1       0.264  10.265  -3.437  1.00  0.00    -0.203 F 
ATOM     78  F   UNL     1       2.508  14.420  -0.705  1.00  0.00    -0.200 F 
ATOM     79  C   UNL     1       2.761  12.472  -2.015  1.00  0.00     0.200 A 
ATOM     80  F   UNL     1       2.958  10.525  -3.337  1.00  0.00    -0.200 F 
ATOM     81  F   UNL     1       4.093  12.609  -1.990  1.00  0.00    -0.200 F 
ENDBRANCH  47  71
BRANCH  59  82
ATOM     82  C   UNL     1      -5.131  15.898  -5.048  1.00  0.00     0.064 A 
ATOM     83  C   UNL     1      -4.685  15.894  -6.377  1.00  0.00     0.173 A 
ATOM     84  C   UNL     1      -5.609  17.105  -4.516  1.00  0.00     0.173 A 
ATOM     85  F   UNL     1      -4.203  14.768  -6.924  1.00  0.00    -0.203 F 
ATOM     86  C   UNL     1      -4.697  17.060  -7.138  1.00  0.00     0.198 A 
ATOM     87  C   UNL     1      -5.645  18.263  -5.289  1.00  0.00     0.198 A 
ATOM     88  F   UNL     1      -6.051  17.160  -3.251  1.00  0.00    -0.203 F 
ATOM     89  F   UNL     1      -4.226  17.043  -8.393  1.00  0.00    -0.200 F 
ATOM     90  C   UNL     1      -5.184  18.241  -6.597  1.00  0.00     0.200 A 
ATOM     91  F   UNL     1      -6.125  19.400  -4.768  1.00  0.00    -0.200 F 
ATOM     92  F   UNL     1      -5.200  19.360  -7.333  1.00  0.00    -0.200 F 
ENDBRANCH  59  82
ENDBRANCH  33  34
ENDBRANCH  25  28
ENDBRANCH  23  24
ENDBRANCH   1  23
TORSDOF 12
