REMARK SMILES C=CCn1c(=S)[nH]c2cc(C(=O)NCCCNC(=O)c3ccc(-c4c5nc(c(-c6c(F)c(F)c(F)c(F)c6F)c6ccc([nH]6)c(-c6c(F)c(F)c(F)c(F)c6F)c6nc(c(-c7c(F)c(F)c(F)c(F)c7F)c7ccc4[nH]7)C=C6)C=C5)cc3)ccc2c1=O
REMARK SMILES IDX 15 1 14 2 13 3 11 4 12 5 10 7 4 8 5 9 86 10 6 11 7 12 85 13
REMARK SMILES IDX 87 14 8 15 84 17 9 18 83 19 3 20 2 21 1 22 16 23 17 24 18 25
REMARK SMILES IDX 19 27 20 28 21 29 82 30 22 31 81 32 23 33 24 34 25 35 75 36
REMARK SMILES IDX 26 37 80 38 74 39 76 40 27 41 79 42 73 43 72 44 28 46 60 47
REMARK SMILES IDX 40 48 59 49 41 50 44 51 58 52 77 53 42 54 43 55 57 57 78 58
REMARK SMILES IDX 45 59 29 60 30 61 38 62 31 63 32 64 36 65 39 66 33 67 34 68
REMARK SMILES IDX 37 69 35 70 61 71 62 72 70 73 63 74 64 75 68 76 71 77 65 78
REMARK SMILES IDX 66 79 69 80 67 81 46 82 47 83 55 84 48 85 49 86 53 87 56 88
REMARK SMILES IDX 50 89 51 90 54 91 52 92
REMARK H PARENT 13 6 7 16 17 26 76 45 44 56
REMARK Flexibility Score: inf
ROOT
ATOM      1  C   UNL     1      -1.377   5.524  -7.683  1.00  0.00     0.042 C 
ENDROOT
BRANCH   1   2
ATOM      2  C   UNL     1      -2.769   4.954  -7.420  1.00  0.00     0.118 C 
BRANCH   2   3
ATOM      3  N   UNL     1      -2.928   3.668  -8.073  1.00  0.00    -0.352 N 
ATOM      4  C   UNL     1      -2.747   2.378  -7.647  1.00  0.00     0.251 C 
ATOM      5  O   UNL     1      -2.967   1.482  -8.463  1.00  0.00    -0.269 OA
ATOM      6  H   UNL     1      -3.225   3.735  -9.009  1.00  0.00     0.163 HD
BRANCH   4   7
ATOM      7  C   UNL     1      -2.352   2.004  -6.258  1.00  0.00     0.041 A 
ATOM      8  N   UNL     1      -1.612  -0.674  -2.042  1.00  0.00    -0.281 N 
ATOM      9  C   UNL     1      -2.093  -1.584  -2.983  1.00  0.00     0.180 A 
ATOM     10  C   UNL     1      -1.560   0.706  -2.273  1.00  0.00     0.262 A 
ATOM     11  S   UNL     1      -2.229  -3.247  -2.809  1.00  0.00    -0.040 S 
ATOM     12  N   UNL     1      -2.495  -1.070  -4.191  1.00  0.00    -0.332 N 
ATOM     13  C   UNL     1      -1.790   1.154  -3.650  1.00  0.00     0.064 A 
ATOM     14  O   UNL     1      -1.346   1.559  -1.413  1.00  0.00    -0.269 OA
ATOM     15  C   UNL     1      -2.324   0.262  -4.562  1.00  0.00     0.054 A 
ATOM     16  H   UNL     1      -2.930  -1.678  -4.832  1.00  0.00     0.169 HD
ATOM     17  C   UNL     1      -1.454   2.446  -4.044  1.00  0.00     0.017 A 
ATOM     18  C   UNL     1      -2.639   0.687  -5.852  1.00  0.00     0.040 A 
ATOM     19  C   UNL     1      -1.694   2.849  -5.358  1.00  0.00     0.015 A 
BRANCH   8  20
ATOM     20  C   UNL     1      -1.144  -1.083  -0.717  1.00  0.00     0.155 C 
BRANCH  20  21
ATOM     21  C   UNL     1       0.364  -1.077  -0.725  1.00  0.00    -0.013 C 
ATOM     22  C   UNL     1       1.114  -0.204  -0.037  1.00  0.00     0.006 C 
ENDBRANCH  20  21
ENDBRANCH   8  20
ENDBRANCH   4   7
ENDBRANCH   2   3
ENDBRANCH   1   2
BRANCH   1  23
ATOM     23  C   UNL     1      -1.240   6.114  -9.081  1.00  0.00     0.118 C 
BRANCH  23  24
ATOM     24  N   UNL     1      -1.997   7.351  -9.227  1.00  0.00    -0.352 N 
ATOM     25  C   UNL     1      -1.572   8.606  -9.596  1.00  0.00     0.251 C 
ATOM     26  H   UNL     1      -2.959   7.277  -9.032  1.00  0.00     0.163 HD
ATOM     27  O   UNL     1      -2.313   9.569  -9.458  1.00  0.00    -0.269 OA
BRANCH  25  28
ATOM     28  C   UNL     1      -0.208   8.790 -10.135  1.00  0.00     0.039 A 
ATOM     29  C   UNL     1       0.323   7.880 -11.050  1.00  0.00     0.014 A 
ATOM     30  C   UNL     1       0.549   9.886  -9.713  1.00  0.00     0.014 A 
ATOM     31  C   UNL     1       1.662   7.965 -11.406  1.00  0.00     0.010 A 
ATOM     32  C   UNL     1       1.870  10.023 -10.148  1.00  0.00     0.010 A 
ATOM     33  C   UNL     1       2.452   9.036 -10.957  1.00  0.00    -0.014 A 
BRANCH  33  34
ATOM     34  C   UNL     1       3.886   9.091 -11.339  1.00  0.00     0.031 A 
ATOM     35  C   UNL     1       4.962   8.986 -10.292  1.00  0.00     0.074 A 
ATOM     36  C   UNL     1       4.216   9.173 -12.643  1.00  0.00     0.049 A 
ATOM     37  N   UNL     1       6.263   9.001 -10.441  1.00  0.00    -0.248 NA
ATOM     38  C   UNL     1       4.523   8.847  -8.894  1.00  0.00     0.031 C 
ATOM     39  C   UNL     1       3.259   9.261 -13.747  1.00  0.00     0.029 A 
ATOM     40  N   UNL     1       5.439   9.168 -13.263  1.00  0.00    -0.354 N 
ATOM     41  C   UNL     1       6.794   8.889  -9.162  1.00  0.00     0.074 A 
ATOM     42  C   UNL     1       5.678   8.843  -8.243  1.00  0.00     0.031 C 
ATOM     43  C   UNL     1       3.927   9.245 -14.909  1.00  0.00     0.029 A 
ATOM     44  C   UNL     1       5.359   9.218 -14.633  1.00  0.00     0.049 A 
ATOM     45  H   UNL     1       6.293   9.133 -12.773  1.00  0.00     0.167 HD
ATOM     46  C   UNL     1       8.095   8.813  -8.794  1.00  0.00     0.037 A 
ATOM     47  C   UNL     1       6.331   9.254 -15.564  1.00  0.00     0.037 A 
ATOM     48  C   UNL     1       9.200   8.836  -9.716  1.00  0.00     0.049 A 
ATOM     49  C   UNL     1       7.766   9.229 -15.121  1.00  0.00     0.074 A 
ATOM     50  C   UNL     1      10.553   8.749  -9.441  1.00  0.00     0.029 A 
ATOM     51  N   UNL     1       9.079   8.953 -11.094  1.00  0.00    -0.354 N 
ATOM     52  N   UNL     1       8.255   9.117 -13.910  1.00  0.00    -0.248 NA
ATOM     53  C   UNL     1       8.785   9.346 -16.172  1.00  0.00     0.031 C 
ATOM     54  C   UNL     1      11.253   8.863 -10.645  1.00  0.00     0.029 A 
ATOM     55  C   UNL     1      10.335   8.965 -11.678  1.00  0.00     0.049 A 
ATOM     56  H   UNL     1       8.227   9.018 -11.583  1.00  0.00     0.167 HD
ATOM     57  C   UNL     1       9.634   9.136 -14.053  1.00  0.00     0.074 A 
ATOM     58  C   UNL     1       9.906   9.246 -15.471  1.00  0.00     0.031 C 
ATOM     59  C   UNL     1      10.589   9.073 -13.093  1.00  0.00     0.037 A 
BRANCH  46  60
ATOM     60  C   UNL     1       8.407   8.700  -7.329  1.00  0.00     0.064 A 
ATOM     61  C   UNL     1       8.153   7.521  -6.612  1.00  0.00     0.173 A 
ATOM     62  C   UNL     1       9.040   9.755  -6.653  1.00  0.00     0.173 A 
ATOM     63  F   UNL     1       7.539   6.488  -7.207  1.00  0.00    -0.203 F 
ATOM     64  C   UNL     1       8.509   7.408  -5.270  1.00  0.00     0.198 A 
ATOM     65  C   UNL     1       9.421   9.627  -5.319  1.00  0.00     0.198 A 
ATOM     66  F   UNL     1       9.312  10.902  -7.293  1.00  0.00    -0.203 F 
ATOM     67  F   UNL     1       8.227   6.284  -4.596  1.00  0.00    -0.200 F 
ATOM     68  C   UNL     1       9.152   8.456  -4.628  1.00  0.00     0.200 A 
ATOM     69  F   UNL     1      10.056  10.636  -4.706  1.00  0.00    -0.200 F 
ATOM     70  F   UNL     1       9.511   8.337  -3.342  1.00  0.00    -0.200 F 
ENDBRANCH  46  60
BRANCH  47  71
ATOM     71  C   UNL     1       5.967   9.315 -17.004  1.00  0.00     0.064 A 
ATOM     72  C   UNL     1       6.223   8.235 -17.858  1.00  0.00     0.173 A 
ATOM     73  C   UNL     1       5.329  10.441 -17.548  1.00  0.00     0.173 A 
ATOM     74  F   UNL     1       6.848   7.144 -17.390  1.00  0.00    -0.203 F 
ATOM     75  C   UNL     1       5.860   8.279 -19.203  1.00  0.00     0.198 A 
ATOM     76  C   UNL     1       4.938  10.471 -18.884  1.00  0.00     0.198 A 
ATOM     77  F   UNL     1       5.059  11.500 -16.772  1.00  0.00    -0.203 F 
ATOM     78  F   UNL     1       6.146   7.245 -20.006  1.00  0.00    -0.200 F 
ATOM     79  C   UNL     1       5.209   9.393 -19.712  1.00  0.00     0.200 A 
ATOM     80  F   UNL     1       4.293  11.542 -19.367  1.00  0.00    -0.200 F 
ATOM     81  F   UNL     1       4.845   9.428 -21.001  1.00  0.00    -0.200 F 
ENDBRANCH  47  71
BRANCH  59  82
ATOM     82  C   UNL     1      12.022   9.108 -13.538  1.00  0.00     0.064 A 
ATOM     83  C   UNL     1      12.610  10.287 -14.020  1.00  0.00     0.173 A 
ATOM     84  C   UNL     1      12.835   7.971 -13.412  1.00  0.00     0.173 A 
ATOM     85  F   UNL     1      11.871  11.396 -14.171  1.00  0.00    -0.203 F 
ATOM     86  C   UNL     1      13.955  10.322 -14.374  1.00  0.00     0.198 A 
ATOM     87  C   UNL     1      14.187   8.018 -13.738  1.00  0.00     0.198 A 
ATOM     88  F   UNL     1      12.322   6.821 -12.949  1.00  0.00    -0.203 F 
ATOM     89  F   UNL     1      14.487  11.448 -14.867  1.00  0.00    -0.200 F 
ATOM     90  C   UNL     1      14.745   9.191 -14.222  1.00  0.00     0.200 A 
ATOM     91  F   UNL     1      14.952   6.930 -13.574  1.00  0.00    -0.200 F 
ATOM     92  F   UNL     1      16.045   9.232 -14.546  1.00  0.00    -0.200 F 
ENDBRANCH  59  82
ENDBRANCH  33  34
ENDBRANCH  25  28
ENDBRANCH  23  24
ENDBRANCH   1  23
TORSDOF 12
