REMARK SMILES Cc1cc(C(=O)N[C@@H]2C(=O)N3C(C(=O)NCCCNC(=O)c4ccc(-c5c6nc(c(-c7c(F)c(F)c(F)c(F)c7F)c7ccc([nH]7)c(-c7c(F)c(F)c(F)c(F)c7F)c7nc(c(-c8c(F)c(F)c(F)c(F)c8F)c8ccc5[nH]8)C=C7)C=C6)cc4)=C(CSc4nnc(C)s4)CS[C@H]23)n(C)n1
REMARK SMILES IDX 16 1 15 2 13 3 14 4 12 6 8 7 9 8 96 9 10 10 11 11 95 12
REMARK SMILES IDX 94 13 85 14 7 15 5 16 6 17 4 19 1 20 2 21 3 22 99 23 97 24
REMARK SMILES IDX 98 25 86 26 87 27 88 28 89 29 93 30 90 31 91 32 92 33 17 34
REMARK SMILES IDX 18 35 19 36 20 37 21 39 22 40 23 41 84 42 24 43 83 44 25 45
REMARK SMILES IDX 26 46 27 47 77 48 28 49 82 50 76 51 78 52 29 53 81 54 75 55
REMARK SMILES IDX 74 56 30 58 62 59 42 60 61 61 43 62 46 63 60 64 79 65 44 66
REMARK SMILES IDX 45 67 59 69 80 70 47 71 31 72 32 73 40 74 33 75 34 76 38 77
REMARK SMILES IDX 41 78 35 79 36 80 39 81 37 82 63 83 64 84 72 85 65 86 66 87
REMARK SMILES IDX 70 88 73 89 67 90 68 91 71 92 69 93 48 94 49 95 57 96 50 97
REMARK SMILES IDX 51 98 55 99 58 100 52 101 53 102 56 103 54 104
REMARK H PARENT 15 5 7 18 19 38 78 57 46 68
REMARK Flexibility Score: inf
ROOT
ATOM      1  C   UNL     1      -4.133  -0.682  -4.614  1.00  0.00     0.118 C 
ENDROOT
BRANCH   1   2
ATOM      2  N   UNL     1      -3.387  -0.429  -3.394  1.00  0.00    -0.351 N 
ATOM      3  C   UNL     1      -2.702  -1.165  -2.479  1.00  0.00     0.268 C 
ATOM      4  O   UNL     1      -2.045  -0.465  -1.700  1.00  0.00    -0.268 OA
ATOM      5  H   UNL     1      -3.375   0.529  -3.170  1.00  0.00     0.163 HD
BRANCH   3   6
ATOM      6  C   UNL     1      -2.533  -2.696  -2.465  1.00  0.00     0.111 C 
ATOM      7  C   UNL     1      -0.122  -4.052  -0.400  1.00  0.00     0.206 C 
ATOM      8  C   UNL     1      -1.098  -2.839  -0.412  1.00  0.00     0.253 C 
ATOM      9  C   UNL     1      -0.918  -4.464  -1.669  1.00  0.00     0.181 C 
ATOM     10  O   UNL     1      -1.497  -2.069   0.439  1.00  0.00    -0.272 OA
ATOM     11  N   UNL     1      -1.433  -3.106  -1.716  1.00  0.00    -0.290 N 
ATOM     12  S   UNL     1      -2.303  -5.622  -1.425  1.00  0.00    -0.129 SA
ATOM     13  C   UNL     1      -2.987  -5.129  -3.005  1.00  0.00     0.106 C 
ATOM     14  C   UNL     1      -3.382  -3.665  -2.932  1.00  0.00    -0.020 C 
BRANCH   7  15
ATOM     15  N   UNL     1      -0.114  -4.935   0.800  1.00  0.00    -0.336 N 
ATOM     16  C   UNL     1       0.215  -6.274   0.913  1.00  0.00     0.270 C 
ATOM     17  O   UNL     1       0.167  -6.779   2.033  1.00  0.00    -0.268 OA
ATOM     18  H   UNL     1      -0.385  -4.499   1.641  1.00  0.00     0.164 HD
BRANCH  16  19
ATOM     19  C   UNL     1       0.519  -7.025  -0.285  1.00  0.00     0.126 A 
ATOM     20  C   UNL     1       0.655  -7.417  -3.900  1.00  0.00     0.069 C 
ATOM     21  C   UNL     1       0.685  -7.572  -2.426  1.00  0.00     0.060 A 
ATOM     22  C   UNL     1       1.150  -6.652  -1.462  1.00  0.00     0.059 A 
ATOM     23  N   UNL     1       0.128  -8.634  -1.844  1.00  0.00    -0.178 NA
ATOM     24  N   UNL     1       0.137  -8.328  -0.526  1.00  0.00    -0.263 N 
ATOM     25  C   UNL     1      -0.317  -9.342   0.397  1.00  0.00     0.174 C 
ENDBRANCH  16  19
ENDBRANCH   7  15
BRANCH  14  26
ATOM     26  C   UNL     1      -4.877  -3.526  -3.113  1.00  0.00     0.111 C 
BRANCH  26  27
ATOM     27  S   UNL     1      -5.530  -2.619  -1.707  1.00  0.00    -0.089 SA
BRANCH  27  28
ATOM     28  C   UNL     1      -6.906  -3.502  -1.179  1.00  0.00     0.174 A 
ATOM     29  N   UNL     1      -6.877  -4.773  -0.848  1.00  0.00    -0.132 NA
ATOM     30  S   UNL     1      -8.270  -2.650  -0.594  1.00  0.00    -0.091 S 
ATOM     31  N   UNL     1      -7.755  -5.017   0.197  1.00  0.00    -0.143 NA
ATOM     32  C   UNL     1      -8.387  -3.916   0.557  1.00  0.00     0.115 A 
ATOM     33  C   UNL     1      -9.015  -3.657   1.871  1.00  0.00     0.081 C 
ENDBRANCH  27  28
ENDBRANCH  26  27
ENDBRANCH  14  26
ENDBRANCH   3   6
ENDBRANCH   1   2
BRANCH   1  34
ATOM     34  C   UNL     1      -5.640  -0.547  -4.383  1.00  0.00     0.042 C 
BRANCH  34  35
ATOM     35  C   UNL     1      -6.231   0.837  -4.578  1.00  0.00     0.118 C 
BRANCH  35  36
ATOM     36  N   UNL     1      -6.519   1.112  -5.971  1.00  0.00    -0.352 N 
ATOM     37  C   UNL     1      -7.715   1.181  -6.643  1.00  0.00     0.251 C 
ATOM     38  H   UNL     1      -5.725   1.277  -6.530  1.00  0.00     0.163 HD
ATOM     39  O   UNL     1      -7.697   1.189  -7.873  1.00  0.00    -0.269 OA
BRANCH  37  40
ATOM     40  C   UNL     1      -9.023   1.228  -5.936  1.00  0.00     0.039 A 
ATOM     41  C   UNL     1     -10.138   0.655  -6.560  1.00  0.00     0.014 A 
ATOM     42  C   UNL     1      -9.196   1.885  -4.715  1.00  0.00     0.014 A 
ATOM     43  C   UNL     1     -11.396   0.706  -5.949  1.00  0.00     0.010 A 
ATOM     44  C   UNL     1     -10.425   1.841  -4.055  1.00  0.00     0.010 A 
ATOM     45  C   UNL     1     -11.547   1.275  -4.675  1.00  0.00    -0.014 A 
BRANCH  45  46
ATOM     46  C   UNL     1     -12.874   1.332  -4.004  1.00  0.00     0.031 A 
ATOM     47  C   UNL     1     -13.496   2.663  -3.666  1.00  0.00     0.074 A 
ATOM     48  C   UNL     1     -13.507   0.192  -3.666  1.00  0.00     0.049 A 
ATOM     49  N   UNL     1     -14.614   2.921  -3.033  1.00  0.00    -0.248 NA
ATOM     50  C   UNL     1     -12.749   3.866  -4.069  1.00  0.00     0.031 C 
ATOM     51  C   UNL     1     -12.997  -1.159  -3.903  1.00  0.00     0.029 A 
ATOM     52  N   UNL     1     -14.717  -0.014  -3.050  1.00  0.00    -0.354 N 
ATOM     53  C   UNL     1     -14.693   4.306  -2.952  1.00  0.00     0.074 A 
ATOM     54  C   UNL     1     -13.482   4.834  -3.539  1.00  0.00     0.031 C 
ATOM     55  C   UNL     1     -13.903  -2.053  -3.475  1.00  0.00     0.029 A 
ATOM     56  C   UNL     1     -15.037  -1.341  -2.894  1.00  0.00     0.049 A 
ATOM     57  H   UNL     1     -15.300   0.720  -2.749  1.00  0.00     0.167 HD
ATOM     58  C   UNL     1     -15.698   5.072  -2.463  1.00  0.00     0.037 A 
ATOM     59  C   UNL     1     -16.122  -1.919  -2.343  1.00  0.00     0.037 A 
ATOM     60  C   UNL     1     -16.915   4.547  -1.903  1.00  0.00     0.049 A 
ATOM     61  C   UNL     1     -17.218  -1.047  -1.792  1.00  0.00     0.074 A 
ATOM     62  C   UNL     1     -18.008   5.238  -1.411  1.00  0.00     0.029 A 
ATOM     63  N   UNL     1     -17.201   3.196  -1.764  1.00  0.00    -0.354 N 
ATOM     64  N   UNL     1     -17.297   0.261  -1.758  1.00  0.00    -0.248 NA
ATOM     65  C   UNL     1     -18.379  -1.734  -1.208  1.00  0.00     0.031 C 
ATOM     66  C   UNL     1     -18.936   4.307  -0.935  1.00  0.00     0.029 A 
ATOM     67  C   UNL     1     -18.447   3.034  -1.181  1.00  0.00     0.049 A 
ATOM     68  H   UNL     1     -16.606   2.462  -2.040  1.00  0.00     0.167 HD
ATOM     69  C   UNL     1     -18.524   0.554  -1.178  1.00  0.00     0.074 A 
ATOM     70  C   UNL     1     -19.163  -0.713  -0.889  1.00  0.00     0.031 C 
ATOM     71  C   UNL     1     -19.072   1.765  -0.908  1.00  0.00     0.037 A 
BRANCH  58  72
ATOM     72  C   UNL     1     -15.529   6.564  -2.523  1.00  0.00     0.064 A 
ATOM     73  C   UNL     1     -15.544   7.256  -3.745  1.00  0.00     0.173 A 
ATOM     74  C   UNL     1     -15.389   7.318  -1.348  1.00  0.00     0.173 A 
ATOM     75  F   UNL     1     -15.662   6.584  -4.900  1.00  0.00    -0.203 F 
ATOM     76  C   UNL     1     -15.396   8.640  -3.789  1.00  0.00     0.198 A 
ATOM     77  C   UNL     1     -15.275   8.706  -1.394  1.00  0.00     0.198 A 
ATOM     78  F   UNL     1     -15.374   6.710  -0.152  1.00  0.00    -0.203 F 
ATOM     79  F   UNL     1     -15.361   9.271  -4.971  1.00  0.00    -0.200 F 
ATOM     80  C   UNL     1     -15.270   9.364  -2.614  1.00  0.00     0.200 A 
ATOM     81  F   UNL     1     -15.168   9.406  -0.256  1.00  0.00    -0.200 F 
ATOM     82  F   UNL     1     -15.138  10.697  -2.657  1.00  0.00    -0.200 F 
ENDBRANCH  58  72
BRANCH  59  83
ATOM     83  C   UNL     1     -16.240  -3.401  -2.320  1.00  0.00     0.064 A 
ATOM     84  C   UNL     1     -17.188  -4.058  -3.117  1.00  0.00     0.173 A 
ATOM     85  C   UNL     1     -15.409  -4.190  -1.512  1.00  0.00     0.173 A 
ATOM     86  F   UNL     1     -18.021  -3.346  -3.891  1.00  0.00    -0.203 F 
ATOM     87  C   UNL     1     -17.310  -5.446  -3.096  1.00  0.00     0.198 A 
ATOM     88  C   UNL     1     -15.512  -5.580  -1.514  1.00  0.00     0.198 A 
ATOM     89  F   UNL     1     -14.482  -3.611  -0.734  1.00  0.00    -0.203 F 
ATOM     90  F   UNL     1     -18.252  -6.045  -3.837  1.00  0.00    -0.200 F 
ATOM     91  C   UNL     1     -16.467  -6.206  -2.300  1.00  0.00     0.200 A 
ATOM     92  F   UNL     1     -14.685  -6.311  -0.754  1.00  0.00    -0.200 F 
ATOM     93  F   UNL     1     -16.579  -7.541  -2.286  1.00  0.00    -0.200 F 
ENDBRANCH  59  83
BRANCH  71  94
ATOM     94  C   UNL     1     -20.447   1.781  -0.303  1.00  0.00     0.064 A 
ATOM     95  C   UNL     1     -20.674   1.386   1.023  1.00  0.00     0.173 A 
ATOM     96  C   UNL     1     -21.542   2.244  -1.049  1.00  0.00     0.173 A 
ATOM     97  F   UNL     1     -19.662   0.924   1.773  1.00  0.00    -0.203 F 
ATOM     98  C   UNL     1     -21.953   1.427   1.571  1.00  0.00     0.198 A 
ATOM     99  C   UNL     1     -22.814   2.314  -0.486  1.00  0.00     0.198 A 
ATOM    100  F   UNL     1     -21.377   2.642  -2.319  1.00  0.00    -0.203 F 
ATOM    101  F   UNL     1     -22.156   0.997   2.825  1.00  0.00    -0.200 F 
ATOM    102  C   UNL     1     -23.020   1.898   0.820  1.00  0.00     0.200 A 
ATOM    103  F   UNL     1     -23.839   2.785  -1.209  1.00  0.00    -0.200 F 
ATOM    104  F   UNL     1     -24.248   1.945   1.353  1.00  0.00    -0.200 F 
ENDBRANCH  71  94
ENDBRANCH  45  46
ENDBRANCH  37  40
ENDBRANCH  35  36
ENDBRANCH  34  35
ENDBRANCH   1  34
TORSDOF 15
