REMARK SMILES O=C(CNS(=O)(=O)c1ccccc1)N[C@@H](CO)C(=O)NCCCNC(=O)c1ccc(-c2c3nc(c(-c4c(F)c(F)c(F)c(F)c4F)c4ccc([nH]4)c(-c4c(F)c(F)c(F)c(F)c4F)c4nc(c(-c5c(F)c(F)c(F)c(F)c5F)c5ccc2[nH]5)C=C4)C=C3)cc1
REMARK SMILES IDX 18 1 19 2 20 3 15 5 14 6 1 7 2 8 3 10 4 11 5 13 6 14 7 15
REMARK SMILES IDX 8 16 9 17 13 18 10 19 12 20 11 21 16 22 17 23 21 25 22 26
REMARK SMILES IDX 23 27 24 28 25 29 26 31 27 32 28 33 89 34 29 35 88 36 30 37
REMARK SMILES IDX 31 38 32 39 82 40 33 41 87 42 81 43 83 44 34 45 86 46 80 47
REMARK SMILES IDX 79 48 35 50 67 51 47 52 66 53 48 54 51 55 65 56 84 57 49 58
REMARK SMILES IDX 50 59 64 61 85 62 52 63 36 64 37 65 45 66 38 67 39 68 43 69
REMARK SMILES IDX 46 70 40 71 41 72 44 73 42 74 68 75 69 76 77 77 70 78 71 79
REMARK SMILES IDX 75 80 78 81 72 82 73 83 76 84 74 85 53 86 54 87 62 88 55 89
REMARK SMILES IDX 56 90 60 91 63 92 57 93 58 94 61 95 59 96
REMARK H PARENT 20 4 14 9 4 12 17 24 24 30 83 49 51 60
REMARK Flexibility Score: inf
ROOT
ATOM      1  C   UNL     1       2.654   2.832   2.199  1.00  0.00     0.244 C 
ATOM      2  O   UNL     1       1.857   3.776   2.225  1.00  0.00    -0.273 OA
ATOM      3  N   UNL     1       3.969   3.146   2.346  1.00  0.00    -0.354 N 
ATOM      4  H   UNL     1       4.163   4.110   2.298  1.00  0.00     0.163 HD
ENDROOT
BRANCH   1   5
ATOM      5  C   UNL     1       2.144   1.388   2.078  1.00  0.00     0.197 C 
BRANCH   5   6
ATOM      6  N   UNL     1       2.791   0.630   1.004  1.00  0.00    -0.341 N 
ATOM      7  O   UNL     1       0.868  -0.419   0.341  1.00  0.00    -0.274 OA
ATOM      8  C   UNL     1       2.057  -0.175   0.159  1.00  0.00     0.235 C 
ATOM      9  H   UNL     1       3.766   0.697   0.883  1.00  0.00     0.164 HD
BRANCH   8  10
ATOM     10  C   UNL     1       2.842  -0.796  -0.987  1.00  0.00     0.198 C 
BRANCH  10  11
ATOM     11  N   UNL     1       3.881   0.131  -1.496  1.00  0.00    -0.202 NA
ATOM     12  H   UNL     1       4.547   0.306  -0.744  1.00  0.00     0.141 HD
BRANCH  11  13
ATOM     13  S   UNL     1       4.744  -0.437  -2.846  1.00  0.00     0.241 S 
ATOM     14  O   UNL     1       3.780  -0.996  -3.765  1.00  0.00    -0.207 OA
ATOM     15  O   UNL     1       5.636   0.633  -3.229  1.00  0.00    -0.207 OA
BRANCH  13  16
ATOM     16  C   UNL     1       5.712  -1.743  -2.147  1.00  0.00     0.082 A 
ATOM     17  C   UNL     1       5.415  -3.074  -2.457  1.00  0.00     0.022 A 
ATOM     18  C   UNL     1       6.752  -1.423  -1.270  1.00  0.00     0.022 A 
ATOM     19  C   UNL     1       6.149  -4.095  -1.855  1.00  0.00     0.001 A 
ATOM     20  C   UNL     1       7.480  -2.451  -0.673  1.00  0.00     0.001 A 
ATOM     21  C   UNL     1       7.175  -3.783  -0.960  1.00  0.00     0.000 A 
ENDBRANCH  13  16
ENDBRANCH  11  13
ENDBRANCH  10  11
ENDBRANCH   8  10
ENDBRANCH   5   6
BRANCH   5  22
ATOM     22  C   UNL     1       2.108   0.666   3.434  1.00  0.00     0.191 C 
BRANCH  22  23
ATOM     23  O   UNL     1       3.360   0.098   3.815  1.00  0.00    -0.394 OA
ATOM     24  H   UNL     1       3.620  -0.576   3.167  1.00  0.00     0.210 HD
ENDBRANCH  22  23
ENDBRANCH   5  22
ENDBRANCH   1   5
BRANCH   3  25
ATOM     25  C   UNL     1       5.135   2.311   2.561  1.00  0.00     0.117 C 
BRANCH  25  26
ATOM     26  C   UNL     1       6.195   2.517   1.489  1.00  0.00     0.042 C 
BRANCH  26  27
ATOM     27  C   UNL     1       6.756   3.932   1.427  1.00  0.00     0.118 C 
BRANCH  27  28
ATOM     28  N   UNL     1       7.503   4.301   2.622  1.00  0.00    -0.352 N 
ATOM     29  C   UNL     1       8.837   4.586   2.787  1.00  0.00     0.251 C 
ATOM     30  H   UNL     1       6.965   4.355   3.444  1.00  0.00     0.163 HD
ATOM     31  O   UNL     1       9.296   4.712   3.918  1.00  0.00    -0.269 OA
BRANCH  29  32
ATOM     32  C   UNL     1       9.732   4.711   1.615  1.00  0.00     0.039 A 
ATOM     33  C   UNL     1      11.009   4.145   1.679  1.00  0.00     0.014 A 
ATOM     34  C   UNL     1       9.329   5.389   0.464  1.00  0.00     0.014 A 
ATOM     35  C   UNL     1      11.845   4.189   0.561  1.00  0.00     0.010 A 
ATOM     36  C   UNL     1      10.123   5.351  -0.678  1.00  0.00     0.010 A 
ATOM     37  C   UNL     1      11.391   4.753  -0.642  1.00  0.00    -0.014 A 
BRANCH  37  38
ATOM     38  C   UNL     1      12.223   4.733  -1.873  1.00  0.00     0.031 A 
ATOM     39  C   UNL     1      12.660   6.023  -2.509  1.00  0.00     0.074 A 
ATOM     40  C   UNL     1      12.519   3.557  -2.460  1.00  0.00     0.049 A 
ATOM     41  N   UNL     1      13.303   6.217  -3.634  1.00  0.00    -0.248 NA
ATOM     42  C   UNL     1      12.300   7.264  -1.805  1.00  0.00     0.031 C 
ATOM     43  C   UNL     1      12.114   2.239  -1.968  1.00  0.00     0.029 A 
ATOM     44  N   UNL     1      13.223   3.280  -3.605  1.00  0.00    -0.354 N 
ATOM     45  C   UNL     1      13.396   7.594  -3.784  1.00  0.00     0.074 A 
ATOM     46  C   UNL     1      12.707   8.191  -2.660  1.00  0.00     0.031 C 
ATOM     47  C   UNL     1      12.604   1.294  -2.786  1.00  0.00     0.029 A 
ATOM     48  C   UNL     1      13.320   1.938  -3.883  1.00  0.00     0.049 A 
ATOM     49  H   UNL     1      13.622   3.978  -4.175  1.00  0.00     0.167 HD
ATOM     50  C   UNL     1      14.018   8.297  -4.759  1.00  0.00     0.037 A 
ATOM     51  C   UNL     1      13.916   1.300  -4.908  1.00  0.00     0.037 A 
ATOM     52  C   UNL     1      14.744   7.702  -5.849  1.00  0.00     0.049 A 
ATOM     53  C   UNL     1      14.611   2.107  -5.971  1.00  0.00     0.074 A 
ATOM     54  C   UNL     1      15.475   8.329  -6.843  1.00  0.00     0.029 A 
ATOM     55  N   UNL     1      14.835   6.338  -6.085  1.00  0.00    -0.354 N 
ATOM     56  N   UNL     1      14.745   3.407  -6.068  1.00  0.00    -0.248 NA
ATOM     57  C   UNL     1      15.239   1.355  -7.066  1.00  0.00     0.031 C 
ATOM     58  C   UNL     1      15.975   7.347  -7.704  1.00  0.00     0.029 A 
ATOM     59  C   UNL     1      15.595   6.106  -7.220  1.00  0.00     0.049 A 
ATOM     60  H   UNL     1      14.421   5.639  -5.529  1.00  0.00     0.167 HD
ATOM     61  C   UNL     1      15.496   3.628  -7.214  1.00  0.00     0.074 A 
ATOM     62  C   UNL     1      15.799   2.326  -7.773  1.00  0.00     0.031 C 
ATOM     63  C   UNL     1      15.900   4.803  -7.754  1.00  0.00     0.037 A 
BRANCH  50  64
ATOM     64  C   UNL     1      13.951   9.795  -4.691  1.00  0.00     0.064 A 
ATOM     65  C   UNL     1      14.657  10.520  -3.719  1.00  0.00     0.173 A 
ATOM     66  C   UNL     1      13.212  10.517  -5.640  1.00  0.00     0.173 A 
ATOM     67  F   UNL     1      15.369   9.876  -2.781  1.00  0.00    -0.203 F 
ATOM     68  C   UNL     1      14.606  11.911  -3.685  1.00  0.00     0.198 A 
ATOM     69  C   UNL     1      13.187  11.909  -5.621  1.00  0.00     0.198 A 
ATOM     70  F   UNL     1      12.523   9.873  -6.594  1.00  0.00    -0.203 F 
ATOM     71  F   UNL     1      15.254  12.580  -2.721  1.00  0.00    -0.200 F 
ATOM     72  C   UNL     1      13.879  12.604  -4.640  1.00  0.00     0.200 A 
ATOM     73  F   UNL     1      12.493  12.579  -6.552  1.00  0.00    -0.200 F 
ATOM     74  F   UNL     1      13.840  13.944  -4.613  1.00  0.00    -0.200 F 
ENDBRANCH  50  64
BRANCH  51  75
ATOM     75  C   UNL     1      13.921  -0.184  -4.958  1.00  0.00     0.064 A 
ATOM     76  C   UNL     1      15.106  -0.900  -4.739  1.00  0.00     0.173 A 
ATOM     77  C   UNL     1      12.755  -0.916  -5.224  1.00  0.00     0.173 A 
ATOM     78  F   UNL     1      16.251  -0.243  -4.501  1.00  0.00    -0.203 F 
ATOM     79  C   UNL     1      15.129  -2.292  -4.800  1.00  0.00     0.198 A 
ATOM     80  C   UNL     1      12.774  -2.309  -5.260  1.00  0.00     0.198 A 
ATOM     81  F   UNL     1      11.595  -0.279  -5.436  1.00  0.00    -0.203 F 
ATOM     82  F   UNL     1      16.284  -2.949  -4.626  1.00  0.00    -0.200 F 
ATOM     83  C   UNL     1      13.962  -2.995  -5.055  1.00  0.00     0.200 A 
ATOM     84  F   UNL     1      11.642  -2.987  -5.492  1.00  0.00    -0.200 F 
ATOM     85  F   UNL     1      13.983  -4.334  -5.109  1.00  0.00    -0.200 F 
ENDBRANCH  51  75
BRANCH  63  86
ATOM     86  C   UNL     1      16.748   4.739  -8.989  1.00  0.00     0.064 A 
ATOM     87  C   UNL     1      16.210   4.388 -10.235  1.00  0.00     0.173 A 
ATOM     88  C   UNL     1      18.109   5.078  -8.931  1.00  0.00     0.173 A 
ATOM     89  F   UNL     1      14.918   4.041 -10.338  1.00  0.00    -0.203 F 
ATOM     90  C   UNL     1      17.008   4.357 -11.375  1.00  0.00     0.198 A 
ATOM     91  C   UNL     1      18.897   5.074 -10.078  1.00  0.00     0.198 A 
ATOM     92  F   UNL     1      18.670   5.428  -7.764  1.00  0.00    -0.203 F 
ATOM     93  F   UNL     1      16.483   3.977 -12.548  1.00  0.00    -0.200 F 
ATOM     94  C   UNL     1      18.348   4.708 -11.297  1.00  0.00     0.200 A 
ATOM     95  F   UNL     1      20.188   5.426 -10.003  1.00  0.00    -0.200 F 
ATOM     96  F   UNL     1      19.113   4.686 -12.398  1.00  0.00    -0.200 F 
ENDBRANCH  63  86
ENDBRANCH  37  38
ENDBRANCH  29  32
ENDBRANCH  27  28
ENDBRANCH  26  27
ENDBRANCH  25  26
ENDBRANCH   3  25
TORSDOF 17
