REMARK SMILES CC[NH2+][C@@]1(C(=O)NCCCNC(=O)c2ccc(-c3c4nc(c(-c5c(F)c(F)c(F)c(F)c5F)c5ccc([nH]5)c(-c5c(F)c(F)c(F)c(F)c5F)c5nc(c(-c6c(F)c(F)c(F)c(F)c6F)c6ccc3[nH]6)C=C5)C=C4)cc2)CCC[C@@H]1CC[N@@H+](C)C1CCCC1
REMARK SMILES IDX 8 1 7 2 5 3 6 4 4 6 77 7 80 8 78 9 79 10 3 11 2 14 1 15
REMARK SMILES IDX 81 16 82 17 83 18 84 19 85 21 86 22 89 23 87 24 88 25 9 26
REMARK SMILES IDX 10 27 11 28 12 29 13 31 14 32 15 33 76 34 16 35 75 36 17 37
REMARK SMILES IDX 18 38 19 39 69 40 20 41 74 42 68 43 70 44 21 45 73 46 67 47
REMARK SMILES IDX 66 48 22 50 54 51 34 52 53 53 35 54 38 55 52 56 71 57 36 58
REMARK SMILES IDX 37 59 51 61 72 62 39 63 23 64 24 65 32 66 25 67 26 68 30 69
REMARK SMILES IDX 33 70 27 71 28 72 31 73 29 74 55 75 56 76 64 77 57 78 58 79
REMARK SMILES IDX 62 80 65 81 59 82 60 83 63 84 61 85 40 86 41 87 49 88 42 89
REMARK SMILES IDX 43 90 47 91 50 92 44 93 45 94 48 95 46 96
REMARK H PARENT 7 5 3 12 3 13 83 20 11 30 70 49 38 60
REMARK Flexibility Score: inf
ROOT
ATOM      1  C   UNL     1      -2.949   0.317  -5.322  1.00  0.00     0.118 C 
ENDROOT
BRANCH   1   2
ATOM      2  N   UNL     1      -2.522   0.229  -3.755  1.00  0.00    -0.351 N 
ATOM      3  C   UNL     1      -1.525  -0.196  -2.787  1.00  0.00     0.281 C 
ATOM      4  O   UNL     1      -2.019  -0.205  -1.641  1.00  0.00    -0.268 OA
ATOM      5  H   UNL     1      -3.255   0.639  -3.241  1.00  0.00     0.163 HD
BRANCH   3   6
ATOM      6  C   UNL     1       0.290  -0.626  -2.991  1.00  0.00     0.178 C 
ATOM      7  C   UNL     1       0.708   0.935  -4.065  1.00  0.00     0.079 C 
ATOM      8  C   UNL     1       1.290  -2.051  -3.941  1.00  0.00     0.066 C 
ATOM      9  C   UNL     1       1.447   0.177  -5.977  1.00  0.00     0.008 C 
ATOM     10  C   UNL     1       1.625  -1.698  -5.767  1.00  0.00     0.011 C 
BRANCH   6  11
ATOM     11  N   UNL     1       0.787  -0.715  -1.592  1.00  0.00    -0.334 N 
ATOM     12  H   UNL     1       0.230  -1.421  -1.111  1.00  0.00     0.347 HD
ATOM     13  H   UNL     1       1.780  -0.938  -1.675  1.00  0.00     0.347 HD
BRANCH  11  14
ATOM     14  C   UNL     1       0.736   0.504  -0.798  1.00  0.00     0.257 C 
ATOM     15  C   UNL     1       1.200   0.187   0.618  1.00  0.00     0.071 C 
ENDBRANCH  11  14
ENDBRANCH   6  11
BRANCH   8  16
ATOM     16  C   UNL     1       0.896  -3.469  -4.049  1.00  0.00     0.072 C 
BRANCH  16  17
ATOM     17  C   UNL     1      -0.511  -3.225  -3.937  1.00  0.00     0.262 C 
BRANCH  17  18
ATOM     18  N   UNL     1      -0.981  -2.079  -4.809  1.00  0.00    -0.335 N 
ATOM     19  C   UNL     1      -2.421  -2.262  -4.193  1.00  0.00     0.332 C 
ATOM     20  H   UNL     1      -0.926  -2.018  -5.826  1.00  0.00     0.348 HD
BRANCH  18  21
ATOM     21  C   UNL     1       0.057  -0.548  -5.023  1.00  0.00     0.183 C 
ATOM     22  C   UNL     1       2.102  -0.178  -4.310  1.00  0.00     0.065 C 
ATOM     23  C   UNL     1      -0.302   1.247  -5.899  1.00  0.00     0.065 C 
ATOM     24  C   UNL     1       2.623   1.619  -4.851  1.00  0.00     0.006 C 
ATOM     25  C   UNL     1       1.205   2.381  -5.709  1.00  0.00     0.006 C 
ENDBRANCH  18  21
ENDBRANCH  17  18
ENDBRANCH  16  17
ENDBRANCH   8  16
ENDBRANCH   3   6
ENDBRANCH   1   2
BRANCH   1  26
ATOM     26  C   UNL     1      -2.809  -0.774  -6.481  1.00  0.00     0.042 C 
BRANCH  26  27
ATOM     27  C   UNL     1      -4.108  -1.048  -7.204  1.00  0.00     0.118 C 
BRANCH  27  28
ATOM     28  N   UNL     1      -4.511   0.093  -7.992  1.00  0.00    -0.352 N 
ATOM     29  C   UNL     1      -4.822   0.136  -9.327  1.00  0.00     0.251 C 
ATOM     30  H   UNL     1      -4.569   0.949  -7.509  1.00  0.00     0.163 HD
ATOM     31  O   UNL     1      -4.862   1.211  -9.913  1.00  0.00    -0.269 OA
BRANCH  29  32
ATOM     32  C   UNL     1      -5.065  -1.131 -10.048  1.00  0.00     0.039 A 
ATOM     33  C   UNL     1      -4.621  -1.270 -11.364  1.00  0.00     0.014 A 
ATOM     34  C   UNL     1      -5.671  -2.203  -9.391  1.00  0.00     0.014 A 
ATOM     35  C   UNL     1      -4.737  -2.507 -11.995  1.00  0.00     0.010 A 
ATOM     36  C   UNL     1      -5.605  -3.465  -9.945  1.00  0.00     0.010 A 
ATOM     37  C   UNL     1      -5.189  -3.622 -11.272  1.00  0.00    -0.014 A 
BRANCH  37  38
ATOM     38  C   UNL     1      -5.322  -4.964 -11.878  1.00  0.00     0.031 A 
ATOM     39  C   UNL     1      -6.668  -5.637 -11.853  1.00  0.00     0.074 A 
ATOM     40  C   UNL     1      -4.235  -5.598 -12.351  1.00  0.00     0.049 A 
ATOM     41  N   UNL     1      -6.988  -6.861 -12.181  1.00  0.00    -0.248 NA
ATOM     42  C   UNL     1      -7.800  -4.844 -11.336  1.00  0.00     0.031 C 
ATOM     43  C   UNL     1      -2.877  -5.052 -12.377  1.00  0.00     0.029 A 
ATOM     44  N   UNL     1      -4.100  -6.851 -12.890  1.00  0.00    -0.354 N 
ATOM     45  C   UNL     1      -8.339  -6.983 -11.885  1.00  0.00     0.074 A 
ATOM     46  C   UNL     1      -8.759  -5.750 -11.265  1.00  0.00     0.031 C 
ATOM     47  C   UNL     1      -2.053  -5.950 -12.940  1.00  0.00     0.029 A 
ATOM     48  C   UNL     1      -2.811  -7.156 -13.251  1.00  0.00     0.049 A 
ATOM     49  H   UNL     1      -4.855  -7.472 -13.007  1.00  0.00     0.167 HD
ATOM     50  C   UNL     1      -9.164  -8.022 -12.143  1.00  0.00     0.037 A 
ATOM     51  C   UNL     1      -2.303  -8.295 -13.757  1.00  0.00     0.037 A 
ATOM     52  C   UNL     1      -8.731  -9.232 -12.782  1.00  0.00     0.049 A 
ATOM     53  C   UNL     1      -3.235  -9.452 -14.002  1.00  0.00     0.074 A 
ATOM     54  C   UNL     1      -9.484 -10.332 -13.143  1.00  0.00     0.029 A 
ATOM     55  N   UNL     1      -7.419  -9.500 -13.147  1.00  0.00    -0.354 N 
ATOM     56  N   UNL     1      -4.524  -9.539 -13.777  1.00  0.00    -0.248 NA
ATOM     57  C   UNL     1      -2.644 -10.667 -14.576  1.00  0.00     0.031 C 
ATOM     58  C   UNL     1      -8.615 -11.300 -13.650  1.00  0.00     0.029 A 
ATOM     59  C   UNL     1      -7.337 -10.765 -13.700  1.00  0.00     0.049 A 
ATOM     60  H   UNL     1      -6.661  -8.883 -13.031  1.00  0.00     0.167 HD
ATOM     61  C   UNL     1      -4.907 -10.796 -14.225  1.00  0.00     0.074 A 
ATOM     62  C   UNL     1      -3.712 -11.436 -14.735  1.00  0.00     0.031 C 
ATOM     63  C   UNL     1      -6.136 -11.368 -14.222  1.00  0.00     0.037 A 
BRANCH  50  64
ATOM     64  C   UNL     1     -10.602  -7.892 -11.729  1.00  0.00     0.064 A 
ATOM     65  C   UNL     1     -11.462  -6.945 -12.309  1.00  0.00     0.173 A 
ATOM     66  C   UNL     1     -11.135  -8.743 -10.749  1.00  0.00     0.173 A 
ATOM     67  F   UNL     1     -11.003  -6.094 -13.240  1.00  0.00    -0.203 F 
ATOM     68  C   UNL     1     -12.786  -6.829 -11.895  1.00  0.00     0.198 A 
ATOM     69  C   UNL     1     -12.472  -8.655 -10.371  1.00  0.00     0.198 A 
ATOM     70  F   UNL     1     -10.360  -9.667 -10.160  1.00  0.00    -0.203 F 
ATOM     71  F   UNL     1     -13.566  -5.871 -12.414  1.00  0.00    -0.200 F 
ATOM     72  C   UNL     1     -13.293  -7.691 -10.935  1.00  0.00     0.200 A 
ATOM     73  F   UNL     1     -12.963  -9.501  -9.455  1.00  0.00    -0.200 F 
ATOM     74  F   UNL     1     -14.571  -7.587 -10.546  1.00  0.00    -0.200 F 
ENDBRANCH  50  64
BRANCH  51  75
ATOM     75  C   UNL     1      -0.854  -8.389 -14.076  1.00  0.00     0.064 A 
ATOM     76  C   UNL     1      -0.415  -8.533 -15.400  1.00  0.00     0.173 A 
ATOM     77  C   UNL     1       0.122  -8.348 -13.069  1.00  0.00     0.173 A 
ATOM     78  F   UNL     1      -1.308  -8.587 -16.400  1.00  0.00    -0.203 F 
ATOM     79  C   UNL     1       0.939  -8.669 -15.700  1.00  0.00     0.198 A 
ATOM     80  C   UNL     1       1.478  -8.444 -13.374  1.00  0.00     0.198 A 
ATOM     81  F   UNL     1      -0.241  -8.198 -11.787  1.00  0.00    -0.203 F 
ATOM     82  F   UNL     1       1.324  -8.869 -16.968  1.00  0.00    -0.200 F 
ATOM     83  C   UNL     1       1.885  -8.620 -14.688  1.00  0.00     0.200 A 
ATOM     84  F   UNL     1       2.389  -8.372 -12.394  1.00  0.00    -0.200 F 
ATOM     85  F   UNL     1       3.186  -8.750 -14.976  1.00  0.00    -0.200 F 
ENDBRANCH  51  75
BRANCH  63  86
ATOM     86  C   UNL     1      -6.277 -12.720 -14.860  1.00  0.00     0.064 A 
ATOM     87  C   UNL     1      -5.734 -13.877 -14.286  1.00  0.00     0.173 A 
ATOM     88  C   UNL     1      -7.042 -12.861 -16.029  1.00  0.00     0.173 A 
ATOM     89  F   UNL     1      -4.988 -13.796 -13.174  1.00  0.00    -0.203 F 
ATOM     90  C   UNL     1      -5.929 -15.124 -14.875  1.00  0.00     0.198 A 
ATOM     91  C   UNL     1      -7.272 -14.113 -16.589  1.00  0.00     0.198 A 
ATOM     92  F   UNL     1      -7.593 -11.786 -16.612  1.00  0.00    -0.203 F 
ATOM     93  F   UNL     1      -5.359 -16.212 -14.339  1.00  0.00    -0.200 F 
ATOM     94  C   UNL     1      -6.708 -15.242 -16.017  1.00  0.00     0.200 A 
ATOM     95  F   UNL     1      -8.047 -14.226 -17.676  1.00  0.00    -0.200 F 
ATOM     96  F   UNL     1      -6.914 -16.446 -16.568  1.00  0.00    -0.200 F 
ENDBRANCH  63  86
ENDBRANCH  37  38
ENDBRANCH  29  32
ENDBRANCH  27  28
ENDBRANCH  26  27
ENDBRANCH   1  26
TORSDOF 16
