REMARK SMILES Cc1c(CCC(=O)N2CCC[C@H]2C(=O)NCCCNC(=O)c2ccc(-c3c4nc(c(-c5c(F)c(F)c(F)c(F)c5F)c5ccc([nH]5)c(-c5c(F)c(F)c(F)c(F)c5F)c5nc(c(-c6c(F)c(F)c(F)c(F)c6F)c6ccc3[nH]6)C=C5)C=C4)cc2)c(=O)oc2cc3oc4c(c3cc12)CCCC4
REMARK SMILES IDX 16 1 15 2 13 3 14 4 12 6 8 7 9 8 10 9 11 10 6 11 7 12 5 13
REMARK SMILES IDX 4 14 3 15 1 16 2 17 96 18 85 19 88 20 95 21 86 22 87 23
REMARK SMILES IDX 89 24 94 25 90 26 93 27 91 28 92 29 97 30 100 31 98 32 99 33
REMARK SMILES IDX 17 34 18 35 19 36 20 37 21 39 22 40 23 41 84 42 24 43 83 44
REMARK SMILES IDX 25 45 26 46 27 47 77 48 28 49 82 50 76 51 78 52 29 53 81 54
REMARK SMILES IDX 75 55 74 56 30 58 62 59 42 60 61 61 43 62 46 63 60 64 79 65
REMARK SMILES IDX 44 66 45 67 59 69 80 70 47 71 31 72 32 73 40 74 33 75 34 76
REMARK SMILES IDX 38 77 41 78 35 79 36 80 39 81 37 82 63 83 64 84 72 85 65 86
REMARK SMILES IDX 66 87 70 88 73 89 67 90 68 91 71 92 69 93 48 94 49 95 57 96
REMARK SMILES IDX 50 97 51 98 55 99 58 100 52 101 53 102 56 103 54 104
REMARK H PARENT 15 5 19 38 78 57 46 68
REMARK Flexibility Score: inf
ROOT
ATOM      1  C   UNL     1       1.320   1.688   1.464  1.00  0.00     0.117 C 
ENDROOT
BRANCH   1   2
ATOM      2  N   UNL     1       0.981   0.823   2.569  1.00  0.00    -0.354 N 
ATOM      3  C   UNL     1      -0.048  -0.005   2.830  1.00  0.00     0.242 C 
ATOM      4  O   UNL     1      -0.057  -0.413   4.005  1.00  0.00    -0.273 OA
ATOM      5  H   UNL     1       1.651   0.842   3.290  1.00  0.00     0.163 HD
BRANCH   3   6
ATOM      6  C   UNL     1      -1.204  -0.436   1.879  1.00  0.00     0.174 C 
ATOM      7  N   UNL     1      -1.314  -0.337   0.404  1.00  0.00    -0.331 N 
ATOM      8  C   UNL     1      -1.708  -1.622  -0.169  1.00  0.00     0.120 C 
ATOM      9  C   UNL     1      -2.148  -2.489   0.989  1.00  0.00     0.024 C 
ATOM     10  C   UNL     1      -1.317  -1.962   2.132  1.00  0.00     0.037 C 
BRANCH   7  11
ATOM     11  C   UNL     1      -1.526   0.876  -0.232  1.00  0.00     0.223 C 
ATOM     12  O   UNL     1      -1.525   1.933   0.404  1.00  0.00    -0.275 OA
BRANCH  11  13
ATOM     13  C   UNL     1      -1.748   0.913  -1.753  1.00  0.00     0.105 C 
BRANCH  13  14
ATOM     14  C   UNL     1      -0.476   0.927  -2.623  1.00  0.00     0.053 C 
BRANCH  14  15
ATOM     15  C   UNL     1       0.269  -0.380  -2.582  1.00  0.00     0.042 A 
ATOM     16  C   UNL     1       2.422   0.460  -1.487  1.00  0.00     0.046 C 
ATOM     17  C   UNL     1       1.420  -0.568  -1.919  1.00  0.00    -0.030 A 
ATOM     18  C   UNL     1       1.617  -1.934  -1.455  1.00  0.00     0.022 A 
ATOM     19  C   UNL     1      -0.317  -1.535  -3.342  1.00  0.00     0.339 A 
ATOM     20  C   UNL     1       1.240  -2.994  -2.271  1.00  0.00     0.142 A 
ATOM     21  C   UNL     1       2.003  -2.187  -0.141  1.00  0.00     0.024 A 
ATOM     22  O   UNL     1      -1.367  -1.421  -3.964  1.00  0.00    -0.246 OA
ATOM     23  O   UNL     1       0.434  -2.715  -3.388  1.00  0.00    -0.422 OA
ATOM     24  C   UNL     1       1.553  -4.326  -1.973  1.00  0.00     0.095 A 
ATOM     25  C   UNL     1       2.254  -3.505   0.229  1.00  0.00     0.025 A 
ATOM     26  C   UNL     1       2.162  -4.507  -0.732  1.00  0.00     0.138 A 
ATOM     27  C   UNL     1       2.795  -4.090   1.387  1.00  0.00     0.001 A 
ATOM     28  O   UNL     1       2.864  -5.604  -0.300  1.00  0.00    -0.461 OA
ATOM     29  C   UNL     1       3.388  -5.234   0.900  1.00  0.00     0.108 A 
ATOM     30  C   UNL     1       3.303  -3.449   2.622  1.00  0.00     0.040 C 
ATOM     31  C   UNL     1       4.789  -5.580   1.272  1.00  0.00     0.076 C 
ATOM     32  C   UNL     1       4.819  -3.234   2.471  1.00  0.00     0.005 C 
ATOM     33  C   UNL     1       5.517  -4.211   1.473  1.00  0.00     0.008 C 
ENDBRANCH  14  15
ENDBRANCH  13  14
ENDBRANCH  11  13
ENDBRANCH   7  11
ENDBRANCH   3   6
ENDBRANCH   1   2
BRANCH   1  34
ATOM     34  C   UNL     1       1.054   3.154   1.784  1.00  0.00     0.042 C 
BRANCH  34  35
ATOM     35  C   UNL     1       2.069   3.711   2.789  1.00  0.00     0.118 C 
BRANCH  35  36
ATOM     36  N   UNL     1       3.317   4.181   2.193  1.00  0.00    -0.352 N 
ATOM     37  C   UNL     1       3.576   5.294   1.419  1.00  0.00     0.251 C 
ATOM     38  H   UNL     1       4.100   3.611   2.373  1.00  0.00     0.163 HD
ATOM     39  O   UNL     1       4.691   5.497   0.973  1.00  0.00    -0.269 OA
BRANCH  37  40
ATOM     40  C   UNL     1       2.460   6.195   1.066  1.00  0.00     0.039 A 
ATOM     41  C   UNL     1       1.601   6.681   2.050  1.00  0.00     0.014 A 
ATOM     42  C   UNL     1       2.228   6.468  -0.287  1.00  0.00     0.014 A 
ATOM     43  C   UNL     1       0.397   7.250   1.675  1.00  0.00     0.010 A 
ATOM     44  C   UNL     1       1.048   7.104  -0.662  1.00  0.00     0.010 A 
ATOM     45  C   UNL     1       0.103   7.422   0.317  1.00  0.00    -0.014 A 
BRANCH  45  46
ATOM     46  C   UNL     1      -1.239   7.924   0.016  1.00  0.00     0.031 A 
ATOM     47  C   UNL     1      -1.277   9.324  -0.497  1.00  0.00     0.074 A 
ATOM     48  C   UNL     1      -2.203   7.070  -0.383  1.00  0.00     0.049 A 
ATOM     49  N   UNL     1      -1.093   9.645  -1.743  1.00  0.00    -0.248 NA
ATOM     50  C   UNL     1      -1.285  10.466   0.418  1.00  0.00     0.031 C 
ATOM     51  C   UNL     1      -2.009   5.950  -1.310  1.00  0.00     0.029 A 
ATOM     52  N   UNL     1      -3.565   7.152  -0.221  1.00  0.00    -0.354 N 
ATOM     53  C   UNL     1      -0.913  11.016  -1.783  1.00  0.00     0.074 A 
ATOM     54  C   UNL     1      -1.046  11.484  -0.421  1.00  0.00     0.031 C 
ATOM     55  C   UNL     1      -3.213   5.566  -1.778  1.00  0.00     0.029 A 
ATOM     56  C   UNL     1      -4.257   6.319  -1.092  1.00  0.00     0.049 A 
ATOM     57  H   UNL     1      -4.002   7.736   0.440  1.00  0.00     0.167 HD
ATOM     58  C   UNL     1      -0.665  11.701  -2.929  1.00  0.00     0.037 A 
ATOM     59  C   UNL     1      -5.485   6.608  -1.599  1.00  0.00     0.037 A 
ATOM     60  C   UNL     1      -0.650  10.924  -4.129  1.00  0.00     0.049 A 
ATOM     61  C   UNL     1      -5.104   7.612  -2.664  1.00  0.00     0.074 A 
ATOM     62  C   UNL     1       0.292  10.280  -4.901  1.00  0.00     0.029 A 
ATOM     63  N   UNL     1      -1.858  10.619  -4.711  1.00  0.00    -0.354 N 
ATOM     64  N   UNL     1      -4.616   7.334  -3.847  1.00  0.00    -0.248 NA
ATOM     65  C   UNL     1      -4.918   9.005  -2.247  1.00  0.00     0.031 C 
ATOM     66  C   UNL     1      -0.428   9.278  -5.623  1.00  0.00     0.029 A 
ATOM     67  C   UNL     1      -1.754   9.341  -5.198  1.00  0.00     0.049 A 
ATOM     68  H   UNL     1      -2.647  11.206  -4.767  1.00  0.00     0.167 HD
ATOM     69  C   UNL     1      -3.823   8.435  -4.186  1.00  0.00     0.074 A 
ATOM     70  C   UNL     1      -4.093   9.445  -3.188  1.00  0.00     0.031 C 
ATOM     71  C   UNL     1      -2.841   8.393  -5.133  1.00  0.00     0.037 A 
BRANCH  58  72
ATOM     72  C   UNL     1      -0.578  13.168  -3.023  1.00  0.00     0.064 A 
ATOM     73  C   UNL     1      -1.688  13.868  -3.515  1.00  0.00     0.173 A 
ATOM     74  C   UNL     1       0.620  13.864  -2.841  1.00  0.00     0.173 A 
ATOM     75  F   UNL     1      -2.853  13.226  -3.707  1.00  0.00    -0.203 F 
ATOM     76  C   UNL     1      -1.593  15.210  -3.862  1.00  0.00     0.198 A 
ATOM     77  C   UNL     1       0.712  15.213  -3.182  1.00  0.00     0.198 A 
ATOM     78  F   UNL     1       1.708  13.230  -2.378  1.00  0.00    -0.203 F 
ATOM     79  F   UNL     1      -2.656  15.841  -4.377  1.00  0.00    -0.200 F 
ATOM     80  C   UNL     1      -0.389  15.879  -3.706  1.00  0.00     0.200 A 
ATOM     81  F   UNL     1       1.874  15.863  -3.034  1.00  0.00    -0.200 F 
ATOM     82  F   UNL     1      -0.287  17.163  -4.075  1.00  0.00    -0.200 F 
ENDBRANCH  58  72
BRANCH  59  83
ATOM     83  C   UNL     1      -6.536   6.819  -0.551  1.00  0.00     0.064 A 
ATOM     84  C   UNL     1      -6.690   5.820   0.439  1.00  0.00     0.173 A 
ATOM     85  C   UNL     1      -7.364   7.940  -0.424  1.00  0.00     0.173 A 
ATOM     86  F   UNL     1      -6.027   4.657   0.332  1.00  0.00    -0.203 F 
ATOM     87  C   UNL     1      -7.498   6.005   1.560  1.00  0.00     0.198 A 
ATOM     88  C   UNL     1      -8.157   8.136   0.711  1.00  0.00     0.198 A 
ATOM     89  F   UNL     1      -7.408   8.881  -1.375  1.00  0.00    -0.203 F 
ATOM     90  F   UNL     1      -7.563   5.055   2.503  1.00  0.00    -0.200 F 
ATOM     91  C   UNL     1      -8.204   7.182   1.713  1.00  0.00     0.200 A 
ATOM     92  F   UNL     1      -8.851   9.275   0.845  1.00  0.00    -0.200 F 
ATOM     93  F   UNL     1      -8.928   7.397   2.819  1.00  0.00    -0.200 F 
ENDBRANCH  59  83
BRANCH  71  94
ATOM     94  C   UNL     1      -2.781   7.146  -5.941  1.00  0.00     0.064 A 
ATOM     95  C   UNL     1      -3.744   6.901  -6.926  1.00  0.00     0.173 A 
ATOM     96  C   UNL     1      -1.748   6.212  -5.776  1.00  0.00     0.173 A 
ATOM     97  F   UNL     1      -4.747   7.772  -7.125  1.00  0.00    -0.203 F 
ATOM     98  C   UNL     1      -3.662   5.773  -7.736  1.00  0.00     0.198 A 
ATOM     99  C   UNL     1      -1.654   5.100  -6.605  1.00  0.00     0.198 A 
ATOM    100  F   UNL     1      -0.809   6.384  -4.831  1.00  0.00    -0.203 F 
ATOM    101  F   UNL     1      -4.589   5.559  -8.680  1.00  0.00    -0.200 F 
ATOM    102  C   UNL     1      -2.610   4.882  -7.585  1.00  0.00     0.200 A 
ATOM    103  F   UNL     1      -0.626   4.249  -6.468  1.00  0.00    -0.200 F 
ATOM    104  F   UNL     1      -2.509   3.818  -8.393  1.00  0.00    -0.200 F 
ENDBRANCH  71  94
ENDBRANCH  45  46
ENDBRANCH  37  40
ENDBRANCH  35  36
ENDBRANCH  34  35
ENDBRANCH   1  34
TORSDOF 14
