REMARK SMILES CCC[N@H+](C1CC1)[C@H](C)[C@@H](C)C(=O)NCCCNC(=O)c1ccc(-c2c3nc(c(-c4c(F)c(F)c(F)c(F)c4F)c4ccc([nH]4)c(-c4c(F)c(F)c(F)c(F)c4F)c4nc(c(-c5c(F)c(F)c(F)c(F)c5F)c5ccc2[nH]5)C=C4)C=C3)cc1
REMARK SMILES IDX 15 1 14 2 12 3 13 4 10 6 11 7 8 8 9 9 4 10 3 12 2 13 1 14
REMARK SMILES IDX 5 15 6 16 7 17 16 18 17 19 18 20 19 21 20 23 21 24 22 25
REMARK SMILES IDX 83 26 23 27 82 28 24 29 25 30 26 31 76 32 27 33 81 34 75 35
REMARK SMILES IDX 77 36 28 37 80 38 74 39 73 40 29 42 61 43 41 44 60 45 42 46
REMARK SMILES IDX 45 47 59 48 78 49 43 50 44 51 58 53 79 54 46 55 30 56 31 57
REMARK SMILES IDX 39 58 32 59 33 60 37 61 40 62 34 63 35 64 38 65 36 66 62 67
REMARK SMILES IDX 63 68 71 69 64 70 65 71 69 72 72 73 66 74 67 75 70 76 68 77
REMARK SMILES IDX 47 78 48 79 56 80 49 81 50 82 54 83 57 84 51 85 52 86 55 87
REMARK SMILES IDX 53 88
REMARK H PARENT 14 5 4 11 18 22 77 41 45 52
REMARK Flexibility Score: inf
ROOT
ATOM      1  C   UNL     1      -1.010   4.103  -1.101  1.00  0.00     0.117 C 
ENDROOT
BRANCH   1   2
ATOM      2  N   UNL     1      -0.227   3.155  -1.878  1.00  0.00    -0.356 N 
ATOM      3  C   UNL     1       0.385   1.978  -1.578  1.00  0.00     0.228 C 
ATOM      4  O   UNL     1       0.958   1.408  -2.514  1.00  0.00    -0.275 OA
ATOM      5  H   UNL     1      -0.117   3.422  -2.820  1.00  0.00     0.163 HD
BRANCH   3   6
ATOM      6  C   UNL     1       0.366   1.336  -0.190  1.00  0.00     0.133 C 
ATOM      7  C   UNL     1      -1.060   0.835   0.079  1.00  0.00     0.024 C 
BRANCH   6   8
ATOM      8  C   UNL     1       1.026   2.218   0.914  1.00  0.00     0.193 C 
ATOM      9  C   UNL     1       0.324   2.089   2.279  1.00  0.00     0.076 C 
BRANCH   8  10
ATOM     10  N   UNL     1       2.511   2.110   1.075  1.00  0.00    -0.330 N 
ATOM     11  H   UNL     1       2.707   2.934   1.644  1.00  0.00     0.348 HD
BRANCH  10  12
ATOM     12  C   UNL     1       3.295   2.253  -0.170  1.00  0.00     0.262 C 
BRANCH  12  13
ATOM     13  C   UNL     1       3.241   3.630  -0.838  1.00  0.00     0.058 C 
ATOM     14  C   UNL     1       3.797   4.750   0.025  1.00  0.00     0.010 C 
ENDBRANCH  12  13
ENDBRANCH  10  12
BRANCH  10  15
ATOM     15  C   UNL     1       2.973   0.928   1.839  1.00  0.00     0.184 C 
ATOM     16  C   UNL     1       4.333   0.991   2.498  1.00  0.00     0.071 C 
ATOM     17  C   UNL     1       3.100   0.992   3.340  1.00  0.00     0.071 C 
ENDBRANCH  10  15
ENDBRANCH   8  10
ENDBRANCH   6   8
ENDBRANCH   3   6
ENDBRANCH   1   2
BRANCH   1  18
ATOM     18  C   UNL     1      -0.261   5.386  -0.732  1.00  0.00     0.042 C 
BRANCH  18  19
ATOM     19  C   UNL     1       0.428   6.109  -1.884  1.00  0.00     0.118 C 
BRANCH  19  20
ATOM     20  N   UNL     1      -0.509   6.745  -2.791  1.00  0.00    -0.352 N 
ATOM     21  C   UNL     1      -0.667   8.070  -3.116  1.00  0.00     0.251 C 
ATOM     22  H   UNL     1      -1.129   6.130  -3.245  1.00  0.00     0.163 HD
ATOM     23  O   UNL     1      -1.637   8.409  -3.789  1.00  0.00    -0.269 OA
BRANCH  21  24
ATOM     24  C   UNL     1       0.295   9.102  -2.660  1.00  0.00     0.039 A 
ATOM     25  C   UNL     1      -0.211  10.339  -2.244  1.00  0.00     0.014 A 
ATOM     26  C   UNL     1       1.678   8.904  -2.706  1.00  0.00     0.014 A 
ATOM     27  C   UNL     1       0.659  11.357  -1.840  1.00  0.00     0.010 A 
ATOM     28  C   UNL     1       2.545   9.899  -2.244  1.00  0.00     0.010 A 
ATOM     29  C   UNL     1       2.045  11.140  -1.820  1.00  0.00    -0.014 A 
BRANCH  29  30
ATOM     30  C   UNL     1       2.981  12.213  -1.393  1.00  0.00     0.031 A 
ATOM     31  C   UNL     1       3.921  12.839  -2.387  1.00  0.00     0.074 A 
ATOM     32  C   UNL     1       3.016  12.603  -0.104  1.00  0.00     0.049 A 
ATOM     33  N   UNL     1       4.849  13.744  -2.196  1.00  0.00    -0.248 NA
ATOM     34  C   UNL     1       3.819  12.369  -3.777  1.00  0.00     0.031 C 
ATOM     35  C   UNL     1       2.181  12.059   0.967  1.00  0.00     0.029 A 
ATOM     36  N   UNL     1       3.794  13.544   0.526  1.00  0.00    -0.354 N 
ATOM     37  C   UNL     1       5.451  13.937  -3.433  1.00  0.00     0.074 A 
ATOM     38  C   UNL     1       4.811  13.027  -4.360  1.00  0.00     0.031 C 
ATOM     39  C   UNL     1       2.480  12.684   2.117  1.00  0.00     0.029 A 
ATOM     40  C   UNL     1       3.548  13.650   1.873  1.00  0.00     0.049 A 
ATOM     41  H   UNL     1       4.464  14.091   0.056  1.00  0.00     0.167 HD
ATOM     42  C   UNL     1       6.435  14.805  -3.771  1.00  0.00     0.037 A 
ATOM     43  C   UNL     1       4.122  14.434   2.806  1.00  0.00     0.037 A 
ATOM     44  C   UNL     1       7.050  15.735  -2.861  1.00  0.00     0.049 A 
ATOM     45  C   UNL     1       5.205  15.396   2.403  1.00  0.00     0.074 A 
ATOM     46  C   UNL     1       8.018  16.689  -3.124  1.00  0.00     0.029 A 
ATOM     47  N   UNL     1       6.755  15.828  -1.510  1.00  0.00    -0.354 N 
ATOM     48  N   UNL     1       5.729  15.604   1.220  1.00  0.00    -0.248 NA
ATOM     49  C   UNL     1       5.773  16.238   3.466  1.00  0.00     0.031 C 
ATOM     50  C   UNL     1       8.331  17.339  -1.926  1.00  0.00     0.029 A 
ATOM     51  C   UNL     1       7.530  16.816  -0.924  1.00  0.00     0.049 A 
ATOM     52  H   UNL     1       6.092  15.275  -1.036  1.00  0.00     0.167 HD
ATOM     53  C   UNL     1       6.663  16.617   1.389  1.00  0.00     0.074 A 
ATOM     54  C   UNL     1       6.629  16.989   2.788  1.00  0.00     0.031 C 
ATOM     55  C   UNL     1       7.476  17.187   0.466  1.00  0.00     0.037 A 
BRANCH  42  56
ATOM     56  C   UNL     1       6.910  14.793  -5.194  1.00  0.00     0.064 A 
ATOM     57  C   UNL     1       6.121  15.306  -6.235  1.00  0.00     0.173 A 
ATOM     58  C   UNL     1       8.182  14.299  -5.516  1.00  0.00     0.173 A 
ATOM     59  F   UNL     1       4.892  15.780  -5.980  1.00  0.00    -0.203 F 
ATOM     60  C   UNL     1       6.580  15.302  -7.549  1.00  0.00     0.198 A 
ATOM     61  C   UNL     1       8.648  14.320  -6.828  1.00  0.00     0.198 A 
ATOM     62  F   UNL     1       8.978  13.803  -4.557  1.00  0.00    -0.203 F 
ATOM     63  F   UNL     1       5.792  15.758  -8.533  1.00  0.00    -0.200 F 
ATOM     64  C   UNL     1       7.845  14.815  -7.844  1.00  0.00     0.200 A 
ATOM     65  F   UNL     1       9.875  13.860  -7.110  1.00  0.00    -0.200 F 
ATOM     66  F   UNL     1       8.287  14.817  -9.109  1.00  0.00    -0.200 F 
ENDBRANCH  42  56
BRANCH  43  67
ATOM     67  C   UNL     1       3.662  14.360   4.216  1.00  0.00     0.064 A 
ATOM     68  C   UNL     1       2.921  15.404   4.785  1.00  0.00     0.173 A 
ATOM     69  C   UNL     1       3.957  13.251   5.022  1.00  0.00     0.173 A 
ATOM     70  F   UNL     1       2.635  16.495   4.059  1.00  0.00    -0.203 F 
ATOM     71  C   UNL     1       2.506  15.350   6.114  1.00  0.00     0.198 A 
ATOM     72  C   UNL     1       3.521  13.188   6.344  1.00  0.00     0.198 A 
ATOM     73  F   UNL     1       4.662  12.226   4.523  1.00  0.00    -0.203 F 
ATOM     74  F   UNL     1       1.834  16.380   6.646  1.00  0.00    -0.200 F 
ATOM     75  C   UNL     1       2.801  14.240   6.891  1.00  0.00     0.200 A 
ATOM     76  F   UNL     1       3.799  12.109   7.088  1.00  0.00    -0.200 F 
ATOM     77  F   UNL     1       2.399  14.187   8.168  1.00  0.00    -0.200 F 
ENDBRANCH  43  67
BRANCH  55  78
ATOM     78  C   UNL     1       8.367  18.301   0.928  1.00  0.00     0.064 A 
ATOM     79  C   UNL     1       9.507  18.056   1.707  1.00  0.00     0.173 A 
ATOM     80  C   UNL     1       8.098  19.626   0.552  1.00  0.00     0.173 A 
ATOM     81  F   UNL     1       9.796  16.808   2.105  1.00  0.00    -0.203 F 
ATOM     82  C   UNL     1      10.335  19.101   2.110  1.00  0.00     0.198 A 
ATOM     83  C   UNL     1       8.941  20.664   0.936  1.00  0.00     0.198 A 
ATOM     84  F   UNL     1       7.022  19.911  -0.197  1.00  0.00    -0.203 F 
ATOM     85  F   UNL     1      11.397  18.849   2.888  1.00  0.00    -0.200 F 
ATOM     86  C   UNL     1      10.055  20.402   1.719  1.00  0.00     0.200 A 
ATOM     87  F   UNL     1       8.676  21.920   0.549  1.00  0.00    -0.200 F 
ATOM     88  F   UNL     1      10.857  21.405   2.104  1.00  0.00    -0.200 F 
ENDBRANCH  55  78
ENDBRANCH  29  30
ENDBRANCH  21  24
ENDBRANCH  19  20
ENDBRANCH  18  19
ENDBRANCH   1  18
TORSDOF 15
