REMARK SMILES C[C@@H]1CCCC[C@@H]1NC(=O)[C@@H](C)n1cc(C(=O)NCCCNC(=O)c2ccc(-c3c4nc(c(-c5c(F)c(F)c(F)c(F)c5F)c5ccc([nH]5)c(-c5c(F)c(F)c(F)c(F)c5F)c5nc(c(-c6c(F)c(F)c(F)c(F)c6F)c6ccc3[nH]6)C=C5)C=C4)cc2)cn1
REMARK SMILES IDX 19 1 18 2 16 3 17 4 15 6 13 7 14 8 89 9 88 10 11 11 12 12
REMARK SMILES IDX 9 13 8 14 10 16 7 17 1 18 2 19 3 20 4 21 6 22 5 23 20 24
REMARK SMILES IDX 21 25 22 26 23 27 24 29 25 30 26 31 87 32 27 33 86 34 28 35
REMARK SMILES IDX 29 36 30 37 80 38 31 39 85 40 79 41 81 42 32 43 84 44 78 45
REMARK SMILES IDX 77 46 33 48 65 49 45 50 64 51 46 52 49 53 63 54 82 55 47 56
REMARK SMILES IDX 48 57 62 59 83 60 50 61 34 62 35 63 43 64 36 65 37 66 41 67
REMARK SMILES IDX 44 68 38 69 39 70 42 71 40 72 66 73 67 74 75 75 68 76 69 77
REMARK SMILES IDX 73 78 76 79 70 80 71 81 74 82 72 83 51 84 52 85 60 86 53 87
REMARK SMILES IDX 54 88 58 89 61 90 55 91 56 92 59 93 57 94
REMARK H PARENT 18 5 8 15 22 28 81 47 49 58
REMARK Flexibility Score: inf
ROOT
ATOM      1  C   UNL     1       5.278   1.468  -4.427  1.00  0.00     0.118 C 
ENDROOT
BRANCH   1   2
ATOM      2  N   UNL     1       4.682   2.589  -3.731  1.00  0.00    -0.352 N 
ATOM      3  C   UNL     1       3.615   2.626  -2.873  1.00  0.00     0.254 C 
ATOM      4  O   UNL     1       3.272   3.715  -2.420  1.00  0.00    -0.269 OA
ATOM      5  H   UNL     1       5.110   3.459  -3.900  1.00  0.00     0.163 HD
BRANCH   3   6
ATOM      6  C   UNL     1       2.849   1.426  -2.610  1.00  0.00     0.077 A 
ATOM      7  N   UNL     1       2.048  -0.602  -2.217  1.00  0.00    -0.260 N 
ATOM      8  C   UNL     1       3.206   0.096  -2.463  1.00  0.00     0.123 A 
ATOM      9  N   UNL     1       0.960   0.183  -2.341  1.00  0.00    -0.180 NA
ATOM     10  C   UNL     1       1.454   1.415  -2.432  1.00  0.00     0.149 A 
BRANCH   7  11
ATOM     11  C   UNL     1       1.915  -2.051  -2.055  1.00  0.00     0.193 C 
ATOM     12  C   UNL     1       0.793  -2.663  -2.890  1.00  0.00     0.044 C 
BRANCH  11  13
ATOM     13  C   UNL     1       1.878  -2.548  -0.604  1.00  0.00     0.244 C 
ATOM     14  N   UNL     1       0.866  -2.264   0.274  1.00  0.00    -0.351 N 
ATOM     15  H   UNL     1       0.750  -2.894   1.021  1.00  0.00     0.163 HD
ATOM     16  O   UNL     1       2.747  -3.338  -0.211  1.00  0.00    -0.273 OA
BRANCH  14  17
ATOM     17  C   UNL     1      -0.057  -1.141   0.233  1.00  0.00     0.084 C 
ATOM     18  C   UNL     1       0.762  -0.124   2.460  1.00  0.00     0.010 C 
ATOM     19  C   UNL     1       0.525   0.094   0.958  1.00  0.00     0.008 C 
ATOM     20  C   UNL     1      -0.384   1.314   0.728  1.00  0.00     0.005 C 
ATOM     21  C   UNL     1      -1.865   1.038   0.999  1.00  0.00     0.000 C 
ATOM     22  C   UNL     1      -1.474  -1.454   0.707  1.00  0.00     0.025 C 
ATOM     23  C   UNL     1      -2.364  -0.256   0.353  1.00  0.00     0.002 C 
ENDBRANCH  14  17
ENDBRANCH  11  13
ENDBRANCH   7  11
ENDBRANCH   3   6
ENDBRANCH   1   2
BRANCH   1  24
ATOM     24  C   UNL     1       4.475   0.983  -5.639  1.00  0.00     0.042 C 
BRANCH  24  25
ATOM     25  C   UNL     1       4.774   1.803  -6.883  1.00  0.00     0.118 C 
BRANCH  25  26
ATOM     26  N   UNL     1       6.201   1.757  -7.230  1.00  0.00    -0.352 N 
ATOM     27  C   UNL     1       6.947   2.540  -8.090  1.00  0.00     0.251 C 
ATOM     28  H   UNL     1       6.710   1.050  -6.773  1.00  0.00     0.163 HD
ATOM     29  O   UNL     1       8.062   2.202  -8.435  1.00  0.00    -0.269 OA
BRANCH  27  30
ATOM     30  C   UNL     1       6.355   3.788  -8.593  1.00  0.00     0.039 A 
ATOM     31  C   UNL     1       6.505   4.168  -9.928  1.00  0.00     0.014 A 
ATOM     32  C   UNL     1       5.582   4.535  -7.715  1.00  0.00     0.014 A 
ATOM     33  C   UNL     1       5.790   5.268 -10.383  1.00  0.00     0.010 A 
ATOM     34  C   UNL     1       4.705   5.452  -8.215  1.00  0.00     0.010 A 
ATOM     35  C   UNL     1       4.867   5.884  -9.521  1.00  0.00    -0.014 A 
BRANCH  35  36
ATOM     36  C   UNL     1       3.969   6.920 -10.000  1.00  0.00     0.031 A 
ATOM     37  C   UNL     1       3.179   6.494 -11.180  1.00  0.00     0.074 A 
ATOM     38  C   UNL     1       3.738   8.061  -9.315  1.00  0.00     0.049 A 
ATOM     39  N   UNL     1       3.382   6.824 -12.410  1.00  0.00    -0.248 NA
ATOM     40  C   UNL     1       2.194   5.412 -11.014  1.00  0.00     0.031 C 
ATOM     41  C   UNL     1       4.198   8.417  -7.965  1.00  0.00     0.029 A 
ATOM     42  N   UNL     1       2.954   9.122  -9.649  1.00  0.00    -0.354 N 
ATOM     43  C   UNL     1       2.373   6.199 -13.138  1.00  0.00     0.074 A 
ATOM     44  C   UNL     1       1.851   5.171 -12.283  1.00  0.00     0.031 C 
ATOM     45  C   UNL     1       3.498   9.477  -7.507  1.00  0.00     0.029 A 
ATOM     46  C   UNL     1       2.692   9.992  -8.595  1.00  0.00     0.049 A 
ATOM     47  H   UNL     1       2.602   9.262 -10.558  1.00  0.00     0.167 HD
ATOM     48  C   UNL     1       1.844   6.827 -14.226  1.00  0.00     0.037 A 
ATOM     49  C   UNL     1       1.855  11.056  -8.622  1.00  0.00     0.037 A 
ATOM     50  C   UNL     1       2.683   7.944 -14.595  1.00  0.00     0.049 A 
ATOM     51  C   UNL     1       1.686  11.433 -10.045  1.00  0.00     0.074 A 
ATOM     52  C   UNL     1       3.924   8.123 -15.163  1.00  0.00     0.029 A 
ATOM     53  N   UNL     1       2.366   9.099 -13.929  1.00  0.00    -0.354 N 
ATOM     54  N   UNL     1       2.659  11.890 -10.787  1.00  0.00    -0.248 NA
ATOM     55  C   UNL     1       0.532  10.923 -10.775  1.00  0.00     0.031 C 
ATOM     56  C   UNL     1       4.420   9.357 -14.641  1.00  0.00     0.029 A 
ATOM     57  C   UNL     1       3.445   9.929 -13.823  1.00  0.00     0.049 A 
ATOM     58  H   UNL     1       1.472   9.305 -13.571  1.00  0.00     0.167 HD
ATOM     59  C   UNL     1       2.431  11.340 -12.035  1.00  0.00     0.074 A 
ATOM     60  C   UNL     1       1.039  10.906 -12.011  1.00  0.00     0.031 C 
ATOM     61  C   UNL     1       3.478  10.992 -12.840  1.00  0.00     0.037 A 
BRANCH  48  62
ATOM     62  C   UNL     1       0.368   6.837 -14.601  1.00  0.00     0.064 A 
ATOM     63  C   UNL     1      -0.027   7.598 -15.726  1.00  0.00     0.173 A 
ATOM     64  C   UNL     1      -0.687   6.444 -13.749  1.00  0.00     0.173 A 
ATOM     65  F   UNL     1       0.882   8.024 -16.617  1.00  0.00    -0.203 F 
ATOM     66  C   UNL     1      -1.345   8.026 -15.911  1.00  0.00     0.198 A 
ATOM     67  C   UNL     1      -2.008   6.838 -13.961  1.00  0.00     0.198 A 
ATOM     68  F   UNL     1      -0.489   5.755 -12.623  1.00  0.00    -0.203 F 
ATOM     69  F   UNL     1      -1.640   8.859 -16.918  1.00  0.00    -0.200 F 
ATOM     70  C   UNL     1      -2.333   7.658 -15.019  1.00  0.00     0.200 A 
ATOM     71  F   UNL     1      -2.949   6.483 -13.073  1.00  0.00    -0.200 F 
ATOM     72  F   UNL     1      -3.581   8.123 -15.150  1.00  0.00    -0.200 F 
ENDBRANCH  48  62
BRANCH  49  73
ATOM     73  C   UNL     1       0.969  11.552  -7.544  1.00  0.00     0.064 A 
ATOM     74  C   UNL     1       0.421  12.843  -7.583  1.00  0.00     0.173 A 
ATOM     75  C   UNL     1       0.412  10.662  -6.604  1.00  0.00     0.173 A 
ATOM     76  F   UNL     1       0.865  13.735  -8.481  1.00  0.00    -0.203 F 
ATOM     77  C   UNL     1      -0.641  13.215  -6.751  1.00  0.00     0.198 A 
ATOM     78  C   UNL     1      -0.647  11.034  -5.773  1.00  0.00     0.198 A 
ATOM     79  F   UNL     1       0.818   9.386  -6.545  1.00  0.00    -0.203 F 
ATOM     80  F   UNL     1      -1.181  14.437  -6.860  1.00  0.00    -0.200 F 
ATOM     81  C   UNL     1      -1.182  12.306  -5.856  1.00  0.00     0.200 A 
ATOM     82  F   UNL     1      -1.189  10.132  -4.943  1.00  0.00    -0.200 F 
ATOM     83  F   UNL     1      -2.244  12.639  -5.108  1.00  0.00    -0.200 F 
ENDBRANCH  49  73
BRANCH  61  84
ATOM     84  C   UNL     1       4.796  11.659 -12.595  1.00  0.00     0.064 A 
ATOM     85  C   UNL     1       5.598  11.464 -11.459  1.00  0.00     0.173 A 
ATOM     86  C   UNL     1       5.316  12.451 -13.627  1.00  0.00     0.173 A 
ATOM     87  F   UNL     1       5.201  10.661 -10.463  1.00  0.00    -0.203 F 
ATOM     88  C   UNL     1       6.854  12.062 -11.356  1.00  0.00     0.198 A 
ATOM     89  C   UNL     1       6.582  13.015 -13.539  1.00  0.00     0.198 A 
ATOM     90  F   UNL     1       4.606  12.636 -14.752  1.00  0.00    -0.203 F 
ATOM     91  F   UNL     1       7.602  11.873 -10.259  1.00  0.00    -0.200 F 
ATOM     92  C   UNL     1       7.348  12.828 -12.401  1.00  0.00     0.200 A 
ATOM     93  F   UNL     1       7.070  13.716 -14.572  1.00  0.00    -0.200 F 
ATOM     94  F   UNL     1       8.572  13.369 -12.321  1.00  0.00    -0.200 F 
ENDBRANCH  61  84
ENDBRANCH  35  36
ENDBRANCH  27  30
ENDBRANCH  25  26
ENDBRANCH  24  25
ENDBRANCH   1  24
TORSDOF 13
