REMARK SMILES CC(C)C[C@H](NC(=O)[C@H](C)NC(=O)[C@@H](NC(=O)CNC(=O)OCc1ccccc1)C(C)C)C(=O)NCCCNC(=O)c1ccc(-c2c3nc(c(-c4c(F)c(F)c(F)c(F)c4F)c4ccc([nH]4)c(-c4c(F)c(F)c(F)c(F)c4F)c4nc(c(-c5c(F)c(F)c(F)c(F)c5F)c5ccc2[nH]5)C=C4)C=C3)cc1
REMARK SMILES IDX 6 1 7 2 8 3 5 5 4 6 2 7 1 8 3 9 33 10 34 11 35 12 36 14
REMARK SMILES IDX 37 15 38 16 39 17 40 18 41 20 42 21 43 22 104 23 44 24
REMARK SMILES IDX 103 25 45 26 46 27 47 28 97 29 48 30 102 31 96 32 98 33
REMARK SMILES IDX 49 34 101 35 95 36 94 37 50 39 82 40 62 41 81 42 63 43 66 44
REMARK SMILES IDX 80 45 99 46 64 47 65 48 79 50 100 51 67 52 51 53 52 54 60 55
REMARK SMILES IDX 53 56 54 57 58 58 61 59 55 60 56 61 59 62 57 63 83 64 84 65
REMARK SMILES IDX 92 66 85 67 86 68 90 69 93 70 87 71 88 72 91 73 89 74 68 75
REMARK SMILES IDX 69 76 77 77 70 78 71 79 75 80 78 81 72 82 73 83 76 84 74 85
REMARK SMILES IDX 9 86 10 87 11 88 12 89 13 91 14 92 15 93 16 94 17 96 18 97
REMARK SMILES IDX 19 98 20 99 21 101 22 102 23 103 24 104 25 105 29 106 26 107
REMARK SMILES IDX 28 108 27 109 30 110 31 111 32 112
REMARK H PARENT 6 4 35 13 39 19 98 38 66 49 11 90 15 95 19 100
REMARK Flexibility Score: inf
ROOT
ATOM      1  N   UNL     1       0.248   0.964  -1.200  1.00  0.00    -0.343 N 
ATOM      2  C   UNL     1      -0.634   1.158  -0.175  1.00  0.00     0.242 C 
ATOM      3  O   UNL     1      -1.298   2.200  -0.206  1.00  0.00    -0.273 OA
ATOM      4  H   UNL     1       0.755   1.752  -1.501  1.00  0.00     0.164 HD
ENDROOT
BRANCH   1   5
ATOM      5  C   UNL     1       0.516  -0.292  -1.897  1.00  0.00     0.171 C 
BRANCH   5   6
ATOM      6  C   UNL     1      -0.233  -0.350  -3.240  1.00  0.00     0.038 C 
BRANCH   6   7
ATOM      7  C   UNL     1      -0.819  -1.742  -3.554  1.00  0.00    -0.015 C 
ATOM      8  C   UNL     1      -1.875  -2.179  -2.535  1.00  0.00     0.007 C 
ATOM      9  C   UNL     1      -1.433  -1.727  -4.953  1.00  0.00     0.007 C 
ENDBRANCH   6   7
ENDBRANCH   5   6
BRANCH   5  10
ATOM     10  C   UNL     1       2.008  -0.639  -1.972  1.00  0.00     0.242 C 
ATOM     11  O   UNL     1       2.486  -1.520  -1.253  1.00  0.00    -0.273 OA
ATOM     12  N   UNL     1       2.860   0.018  -2.797  1.00  0.00    -0.354 N 
ATOM     13  H   UNL     1       3.763  -0.370  -2.853  1.00  0.00     0.163 HD
BRANCH  12  14
ATOM     14  C   UNL     1       2.652   1.198  -3.610  1.00  0.00     0.117 C 
BRANCH  14  15
ATOM     15  C   UNL     1       3.618   2.308  -3.233  1.00  0.00     0.042 C 
BRANCH  15  16
ATOM     16  C   UNL     1       5.084   1.925  -3.377  1.00  0.00     0.118 C 
BRANCH  16  17
ATOM     17  N   UNL     1       5.429   1.515  -4.731  1.00  0.00    -0.352 N 
ATOM     18  C   UNL     1       6.293   2.082  -5.632  1.00  0.00     0.251 C 
ATOM     19  H   UNL     1       4.969   0.705  -5.050  1.00  0.00     0.163 HD
ATOM     20  O   UNL     1       6.283   1.709  -6.802  1.00  0.00    -0.269 OA
BRANCH  18  21
ATOM     21  C   UNL     1       7.229   3.142  -5.204  1.00  0.00     0.039 A 
ATOM     22  C   UNL     1       7.498   4.198  -6.077  1.00  0.00     0.014 A 
ATOM     23  C   UNL     1       7.871   3.080  -3.965  1.00  0.00     0.014 A 
ATOM     24  C   UNL     1       8.381   5.207  -5.689  1.00  0.00     0.010 A 
ATOM     25  C   UNL     1       8.658   4.141  -3.534  1.00  0.00     0.010 A 
ATOM     26  C   UNL     1       8.951   5.198  -4.406  1.00  0.00    -0.014 A 
BRANCH  26  27
ATOM     27  C   UNL     1       9.906   6.253  -3.986  1.00  0.00     0.031 A 
ATOM     28  C   UNL     1      11.326   5.887  -3.644  1.00  0.00     0.074 A 
ATOM     29  C   UNL     1       9.492   7.530  -3.889  1.00  0.00     0.049 A 
ATOM     30  N   UNL     1      12.310   6.658  -3.252  1.00  0.00    -0.248 NA
ATOM     31  C   UNL     1      11.684   4.461  -3.722  1.00  0.00     0.031 C 
ATOM     32  C   UNL     1       8.129   7.999  -4.142  1.00  0.00     0.029 A 
ATOM     33  N   UNL     1      10.178   8.670  -3.553  1.00  0.00    -0.354 N 
ATOM     34  C   UNL     1      13.388   5.811  -3.029  1.00  0.00     0.074 A 
ATOM     35  C   UNL     1      12.922   4.462  -3.254  1.00  0.00     0.031 C 
ATOM     36  C   UNL     1       8.088   9.333  -3.993  1.00  0.00     0.029 A 
ATOM     37  C   UNL     1       9.410   9.807  -3.595  1.00  0.00     0.049 A 
ATOM     38  H   UNL     1      11.131   8.672  -3.306  1.00  0.00     0.167 HD
ATOM     39  C   UNL     1      14.662   6.130  -2.700  1.00  0.00     0.037 A 
ATOM     40  C   UNL     1       9.739  11.088  -3.343  1.00  0.00     0.037 A 
ATOM     41  C   UNL     1      15.126   7.477  -2.498  1.00  0.00     0.049 A 
ATOM     42  C   UNL     1      11.162  11.417  -2.975  1.00  0.00     0.074 A 
ATOM     43  C   UNL     1      16.405   7.916  -2.209  1.00  0.00     0.029 A 
ATOM     44  N   UNL     1      14.320   8.606  -2.562  1.00  0.00    -0.354 N 
ATOM     45  N   UNL     1      12.191  10.615  -2.839  1.00  0.00    -0.248 NA
ATOM     46  C   UNL     1      11.471  12.833  -2.740  1.00  0.00     0.031 C 
ATOM     47  C   UNL     1      16.363   9.304  -2.040  1.00  0.00     0.029 A 
ATOM     48  C   UNL     1      15.072   9.739  -2.296  1.00  0.00     0.049 A 
ATOM     49  H   UNL     1      13.357   8.602  -2.766  1.00  0.00     0.167 HD
ATOM     50  C   UNL     1      13.275  11.432  -2.545  1.00  0.00     0.074 A 
ATOM     51  C   UNL     1      12.779  12.792  -2.536  1.00  0.00     0.031 C 
ATOM     52  C   UNL     1      14.565  11.088  -2.306  1.00  0.00     0.037 A 
BRANCH  39  53
ATOM     53  C   UNL     1      15.643   5.002  -2.541  1.00  0.00     0.064 A 
ATOM     54  C   UNL     1      16.052   4.218  -3.631  1.00  0.00     0.173 A 
ATOM     55  C   UNL     1      16.200   4.716  -1.285  1.00  0.00     0.173 A 
ATOM     56  F   UNL     1      15.541   4.438  -4.852  1.00  0.00    -0.203 F 
ATOM     57  C   UNL     1      16.953   3.169  -3.464  1.00  0.00     0.198 A 
ATOM     58  C   UNL     1      17.130   3.690  -1.129  1.00  0.00     0.198 A 
ATOM     59  F   UNL     1      15.849   5.434  -0.208  1.00  0.00    -0.203 F 
ATOM     60  F   UNL     1      17.281   2.397  -4.510  1.00  0.00    -0.200 F 
ATOM     61  C   UNL     1      17.498   2.912  -2.216  1.00  0.00     0.200 A 
ATOM     62  F   UNL     1      17.667   3.453   0.076  1.00  0.00    -0.200 F 
ATOM     63  F   UNL     1      18.371   1.907  -2.058  1.00  0.00    -0.200 F 
ENDBRANCH  39  53
BRANCH  40  64
ATOM     64  C   UNL     1       8.714  12.159  -3.466  1.00  0.00     0.064 A 
ATOM     65  C   UNL     1       8.802  13.133  -4.472  1.00  0.00     0.173 A 
ATOM     66  C   UNL     1       7.636  12.243  -2.573  1.00  0.00     0.173 A 
ATOM     67  F   UNL     1       9.824  13.107  -5.341  1.00  0.00    -0.203 F 
ATOM     68  C   UNL     1       7.870  14.165  -4.560  1.00  0.00     0.198 A 
ATOM     69  C   UNL     1       6.685  13.255  -2.683  1.00  0.00     0.198 A 
ATOM     70  F   UNL     1       7.498  11.332  -1.598  1.00  0.00    -0.203 F 
ATOM     71  F   UNL     1       8.012  15.114  -5.495  1.00  0.00    -0.200 F 
ATOM     72  C   UNL     1       6.810  14.223  -3.669  1.00  0.00     0.200 A 
ATOM     73  F   UNL     1       5.652  13.296  -1.832  1.00  0.00    -0.200 F 
ATOM     74  F   UNL     1       5.913  15.215  -3.755  1.00  0.00    -0.200 F 
ENDBRANCH  40  64
BRANCH  52  75
ATOM     75  C   UNL     1      15.545  12.204  -2.079  1.00  0.00     0.064 A 
ATOM     76  C   UNL     1      15.509  13.004  -0.927  1.00  0.00     0.173 A 
ATOM     77  C   UNL     1      16.553  12.459  -3.022  1.00  0.00     0.173 A 
ATOM     78  F   UNL     1      14.560  12.810   0.002  1.00  0.00    -0.203 F 
ATOM     79  C   UNL     1      16.418  14.044  -0.749  1.00  0.00     0.198 A 
ATOM     80  C   UNL     1      17.485  13.473  -2.822  1.00  0.00     0.198 A 
ATOM     81  F   UNL     1      16.641  11.717  -4.136  1.00  0.00    -0.203 F 
ATOM     82  F   UNL     1      16.323  14.838   0.326  1.00  0.00    -0.200 F 
ATOM     83  C   UNL     1      17.409  14.273  -1.693  1.00  0.00     0.200 A 
ATOM     84  F   UNL     1      18.453  13.679  -3.725  1.00  0.00    -0.200 F 
ATOM     85  F   UNL     1      18.285  15.272  -1.518  1.00  0.00    -0.200 F 
ENDBRANCH  52  75
ENDBRANCH  26  27
ENDBRANCH  18  21
ENDBRANCH  16  17
ENDBRANCH  15  16
ENDBRANCH  14  15
ENDBRANCH  12  14
ENDBRANCH   5  10
ENDBRANCH   1   5
BRANCH   2  86
ATOM     86  C   UNL     1      -0.647   0.244   1.083  1.00  0.00     0.168 C 
ATOM     87  C   UNL     1      -0.505  -1.258   0.929  1.00  0.00     0.041 C 
BRANCH  86  88
ATOM     88  N   UNL     1      -1.851   0.491   1.858  1.00  0.00    -0.343 N 
ATOM     89  C   UNL     1      -2.022   0.390   3.202  1.00  0.00     0.243 C 
ATOM     90  H   UNL     1      -2.643   0.768   1.344  1.00  0.00     0.164 HD
ATOM     91  O   UNL     1      -3.182   0.441   3.624  1.00  0.00    -0.273 OA
BRANCH  89  92
ATOM     92  C   UNL     1      -0.820   0.419   4.202  1.00  0.00     0.174 C 
BRANCH  92  93
ATOM     93  N   UNL     1       0.305  -0.508   3.897  1.00  0.00    -0.343 N 
ATOM     94  C   UNL     1       1.606  -0.465   3.497  1.00  0.00     0.240 C 
ATOM     95  H   UNL     1       0.020  -1.442   4.023  1.00  0.00     0.164 HD
ATOM     96  O   UNL     1       2.100  -1.564   3.212  1.00  0.00    -0.273 OA
BRANCH  94  97
ATOM     97  C   UNL     1       2.488   0.796   3.372  1.00  0.00     0.219 C 
BRANCH  97  98
ATOM     98  N   UNL     1       2.259   1.625   2.201  1.00  0.00    -0.312 N 
ATOM     99  C   UNL     1       1.952   2.953   2.193  1.00  0.00     0.407 C 
ATOM    100  H   UNL     1       2.334   1.182   1.325  1.00  0.00     0.167 HD
ATOM    101  O   UNL     1       1.540   3.483   1.168  1.00  0.00    -0.225 OA
BRANCH  99 102
ATOM    102  O   UNL     1       2.095   3.542   3.405  1.00  0.00    -0.445 OA
BRANCH 102 103
ATOM    103  C   UNL     1       1.465   4.824   3.600  1.00  0.00     0.270 C 
BRANCH 103 104
ATOM    104  C   UNL     1       2.001   5.901   2.703  1.00  0.00    -0.011 A 
ATOM    105  C   UNL     1       1.114   6.714   1.984  1.00  0.00     0.007 A 
ATOM    106  C   UNL     1       3.380   6.047   2.516  1.00  0.00     0.007 A 
ATOM    107  C   UNL     1       1.599   7.604   1.030  1.00  0.00     0.000 A 
ATOM    108  C   UNL     1       3.862   6.932   1.556  1.00  0.00     0.000 A 
ATOM    109  C   UNL     1       2.971   7.697   0.803  1.00  0.00     0.000 A 
ENDBRANCH 103 104
ENDBRANCH 102 103
ENDBRANCH  99 102
ENDBRANCH  97  98
ENDBRANCH  94  97
ENDBRANCH  92  93
BRANCH  92 110
ATOM    110  C   UNL     1      -0.404   1.853   4.543  1.00  0.00     0.015 C 
ATOM    111  C   UNL     1      -1.536   2.887   4.540  1.00  0.00     0.010 C 
ATOM    112  C   UNL     1       0.341   1.908   5.879  1.00  0.00     0.010 C 
ENDBRANCH  92 110
ENDBRANCH  89  92
ENDBRANCH  86  88
ENDBRANCH   2  86
TORSDOF 23
