REMARK SMILES COc1ccc2[nH]cc([C@H](C(=O)NCCCNC(=O)c3ccc(-c4c5nc(c(-c6c(F)c(F)c(F)c(F)c6F)c6ccc([nH]6)c(-c6c(F)c(F)c(F)c(F)c6F)c6nc(c(-c7c(F)c(F)c(F)c(F)c7F)c7ccc4[nH]7)C=C6)C=C5)cc3)[NH+]3CC[NH+](Cc4cccc5ccccc45)CC3)c2c1
REMARK SMILES IDX 14 1 13 2 11 3 12 4 10 6 9 7 3 8 4 9 101 10 5 11 100 12 6 13
REMARK SMILES IDX 7 14 8 15 2 17 1 18 83 19 84 20 99 21 85 23 98 24 86 25
REMARK SMILES IDX 87 27 88 28 89 29 97 30 90 31 92 32 96 33 91 34 93 35 95 36
REMARK SMILES IDX 94 37 15 38 16 39 17 40 18 41 19 43 20 44 21 45 82 46 22 47
REMARK SMILES IDX 81 48 23 49 24 50 25 51 75 52 26 53 80 54 74 55 76 56 27 57
REMARK SMILES IDX 79 58 73 59 72 60 28 62 60 63 40 64 59 65 41 66 44 67 58 68
REMARK SMILES IDX 77 69 42 70 43 71 57 73 78 74 45 75 29 76 30 77 38 78 31 79
REMARK SMILES IDX 32 80 36 81 39 82 33 83 34 84 37 85 35 86 61 87 62 88 70 89
REMARK SMILES IDX 63 90 64 91 68 92 71 93 65 94 66 95 69 96 67 97 46 98 47 99
REMARK SMILES IDX 55 100 48 101 49 102 53 103 56 104 50 105 51 106 54 107
REMARK SMILES IDX 52 108
REMARK H PARENT 13 5 7 16 83 22 86 26 17 42 76 61 44 72
REMARK Flexibility Score: inf
ROOT
ATOM      1  C   UNL     1       0.076  -7.379  -4.418  1.00  0.00     0.118 C 
ENDROOT
BRANCH   1   2
ATOM      2  N   UNL     1       0.610  -6.216  -3.705  1.00  0.00    -0.351 N 
ATOM      3  C   UNL     1       0.084  -5.446  -2.693  1.00  0.00     0.283 C 
ATOM      4  O   UNL     1       0.868  -4.662  -2.142  1.00  0.00    -0.268 OA
ATOM      5  H   UNL     1       1.505  -5.934  -4.003  1.00  0.00     0.163 HD
BRANCH   3   6
ATOM      6  C   UNL     1      -1.391  -5.537  -2.227  1.00  0.00     0.308 C 
BRANCH   6   7
ATOM      7  C   UNL     1      -2.381  -5.574  -3.405  1.00  0.00     0.045 A 
ATOM      8  C   UNL     1      -0.951  -4.322  -6.730  1.00  0.00     0.119 A 
ATOM      9  C   UNL     1      -1.881  -4.968  -7.538  1.00  0.00     0.048 A 
ATOM     10  C   UNL     1      -1.131  -4.287  -5.341  1.00  0.00     0.057 A 
ATOM     11  C   UNL     1      -2.997  -5.611  -6.977  1.00  0.00     0.030 A 
ATOM     12  C   UNL     1      -2.158  -5.052  -4.740  1.00  0.00     0.013 A 
ATOM     13  C   UNL     1      -3.101  -5.646  -5.578  1.00  0.00     0.046 A 
ATOM     14  N   UNL     1      -4.037  -6.237  -4.761  1.00  0.00    -0.361 N 
ATOM     15  C   UNL     1      -3.618  -6.201  -3.457  1.00  0.00     0.094 A 
ATOM     16  H   UNL     1      -4.886  -6.629  -5.070  1.00  0.00     0.166 HD
BRANCH   8  17
ATOM     17  O   UNL     1       0.212  -3.744  -7.164  1.00  0.00    -0.497 OA
ATOM     18  C   UNL     1       0.837  -4.325  -8.305  1.00  0.00     0.278 C 
ENDBRANCH   8  17
ENDBRANCH   6   7
BRANCH   6  19
ATOM     19  N   UNL     1      -1.618  -6.639  -1.254  1.00  0.00    -0.312 N 
ATOM     20  C   UNL     1      -1.331  -7.989  -1.705  1.00  0.00     0.325 C 
ATOM     21  C   UNL     1      -1.096  -6.483   0.120  1.00  0.00     0.325 C 
ATOM     22  H   UNL     1      -2.630  -6.519  -1.204  1.00  0.00     0.349 HD
ATOM     23  C   UNL     1       0.136  -8.446  -1.512  1.00  0.00     0.324 C 
ATOM     24  C   UNL     1       0.206  -7.264   0.566  1.00  0.00     0.324 C 
ATOM     25  N   UNL     1       0.587  -8.495  -0.141  1.00  0.00    -0.322 N 
ATOM     26  H   UNL     1       1.604  -8.446  -0.076  1.00  0.00     0.348 HD
BRANCH  25  27
ATOM     27  C   UNL     1       0.479  -9.816   0.484  1.00  0.00     0.300 C 
BRANCH  27  28
ATOM     28  C   UNL     1      -0.925 -10.287   0.814  1.00  0.00     0.014 A 
ATOM     29  C   UNL     1      -1.370 -10.021   2.118  1.00  0.00     0.010 A 
ATOM     30  C   UNL     1      -1.840 -10.789  -0.167  1.00  0.00    -0.010 A 
ATOM     31  C   UNL     1      -2.716 -10.105   2.433  1.00  0.00     0.001 A 
ATOM     32  C   UNL     1      -3.220 -10.718   0.133  1.00  0.00    -0.018 A 
ATOM     33  C   UNL     1      -1.487 -11.245  -1.467  1.00  0.00     0.009 A 
ATOM     34  C   UNL     1      -3.638 -10.393   1.432  1.00  0.00     0.009 A 
ATOM     35  C   UNL     1      -4.171 -10.905  -0.886  1.00  0.00     0.009 A 
ATOM     36  C   UNL     1      -2.444 -11.441  -2.469  1.00  0.00     0.001 A 
ATOM     37  C   UNL     1      -3.786 -11.230  -2.186  1.00  0.00     0.001 A 
ENDBRANCH  27  28
ENDBRANCH  25  27
ENDBRANCH   6  19
ENDBRANCH   3   6
ENDBRANCH   1   2
BRANCH   1  38
ATOM     38  C   UNL     1       0.472  -7.514  -5.864  1.00  0.00     0.042 C 
BRANCH  38  39
ATOM     39  C   UNL     1       1.957  -7.375  -6.074  1.00  0.00     0.118 C 
BRANCH  39  40
ATOM     40  N   UNL     1       2.690  -8.579  -5.704  1.00  0.00    -0.352 N 
ATOM     41  C   UNL     1       3.340  -9.459  -6.538  1.00  0.00     0.251 C 
ATOM     42  H   UNL     1       2.724  -8.788  -4.743  1.00  0.00     0.163 HD
ATOM     43  O   UNL     1       3.746 -10.542  -6.133  1.00  0.00    -0.269 OA
BRANCH  41  44
ATOM     44  C   UNL     1       3.494  -9.079  -7.957  1.00  0.00     0.039 A 
ATOM     45  C   UNL     1       3.108  -9.971  -8.955  1.00  0.00     0.014 A 
ATOM     46  C   UNL     1       3.900  -7.782  -8.279  1.00  0.00     0.014 A 
ATOM     47  C   UNL     1       3.055  -9.528 -10.278  1.00  0.00     0.010 A 
ATOM     48  C   UNL     1       3.694  -7.305  -9.563  1.00  0.00     0.010 A 
ATOM     49  C   UNL     1       3.303  -8.179 -10.586  1.00  0.00    -0.014 A 
BRANCH  49  50
ATOM     50  C   UNL     1       3.223  -7.667 -11.977  1.00  0.00     0.031 A 
ATOM     51  C   UNL     1       4.438  -7.025 -12.596  1.00  0.00     0.074 A 
ATOM     52  C   UNL     1       2.061  -7.718 -12.658  1.00  0.00     0.049 A 
ATOM     53  N   UNL     1       4.566  -6.444 -13.762  1.00  0.00    -0.248 NA
ATOM     54  C   UNL     1       5.663  -6.989 -11.778  1.00  0.00     0.031 C 
ATOM     55  C   UNL     1       0.796  -8.251 -12.147  1.00  0.00     0.029 A 
ATOM     56  N   UNL     1       1.754  -7.310 -13.933  1.00  0.00    -0.354 N 
ATOM     57  C   UNL     1       5.866  -5.957 -13.797  1.00  0.00     0.074 A 
ATOM     58  C   UNL     1       6.464  -6.235 -12.513  1.00  0.00     0.031 C 
ATOM     59  C   UNL     1      -0.137  -8.174 -13.111  1.00  0.00     0.029 A 
ATOM     60  C   UNL     1       0.449  -7.548 -14.292  1.00  0.00     0.049 A 
ATOM     61  H   UNL     1       2.408  -6.885 -14.534  1.00  0.00     0.167 HD
ATOM     62  C   UNL     1       6.521  -5.367 -14.824  1.00  0.00     0.037 A 
ATOM     63  C   UNL     1      -0.197  -7.290 -15.445  1.00  0.00     0.037 A 
ATOM     64  C   UNL     1       5.944  -5.146 -16.120  1.00  0.00     0.049 A 
ATOM     65  C   UNL     1       0.562  -6.652 -16.580  1.00  0.00     0.074 A 
ATOM     66  C   UNL     1       6.546  -4.632 -17.254  1.00  0.00     0.029 A 
ATOM     67  N   UNL     1       4.630  -5.435 -16.456  1.00  0.00    -0.354 N 
ATOM     68  N   UNL     1       1.817  -6.273 -16.629  1.00  0.00    -0.248 NA
ATOM     69  C   UNL     1      -0.183  -6.413 -17.825  1.00  0.00     0.031 C 
ATOM     70  C   UNL     1       5.581  -4.561 -18.263  1.00  0.00     0.029 A 
ATOM     71  C   UNL     1       4.395  -5.087 -17.775  1.00  0.00     0.049 A 
ATOM     72  H   UNL     1       3.964  -5.829 -15.848  1.00  0.00     0.167 HD
ATOM     73  C   UNL     1       2.019  -5.784 -17.913  1.00  0.00     0.074 A 
ATOM     74  C   UNL     1       0.762  -5.930 -18.617  1.00  0.00     0.031 C 
ATOM     75  C   UNL     1       3.141  -5.257 -18.461  1.00  0.00     0.037 A 
BRANCH  62  76
ATOM     76  C   UNL     1       7.941  -4.940 -14.592  1.00  0.00     0.064 A 
ATOM     77  C   UNL     1       8.975  -5.874 -14.419  1.00  0.00     0.173 A 
ATOM     78  C   UNL     1       8.280  -3.579 -14.585  1.00  0.00     0.173 A 
ATOM     79  F   UNL     1       8.702  -7.188 -14.401  1.00  0.00    -0.203 F 
ATOM     80  C   UNL     1      10.289  -5.461 -14.221  1.00  0.00     0.198 A 
ATOM     81  C   UNL     1       9.601  -3.170 -14.421  1.00  0.00     0.198 A 
ATOM     82  F   UNL     1       7.332  -2.644 -14.747  1.00  0.00    -0.203 F 
ATOM     83  F   UNL     1      11.250  -6.370 -14.007  1.00  0.00    -0.200 F 
ATOM     84  C   UNL     1      10.603  -4.110 -14.233  1.00  0.00     0.200 A 
ATOM     85  F   UNL     1       9.905  -1.865 -14.446  1.00  0.00    -0.200 F 
ATOM     86  F   UNL     1      11.871  -3.715 -14.056  1.00  0.00    -0.200 F 
ENDBRANCH  62  76
BRANCH  63  87
ATOM     87  C   UNL     1      -1.632  -7.651 -15.601  1.00  0.00     0.064 A 
ATOM     88  C   UNL     1      -2.033  -8.653 -16.497  1.00  0.00     0.173 A 
ATOM     89  C   UNL     1      -2.635  -6.985 -14.881  1.00  0.00     0.173 A 
ATOM     90  F   UNL     1      -1.114  -9.308 -17.222  1.00  0.00    -0.203 F 
ATOM     91  C   UNL     1      -3.380  -8.952 -16.691  1.00  0.00     0.198 A 
ATOM     92  C   UNL     1      -3.980  -7.307 -15.052  1.00  0.00     0.198 A 
ATOM     93  F   UNL     1      -2.308  -6.024 -14.004  1.00  0.00    -0.203 F 
ATOM     94  F   UNL     1      -3.736  -9.873 -17.597  1.00  0.00    -0.200 F 
ATOM     95  C   UNL     1      -4.353  -8.281 -15.966  1.00  0.00     0.200 A 
ATOM     96  F   UNL     1      -4.916  -6.669 -14.336  1.00  0.00    -0.200 F 
ATOM     97  F   UNL     1      -5.648  -8.567 -16.154  1.00  0.00    -0.200 F 
ENDBRANCH  63  87
BRANCH  75  98
ATOM     98  C   UNL     1       3.078  -4.841 -19.902  1.00  0.00     0.064 A 
ATOM     99  C   UNL     1       2.352  -3.714 -20.312  1.00  0.00     0.173 A 
ATOM    100  C   UNL     1       3.797  -5.551 -20.875  1.00  0.00     0.173 A 
ATOM    101  F   UNL     1       1.638  -3.009 -19.422  1.00  0.00    -0.203 F 
ATOM    102  C   UNL     1       2.325  -3.330 -21.650  1.00  0.00     0.198 A 
ATOM    103  C   UNL     1       3.796  -5.144 -22.206  1.00  0.00     0.198 A 
ATOM    104  F   UNL     1       4.516  -6.631 -20.532  1.00  0.00    -0.203 F 
ATOM    105  F   UNL     1       1.584  -2.280 -22.028  1.00  0.00    -0.200 F 
ATOM    106  C   UNL     1       3.054  -4.039 -22.593  1.00  0.00     0.200 A 
ATOM    107  F   UNL     1       4.515  -5.820 -23.112  1.00  0.00    -0.200 F 
ATOM    108  F   UNL     1       3.035  -3.661 -23.879  1.00  0.00    -0.200 F 
ENDBRANCH  75  98
ENDBRANCH  49  50
ENDBRANCH  41  44
ENDBRANCH  39  40
ENDBRANCH  38  39
ENDBRANCH   1  38
TORSDOF 15
