REMARK SMILES O=C(C[C@H]([NH2+]Cc1ccco1)C(=O)Nc1cccc(O)c1)NCCCNC(=O)c1ccc(-c2c3nc(c(-c4c(F)c(F)c(F)c(F)c4F)c4ccc([nH]4)c(-c4c(F)c(F)c(F)c(F)c4F)c4nc(c(-c5c(F)c(F)c(F)c(F)c5F)c5ccc2[nH]5)C=C4)C=C3)cc1
REMARK SMILES IDX 23 1 22 2 1 3 2 4 3 6 4 7 12 8 13 9 14 10 15 12 16 13 21 14
REMARK SMILES IDX 17 15 19 16 18 17 20 18 5 20 6 23 7 24 8 25 11 26 9 27 10 28
REMARK SMILES IDX 24 29 25 30 26 31 27 32 28 34 29 35 30 36 91 37 31 38 90 39
REMARK SMILES IDX 32 40 33 41 34 42 84 43 35 44 89 45 83 46 85 47 36 48 88 49
REMARK SMILES IDX 82 50 81 51 37 53 69 54 49 55 68 56 50 57 53 58 67 59 86 60
REMARK SMILES IDX 51 61 52 62 66 64 87 65 54 66 38 67 39 68 47 69 40 70 41 71
REMARK SMILES IDX 45 72 48 73 42 74 43 75 46 76 44 77 70 78 71 79 79 80 72 81
REMARK SMILES IDX 73 82 77 83 80 84 74 85 75 86 78 87 76 88 55 89 56 90 64 91
REMARK SMILES IDX 57 92 58 93 62 94 65 95 59 96 60 97 63 98 61 99
REMARK H PARENT 22 5 14 11 20 19 5 21 5 22 26 33 85 52 53 63
REMARK Flexibility Score: inf
ROOT
ATOM      1  C   UNL     1       8.617   2.402  -0.281  1.00  0.00     0.117 C 
ENDROOT
BRANCH   1   2
ATOM      2  N   UNL     1       7.792   1.218  -0.065  1.00  0.00    -0.356 N 
ATOM      3  O   UNL     1       7.162   1.905   2.035  1.00  0.00    -0.275 OA
ATOM      4  C   UNL     1       7.009   1.145   1.095  1.00  0.00     0.226 C 
ATOM      5  H   UNL     1       7.786   0.484  -0.721  1.00  0.00     0.163 HD
BRANCH   4   6
ATOM      6  C   UNL     1       5.915   0.086   1.062  1.00  0.00     0.175 C 
BRANCH   6   7
ATOM      7  C   UNL     1       4.471   0.569   1.388  1.00  0.00     0.282 C 
BRANCH   7   8
ATOM      8  C   UNL     1       4.257   2.092   1.738  1.00  0.00     0.283 C 
ATOM      9  O   UNL     1       4.237   2.443   2.925  1.00  0.00    -0.268 OA
ATOM     10  N   UNL     1       3.965   3.047   0.779  1.00  0.00    -0.321 N 
ATOM     11  H   UNL     1       3.770   3.955   1.107  1.00  0.00     0.170 HD
BRANCH  10  12
ATOM     12  C   UNL     1       3.916   2.857  -0.608  1.00  0.00     0.045 A 
ATOM     13  C   UNL     1       2.799   3.212  -1.346  1.00  0.00     0.026 A 
ATOM     14  C   UNL     1       4.944   2.186  -1.241  1.00  0.00     0.072 A 
ATOM     15  C   UNL     1       2.650   2.692  -2.640  1.00  0.00     0.006 A 
ATOM     16  C   UNL     1       4.756   1.577  -2.464  1.00  0.00     0.117 A 
ATOM     17  C   UNL     1       3.599   1.815  -3.173  1.00  0.00     0.046 A 
BRANCH  16  18
ATOM     18  O   UNL     1       5.686   0.713  -2.960  1.00  0.00    -0.508 OA
ATOM     19  H   UNL     1       5.549   0.304  -3.792  1.00  0.00     0.293 HD
ENDBRANCH  16  18
ENDBRANCH  10  12
ENDBRANCH   7   8
BRANCH   7  20
ATOM     20  N   UNL     1       3.509   0.126   0.346  1.00  0.00    -0.329 N 
ATOM     21  H   UNL     1       3.852  -0.755  -0.037  1.00  0.00     0.347 HD
ATOM     22  H   UNL     1       3.468   0.892  -0.326  1.00  0.00     0.347 HD
BRANCH  20  23
ATOM     23  C   UNL     1       2.131  -0.084   0.779  1.00  0.00     0.337 C 
BRANCH  23  24
ATOM     24  C   UNL     1       1.191   0.194  -0.350  1.00  0.00     0.157 A 
ATOM     25  C   UNL     1       1.010  -0.354  -1.607  1.00  0.00     0.052 A 
ATOM     26  O   UNL     1       0.315   1.230  -0.175  1.00  0.00    -0.463 OA
ATOM     27  C   UNL     1      -0.004   0.408  -2.240  1.00  0.00     0.042 A 
ATOM     28  C   UNL     1      -0.394   1.358  -1.326  1.00  0.00     0.195 A 
ENDBRANCH  23  24
ENDBRANCH  20  23
ENDBRANCH   7  20
ENDBRANCH   6   7
ENDBRANCH   4   6
ENDBRANCH   1   2
BRANCH   1  29
ATOM     29  C   UNL     1       9.064   2.715  -1.718  1.00  0.00     0.042 C 
BRANCH  29  30
ATOM     30  C   UNL     1       8.064   3.159  -2.799  1.00  0.00     0.118 C 
BRANCH  30  31
ATOM     31  N   UNL     1       7.240   4.323  -2.533  1.00  0.00    -0.352 N 
ATOM     32  C   UNL     1       6.548   5.086  -3.462  1.00  0.00     0.251 C 
ATOM     33  H   UNL     1       7.164   4.602  -1.592  1.00  0.00     0.163 HD
ATOM     34  O   UNL     1       5.902   6.069  -3.114  1.00  0.00    -0.269 OA
BRANCH  32  35
ATOM     35  C   UNL     1       6.628   4.747  -4.907  1.00  0.00     0.039 A 
ATOM     36  C   UNL     1       7.215   5.655  -5.793  1.00  0.00     0.014 A 
ATOM     37  C   UNL     1       6.129   3.538  -5.394  1.00  0.00     0.014 A 
ATOM     38  C   UNL     1       7.396   5.302  -7.140  1.00  0.00     0.010 A 
ATOM     39  C   UNL     1       6.328   3.175  -6.732  1.00  0.00     0.010 A 
ATOM     40  C   UNL     1       7.000   4.036  -7.611  1.00  0.00    -0.014 A 
BRANCH  40  41
ATOM     41  C   UNL     1       7.405   3.554  -8.964  1.00  0.00     0.031 A 
ATOM     42  C   UNL     1       6.402   3.300 -10.055  1.00  0.00     0.074 A 
ATOM     43  C   UNL     1       8.702   3.256  -9.184  1.00  0.00     0.049 A 
ATOM     44  N   UNL     1       6.600   2.836 -11.266  1.00  0.00    -0.248 NA
ATOM     45  C   UNL     1       4.997   3.591  -9.745  1.00  0.00     0.031 C 
ATOM     46  C   UNL     1       9.777   3.401  -8.202  1.00  0.00     0.029 A 
ATOM     47  N   UNL     1       9.336   2.757 -10.297  1.00  0.00    -0.354 N 
ATOM     48  C   UNL     1       5.348   2.779 -11.864  1.00  0.00     0.074 A 
ATOM     49  C   UNL     1       4.392   3.219 -10.867  1.00  0.00     0.031 C 
ATOM     50  C   UNL     1      10.936   3.016  -8.757  1.00  0.00     0.029 A 
ATOM     51  C   UNL     1      10.685   2.563 -10.123  1.00  0.00     0.049 A 
ATOM     52  H   UNL     1       8.868   2.557 -11.140  1.00  0.00     0.167 HD
ATOM     53  C   UNL     1       5.026   2.409 -13.130  1.00  0.00     0.037 A 
ATOM     54  C   UNL     1      11.619   2.068 -10.958  1.00  0.00     0.037 A 
ATOM     55  C   UNL     1       5.972   1.977 -14.130  1.00  0.00     0.049 A 
ATOM     56  C   UNL     1      11.232   1.643 -12.348  1.00  0.00     0.074 A 
ATOM     57  C   UNL     1       5.735   1.647 -15.455  1.00  0.00     0.029 A 
ATOM     58  N   UNL     1       7.330   1.800 -13.916  1.00  0.00    -0.354 N 
ATOM     59  N   UNL     1      10.057   1.676 -12.925  1.00  0.00    -0.248 NA
ATOM     60  C   UNL     1      12.305   1.115 -13.205  1.00  0.00     0.031 C 
ATOM     61  C   UNL     1       6.939   1.224 -16.028  1.00  0.00     0.029 A 
ATOM     62  C   UNL     1       7.937   1.339 -15.075  1.00  0.00     0.049 A 
ATOM     63  H   UNL     1       7.796   1.976 -13.066  1.00  0.00     0.167 HD
ATOM     64  C   UNL     1      10.253   1.206 -14.217  1.00  0.00     0.074 A 
ATOM     65  C   UNL     1      11.662   0.902 -14.345  1.00  0.00     0.031 C 
ATOM     66  C   UNL     1       9.342   1.045 -15.207  1.00  0.00     0.037 A 
BRANCH  53  67
ATOM     67  C   UNL     1       3.577   2.458 -13.523  1.00  0.00     0.064 A 
ATOM     68  C   UNL     1       2.912   3.678 -13.717  1.00  0.00     0.173 A 
ATOM     69  C   UNL     1       2.866   1.275 -13.777  1.00  0.00     0.173 A 
ATOM     70  F   UNL     1       3.548   4.837 -13.489  1.00  0.00    -0.203 F 
ATOM     71  C   UNL     1       1.581   3.712 -14.125  1.00  0.00     0.198 A 
ATOM     72  C   UNL     1       1.543   1.313 -14.211  1.00  0.00     0.198 A 
ATOM     73  F   UNL     1       3.459   0.082 -13.623  1.00  0.00    -0.203 F 
ATOM     74  F   UNL     1       0.955   4.888 -14.267  1.00  0.00    -0.200 F 
ATOM     75  C   UNL     1       0.899   2.530 -14.377  1.00  0.00     0.200 A 
ATOM     76  F   UNL     1       0.891   0.171 -14.471  1.00  0.00    -0.200 F 
ATOM     77  F   UNL     1      -0.379   2.565 -14.778  1.00  0.00    -0.200 F 
ENDBRANCH  53  67
BRANCH  54  78
ATOM     78  C   UNL     1      13.031   1.964 -10.507  1.00  0.00     0.064 A 
ATOM     79  C   UNL     1      14.021   2.798 -11.046  1.00  0.00     0.173 A 
ATOM     80  C   UNL     1      13.421   1.027  -9.540  1.00  0.00     0.173 A 
ATOM     81  F   UNL     1      13.699   3.694 -11.991  1.00  0.00    -0.203 F 
ATOM     82  C   UNL     1      15.351   2.685 -10.648  1.00  0.00     0.198 A 
ATOM     83  C   UNL     1      14.747   0.934  -9.122  1.00  0.00     0.198 A 
ATOM     84  F   UNL     1      12.511   0.208  -8.991  1.00  0.00    -0.203 F 
ATOM     85  F   UNL     1      16.285   3.463 -11.212  1.00  0.00    -0.200 F 
ATOM     86  C   UNL     1      15.712   1.758  -9.682  1.00  0.00     0.200 A 
ATOM     87  F   UNL     1      15.089   0.046  -8.179  1.00  0.00    -0.200 F 
ATOM     88  F   UNL     1      16.991   1.651  -9.297  1.00  0.00    -0.200 F 
ENDBRANCH  54  78
BRANCH  66  89
ATOM     89  C   UNL     1       9.838   0.549 -16.535  1.00  0.00     0.064 A 
ATOM     90  C   UNL     1      10.234  -0.783 -16.724  1.00  0.00     0.173 A 
ATOM     91  C   UNL     1       9.873   1.407 -17.645  1.00  0.00     0.173 A 
ATOM     92  F   UNL     1      10.236  -1.639 -15.691  1.00  0.00    -0.203 F 
ATOM     93  C   UNL     1      10.662  -1.233 -17.971  1.00  0.00     0.198 A 
ATOM     94  C   UNL     1      10.276   0.947 -18.896  1.00  0.00     0.198 A 
ATOM     95  F   UNL     1       9.502   2.691 -17.520  1.00  0.00    -0.203 F 
ATOM     96  F   UNL     1      11.073  -2.500 -18.119  1.00  0.00    -0.200 F 
ATOM     97  C   UNL     1      10.675  -0.371 -19.057  1.00  0.00     0.200 A 
ATOM     98  F   UNL     1      10.276   1.779 -19.947  1.00  0.00    -0.200 F 
ATOM     99  F   UNL     1      11.077  -0.809 -20.258  1.00  0.00    -0.200 F 
ENDBRANCH  66  89
ENDBRANCH  40  41
ENDBRANCH  32  35
ENDBRANCH  30  31
ENDBRANCH  29  30
ENDBRANCH   1  29
TORSDOF 17
