REMARK SMILES Cc1ccc2c(c1)C=C(C(=O)NCCCNC(=O)c1ccc(-c3c4nc(c(-c5c(F)c(F)c(F)c(F)c5F)c5ccc([nH]5)c(-c5c(F)c(F)c(F)c(F)c5F)c5nc(c(-c6c(F)c(F)c(F)c(F)c6F)c6ccc3[nH]6)C=C5)C=C4)cc1)[C@@H](C(F)(F)F)O2
REMARK SMILES IDX 14 1 13 2 12 3 10 4 11 5 9 7 1 8 2 9 3 10 7 11 4 12 6 13
REMARK SMILES IDX 5 14 8 15 87 16 82 17 83 18 84 19 85 20 86 21 15 22 16 23
REMARK SMILES IDX 17 24 18 26 19 27 20 28 81 29 21 30 80 31 22 32 23 33 24 34
REMARK SMILES IDX 74 35 25 36 79 37 73 38 75 39 26 40 78 41 72 42 71 43 27 45
REMARK SMILES IDX 59 46 39 47 58 48 40 49 43 50 57 51 76 52 41 53 42 54 56 56
REMARK SMILES IDX 77 57 44 58 28 59 29 60 37 61 30 62 31 63 35 64 38 65 32 66
REMARK SMILES IDX 33 67 36 68 34 69 60 70 61 71 69 72 62 73 63 74 67 75 70 76
REMARK SMILES IDX 64 77 65 78 68 79 66 80 45 81 46 82 54 83 47 84 48 85 52 86
REMARK SMILES IDX 55 87 49 88 50 89 53 90 51 91
REMARK H PARENT 12 6 16 25 75 44 43 55
REMARK Flexibility Score: inf
ROOT
ATOM      1  C   UNL     1      -2.166  -7.150   6.109  1.00  0.00     0.042 C 
ENDROOT
BRANCH   1   2
ATOM      2  C   UNL     1      -3.064  -6.467   5.089  1.00  0.00     0.118 C 
BRANCH   2   3
ATOM      3  N   UNL     1      -3.181  -5.040   5.340  1.00  0.00    -0.352 N 
ATOM      4  C   UNL     1      -2.715  -3.892   4.796  1.00  0.00     0.251 C 
ATOM      5  O   UNL     1      -3.080  -2.860   5.368  1.00  0.00    -0.270 OA
ATOM      6  H   UNL     1      -3.757  -4.859   6.118  1.00  0.00     0.163 HD
BRANCH   4   7
ATOM      7  C   UNL     1      -1.823  -3.803   3.603  1.00  0.00     0.067 C 
ATOM      8  C   UNL     1       0.912   0.366  -0.070  1.00  0.00     0.044 C 
ATOM      9  C   UNL     1       0.602  -0.987   0.499  1.00  0.00    -0.050 A 
ATOM     10  C   UNL     1       1.173  -2.130  -0.075  1.00  0.00     0.007 A 
ATOM     11  C   UNL     1      -0.263  -1.128   1.594  1.00  0.00     0.015 A 
ATOM     12  C   UNL     1       0.893  -3.394   0.442  1.00  0.00     0.047 A 
ATOM     13  C   UNL     1      -0.552  -2.396   2.110  1.00  0.00     0.017 A 
ATOM     14  C   UNL     1       0.027  -3.522   1.524  1.00  0.00     0.128 A 
ATOM     15  C   UNL     1      -1.415  -2.563   3.273  1.00  0.00     0.025 C 
ATOM     16  O   UNL     1      -0.182  -4.786   1.998  1.00  0.00    -0.475 OA
ATOM     17  C   UNL     1      -1.399  -4.979   2.770  1.00  0.00     0.314 C 
BRANCH  17  18
ATOM     18  C   UNL     1      -2.517  -5.483   1.836  1.00  0.00     0.429 C 
ATOM     19  F   UNL     1      -2.249  -6.747   1.422  1.00  0.00    -0.167 F 
ATOM     20  F   UNL     1      -3.724  -5.532   2.450  1.00  0.00    -0.167 F 
ATOM     21  F   UNL     1      -2.670  -4.717   0.734  1.00  0.00    -0.167 F 
ENDBRANCH  17  18
ENDBRANCH   4   7
ENDBRANCH   2   3
ENDBRANCH   1   2
BRANCH   1  22
ATOM     22  C   UNL     1      -2.872  -7.385   7.438  1.00  0.00     0.118 C 
BRANCH  22  23
ATOM     23  N   UNL     1      -3.953  -8.363   7.325  1.00  0.00    -0.352 N 
ATOM     24  C   UNL     1      -4.060  -9.643   7.813  1.00  0.00     0.251 C 
ATOM     25  H   UNL     1      -4.735  -8.052   6.814  1.00  0.00     0.163 HD
ATOM     26  O   UNL     1      -4.959 -10.376   7.409  1.00  0.00    -0.269 OA
BRANCH  24  27
ATOM     27  C   UNL     1      -3.090 -10.147   8.805  1.00  0.00     0.039 A 
ATOM     28  C   UNL     1      -2.632  -9.319   9.828  1.00  0.00     0.014 A 
ATOM     29  C   UNL     1      -2.637 -11.467   8.720  1.00  0.00     0.014 A 
ATOM     30  C   UNL     1      -1.579  -9.734  10.629  1.00  0.00     0.010 A 
ATOM     31  C   UNL     1      -1.658 -11.925   9.607  1.00  0.00     0.010 A 
ATOM     32  C   UNL     1      -1.082 -11.044  10.534  1.00  0.00    -0.014 A 
BRANCH  32  33
ATOM     33  C   UNL     1       0.037 -11.451  11.423  1.00  0.00     0.031 A 
ATOM     34  C   UNL     1       1.370 -11.848  10.852  1.00  0.00     0.074 A 
ATOM     35  C   UNL     1      -0.134 -11.379  12.758  1.00  0.00     0.049 A 
ATOM     36  N   UNL     1       2.468 -12.187  11.482  1.00  0.00    -0.248 NA
ATOM     37  C   UNL     1       1.493 -11.873   9.386  1.00  0.00     0.031 C 
ATOM     38  C   UNL     1      -1.381 -10.996  13.424  1.00  0.00     0.029 A 
ATOM     39  N   UNL     1       0.744 -11.579  13.791  1.00  0.00    -0.354 N 
ATOM     40  C   UNL     1       3.397 -12.487  10.495  1.00  0.00     0.074 A 
ATOM     41  C   UNL     1       2.731 -12.318   9.222  1.00  0.00     0.031 C 
ATOM     42  C   UNL     1      -1.167 -10.912  14.744  1.00  0.00     0.029 A 
ATOM     43  C   UNL     1       0.207 -11.310  15.026  1.00  0.00     0.049 A 
ATOM     44  H   UNL     1       1.671 -11.886  13.660  1.00  0.00     0.167 HD
ATOM     45  C   UNL     1       4.692 -12.855  10.640  1.00  0.00     0.037 A 
ATOM     46  C   UNL     1       0.755 -11.385  16.253  1.00  0.00     0.037 A 
ATOM     47  C   UNL     1       5.358 -12.989  11.910  1.00  0.00     0.049 A 
ATOM     48  C   UNL     1       2.182 -11.830  16.386  1.00  0.00     0.074 A 
ATOM     49  C   UNL     1       6.674 -13.336  12.160  1.00  0.00     0.029 A 
ATOM     50  N   UNL     1       4.758 -12.777  13.143  1.00  0.00    -0.354 N 
ATOM     51  N   UNL     1       3.047 -12.114  15.444  1.00  0.00    -0.248 NA
ATOM     52  C   UNL     1       2.703 -11.981  17.750  1.00  0.00     0.031 C 
ATOM     53  C   UNL     1       6.859 -13.376  13.546  1.00  0.00     0.029 A 
ATOM     54  C   UNL     1       5.672 -13.008  14.158  1.00  0.00     0.049 A 
ATOM     55  H   UNL     1       3.822 -12.503  13.277  1.00  0.00     0.167 HD
ATOM     56  C   UNL     1       4.216 -12.475  16.097  1.00  0.00     0.074 A 
ATOM     57  C   UNL     1       3.956 -12.349  17.517  1.00  0.00     0.031 C 
ATOM     58  C   UNL     1       5.394 -12.883  15.567  1.00  0.00     0.037 A 
BRANCH  45  59
ATOM     59  C   UNL     1       5.482 -13.150   9.398  1.00  0.00     0.064 A 
ATOM     60  C   UNL     1       5.901 -12.129   8.532  1.00  0.00     0.173 A 
ATOM     61  C   UNL     1       5.878 -14.464   9.103  1.00  0.00     0.173 A 
ATOM     62  F   UNL     1       5.538 -10.858   8.761  1.00  0.00    -0.203 F 
ATOM     63  C   UNL     1       6.673 -12.415   7.408  1.00  0.00     0.198 A 
ATOM     64  C   UNL     1       6.672 -14.742   7.994  1.00  0.00     0.198 A 
ATOM     65  F   UNL     1       5.509 -15.476   9.902  1.00  0.00    -0.203 F 
ATOM     66  F   UNL     1       7.033 -11.428   6.576  1.00  0.00    -0.200 F 
ATOM     67  C   UNL     1       7.066 -13.719   7.145  1.00  0.00     0.200 A 
ATOM     68  F   UNL     1       7.061 -16.001   7.749  1.00  0.00    -0.200 F 
ATOM     69  F   UNL     1       7.820 -13.990   6.071  1.00  0.00    -0.200 F 
ENDBRANCH  45  59
BRANCH  46  70
ATOM     70  C   UNL     1      -0.062 -11.025  17.440  1.00  0.00     0.064 A 
ATOM     71  C   UNL     1       0.208  -9.863  18.174  1.00  0.00     0.173 A 
ATOM     72  C   UNL     1      -1.160 -11.806  17.832  1.00  0.00     0.173 A 
ATOM     73  F   UNL     1       1.258  -9.095  17.849  1.00  0.00    -0.203 F 
ATOM     74  C   UNL     1      -0.591  -9.494  19.254  1.00  0.00     0.198 A 
ATOM     75  C   UNL     1      -1.976 -11.420  18.893  1.00  0.00     0.198 A 
ATOM     76  F   UNL     1      -1.463 -12.925  17.158  1.00  0.00    -0.203 F 
ATOM     77  F   UNL     1      -0.299  -8.389  19.954  1.00  0.00    -0.200 F 
ATOM     78  C   UNL     1      -1.689 -10.266  19.605  1.00  0.00     0.200 A 
ATOM     79  F   UNL     1      -3.046 -12.159  19.215  1.00  0.00    -0.200 F 
ATOM     80  F   UNL     1      -2.470  -9.898  20.630  1.00  0.00    -0.200 F 
ENDBRANCH  46  70
BRANCH  58  81
ATOM     81  C   UNL     1       6.498 -13.222  16.522  1.00  0.00     0.064 A 
ATOM     82  C   UNL     1       6.476 -14.410  17.267  1.00  0.00     0.173 A 
ATOM     83  C   UNL     1       7.620 -12.389  16.640  1.00  0.00     0.173 A 
ATOM     84  F   UNL     1       5.417 -15.230  17.198  1.00  0.00    -0.203 F 
ATOM     85  C   UNL     1       7.535 -14.746  18.106  1.00  0.00     0.198 A 
ATOM     86  C   UNL     1       8.689 -12.742  17.459  1.00  0.00     0.198 A 
ATOM     87  F   UNL     1       7.690 -11.246  15.942  1.00  0.00    -0.203 F 
ATOM     88  F   UNL     1       7.480 -15.870  18.833  1.00  0.00    -0.200 F 
ATOM     89  C   UNL     1       8.644 -13.917  18.193  1.00  0.00     0.200 A 
ATOM     90  F   UNL     1       9.765 -11.947  17.532  1.00  0.00    -0.200 F 
ATOM     91  F   UNL     1       9.669 -14.251  18.989  1.00  0.00    -0.200 F 
ENDBRANCH  58  81
ENDBRANCH  32  33
ENDBRANCH  24  27
ENDBRANCH  22  23
ENDBRANCH   1  22
TORSDOF 11
