REMARK SMILES CC[C@H]1CCCCN1S(=O)(=O)c1ccc2oc(C(=O)NCCCNC(=O)c3ccc(-c4c5nc(c(-c6c(F)c(F)c(F)c(F)c6F)c6ccc([nH]6)c(-c6c(F)c(F)c(F)c(F)c6F)c6nc(c(-c7c(F)c(F)c(F)c(F)c7F)c7ccc4[nH]7)C=C6)C=C5)cc3)c(C)c2c1
REMARK SMILES IDX 21 1 20 2 18 3 19 4 17 6 12 7 13 8 93 9 14 10 92 11 15 12
REMARK SMILES IDX 90 13 16 14 91 15 9 16 10 17 11 18 8 19 3 20 4 21 5 22 7 23
REMARK SMILES IDX 6 24 2 25 1 26 22 27 23 28 24 29 25 30 26 32 27 33 28 34
REMARK SMILES IDX 89 35 29 36 88 37 30 38 31 39 32 40 82 41 33 42 87 43 81 44
REMARK SMILES IDX 83 45 34 46 86 47 80 48 79 49 35 51 67 52 47 53 66 54 48 55
REMARK SMILES IDX 51 56 65 57 84 58 49 59 50 60 64 62 85 63 52 64 36 65 37 66
REMARK SMILES IDX 45 67 38 68 39 69 43 70 46 71 40 72 41 73 44 74 42 75 68 76
REMARK SMILES IDX 69 77 77 78 70 79 71 80 75 81 78 82 72 83 73 84 76 85 74 86
REMARK SMILES IDX 53 87 54 88 62 89 55 90 56 91 60 92 63 93 57 94 58 95 61 96
REMARK SMILES IDX 59 97
REMARK H PARENT 20 5 24 31 83 50 51 61
REMARK Flexibility Score: inf
ROOT
ATOM      1  C   UNL     1      -2.811  10.944  -0.886  1.00  0.00     0.118 C 
ENDROOT
BRANCH   1   2
ATOM      2  N   UNL     1      -4.130  10.831  -0.304  1.00  0.00    -0.349 N 
ATOM      3  C   UNL     1      -4.772   9.749   0.265  1.00  0.00     0.287 C 
ATOM      4  O   UNL     1      -5.909   9.983   0.685  1.00  0.00    -0.266 OA
ATOM      5  H   UNL     1      -4.657  11.663  -0.315  1.00  0.00     0.163 HD
BRANCH   3   6
ATOM      6  C   UNL     1      -4.173   8.421   0.311  1.00  0.00     0.195 A 
ATOM      7  C   UNL     1      -2.568   4.141   0.177  1.00  0.00     0.083 A 
ATOM      8  C   UNL     1      -3.875   3.873   0.603  1.00  0.00     0.025 A 
ATOM      9  C   UNL     1      -2.189   5.437  -0.173  1.00  0.00     0.034 A 
ATOM     10  C   UNL     1      -4.825   4.911   0.703  1.00  0.00     0.049 A 
ATOM     11  C   UNL     1      -3.056   6.487   0.117  1.00  0.00     0.025 A 
ATOM     12  C   UNL     1      -4.359   6.205   0.463  1.00  0.00     0.135 A 
ATOM     13  C   UNL     1      -2.887   7.889   0.258  1.00  0.00     0.008 A 
ATOM     14  O   UNL     1      -5.059   7.370   0.518  1.00  0.00    -0.451 OA
ATOM     15  C   UNL     1      -1.542   8.506   0.399  1.00  0.00     0.049 C 
BRANCH   7  16
ATOM     16  S   UNL     1      -1.377   2.856  -0.117  1.00  0.00     0.243 S 
ATOM     17  O   UNL     1      -1.073   2.971  -1.524  1.00  0.00    -0.207 OA
ATOM     18  O   UNL     1      -1.924   1.625   0.419  1.00  0.00    -0.207 OA
BRANCH  16  19
ATOM     19  N   UNL     1       0.035   3.205   0.803  1.00  0.00    -0.195 NA
ATOM     20  C   UNL     1       1.124   2.164   0.732  1.00  0.00     0.073 C 
ATOM     21  C   UNL     1       1.851   2.198   2.096  1.00  0.00     0.020 C 
ATOM     22  C   UNL     1       2.456   3.573   2.393  1.00  0.00     0.003 C 
ATOM     23  C   UNL     1       0.579   4.569   0.966  1.00  0.00     0.103 C 
ATOM     24  C   UNL     1       1.413   4.670   2.246  1.00  0.00     0.017 C 
BRANCH  20  25
ATOM     25  C   UNL     1       2.168   2.347  -0.399  1.00  0.00     0.017 C 
ATOM     26  C   UNL     1       1.673   2.380  -1.831  1.00  0.00     0.005 C 
ENDBRANCH  20  25
ENDBRANCH  16  19
ENDBRANCH   7  16
ENDBRANCH   3   6
ENDBRANCH   1   2
BRANCH   1  27
ATOM     27  C   UNL     1      -2.681  11.926  -2.038  1.00  0.00     0.042 C 
BRANCH  27  28
ATOM     28  C   UNL     1      -2.939  13.376  -1.666  1.00  0.00     0.118 C 
BRANCH  28  29
ATOM     29  N   UNL     1      -1.901  13.964  -0.827  1.00  0.00    -0.352 N 
ATOM     30  C   UNL     1      -0.767  14.686  -1.119  1.00  0.00     0.251 C 
ATOM     31  H   UNL     1      -2.038  13.815   0.136  1.00  0.00     0.163 HD
ATOM     32  O   UNL     1       0.015  14.954  -0.209  1.00  0.00    -0.269 OA
BRANCH  30  33
ATOM     33  C   UNL     1      -0.435  15.105  -2.502  1.00  0.00     0.039 A 
ATOM     34  C   UNL     1       0.908  15.117  -2.903  1.00  0.00     0.014 A 
ATOM     35  C   UNL     1      -1.411  15.518  -3.403  1.00  0.00     0.014 A 
ATOM     36  C   UNL     1       1.248  15.438  -4.223  1.00  0.00     0.010 A 
ATOM     37  C   UNL     1      -1.089  15.719  -4.742  1.00  0.00     0.010 A 
ATOM     38  C   UNL     1       0.245  15.683  -5.171  1.00  0.00    -0.014 A 
BRANCH  38  39
ATOM     39  C   UNL     1       0.541  15.917  -6.611  1.00  0.00     0.031 A 
ATOM     40  C   UNL     1       0.066  17.181  -7.278  1.00  0.00     0.074 A 
ATOM     41  C   UNL     1       1.121  14.948  -7.347  1.00  0.00     0.049 A 
ATOM     42  N   UNL     1       0.023  17.484  -8.551  1.00  0.00    -0.248 NA
ATOM     43  C   UNL     1      -0.480  18.226  -6.396  1.00  0.00     0.031 C 
ATOM     44  C   UNL     1       1.582  13.655  -6.839  1.00  0.00     0.029 A 
ATOM     45  N   UNL     1       1.399  14.892  -8.691  1.00  0.00    -0.354 N 
ATOM     46  C   UNL     1      -0.601  18.723  -8.623  1.00  0.00     0.074 A 
ATOM     47  C   UNL     1      -0.955  19.098  -7.271  1.00  0.00     0.031 C 
ATOM     48  C   UNL     1       2.102  12.943  -7.852  1.00  0.00     0.029 A 
ATOM     49  C   UNL     1       1.967  13.706  -9.088  1.00  0.00     0.049 A 
ATOM     50  H   UNL     1       1.208  15.633  -9.312  1.00  0.00     0.167 HD
ATOM     51  C   UNL     1      -0.840  19.488  -9.714  1.00  0.00     0.037 A 
ATOM     52  C   UNL     1       2.324  13.275 -10.312  1.00  0.00     0.037 A 
ATOM     53  C   UNL     1      -0.420  19.148 -11.047  1.00  0.00     0.049 A 
ATOM     54  C   UNL     1       2.097  14.166 -11.502  1.00  0.00     0.074 A 
ATOM     55  C   UNL     1      -0.534  19.896 -12.206  1.00  0.00     0.029 A 
ATOM     56  N   UNL     1       0.212  17.964 -11.395  1.00  0.00    -0.354 N 
ATOM     57  N   UNL     1       1.546  15.353 -11.551  1.00  0.00    -0.248 NA
ATOM     58  C   UNL     1       2.542  13.656 -12.807  1.00  0.00     0.031 C 
ATOM     59  C   UNL     1       0.009  19.154 -13.260  1.00  0.00     0.029 A 
ATOM     60  C   UNL     1       0.490  17.958 -12.752  1.00  0.00     0.049 A 
ATOM     61  H   UNL     1       0.432  17.236 -10.770  1.00  0.00     0.167 HD
ATOM     62  C   UNL     1       1.599  15.744 -12.882  1.00  0.00     0.074 A 
ATOM     63  C   UNL     1       2.246  14.671 -13.608  1.00  0.00     0.031 C 
ATOM     64  C   UNL     1       1.151  16.888 -13.451  1.00  0.00     0.037 A 
BRANCH  51  65
ATOM     65  C   UNL     1      -1.580  20.778  -9.511  1.00  0.00     0.064 A 
ATOM     66  C   UNL     1      -0.987  21.873  -8.864  1.00  0.00     0.173 A 
ATOM     67  C   UNL     1      -2.888  20.932  -9.993  1.00  0.00     0.173 A 
ATOM     68  F   UNL     1       0.258  21.772  -8.373  1.00  0.00    -0.203 F 
ATOM     69  C   UNL     1      -1.687  23.061  -8.678  1.00  0.00     0.198 A 
ATOM     70  C   UNL     1      -3.575  22.132  -9.832  1.00  0.00     0.198 A 
ATOM     71  F   UNL     1      -3.500  19.919 -10.625  1.00  0.00    -0.203 F 
ATOM     72  F   UNL     1      -1.118  24.074  -8.010  1.00  0.00    -0.200 F 
ATOM     73  C   UNL     1      -2.978  23.192  -9.168  1.00  0.00     0.200 A 
ATOM     74  F   UNL     1      -4.819  22.262 -10.316  1.00  0.00    -0.200 F 
ATOM     75  F   UNL     1      -3.649  24.339  -8.991  1.00  0.00    -0.200 F 
ENDBRANCH  51  65
BRANCH  52  76
ATOM     76  C   UNL     1       2.959  11.942 -10.471  1.00  0.00     0.064 A 
ATOM     77  C   UNL     1       4.324  11.834 -10.771  1.00  0.00     0.173 A 
ATOM     78  C   UNL     1       2.227  10.756 -10.322  1.00  0.00     0.173 A 
ATOM     79  F   UNL     1       5.060  12.942 -10.943  1.00  0.00    -0.203 F 
ATOM     80  C   UNL     1       4.930  10.590 -10.931  1.00  0.00     0.198 A 
ATOM     81  C   UNL     1       2.839   9.511 -10.458  1.00  0.00     0.198 A 
ATOM     82  F   UNL     1       0.920  10.806 -10.027  1.00  0.00    -0.203 F 
ATOM     83  F   UNL     1       6.229  10.516 -11.254  1.00  0.00    -0.200 F 
ATOM     84  C   UNL     1       4.189   9.430 -10.769  1.00  0.00     0.200 A 
ATOM     85  F   UNL     1       2.123   8.392 -10.287  1.00  0.00    -0.200 F 
ATOM     86  F   UNL     1       4.773   8.233 -10.917  1.00  0.00    -0.200 F 
ENDBRANCH  52  76
BRANCH  64  87
ATOM     87  C   UNL     1       1.378  17.060 -14.922  1.00  0.00     0.064 A 
ATOM     88  C   UNL     1       0.604  16.374 -15.868  1.00  0.00     0.173 A 
ATOM     89  C   UNL     1       2.345  17.963 -15.388  1.00  0.00     0.173 A 
ATOM     90  F   UNL     1      -0.321  15.488 -15.468  1.00  0.00    -0.203 F 
ATOM     91  C   UNL     1       0.798  16.577 -17.231  1.00  0.00     0.198 A 
ATOM     92  C   UNL     1       2.521  18.181 -16.751  1.00  0.00     0.198 A 
ATOM     93  F   UNL     1       3.106  18.646 -14.520  1.00  0.00    -0.203 F 
ATOM     94  F   UNL     1       0.070  15.888 -18.120  1.00  0.00    -0.200 F 
ATOM     95  C   UNL     1       1.750  17.486 -17.671  1.00  0.00     0.200 A 
ATOM     96  F   UNL     1       3.433  19.066 -17.175  1.00  0.00    -0.200 F 
ATOM     97  F   UNL     1       1.929  17.687 -18.984  1.00  0.00    -0.200 F 
ENDBRANCH  64  87
ENDBRANCH  38  39
ENDBRANCH  30  33
ENDBRANCH  28  29
ENDBRANCH  27  28
ENDBRANCH   1  27
TORSDOF 13
