REMARK SMILES Cc1ccc(S(=O)(=O)Nc2cnc(N(C)C)c(C(=O)NCCCNC(=O)c3ccc(-c4c5nc(c(-c6c(F)c(F)c(F)c(F)c6F)c6ccc([nH]6)c(-c6c(F)c(F)c(F)c(F)c6F)c6nc(c(-c7c(F)c(F)c(F)c(F)c7F)c7ccc4[nH]7)C=C6)C=C5)cc3)c2)c(C)c1
REMARK SMILES IDX 21 1 20 2 18 3 19 4 17 6 10 7 11 8 90 9 12 10 13 11 9 12
REMARK SMILES IDX 6 14 7 15 8 16 5 17 1 18 2 19 3 20 93 21 4 22 91 23 92 24
REMARK SMILES IDX 14 25 15 26 16 27 22 28 23 29 24 30 25 31 26 33 27 34 28 35
REMARK SMILES IDX 89 36 29 37 88 38 30 39 31 40 32 41 82 42 33 43 87 44 81 45
REMARK SMILES IDX 83 46 34 47 86 48 80 49 79 50 35 52 67 53 47 54 66 55 48 56
REMARK SMILES IDX 51 57 65 58 84 59 49 60 50 61 64 63 85 64 52 65 36 66 37 67
REMARK SMILES IDX 45 68 38 69 39 70 43 71 46 72 40 73 41 74 44 75 42 76 68 77
REMARK SMILES IDX 69 78 77 79 70 80 71 81 75 82 78 83 72 84 73 85 76 86 74 87
REMARK SMILES IDX 53 88 54 89 62 90 55 91 56 92 60 93 63 94 57 95 58 96 61 97
REMARK SMILES IDX 59 98
REMARK H PARENT 20 5 9 13 24 32 83 51 51 62
REMARK Flexibility Score: inf
ROOT
ATOM      1  C   UNL     1       1.030  -1.697   2.526  1.00  0.00     0.118 C 
ENDROOT
BRANCH   1   2
ATOM      2  N   UNL     1       1.888  -2.849   2.750  1.00  0.00    -0.352 N 
ATOM      3  C   UNL     1       1.821  -4.150   2.305  1.00  0.00     0.255 C 
ATOM      4  O   UNL     1       2.445  -4.989   2.950  1.00  0.00    -0.269 OA
ATOM      5  H   UNL     1       2.663  -2.664   3.328  1.00  0.00     0.163 HD
BRANCH   3   6
ATOM      6  C   UNL     1       1.052  -4.548   1.098  1.00  0.00     0.084 A 
ATOM      7  C   UNL     1      -1.037  -4.402  -0.126  1.00  0.00     0.068 A 
ATOM      8  C   UNL     1      -0.496  -5.305  -1.015  1.00  0.00     0.140 A 
ATOM      9  C   UNL     1      -0.297  -4.138   1.014  1.00  0.00     0.046 A 
ATOM     10  N   UNL     1       0.762  -5.772  -0.928  1.00  0.00    -0.236 NA
ATOM     11  C   UNL     1       1.593  -5.354   0.069  1.00  0.00     0.141 A 
BRANCH   7  12
ATOM     12  N   UNL     1      -2.252  -3.754  -0.478  1.00  0.00    -0.278 N 
ATOM     13  H   UNL     1      -2.915  -4.273  -0.987  1.00  0.00     0.180 HD
BRANCH  12  14
ATOM     14  S   UNL     1      -2.638  -2.170  -0.091  1.00  0.00     0.262 S 
ATOM     15  O   UNL     1      -2.758  -2.104   1.365  1.00  0.00    -0.201 OA
ATOM     16  O   UNL     1      -3.750  -1.833  -0.953  1.00  0.00    -0.201 OA
BRANCH  14  17
ATOM     17  C   UNL     1      -1.288  -1.075  -0.529  1.00  0.00     0.090 A 
ATOM     18  C   UNL     1       2.353   1.235  -0.472  1.00  0.00     0.044 C 
ATOM     19  C   UNL     1       1.073   0.457  -0.565  1.00  0.00    -0.051 A 
ATOM     20  C   UNL     1       1.045  -0.810  -1.150  1.00  0.00     0.005 A 
ATOM     21  C   UNL     1      -0.123   1.010  -0.099  1.00  0.00     0.008 A 
ATOM     22  C   UNL     1      -0.134  -1.563  -1.151  1.00  0.00     0.023 A 
ATOM     23  C   UNL     1      -1.316   0.260  -0.072  1.00  0.00    -0.030 A 
ATOM     24  C   UNL     1      -2.558   0.975   0.390  1.00  0.00     0.046 C 
ENDBRANCH  14  17
ENDBRANCH  12  14
ENDBRANCH   7  12
BRANCH  11  25
ATOM     25  N   UNL     1       2.912  -5.715  -0.135  1.00  0.00    -0.362 N 
ATOM     26  C   UNL     1       3.171  -6.826  -1.053  1.00  0.00     0.145 C 
ATOM     27  C   UNL     1       4.044  -5.291   0.669  1.00  0.00     0.145 C 
ENDBRANCH  11  25
ENDBRANCH   3   6
ENDBRANCH   1   2
BRANCH   1  28
ATOM     28  C   UNL     1       0.008  -1.571   3.659  1.00  0.00     0.042 C 
BRANCH  28  29
ATOM     29  C   UNL     1       0.629  -1.119   4.976  1.00  0.00     0.118 C 
BRANCH  29  30
ATOM     30  N   UNL     1       0.977   0.292   4.960  1.00  0.00    -0.352 N 
ATOM     31  C   UNL     1       0.730   1.256   5.903  1.00  0.00     0.251 C 
ATOM     32  H   UNL     1       1.458   0.599   4.157  1.00  0.00     0.163 HD
ATOM     33  O   UNL     1       0.931   2.437   5.634  1.00  0.00    -0.269 OA
BRANCH  31  34
ATOM     34  C   UNL     1       0.213   0.886   7.239  1.00  0.00     0.039 A 
ATOM     35  C   UNL     1      -0.785   1.681   7.813  1.00  0.00     0.014 A 
ATOM     36  C   UNL     1       0.737  -0.198   7.949  1.00  0.00     0.014 A 
ATOM     37  C   UNL     1      -1.277   1.372   9.084  1.00  0.00     0.010 A 
ATOM     38  C   UNL     1       0.207  -0.539   9.193  1.00  0.00     0.010 A 
ATOM     39  C   UNL     1      -0.792   0.253   9.778  1.00  0.00    -0.014 A 
BRANCH  39  40
ATOM     40  C   UNL     1      -1.292  -0.076  11.136  1.00  0.00     0.031 A 
ATOM     41  C   UNL     1      -0.380   0.052  12.323  1.00  0.00     0.074 A 
ATOM     42  C   UNL     1      -2.548  -0.534  11.294  1.00  0.00     0.049 A 
ATOM     43  N   UNL     1      -0.609  -0.235  13.580  1.00  0.00    -0.248 NA
ATOM     44  C   UNL     1       0.981   0.543  12.059  1.00  0.00     0.031 C 
ATOM     45  C   UNL     1      -3.512  -0.748  10.215  1.00  0.00     0.029 A 
ATOM     46  N   UNL     1      -3.225  -0.909  12.427  1.00  0.00    -0.354 N 
ATOM     47  C   UNL     1       0.582   0.014  14.248  1.00  0.00     0.074 A 
ATOM     48  C   UNL     1       1.544   0.441  13.255  1.00  0.00     0.031 C 
ATOM     49  C   UNL     1      -4.663  -1.199  10.739  1.00  0.00     0.029 A 
ATOM     50  C   UNL     1      -4.510  -1.327  12.185  1.00  0.00     0.049 A 
ATOM     51  H   UNL     1      -2.827  -0.882  13.327  1.00  0.00     0.167 HD
ATOM     52  C   UNL     1       0.845  -0.086  15.573  1.00  0.00     0.037 A 
ATOM     53  C   UNL     1      -5.458  -1.760  13.038  1.00  0.00     0.037 A 
ATOM     54  C   UNL     1      -0.123  -0.468  16.566  1.00  0.00     0.049 A 
ATOM     55  C   UNL     1      -5.157  -1.812  14.510  1.00  0.00     0.074 A 
ATOM     56  C   UNL     1       0.028  -0.538  17.940  1.00  0.00     0.029 A 
ATOM     57  N   UNL     1      -1.431  -0.837  16.287  1.00  0.00    -0.354 N 
ATOM     58  N   UNL     1      -4.044  -1.519  15.137  1.00  0.00    -0.248 NA
ATOM     59  C   UNL     1      -6.248  -2.245  15.394  1.00  0.00     0.031 C 
ATOM     60  C   UNL     1      -1.183  -0.972  18.491  1.00  0.00     0.029 A 
ATOM     61  C   UNL     1      -2.096  -1.141  17.463  1.00  0.00     0.049 A 
ATOM     62  H   UNL     1      -1.827  -0.876  15.387  1.00  0.00     0.167 HD
ATOM     63  C   UNL     1      -4.305  -1.709  16.486  1.00  0.00     0.074 A 
ATOM     64  C   UNL     1      -5.687  -2.131  16.590  1.00  0.00     0.031 C 
ATOM     65  C   UNL     1      -3.474  -1.549  17.545  1.00  0.00     0.037 A 
BRANCH  52  66
ATOM     66  C   UNL     1       2.240   0.230  16.024  1.00  0.00     0.064 A 
ATOM     67  C   UNL     1       2.724   1.546  16.045  1.00  0.00     0.173 A 
ATOM     68  C   UNL     1       3.095  -0.792  16.463  1.00  0.00     0.173 A 
ATOM     69  F   UNL     1       1.949   2.556  15.621  1.00  0.00    -0.203 F 
ATOM     70  C   UNL     1       4.023   1.825  16.462  1.00  0.00     0.198 A 
ATOM     71  C   UNL     1       4.385  -0.507  16.903  1.00  0.00     0.198 A 
ATOM     72  F   UNL     1       2.679  -2.067  16.467  1.00  0.00    -0.203 F 
ATOM     73  F   UNL     1       4.479   3.085  16.428  1.00  0.00    -0.200 F 
ATOM     74  C   UNL     1       4.850   0.800  16.895  1.00  0.00     0.200 A 
ATOM     75  F   UNL     1       5.181  -1.497  17.331  1.00  0.00    -0.200 F 
ATOM     76  F   UNL     1       6.099   1.070  17.298  1.00  0.00    -0.200 F 
ENDBRANCH  52  66
BRANCH  53  77
ATOM     77  C   UNL     1      -6.797  -2.136  12.521  1.00  0.00     0.064 A 
ATOM     78  C   UNL     1      -7.904  -1.303  12.730  1.00  0.00     0.173 A 
ATOM     79  C   UNL     1      -6.995  -3.323  11.803  1.00  0.00     0.173 A 
ATOM     80  F   UNL     1      -7.764  -0.167  13.429  1.00  0.00    -0.203 F 
ATOM     81  C   UNL     1      -9.165  -1.651  12.252  1.00  0.00     0.198 A 
ATOM     82  C   UNL     1      -8.253  -3.660  11.307  1.00  0.00     0.198 A 
ATOM     83  F   UNL     1      -5.965  -4.151  11.575  1.00  0.00    -0.203 F 
ATOM     84  F   UNL     1     -10.214  -0.854  12.495  1.00  0.00    -0.200 F 
ATOM     85  C   UNL     1      -9.338  -2.826  11.536  1.00  0.00     0.200 A 
ATOM     86  F   UNL     1      -8.415  -4.792  10.608  1.00  0.00    -0.200 F 
ATOM     87  F   UNL     1     -10.551  -3.158  11.073  1.00  0.00    -0.200 F 
ENDBRANCH  53  77
BRANCH  65  88
ATOM     88  C   UNL     1      -4.046  -1.803  18.906  1.00  0.00     0.064 A 
ATOM     89  C   UNL     1      -4.279  -3.105  19.370  1.00  0.00     0.173 A 
ATOM     90  C   UNL     1      -4.329  -0.733  19.768  1.00  0.00     0.173 A 
ATOM     91  F   UNL     1      -4.038  -4.158  18.575  1.00  0.00    -0.203 F 
ATOM     92  C   UNL     1      -4.794  -3.327  20.645  1.00  0.00     0.198 A 
ATOM     93  C   UNL     1      -4.823  -0.959  21.049  1.00  0.00     0.198 A 
ATOM     94  F   UNL     1      -4.118   0.530  19.369  1.00  0.00    -0.203 F 
ATOM     95  F   UNL     1      -5.045  -4.577  21.056  1.00  0.00    -0.200 F 
ATOM     96  C   UNL     1      -5.061  -2.255  21.484  1.00  0.00     0.200 A 
ATOM     97  F   UNL     1      -5.073   0.076  21.862  1.00  0.00    -0.200 F 
ATOM     98  F   UNL     1      -5.553  -2.470  22.711  1.00  0.00    -0.200 F 
ENDBRANCH  65  88
ENDBRANCH  39  40
ENDBRANCH  31  34
ENDBRANCH  29  30
ENDBRANCH  28  29
ENDBRANCH   1  28
TORSDOF 14
