REMARK SMILES Cc1c(C(=O)NCCCNC(=O)c2ccc(-c3c4nc(c(-c5c(F)c(F)c(F)c(F)c5F)c5ccc([nH]5)c(-c5c(F)c(F)c(F)c(F)c5F)c5nc(c(-c6c(F)c(F)c(F)c(F)c6F)c6ccc3[nH]6)C=C5)C=C4)cc2)oc2c1/C(=N/NC(=O)C(c1ccccc1)c1ccccc1)CCC2
REMARK SMILES IDX 7 1 6 2 4 3 5 4 3 6 1 7 2 8 78 9 76 10 77 11 79 12 99 13
REMARK SMILES IDX 80 14 97 15 98 16 81 17 82 18 83 20 84 21 85 22 86 23 90 24
REMARK SMILES IDX 87 25 89 26 88 27 91 28 92 29 96 30 93 31 95 32 94 33 8 34
REMARK SMILES IDX 9 35 10 36 11 37 12 39 13 40 14 41 75 42 15 43 74 44 16 45
REMARK SMILES IDX 17 46 18 47 68 48 19 49 73 50 67 51 69 52 20 53 72 54 66 55
REMARK SMILES IDX 65 56 21 58 53 59 33 60 52 61 34 62 37 63 51 64 70 65 35 66
REMARK SMILES IDX 36 67 50 69 71 70 38 71 22 72 23 73 31 74 24 75 25 76 29 77
REMARK SMILES IDX 32 78 26 79 27 80 30 81 28 82 54 83 55 84 63 85 56 86 57 87
REMARK SMILES IDX 61 88 64 89 58 90 59 91 62 92 60 93 39 94 40 95 48 96 41 97
REMARK SMILES IDX 42 98 46 99 49 100 43 101 44 102 47 103 45 104
REMARK H PARENT 6 5 81 19 10 38 69 57 37 68
REMARK Flexibility Score: inf
ROOT
ATOM      1  C   UNL     1       2.863  -5.497   0.755  1.00  0.00     0.118 C 
ENDROOT
BRANCH   1   2
ATOM      2  N   UNL     1       3.679  -4.331   0.369  1.00  0.00    -0.349 N 
ATOM      3  C   UNL     1       3.283  -3.040   0.002  1.00  0.00     0.287 C 
ATOM      4  O   UNL     1       4.149  -2.169  -0.056  1.00  0.00    -0.266 OA
ATOM      5  H   UNL     1       4.651  -4.484   0.369  1.00  0.00     0.163 HD
BRANCH   3   6
ATOM      6  C   UNL     1       1.875  -2.803  -0.243  1.00  0.00     0.195 A 
ATOM      7  C   UNL     1       1.355  -0.259  -0.125  1.00  0.00     0.049 C 
ATOM      8  C   UNL     1       1.010  -1.696  -0.263  1.00  0.00     0.010 A 
ATOM      9  C   UNL     1      -0.316  -2.259  -0.243  1.00  0.00     0.043 A 
ATOM     10  O   UNL     1       1.155  -3.928  -0.446  1.00  0.00    -0.455 OA
ATOM     11  C   UNL     1      -0.114  -3.622  -0.266  1.00  0.00     0.114 A 
ATOM     12  C   UNL     1      -1.687  -1.790  -0.038  1.00  0.00     0.072 C 
ATOM     13  C   UNL     1      -1.005  -4.750   0.048  1.00  0.00     0.076 C 
ATOM     14  N   UNL     1      -2.025  -0.575  -0.341  1.00  0.00    -0.177 NA
ATOM     15  C   UNL     1      -2.509  -2.864   0.600  1.00  0.00     0.059 C 
ATOM     16  C   UNL     1      -2.411  -4.234  -0.060  1.00  0.00     0.014 C 
BRANCH  14  17
ATOM     17  N   UNL     1      -3.235   0.097  -0.265  1.00  0.00    -0.246 N 
ATOM     18  C   UNL     1      -4.600  -0.085  -0.148  1.00  0.00     0.252 C 
ATOM     19  H   UNL     1      -3.054   1.064  -0.312  1.00  0.00     0.193 HD
ATOM     20  O   UNL     1      -5.273   0.955  -0.287  1.00  0.00    -0.272 OA
BRANCH  18  21
ATOM     21  C   UNL     1      -5.388  -1.405   0.157  1.00  0.00     0.140 C 
BRANCH  21  22
ATOM     22  C   UNL     1      -5.198  -2.401  -1.043  1.00  0.00    -0.031 A 
ATOM     23  C   UNL     1      -5.626  -3.738  -1.040  1.00  0.00     0.005 A 
ATOM     24  C   UNL     1      -4.545  -1.970  -2.227  1.00  0.00     0.005 A 
ATOM     25  C   UNL     1      -5.256  -4.625  -2.071  1.00  0.00     0.000 A 
ATOM     26  C   UNL     1      -4.171  -2.847  -3.250  1.00  0.00     0.000 A 
ATOM     27  C   UNL     1      -4.501  -4.188  -3.157  1.00  0.00     0.000 A 
ENDBRANCH  21  22
BRANCH  21  28
ATOM     28  C   UNL     1      -5.122  -1.773   1.673  1.00  0.00    -0.031 A 
ATOM     29  C   UNL     1      -5.129  -3.076   2.206  1.00  0.00     0.005 A 
ATOM     30  C   UNL     1      -4.641  -0.753   2.534  1.00  0.00     0.005 A 
ATOM     31  C   UNL     1      -4.457  -3.367   3.409  1.00  0.00     0.000 A 
ATOM     32  C   UNL     1      -3.960  -1.044   3.719  1.00  0.00     0.000 A 
ATOM     33  C   UNL     1      -3.827  -2.359   4.134  1.00  0.00     0.000 A 
ENDBRANCH  21  28
ENDBRANCH  18  21
ENDBRANCH  14  17
ENDBRANCH   3   6
ENDBRANCH   1   2
BRANCH   1  34
ATOM     34  C   UNL     1       2.449  -6.422  -0.408  1.00  0.00     0.042 C 
BRANCH  34  35
ATOM     35  C   UNL     1       3.560  -7.357  -0.843  1.00  0.00     0.118 C 
BRANCH  35  36
ATOM     36  N   UNL     1       3.860  -8.382   0.157  1.00  0.00    -0.352 N 
ATOM     37  C   UNL     1       4.927  -9.263   0.199  1.00  0.00     0.251 C 
ATOM     38  H   UNL     1       3.217  -8.454   0.900  1.00  0.00     0.163 HD
ATOM     39  O   UNL     1       4.886 -10.266   0.883  1.00  0.00    -0.269 OA
BRANCH  37  40
ATOM     40  C   UNL     1       6.109  -8.969  -0.634  1.00  0.00     0.039 A 
ATOM     41  C   UNL     1       6.724  -9.976  -1.377  1.00  0.00     0.014 A 
ATOM     42  C   UNL     1       6.545  -7.652  -0.722  1.00  0.00     0.014 A 
ATOM     43  C   UNL     1       7.710  -9.623  -2.296  1.00  0.00     0.010 A 
ATOM     44  C   UNL     1       7.389  -7.288  -1.744  1.00  0.00     0.010 A 
ATOM     45  C   UNL     1       8.012  -8.267  -2.511  1.00  0.00    -0.014 A 
BRANCH  45  46
ATOM     46  C   UNL     1       8.903  -7.875  -3.605  1.00  0.00     0.031 A 
ATOM     47  C   UNL     1       8.632  -8.521  -4.924  1.00  0.00     0.074 A 
ATOM     48  C   UNL     1       9.805  -6.871  -3.525  1.00  0.00     0.049 A 
ATOM     49  N   UNL     1       9.414  -9.302  -5.597  1.00  0.00    -0.248 NA
ATOM     50  C   UNL     1       7.303  -8.346  -5.532  1.00  0.00     0.031 C 
ATOM     51  C   UNL     1      10.035  -5.913  -2.439  1.00  0.00     0.029 A 
ATOM     52  N   UNL     1      10.669  -6.440  -4.486  1.00  0.00    -0.354 N 
ATOM     53  C   UNL     1       8.748  -9.602  -6.783  1.00  0.00     0.074 A 
ATOM     54  C   UNL     1       7.411  -9.087  -6.638  1.00  0.00     0.031 C 
ATOM     55  C   UNL     1      10.792  -4.888  -2.887  1.00  0.00     0.029 A 
ATOM     56  C   UNL     1      11.257  -5.211  -4.222  1.00  0.00     0.049 A 
ATOM     57  H   UNL     1      10.860  -6.957  -5.301  1.00  0.00     0.167 HD
ATOM     58  C   UNL     1       9.414 -10.091  -7.868  1.00  0.00     0.037 A 
ATOM     59  C   UNL     1      12.066  -4.502  -5.045  1.00  0.00     0.037 A 
ATOM     60  C   UNL     1      10.694 -10.637  -7.496  1.00  0.00     0.049 A 
ATOM     61  C   UNL     1      12.617  -5.449  -6.043  1.00  0.00     0.074 A 
ATOM     62  C   UNL     1      11.104 -11.646  -6.644  1.00  0.00     0.029 A 
ATOM     63  N   UNL     1      11.823  -9.896  -7.745  1.00  0.00    -0.354 N 
ATOM     64  N   UNL     1      13.472  -6.390  -5.756  1.00  0.00    -0.248 NA
ATOM     65  C   UNL     1      11.880  -5.627  -7.283  1.00  0.00     0.031 C 
ATOM     66  C   UNL     1      12.285 -11.141  -6.022  1.00  0.00     0.029 A 
ATOM     67  C   UNL     1      12.553  -9.893  -6.583  1.00  0.00     0.049 A 
ATOM     68  H   UNL     1      12.062  -9.454  -8.591  1.00  0.00     0.167 HD
ATOM     69  C   UNL     1      13.072  -7.470  -6.525  1.00  0.00     0.074 A 
ATOM     70  C   UNL     1      12.150  -6.914  -7.513  1.00  0.00     0.031 C 
ATOM     71  C   UNL     1      13.303  -8.752  -6.117  1.00  0.00     0.037 A 
BRANCH  58  72
ATOM     72  C   UNL     1       9.059  -9.783  -9.303  1.00  0.00     0.064 A 
ATOM     73  C   UNL     1       9.727 -10.461 -10.344  1.00  0.00     0.173 A 
ATOM     74  C   UNL     1       8.320  -8.647  -9.694  1.00  0.00     0.173 A 
ATOM     75  F   UNL     1      10.475 -11.545 -10.086  1.00  0.00    -0.203 F 
ATOM     76  C   UNL     1       9.721  -9.986 -11.659  1.00  0.00     0.198 A 
ATOM     77  C   UNL     1       8.274  -8.206 -11.016  1.00  0.00     0.198 A 
ATOM     78  F   UNL     1       7.711  -7.855  -8.804  1.00  0.00    -0.203 F 
ATOM     79  F   UNL     1      10.475 -10.589 -12.588  1.00  0.00    -0.200 F 
ATOM     80  C   UNL     1       9.000  -8.854 -11.992  1.00  0.00     0.200 A 
ATOM     81  F   UNL     1       7.584  -7.096 -11.316  1.00  0.00    -0.200 F 
ATOM     82  F   UNL     1       9.045  -8.359 -13.236  1.00  0.00    -0.200 F 
ENDBRANCH  58  72
BRANCH  59  83
ATOM     83  C   UNL     1      12.196  -3.036  -5.186  1.00  0.00     0.064 A 
ATOM     84  C   UNL     1      13.299  -2.472  -5.846  1.00  0.00     0.173 A 
ATOM     85  C   UNL     1      11.104  -2.182  -4.941  1.00  0.00     0.173 A 
ATOM     86  F   UNL     1      14.364  -3.228  -6.147  1.00  0.00    -0.203 F 
ATOM     87  C   UNL     1      13.292  -1.142  -6.276  1.00  0.00     0.198 A 
ATOM     88  C   UNL     1      11.101  -0.853  -5.365  1.00  0.00     0.198 A 
ATOM     89  F   UNL     1       9.980  -2.649  -4.377  1.00  0.00    -0.203 F 
ATOM     90  F   UNL     1      14.333  -0.658  -6.968  1.00  0.00    -0.200 F 
ATOM     91  C   UNL     1      12.188  -0.338  -6.048  1.00  0.00     0.200 A 
ATOM     92  F   UNL     1      10.013  -0.095  -5.170  1.00  0.00    -0.200 F 
ATOM     93  F   UNL     1      12.152   0.915  -6.522  1.00  0.00    -0.200 F 
ENDBRANCH  59  83
BRANCH  71  94
ATOM     94  C   UNL     1      14.216  -8.964  -4.941  1.00  0.00     0.064 A 
ATOM     95  C   UNL     1      13.971  -8.463  -3.649  1.00  0.00     0.173 A 
ATOM     96  C   UNL     1      15.316  -9.818  -5.097  1.00  0.00     0.173 A 
ATOM     97  F   UNL     1      12.883  -7.729  -3.387  1.00  0.00    -0.203 F 
ATOM     98  C   UNL     1      14.818  -8.759  -2.583  1.00  0.00     0.198 A 
ATOM     99  C   UNL     1      16.139 -10.143  -4.022  1.00  0.00     0.198 A 
ATOM    100  F   UNL     1      15.571 -10.374  -6.292  1.00  0.00    -0.203 F 
ATOM    101  F   UNL     1      14.571  -8.252  -1.366  1.00  0.00    -0.200 F 
ATOM    102  C   UNL     1      15.899  -9.604  -2.769  1.00  0.00     0.200 A 
ATOM    103  F   UNL     1      17.154 -11.001  -4.197  1.00  0.00    -0.200 F 
ATOM    104  F   UNL     1      16.693  -9.920  -1.737  1.00  0.00    -0.200 F 
ENDBRANCH  71  94
ENDBRANCH  45  46
ENDBRANCH  37  40
ENDBRANCH  35  36
ENDBRANCH  34  35
ENDBRANCH   1  34
TORSDOF 14
