REMARK SMILES Cc1ccccc1NC(=O)c1ccccc1NC(=O)CCC(=O)NCCCNC(=O)c1ccc(-c2c3nc(c(-c4c(F)c(F)c(F)c(F)c4F)c4ccc([nH]4)c(-c4c(F)c(F)c(F)c(F)c4F)c4nc(c(-c5c(F)c(F)c(F)c(F)c5F)c5ccc2[nH]5)C=C4)C=C3)cc1
REMARK SMILES IDX 22 1 23 2 24 3 21 5 20 6 18 7 17 8 19 10 16 11 11 12 12 13
REMARK SMILES IDX 13 14 15 15 14 16 9 17 8 18 10 20 7 21 1 22 2 23 3 24 4 25
REMARK SMILES IDX 6 26 5 27 25 28 26 29 27 30 28 31 29 32 30 34 31 35 32 36
REMARK SMILES IDX 93 37 33 38 92 39 34 40 35 41 36 42 86 43 37 44 91 45 85 46
REMARK SMILES IDX 87 47 38 48 90 49 84 50 83 51 39 53 71 54 51 55 70 56 52 57
REMARK SMILES IDX 55 58 69 59 88 60 53 61 54 62 68 64 89 65 56 66 40 67 41 68
REMARK SMILES IDX 49 69 42 70 43 71 47 72 50 73 44 74 45 75 48 76 46 77 72 78
REMARK SMILES IDX 73 79 81 80 74 81 75 82 79 83 82 84 76 85 77 86 80 87 78 88
REMARK SMILES IDX 57 89 58 90 66 91 59 92 60 93 64 94 67 95 61 96 62 97 65 98
REMARK SMILES IDX 63 99
REMARK H PARENT 24 4 17 9 8 19 28 33 87 52 55 63
REMARK Flexibility Score: inf
ROOT
ATOM      1  C   UNL     1      -0.767   3.132   4.401  1.00  0.00     0.220 C 
ATOM      2  O   UNL     1      -1.482   4.134   4.460  1.00  0.00    -0.275 OA
ATOM      3  N   UNL     1       0.271   3.121   3.508  1.00  0.00    -0.356 N 
ATOM      4  H   UNL     1       0.244   3.825   2.820  1.00  0.00     0.163 HD
ENDROOT
BRANCH   1   5
ATOM      5  C   UNL     1      -1.072   1.928   5.274  1.00  0.00     0.110 C 
BRANCH   5   6
ATOM      6  C   UNL     1      -2.150   1.012   4.704  1.00  0.00     0.110 C 
BRANCH   6   7
ATOM      7  C   UNL     1      -1.782   0.508   3.338  1.00  0.00     0.224 C 
ATOM      8  N   UNL     1      -2.006   1.202   2.196  1.00  0.00    -0.325 N 
ATOM      9  H   UNL     1      -1.571   0.778   1.421  1.00  0.00     0.169 HD
ATOM     10  O   UNL     1      -1.110  -0.527   3.243  1.00  0.00    -0.275 OA
BRANCH   8  11
ATOM     11  C   UNL     1      -2.698   2.370   1.830  1.00  0.00     0.054 A 
ATOM     12  C   UNL     1      -2.307   3.084   0.676  1.00  0.00     0.063 A 
ATOM     13  C   UNL     1      -2.834   4.379   0.456  1.00  0.00     0.016 A 
ATOM     14  C   UNL     1      -3.762   4.943   1.325  1.00  0.00     0.001 A 
ATOM     15  C   UNL     1      -3.732   2.902   2.611  1.00  0.00     0.027 A 
ATOM     16  C   UNL     1      -4.234   4.189   2.385  1.00  0.00     0.002 A 
BRANCH  12  17
ATOM     17  C   UNL     1      -1.147   2.760  -0.191  1.00  0.00     0.257 C 
ATOM     18  N   UNL     1      -0.703   1.521  -0.587  1.00  0.00    -0.322 N 
ATOM     19  H   UNL     1       0.208   1.570  -0.956  1.00  0.00     0.170 HD
ATOM     20  O   UNL     1      -0.415   3.711  -0.491  1.00  0.00    -0.269 OA
BRANCH  18  21
ATOM     21  C   UNL     1      -1.191   0.206  -0.611  1.00  0.00     0.044 A 
ATOM     22  C   UNL     1       1.236  -0.727  -0.488  1.00  0.00     0.046 C 
ATOM     23  C   UNL     1      -0.264  -0.865  -0.532  1.00  0.00    -0.027 A 
ATOM     24  C   UNL     1      -0.746  -2.178  -0.404  1.00  0.00     0.005 A 
ATOM     25  C   UNL     1      -2.111  -2.434  -0.378  1.00  0.00     0.000 A 
ATOM     26  C   UNL     1      -2.559  -0.068  -0.632  1.00  0.00     0.026 A 
ATOM     27  C   UNL     1      -3.015  -1.384  -0.511  1.00  0.00     0.002 A 
ENDBRANCH  18  21
ENDBRANCH  12  17
ENDBRANCH   8  11
ENDBRANCH   6   7
ENDBRANCH   5   6
ENDBRANCH   1   5
BRANCH   3  28
ATOM     28  C   UNL     1       1.409   2.216   3.431  1.00  0.00     0.117 C 
BRANCH  28  29
ATOM     29  C   UNL     1       1.735   1.691   2.028  1.00  0.00     0.042 C 
BRANCH  29  30
ATOM     30  C   UNL     1       2.531   2.629   1.100  1.00  0.00     0.118 C 
BRANCH  30  31
ATOM     31  N   UNL     1       3.625   1.907   0.423  1.00  0.00    -0.352 N 
ATOM     32  C   UNL     1       4.128   1.979  -0.861  1.00  0.00     0.251 C 
ATOM     33  H   UNL     1       4.083   1.249   0.994  1.00  0.00     0.163 HD
ATOM     34  O   UNL     1       5.135   1.354  -1.179  1.00  0.00    -0.269 OA
BRANCH  32  35
ATOM     35  C   UNL     1       3.463   2.836  -1.853  1.00  0.00     0.039 A 
ATOM     36  C   UNL     1       4.029   4.064  -2.187  1.00  0.00     0.014 A 
ATOM     37  C   UNL     1       2.215   2.478  -2.345  1.00  0.00     0.014 A 
ATOM     38  C   UNL     1       3.220   5.048  -2.753  1.00  0.00     0.010 A 
ATOM     39  C   UNL     1       1.397   3.465  -2.873  1.00  0.00     0.010 A 
ATOM     40  C   UNL     1       1.863   4.781  -2.960  1.00  0.00    -0.014 A 
BRANCH  40  41
ATOM     41  C   UNL     1       0.864   5.855  -2.956  1.00  0.00     0.031 A 
ATOM     42  C   UNL     1       0.086   6.255  -4.143  1.00  0.00     0.074 A 
ATOM     43  C   UNL     1       0.579   6.469  -1.783  1.00  0.00     0.049 A 
ATOM     44  N   UNL     1      -0.309   7.467  -4.367  1.00  0.00    -0.248 NA
ATOM     45  C   UNL     1      -0.317   5.319  -5.177  1.00  0.00     0.031 C 
ATOM     46  C   UNL     1      -0.534   7.374  -1.502  1.00  0.00     0.029 A 
ATOM     47  N   UNL     1       1.334   6.472  -0.596  1.00  0.00    -0.354 N 
ATOM     48  C   UNL     1      -1.236   7.431  -5.387  1.00  0.00     0.074 A 
ATOM     49  C   UNL     1      -1.135   6.084  -5.909  1.00  0.00     0.031 C 
ATOM     50  C   UNL     1      -0.263   8.062  -0.382  1.00  0.00     0.029 A 
ATOM     51  C   UNL     1       1.082   7.714   0.032  1.00  0.00     0.049 A 
ATOM     52  H   UNL     1       1.921   5.753  -0.267  1.00  0.00     0.167 HD
ATOM     53  C   UNL     1      -2.072   8.499  -5.579  1.00  0.00     0.037 A 
ATOM     54  C   UNL     1       2.082   8.608   0.285  1.00  0.00     0.037 A 
ATOM     55  C   UNL     1      -1.824   9.558  -4.591  1.00  0.00     0.049 A 
ATOM     56  C   UNL     1       1.938   9.931  -0.426  1.00  0.00     0.074 A 
ATOM     57  C   UNL     1      -2.510   9.947  -3.451  1.00  0.00     0.029 A 
ATOM     58  N   UNL     1      -0.605  10.230  -4.562  1.00  0.00    -0.354 N 
ATOM     59  N   UNL     1       1.044  10.174  -1.341  1.00  0.00    -0.248 NA
ATOM     60  C   UNL     1       2.860  11.049  -0.235  1.00  0.00     0.031 C 
ATOM     61  C   UNL     1      -1.689  10.841  -2.723  1.00  0.00     0.029 A 
ATOM     62  C   UNL     1      -0.498  10.994  -3.412  1.00  0.00     0.049 A 
ATOM     63  H   UNL     1       0.085  10.171  -5.261  1.00  0.00     0.167 HD
ATOM     64  C   UNL     1       1.346  11.359  -1.959  1.00  0.00     0.074 A 
ATOM     65  C   UNL     1       2.439  11.905  -1.180  1.00  0.00     0.031 C 
ATOM     66  C   UNL     1       0.712  11.746  -3.106  1.00  0.00     0.037 A 
BRANCH  53  67
ATOM     67  C   UNL     1      -3.319   8.508  -6.461  1.00  0.00     0.064 A 
ATOM     68  C   UNL     1      -4.351   9.457  -6.257  1.00  0.00     0.173 A 
ATOM     69  C   UNL     1      -3.585   7.596  -7.499  1.00  0.00     0.173 A 
ATOM     70  F   UNL     1      -4.201  10.492  -5.420  1.00  0.00    -0.203 F 
ATOM     71  C   UNL     1      -5.582   9.401  -6.923  1.00  0.00     0.198 A 
ATOM     72  C   UNL     1      -4.832   7.507  -8.133  1.00  0.00     0.198 A 
ATOM     73  F   UNL     1      -2.629   6.812  -8.005  1.00  0.00    -0.203 F 
ATOM     74  F   UNL     1      -6.519  10.325  -6.670  1.00  0.00    -0.200 F 
ATOM     75  C   UNL     1      -5.837   8.399  -7.832  1.00  0.00     0.200 A 
ATOM     76  F   UNL     1      -5.041   6.553  -9.052  1.00  0.00    -0.200 F 
ATOM     77  F   UNL     1      -7.026   8.319  -8.445  1.00  0.00    -0.200 F 
ENDBRANCH  53  67
BRANCH  54  78
ATOM     78  C   UNL     1       3.386   7.956   0.559  1.00  0.00     0.064 A 
ATOM     79  C   UNL     1       3.500   7.168   1.718  1.00  0.00     0.173 A 
ATOM     80  C   UNL     1       4.334   7.775  -0.454  1.00  0.00     0.173 A 
ATOM     81  F   UNL     1       2.625   7.322   2.724  1.00  0.00    -0.203 F 
ATOM     82  C   UNL     1       4.429   6.137   1.794  1.00  0.00     0.198 A 
ATOM     83  C   UNL     1       5.279   6.755  -0.363  1.00  0.00     0.198 A 
ATOM     84  F   UNL     1       4.270   8.495  -1.583  1.00  0.00    -0.203 F 
ATOM     85  F   UNL     1       4.422   5.308   2.848  1.00  0.00    -0.200 F 
ATOM     86  C   UNL     1       5.292   5.908   0.736  1.00  0.00     0.200 A 
ATOM     87  F   UNL     1       6.106   6.522  -1.392  1.00  0.00    -0.200 F 
ATOM     88  F   UNL     1       6.097   4.836   0.750  1.00  0.00    -0.200 F 
ENDBRANCH  54  78
BRANCH  66  89
ATOM     89  C   UNL     1       1.128  12.907  -3.974  1.00  0.00     0.064 A 
ATOM     90  C   UNL     1       2.451  13.372  -4.086  1.00  0.00     0.173 A 
ATOM     91  C   UNL     1       0.189  13.545  -4.815  1.00  0.00     0.173 A 
ATOM     92  F   UNL     1       3.464  12.751  -3.466  1.00  0.00    -0.203 F 
ATOM     93  C   UNL     1       2.788  14.465  -4.888  1.00  0.00     0.198 A 
ATOM     94  C   UNL     1       0.539  14.597  -5.662  1.00  0.00     0.198 A 
ATOM     95  F   UNL     1      -1.093  13.153  -4.852  1.00  0.00    -0.203 F 
ATOM     96  F   UNL     1       4.052  14.912  -4.904  1.00  0.00    -0.200 F 
ATOM     97  C   UNL     1       1.833  15.077  -5.677  1.00  0.00     0.200 A 
ATOM     98  F   UNL     1      -0.383  15.138  -6.471  1.00  0.00    -0.200 F 
ATOM     99  F   UNL     1       2.164  16.108  -6.465  1.00  0.00    -0.200 F 
ENDBRANCH  66  89
ENDBRANCH  40  41
ENDBRANCH  32  35
ENDBRANCH  30  31
ENDBRANCH  29  30
ENDBRANCH  28  29
ENDBRANCH   3  28
TORSDOF 15
