REMARK SMILES NS(=O)(=O)c1ccc(-n2ccnc2-c2ccc(O)c(C(=O)NCCCNC(=O)c3ccc(-c4c5nc(c(-c6c(F)c(F)c(F)c(F)c6F)c6ccc([nH]6)c(-c6c(F)c(F)c(F)c(F)c6F)c6nc(c(-c7c(F)c(F)c(F)c(F)c7F)c7ccc4[nH]7)C=C6)C=C5)cc3)c2)cc1
REMARK SMILES IDX 23 1 22 2 20 3 21 4 19 6 14 7 15 8 92 9 16 10 17 11 13 12
REMARK SMILES IDX 9 13 10 14 11 15 12 16 8 17 5 18 6 19 94 20 7 21 93 22 2 23
REMARK SMILES IDX 3 24 4 25 1 26 18 29 24 31 25 32 26 33 27 34 28 36 29 37
REMARK SMILES IDX 30 38 91 39 31 40 90 41 32 42 33 43 34 44 84 45 35 46 89 47
REMARK SMILES IDX 83 48 85 49 36 50 88 51 82 52 81 53 37 55 69 56 49 57 68 58
REMARK SMILES IDX 50 59 53 60 67 61 86 62 51 63 52 64 66 66 87 67 54 68 38 69
REMARK SMILES IDX 39 70 47 71 40 72 41 73 45 74 48 75 42 76 43 77 46 78 44 79
REMARK SMILES IDX 70 80 71 81 79 82 72 83 73 84 77 85 80 86 74 87 75 88 78 89
REMARK SMILES IDX 76 90 55 91 56 92 64 93 57 94 58 95 62 96 65 97 59 98 60 99
REMARK SMILES IDX 63 100 61 101
REMARK H PARENT 22 5 1 27 1 28 18 30 26 35 85 54 53 65
REMARK Flexibility Score: inf
ROOT
ATOM      1  C   UNL     1      -0.085  -2.009  -4.234  1.00  0.00     0.118 C 
ENDROOT
BRANCH   1   2
ATOM      2  N   UNL     1      -1.475  -2.158  -4.636  1.00  0.00    -0.352 N 
ATOM      3  C   UNL     1      -2.328  -3.236  -4.698  1.00  0.00     0.255 C 
ATOM      4  O   UNL     1      -3.513  -2.993  -4.944  1.00  0.00    -0.269 OA
ATOM      5  H   UNL     1      -1.891  -1.314  -4.924  1.00  0.00     0.163 HD
BRANCH   3   6
ATOM      6  C   UNL     1      -1.940  -4.661  -4.466  1.00  0.00     0.082 A 
ATOM      7  C   UNL     1      -0.264  -6.417  -4.095  1.00  0.00     0.019 A 
ATOM      8  C   UNL     1      -1.268  -7.373  -3.976  1.00  0.00     0.016 A 
ATOM      9  C   UNL     1      -0.617  -5.094  -4.411  1.00  0.00     0.029 A 
ATOM     10  C   UNL     1      -2.604  -6.986  -4.098  1.00  0.00     0.048 A 
ATOM     11  C   UNL     1      -2.935  -5.644  -4.319  1.00  0.00     0.128 A 
BRANCH   7  12
ATOM     12  C   UNL     1       1.159  -6.745  -3.942  1.00  0.00     0.144 A 
ATOM     13  N   UNL     1       2.072  -5.987  -3.199  1.00  0.00    -0.300 N 
ATOM     14  C   UNL     1       3.323  -6.335  -3.656  1.00  0.00     0.113 A 
ATOM     15  C   UNL     1       3.126  -7.395  -4.506  1.00  0.00     0.132 A 
ATOM     16  N   UNL     1       1.792  -7.657  -4.659  1.00  0.00    -0.236 NA
BRANCH  13  17
ATOM     17  C   UNL     1       1.792  -4.985  -2.228  1.00  0.00     0.047 A 
ATOM     18  C   UNL     1       1.126  -2.945  -0.443  1.00  0.00     0.082 A 
ATOM     19  C   UNL     1       0.416  -4.149  -0.418  1.00  0.00     0.024 A 
ATOM     20  C   UNL     1       2.182  -2.761  -1.341  1.00  0.00     0.024 A 
ATOM     21  C   UNL     1       0.743  -5.168  -1.316  1.00  0.00     0.028 A 
ATOM     22  C   UNL     1       2.534  -3.794  -2.219  1.00  0.00     0.028 A 
BRANCH  18  23
ATOM     23  S   UNL     1       0.627  -1.661   0.671  1.00  0.00     0.238 S 
ATOM     24  O   UNL     1       1.287  -1.868   1.927  1.00  0.00    -0.207 OA
ATOM     25  O   UNL     1      -0.809  -1.493   0.544  1.00  0.00    -0.207 OA
BRANCH  23  26
ATOM     26  N   UNL     1       1.282  -0.255   0.019  1.00  0.00    -0.225 NA
ATOM     27  H   UNL     1       1.036   0.539   0.610  1.00  0.00     0.137 HD
ATOM     28  H   UNL     1       0.908  -0.109  -0.919  1.00  0.00     0.137 HD
ENDBRANCH  23  26
ENDBRANCH  18  23
ENDBRANCH  13  17
ENDBRANCH   7  12
BRANCH  11  29
ATOM     29  O   UNL     1      -4.277  -5.372  -4.393  1.00  0.00    -0.507 OA
ATOM     30  H   UNL     1      -4.901  -6.063  -4.289  1.00  0.00     0.293 HD
ENDBRANCH  11  29
ENDBRANCH   3   6
ENDBRANCH   1   2
BRANCH   1  31
ATOM     31  C   UNL     1       0.891  -2.110  -5.415  1.00  0.00     0.042 C 
BRANCH  31  32
ATOM     32  C   UNL     1       1.110  -0.767  -6.094  1.00  0.00     0.118 C 
BRANCH  32  33
ATOM     33  N   UNL     1       1.853   0.166  -5.243  1.00  0.00    -0.352 N 
ATOM     34  C   UNL     1       2.128   1.501  -5.453  1.00  0.00     0.251 C 
ATOM     35  H   UNL     1       2.204  -0.212  -4.404  1.00  0.00     0.163 HD
ATOM     36  O   UNL     1       3.031   2.055  -4.837  1.00  0.00    -0.269 OA
BRANCH  34  37
ATOM     37  C   UNL     1       1.330   2.248  -6.439  1.00  0.00     0.039 A 
ATOM     38  C   UNL     1       1.932   3.161  -7.306  1.00  0.00     0.014 A 
ATOM     39  C   UNL     1      -0.034   1.980  -6.519  1.00  0.00     0.014 A 
ATOM     40  C   UNL     1       1.162   3.720  -8.320  1.00  0.00     0.010 A 
ATOM     41  C   UNL     1      -0.745   2.393  -7.618  1.00  0.00     0.010 A 
ATOM     42  C   UNL     1      -0.168   3.296  -8.500  1.00  0.00    -0.014 A 
BRANCH  42  43
ATOM     43  C   UNL     1      -0.895   3.656  -9.715  1.00  0.00     0.031 A 
ATOM     44  C   UNL     1      -0.115   3.383 -10.949  1.00  0.00     0.074 A 
ATOM     45  C   UNL     1      -2.196   4.023  -9.747  1.00  0.00     0.049 A 
ATOM     46  N   UNL     1       0.454   4.260 -11.707  1.00  0.00    -0.248 NA
ATOM     47  C   UNL     1       0.246   1.994 -11.280  1.00  0.00     0.031 C 
ATOM     48  C   UNL     1      -3.152   4.037  -8.633  1.00  0.00     0.029 A 
ATOM     49  N   UNL     1      -2.978   4.377 -10.809  1.00  0.00    -0.354 N 
ATOM     50  C   UNL     1       1.022   3.542 -12.753  1.00  0.00     0.074 A 
ATOM     51  C   UNL     1       1.058   2.170 -12.327  1.00  0.00     0.031 C 
ATOM     52  C   UNL     1      -4.411   4.137  -9.112  1.00  0.00     0.029 A 
ATOM     53  C   UNL     1      -4.345   4.377 -10.540  1.00  0.00     0.049 A 
ATOM     54  H   UNL     1      -2.607   4.613 -11.691  1.00  0.00     0.167 HD
ATOM     55  C   UNL     1       1.077   4.103 -13.993  1.00  0.00     0.037 A 
ATOM     56  C   UNL     1      -5.355   4.560 -11.428  1.00  0.00     0.037 A 
ATOM     57  C   UNL     1       0.830   5.524 -13.907  1.00  0.00     0.049 A 
ATOM     58  C   UNL     1      -4.782   5.279 -12.586  1.00  0.00     0.074 A 
ATOM     59  C   UNL     1       1.463   6.620 -13.363  1.00  0.00     0.029 A 
ATOM     60  N   UNL     1      -0.486   5.860 -14.078  1.00  0.00    -0.354 N 
ATOM     61  N   UNL     1      -4.363   6.512 -12.533  1.00  0.00    -0.248 NA
ATOM     62  C   UNL     1      -4.327   4.511 -13.737  1.00  0.00     0.031 C 
ATOM     63  C   UNL     1       0.422   7.526 -12.990  1.00  0.00     0.029 A 
ATOM     64  C   UNL     1      -0.804   6.988 -13.380  1.00  0.00     0.049 A 
ATOM     65  H   UNL     1      -1.121   5.353 -14.634  1.00  0.00     0.167 HD
ATOM     66  C   UNL     1      -3.252   6.525 -13.354  1.00  0.00     0.074 A 
ATOM     67  C   UNL     1      -3.394   5.346 -14.200  1.00  0.00     0.031 C 
ATOM     68  C   UNL     1      -2.174   7.299 -13.033  1.00  0.00     0.037 A 
BRANCH  55  69
ATOM     69  C   UNL     1       0.771   3.354 -15.280  1.00  0.00     0.064 A 
ATOM     70  C   UNL     1       0.889   4.046 -16.506  1.00  0.00     0.173 A 
ATOM     71  C   UNL     1       0.044   2.145 -15.342  1.00  0.00     0.173 A 
ATOM     72  F   UNL     1       1.529   5.225 -16.563  1.00  0.00    -0.203 F 
ATOM     73  C   UNL     1       0.259   3.603 -17.673  1.00  0.00     0.198 A 
ATOM     74  C   UNL     1      -0.540   1.680 -16.519  1.00  0.00     0.198 A 
ATOM     75  F   UNL     1      -0.246   1.424 -14.254  1.00  0.00    -0.203 F 
ATOM     76  F   UNL     1       0.285   4.364 -18.775  1.00  0.00    -0.200 F 
ATOM     77  C   UNL     1      -0.460   2.422 -17.677  1.00  0.00     0.200 A 
ATOM     78  F   UNL     1      -1.261   0.549 -16.492  1.00  0.00    -0.200 F 
ATOM     79  F   UNL     1      -1.119   2.026 -18.773  1.00  0.00    -0.200 F 
ENDBRANCH  55  69
BRANCH  56  80
ATOM     80  C   UNL     1      -6.718   3.975 -11.462  1.00  0.00     0.064 A 
ATOM     81  C   UNL     1      -7.702   4.483 -12.329  1.00  0.00     0.173 A 
ATOM     82  C   UNL     1      -6.988   2.722 -10.881  1.00  0.00     0.173 A 
ATOM     83  F   UNL     1      -7.514   5.655 -12.953  1.00  0.00    -0.203 F 
ATOM     84  C   UNL     1      -8.858   3.757 -12.639  1.00  0.00     0.198 A 
ATOM     85  C   UNL     1      -8.144   2.000 -11.187  1.00  0.00     0.198 A 
ATOM     86  F   UNL     1      -6.087   2.126 -10.086  1.00  0.00    -0.203 F 
ATOM     87  F   UNL     1      -9.732   4.240 -13.534  1.00  0.00    -0.200 F 
ATOM     88  C   UNL     1      -9.069   2.509 -12.080  1.00  0.00     0.200 A 
ATOM     89  F   UNL     1      -8.321   0.778 -10.666  1.00  0.00    -0.200 F 
ATOM     90  F   UNL     1     -10.136   1.779 -12.435  1.00  0.00    -0.200 F 
ENDBRANCH  56  80
BRANCH  68  91
ATOM     91  C   UNL     1      -2.413   8.477 -12.138  1.00  0.00     0.064 A 
ATOM     92  C   UNL     1      -2.835   8.405 -10.800  1.00  0.00     0.173 A 
ATOM     93  C   UNL     1      -2.118   9.746 -12.657  1.00  0.00     0.173 A 
ATOM     94  F   UNL     1      -3.058   7.226 -10.205  1.00  0.00    -0.203 F 
ATOM     95  C   UNL     1      -2.995   9.561 -10.036  1.00  0.00     0.198 A 
ATOM     96  C   UNL     1      -2.239  10.892 -11.880  1.00  0.00     0.198 A 
ATOM     97  F   UNL     1      -1.673   9.869 -13.918  1.00  0.00    -0.203 F 
ATOM     98  F   UNL     1      -3.422   9.474  -8.767  1.00  0.00    -0.200 F 
ATOM     99  C   UNL     1      -2.690  10.801 -10.574  1.00  0.00     0.200 A 
ATOM    100  F   UNL     1      -1.899  12.082 -12.394  1.00  0.00    -0.200 F 
ATOM    101  F   UNL     1      -2.810  11.908  -9.829  1.00  0.00    -0.200 F 
ENDBRANCH  68  91
ENDBRANCH  42  43
ENDBRANCH  34  37
ENDBRANCH  32  33
ENDBRANCH  31  32
ENDBRANCH   1  31
TORSDOF 15
