REMARK SMILES CCOC(=O)[C@H]1CCCN(c2cc(C(=O)NCCCNC(=O)c3ccc(-c4c5nc(c(-c6c(F)c(F)c(F)c(F)c6F)c6ccc([nH]6)c(-c6c(F)c(F)c(F)c(F)c6F)c6nc(c(-c7c(F)c(F)c(F)c(F)c7F)c7ccc4[nH]7)C=C6)C=C5)cc3)c3cc(NC(=O)c4ccc(Cl)cc4)ccc3n2)C1
REMARK SMILES IDX 17 1 16 2 14 3 15 4 13 6 11 7 12 8 102 9 101 10 86 11 100 12
REMARK SMILES IDX 87 13 99 14 88 15 10 16 6 17 7 18 103 19 8 20 9 21 4 22 5 23
REMARK SMILES IDX 3 24 2 25 1 26 89 27 90 28 91 30 92 31 93 32 98 33 94 34
REMARK SMILES IDX 97 35 95 36 96 37 18 38 19 39 20 40 21 41 22 43 23 44 24 45
REMARK SMILES IDX 85 46 25 47 84 48 26 49 27 50 28 51 78 52 29 53 83 54 77 55
REMARK SMILES IDX 79 56 30 57 82 58 76 59 75 60 31 62 63 63 43 64 62 65 44 66
REMARK SMILES IDX 47 67 61 68 80 69 45 70 46 71 60 73 81 74 48 75 32 76 33 77
REMARK SMILES IDX 41 78 34 79 35 80 39 81 42 82 36 83 37 84 40 85 38 86 64 87
REMARK SMILES IDX 65 88 73 89 66 90 67 91 71 92 74 93 68 94 69 95 72 96 70 97
REMARK SMILES IDX 49 98 50 99 58 100 51 101 52 102 56 103 59 104 53 105 54 106
REMARK SMILES IDX 57 107 55 108
REMARK H PARENT 16 5 89 29 20 42 79 61 47 72
REMARK Flexibility Score: inf
ROOT
ATOM      1  C   UNL     1       6.722   5.320  -1.583  1.00  0.00     0.118 C 
ENDROOT
BRANCH   1   2
ATOM      2  N   UNL     1       5.396   4.738  -1.445  1.00  0.00    -0.352 N 
ATOM      3  C   UNL     1       4.936   3.443  -1.376  1.00  0.00     0.252 C 
ATOM      4  O   UNL     1       3.724   3.308  -1.184  1.00  0.00    -0.269 OA
ATOM      5  H   UNL     1       4.679   5.410  -1.390  1.00  0.00     0.163 HD
BRANCH   3   6
ATOM      6  C   UNL     1       5.756   2.206  -1.566  1.00  0.00     0.052 A 
ATOM      7  C   UNL     1       5.680  -0.099  -2.301  1.00  0.00     0.130 A 
ATOM      8  C   UNL     1       5.078   1.147  -2.181  1.00  0.00     0.061 A 
ATOM      9  N   UNL     1       6.969  -0.277  -1.956  1.00  0.00    -0.231 NA
ATOM     10  C   UNL     1       7.639   0.718  -1.362  1.00  0.00     0.074 A 
ATOM     11  C   UNL     1       7.043   1.950  -1.056  1.00  0.00     0.015 A 
ATOM     12  C   UNL     1       8.955   0.494  -0.970  1.00  0.00     0.031 A 
ATOM     13  C   UNL     1       7.730   2.796  -0.174  1.00  0.00     0.037 A 
ATOM     14  C   UNL     1       9.655   1.401  -0.164  1.00  0.00     0.028 A 
ATOM     15  C   UNL     1       9.000   2.522   0.320  1.00  0.00     0.042 A 
BRANCH   7  16
ATOM     16  N   UNL     1       4.932  -1.195  -2.665  1.00  0.00    -0.356 N 
ATOM     17  C   UNL     1       2.748  -1.808  -3.540  1.00  0.00     0.118 C 
ATOM     18  C   UNL     1       2.935  -3.208  -2.930  1.00  0.00     0.019 C 
ATOM     19  C   UNL     1       4.101  -1.175  -3.860  1.00  0.00     0.133 C 
ATOM     20  C   UNL     1       3.880  -3.168  -1.725  1.00  0.00     0.022 C 
ATOM     21  C   UNL     1       5.215  -2.494  -2.067  1.00  0.00     0.118 C 
BRANCH  17  22
ATOM     22  C   UNL     1       1.934  -1.760  -4.814  1.00  0.00     0.310 C 
ATOM     23  O   UNL     1       1.616  -0.709  -5.358  1.00  0.00    -0.252 OA
BRANCH  22  24
ATOM     24  O   UNL     1       1.650  -2.996  -5.300  1.00  0.00    -0.466 OA
BRANCH  24  25
ATOM     25  C   UNL     1       0.952  -3.026  -6.553  1.00  0.00     0.229 C 
ATOM     26  C   UNL     1      -0.539  -2.857  -6.332  1.00  0.00     0.049 C 
ENDBRANCH  24  25
ENDBRANCH  22  24
ENDBRANCH  17  22
ENDBRANCH   7  16
BRANCH  15  27
ATOM     27  N   UNL     1       9.635   3.325   1.282  1.00  0.00    -0.322 N 
ATOM     28  C   UNL     1       9.136   4.262   2.172  1.00  0.00     0.255 C 
ATOM     29  H   UNL     1      10.610   3.198   1.334  1.00  0.00     0.170 HD
ATOM     30  O   UNL     1       9.918   5.034   2.725  1.00  0.00    -0.269 OA
BRANCH  28  31
ATOM     31  C   UNL     1       7.685   4.350   2.503  1.00  0.00     0.040 A 
ATOM     32  C   UNL     1       7.111   5.619   2.616  1.00  0.00     0.015 A 
ATOM     33  C   UNL     1       6.871   3.217   2.644  1.00  0.00     0.015 A 
ATOM     34  C   UNL     1       5.723   5.760   2.732  1.00  0.00     0.021 A 
ATOM     35  C   UNL     1       5.480   3.357   2.708  1.00  0.00     0.021 A 
ATOM     36  C   UNL     1       4.911   4.629   2.728  1.00  0.00     0.041 A 
ATOM     37  Cl  UNL     1       3.201   4.807   2.724  1.00  0.00    -0.084 Cl
ENDBRANCH  28  31
ENDBRANCH  15  27
ENDBRANCH   3   6
ENDBRANCH   1   2
BRANCH   1  38
ATOM     38  C   UNL     1       6.757   6.720  -2.178  1.00  0.00     0.042 C 
BRANCH  38  39
ATOM     39  C   UNL     1       5.995   7.777  -1.380  1.00  0.00     0.118 C 
BRANCH  39  40
ATOM     40  N   UNL     1       6.411   7.928   0.016  1.00  0.00    -0.352 N 
ATOM     41  C   UNL     1       7.246   8.825   0.645  1.00  0.00     0.251 C 
ATOM     42  H   UNL     1       6.017   7.260   0.622  1.00  0.00     0.163 HD
ATOM     43  O   UNL     1       7.454   8.759   1.853  1.00  0.00    -0.269 OA
BRANCH  41  44
ATOM     44  C   UNL     1       7.914   9.869  -0.136  1.00  0.00     0.039 A 
ATOM     45  C   UNL     1       9.298  10.057  -0.038  1.00  0.00     0.014 A 
ATOM     46  C   UNL     1       7.150  10.636  -1.001  1.00  0.00     0.014 A 
ATOM     47  C   UNL     1       9.935  10.929  -0.924  1.00  0.00     0.010 A 
ATOM     48  C   UNL     1       7.791  11.392  -1.958  1.00  0.00     0.010 A 
ATOM     49  C   UNL     1       9.189  11.543  -1.938  1.00  0.00    -0.014 A 
BRANCH  49  50
ATOM     50  C   UNL     1       9.762  12.370  -3.026  1.00  0.00     0.031 A 
ATOM     51  C   UNL     1       9.164  13.729  -3.244  1.00  0.00     0.074 A 
ATOM     52  C   UNL     1      10.578  11.811  -3.938  1.00  0.00     0.049 A 
ATOM     53  N   UNL     1       9.059  14.427  -4.341  1.00  0.00    -0.248 NA
ATOM     54  C   UNL     1       8.479  14.318  -2.080  1.00  0.00     0.031 C 
ATOM     55  C   UNL     1      11.184  10.482  -3.848  1.00  0.00     0.029 A 
ATOM     56  N   UNL     1      10.985  12.279  -5.162  1.00  0.00    -0.354 N 
ATOM     57  C   UNL     1       8.213  15.482  -4.025  1.00  0.00     0.074 A 
ATOM     58  C   UNL     1       7.804  15.304  -2.649  1.00  0.00     0.031 C 
ATOM     59  C   UNL     1      11.887  10.241  -4.967  1.00  0.00     0.029 A 
ATOM     60  C   UNL     1      11.726  11.369  -5.876  1.00  0.00     0.049 A 
ATOM     61  H   UNL     1      10.768  13.179  -5.495  1.00  0.00     0.167 HD
ATOM     62  C   UNL     1       7.822  16.504  -4.822  1.00  0.00     0.037 A 
ATOM     63  C   UNL     1      12.190  11.434  -7.138  1.00  0.00     0.037 A 
ATOM     64  C   UNL     1       8.331  16.694  -6.154  1.00  0.00     0.049 A 
ATOM     65  C   UNL     1      11.851  12.645  -7.964  1.00  0.00     0.074 A 
ATOM     66  C   UNL     1       8.104  17.738  -7.030  1.00  0.00     0.029 A 
ATOM     67  N   UNL     1       9.207  15.820  -6.785  1.00  0.00    -0.354 N 
ATOM     68  N   UNL     1      11.063  13.652  -7.667  1.00  0.00    -0.248 NA
ATOM     69  C   UNL     1      12.462  12.733  -9.296  1.00  0.00     0.031 C 
ATOM     70  C   UNL     1       8.839  17.492  -8.195  1.00  0.00     0.029 A 
ATOM     71  C   UNL     1       9.550  16.312  -8.031  1.00  0.00     0.049 A 
ATOM     72  H   UNL     1       9.536  14.975  -6.402  1.00  0.00     0.167 HD
ATOM     73  C   UNL     1      11.112  14.510  -8.755  1.00  0.00     0.074 A 
ATOM     74  C   UNL     1      12.008  13.904  -9.721  1.00  0.00     0.031 C 
ATOM     75  C   UNL     1      10.476  15.692  -8.944  1.00  0.00     0.037 A 
BRANCH  62  76
ATOM     76  C   UNL     1       6.825  17.483  -4.266  1.00  0.00     0.064 A 
ATOM     77  C   UNL     1       7.131  18.314  -3.176  1.00  0.00     0.173 A 
ATOM     78  C   UNL     1       5.541  17.589  -4.823  1.00  0.00     0.173 A 
ATOM     79  F   UNL     1       8.340  18.250  -2.598  1.00  0.00    -0.203 F 
ATOM     80  C   UNL     1       6.176  19.168  -2.631  1.00  0.00     0.198 A 
ATOM     81  C   UNL     1       4.601  18.475  -4.302  1.00  0.00     0.198 A 
ATOM     82  F   UNL     1       5.192  16.828  -5.872  1.00  0.00    -0.203 F 
ATOM     83  F   UNL     1       6.471  19.888  -1.540  1.00  0.00    -0.200 F 
ATOM     84  C   UNL     1       4.913  19.252  -3.197  1.00  0.00     0.200 A 
ATOM     85  F   UNL     1       3.386  18.568  -4.860  1.00  0.00    -0.200 F 
ATOM     86  F   UNL     1       3.995  20.075  -2.671  1.00  0.00    -0.200 F 
ENDBRANCH  62  76
BRANCH  63  87
ATOM     87  C   UNL     1      13.066  10.355  -7.663  1.00  0.00     0.064 A 
ATOM     88  C   UNL     1      14.440  10.583  -7.823  1.00  0.00     0.173 A 
ATOM     89  C   UNL     1      12.577   9.079  -7.976  1.00  0.00     0.173 A 
ATOM     90  F   UNL     1      14.952  11.792  -7.549  1.00  0.00    -0.203 F 
ATOM     91  C   UNL     1      15.290   9.583  -8.289  1.00  0.00     0.198 A 
ATOM     92  C   UNL     1      13.432   8.070  -8.419  1.00  0.00     0.198 A 
ATOM     93  F   UNL     1      11.273   8.803  -7.826  1.00  0.00    -0.203 F 
ATOM     94  F   UNL     1      16.593   9.840  -8.460  1.00  0.00    -0.200 F 
ATOM     95  C   UNL     1      14.786   8.324  -8.580  1.00  0.00     0.200 A 
ATOM     96  F   UNL     1      12.946   6.850  -8.683  1.00  0.00    -0.200 F 
ATOM     97  F   UNL     1      15.605   7.358  -9.017  1.00  0.00    -0.200 F 
ENDBRANCH  63  87
BRANCH  75  98
ATOM     98  C   UNL     1      10.782  16.439 -10.205  1.00  0.00     0.064 A 
ATOM     99  C   UNL     1      10.234  16.059 -11.436  1.00  0.00     0.173 A 
ATOM    100  C   UNL     1      11.574  17.596 -10.158  1.00  0.00     0.173 A 
ATOM    101  F   UNL     1       9.483  14.951 -11.527  1.00  0.00    -0.203 F 
ATOM    102  C   UNL     1      10.475  16.809 -12.583  1.00  0.00     0.198 A 
ATOM    103  C   UNL     1      11.793  18.356 -11.301  1.00  0.00     0.198 A 
ATOM    104  F   UNL     1      12.114  18.000  -8.998  1.00  0.00    -0.203 F 
ATOM    105  F   UNL     1       9.965  16.415 -13.758  1.00  0.00    -0.200 F 
ATOM    106  C   UNL     1      11.246  17.961 -12.513  1.00  0.00     0.200 A 
ATOM    107  F   UNL     1      12.528  19.475 -11.230  1.00  0.00    -0.200 F 
ATOM    108  F   UNL     1      11.464  18.690 -13.616  1.00  0.00    -0.200 F 
ENDBRANCH  75  98
ENDBRANCH  49  50
ENDBRANCH  41  44
ENDBRANCH  39  40
ENDBRANCH  38  39
ENDBRANCH   1  38
TORSDOF 16
