REMARK SMILES C[C@H]1C[C@H]1CN(C)c1cccc(F)c1C(=O)NCCCNC(=O)c1ccc(-c2c3nc(c(-c4c(F)c(F)c(F)c(F)c4F)c4ccc([nH]4)c(-c4c(F)c(F)c(F)c(F)c4F)c4nc(c(-c5c(F)c(F)c(F)c(F)c5F)c5ccc2[nH]5)C=C4)C=C3)cc1
REMARK SMILES IDX 18 1 17 2 15 3 16 4 14 6 8 7 9 8 10 9 12 10 11 11 13 12 6 13
REMARK SMILES IDX 7 14 5 15 4 16 1 17 2 18 3 19 19 20 20 21 21 22 22 23 23 25
REMARK SMILES IDX 24 26 25 27 86 28 26 29 85 30 27 31 28 32 29 33 79 34 30 35
REMARK SMILES IDX 84 36 78 37 80 38 31 39 83 40 77 41 76 42 32 44 64 45 44 46
REMARK SMILES IDX 63 47 45 48 48 49 62 50 81 51 46 52 47 53 61 55 82 56 49 57
REMARK SMILES IDX 33 58 34 59 42 60 35 61 36 62 40 63 43 64 37 65 38 66 41 67
REMARK SMILES IDX 39 68 65 69 66 70 74 71 67 72 68 73 72 74 75 75 69 76 70 77
REMARK SMILES IDX 73 78 71 79 50 80 51 81 59 82 52 83 53 84 57 85 60 86 54 87
REMARK SMILES IDX 55 88 58 89 56 90
REMARK H PARENT 17 5 21 24 80 43 48 54
REMARK Flexibility Score: inf
ROOT
ATOM      1  C   UNL     1      -3.855  -0.660   5.692  1.00  0.00     0.118 C 
ENDROOT
BRANCH   1   2
ATOM      2  N   UNL     1      -3.633   0.718   5.268  1.00  0.00    -0.352 N 
ATOM      3  C   UNL     1      -3.017   1.236   4.135  1.00  0.00     0.256 C 
ATOM      4  O   UNL     1      -3.181   2.432   3.898  1.00  0.00    -0.269 OA
ATOM      5  H   UNL     1      -3.980   1.397   5.890  1.00  0.00     0.163 HD
BRANCH   3   6
ATOM      6  C   UNL     1      -2.125   0.397   3.288  1.00  0.00     0.098 A 
ATOM      7  C   UNL     1      -0.839   0.822   2.883  1.00  0.00     0.052 A 
ATOM      8  C   UNL     1       0.041  -0.151   2.369  1.00  0.00     0.027 A 
ATOM      9  C   UNL     1      -0.366  -1.459   2.119  1.00  0.00     0.005 A 
ATOM     10  C   UNL     1      -2.562  -0.867   2.878  1.00  0.00     0.138 A 
ATOM     11  C   UNL     1      -1.693  -1.801   2.323  1.00  0.00     0.040 A 
ATOM     12  F   UNL     1      -3.851  -1.224   3.006  1.00  0.00    -0.206 F 
BRANCH   7  13
ATOM     13  N   UNL     1      -0.418   2.143   2.803  1.00  0.00    -0.374 N 
ATOM     14  C   UNL     1      -0.024   2.889   3.980  1.00  0.00     0.143 C 
BRANCH  13  15
ATOM     15  C   UNL     1      -0.564   2.817   1.509  1.00  0.00     0.120 C 
BRANCH  15  16
ATOM     16  C   UNL     1       0.663   2.600   0.660  1.00  0.00     0.011 C 
ATOM     17  C   UNL     1      -0.307   0.670  -0.926  1.00  0.00     0.008 C 
ATOM     18  C   UNL     1       0.783   1.581  -0.469  1.00  0.00    -0.009 C 
ATOM     19  C   UNL     1       0.676   3.048  -0.784  1.00  0.00     0.009 C 
ENDBRANCH  15  16
ENDBRANCH  13  15
ENDBRANCH   7  13
ENDBRANCH   3   6
ENDBRANCH   1   2
BRANCH   1  20
ATOM     20  C   UNL     1      -3.508  -0.973   7.138  1.00  0.00     0.042 C 
BRANCH  20  21
ATOM     21  C   UNL     1      -4.299  -0.221   8.195  1.00  0.00     0.118 C 
BRANCH  21  22
ATOM     22  N   UNL     1      -5.735  -0.454   8.132  1.00  0.00    -0.352 N 
ATOM     23  C   UNL     1      -6.602  -1.105   8.978  1.00  0.00     0.251 C 
ATOM     24  H   UNL     1      -6.167  -0.073   7.333  1.00  0.00     0.163 HD
ATOM     25  O   UNL     1      -7.764  -1.276   8.621  1.00  0.00    -0.269 OA
BRANCH  23  26
ATOM     26  C   UNL     1      -6.168  -1.631  10.294  1.00  0.00     0.039 A 
ATOM     27  C   UNL     1      -6.741  -2.820  10.762  1.00  0.00     0.014 A 
ATOM     28  C   UNL     1      -5.247  -0.957  11.097  1.00  0.00     0.014 A 
ATOM     29  C   UNL     1      -6.339  -3.357  11.989  1.00  0.00     0.010 A 
ATOM     30  C   UNL     1      -4.762  -1.551  12.260  1.00  0.00     0.010 A 
ATOM     31  C   UNL     1      -5.313  -2.749  12.729  1.00  0.00    -0.014 A 
BRANCH  31  32
ATOM     32  C   UNL     1      -4.821  -3.349  13.998  1.00  0.00     0.031 A 
ATOM     33  C   UNL     1      -4.934  -2.597  15.296  1.00  0.00     0.074 A 
ATOM     34  C   UNL     1      -4.239  -4.563  13.976  1.00  0.00     0.049 A 
ATOM     35  N   UNL     1      -4.563  -2.960  16.499  1.00  0.00    -0.248 NA
ATOM     36  C   UNL     1      -5.510  -1.245  15.233  1.00  0.00     0.031 C 
ATOM     37  C   UNL     1      -4.019  -5.369  12.774  1.00  0.00     0.029 A 
ATOM     38  N   UNL     1      -3.736  -5.337  14.992  1.00  0.00    -0.354 N 
ATOM     39  C   UNL     1      -4.862  -1.886  17.328  1.00  0.00     0.074 A 
ATOM     40  C   UNL     1      -5.363  -0.827  16.481  1.00  0.00     0.031 C 
ATOM     41  C   UNL     1      -3.483  -6.547  13.128  1.00  0.00     0.029 A 
ATOM     42  C   UNL     1      -3.285  -6.565  14.574  1.00  0.00     0.049 A 
ATOM     43  H   UNL     1      -3.703  -5.041  15.930  1.00  0.00     0.167 HD
ATOM     44  C   UNL     1      -4.768  -1.803  18.677  1.00  0.00     0.037 A 
ATOM     45  C   UNL     1      -2.783  -7.597  15.278  1.00  0.00     0.037 A 
ATOM     46  C   UNL     1      -4.275  -2.863  19.517  1.00  0.00     0.049 A 
ATOM     47  C   UNL     1      -2.667  -7.479  16.771  1.00  0.00     0.074 A 
ATOM     48  C   UNL     1      -4.165  -2.892  20.896  1.00  0.00     0.029 A 
ATOM     49  N   UNL     1      -3.807  -4.085  19.054  1.00  0.00    -0.354 N 
ATOM     50  N   UNL     1      -3.001  -6.479  17.550  1.00  0.00    -0.248 NA
ATOM     51  C   UNL     1      -2.112  -8.637  17.484  1.00  0.00     0.031 C 
ATOM     52  C   UNL     1      -3.583  -4.109  21.263  1.00  0.00     0.029 A 
ATOM     53  C   UNL     1      -3.387  -4.867  20.119  1.00  0.00     0.049 A 
ATOM     54  H   UNL     1      -3.778  -4.357  18.108  1.00  0.00     0.167 HD
ATOM     55  C   UNL     1      -2.713  -6.889  18.845  1.00  0.00     0.074 A 
ATOM     56  C   UNL     1      -2.198  -8.240  18.747  1.00  0.00     0.031 C 
ATOM     57  C   UNL     1      -2.862  -6.206  20.007  1.00  0.00     0.037 A 
BRANCH  44  58
ATOM     58  C   UNL     1      -5.223  -0.523  19.322  1.00  0.00     0.064 A 
ATOM     59  C   UNL     1      -4.310   0.318  19.976  1.00  0.00     0.173 A 
ATOM     60  C   UNL     1      -6.574  -0.136  19.311  1.00  0.00     0.173 A 
ATOM     61  F   UNL     1      -3.008  -0.002  20.024  1.00  0.00    -0.203 F 
ATOM     62  C   UNL     1      -4.731   1.496  20.590  1.00  0.00     0.198 A 
ATOM     63  C   UNL     1      -6.985   1.060  19.894  1.00  0.00     0.198 A 
ATOM     64  F   UNL     1      -7.489  -0.896  18.691  1.00  0.00    -0.203 F 
ATOM     65  F   UNL     1      -3.843   2.272  21.227  1.00  0.00    -0.200 F 
ATOM     66  C   UNL     1      -6.065   1.871  20.539  1.00  0.00     0.200 A 
ATOM     67  F   UNL     1      -8.269   1.436  19.813  1.00  0.00    -0.200 F 
ATOM     68  F   UNL     1      -6.462   3.020  21.104  1.00  0.00    -0.200 F 
ENDBRANCH  44  58
BRANCH  45  69
ATOM     69  C   UNL     1      -2.431  -8.854  14.568  1.00  0.00     0.064 A 
ATOM     70  C   UNL     1      -1.337  -8.922  13.693  1.00  0.00     0.173 A 
ATOM     71  C   UNL     1      -3.235  -9.995  14.700  1.00  0.00     0.173 A 
ATOM     72  F   UNL     1      -0.542  -7.855  13.527  1.00  0.00    -0.203 F 
ATOM     73  C   UNL     1      -1.081 -10.074  12.951  1.00  0.00     0.198 A 
ATOM     74  C   UNL     1      -2.963 -11.154  13.977  1.00  0.00     0.198 A 
ATOM     75  F   UNL     1      -4.281  -9.983  15.539  1.00  0.00    -0.203 F 
ATOM     76  F   UNL     1      -0.059 -10.097  12.085  1.00  0.00    -0.200 F 
ATOM     77  C   UNL     1      -1.894 -11.189  13.094  1.00  0.00     0.200 A 
ATOM     78  F   UNL     1      -3.739 -12.235  14.132  1.00  0.00    -0.200 F 
ATOM     79  F   UNL     1      -1.650 -12.295  12.377  1.00  0.00    -0.200 F 
ENDBRANCH  45  69
BRANCH  57  80
ATOM     80  C   UNL     1      -2.469  -6.910  21.276  1.00  0.00     0.064 A 
ATOM     81  C   UNL     1      -3.442  -7.274  22.219  1.00  0.00     0.173 A 
ATOM     82  C   UNL     1      -1.127  -7.180  21.581  1.00  0.00     0.173 A 
ATOM     83  F   UNL     1      -4.740  -7.031  21.982  1.00  0.00    -0.203 F 
ATOM     84  C   UNL     1      -3.085  -7.876  23.423  1.00  0.00     0.198 A 
ATOM     85  C   UNL     1      -0.776  -7.814  22.771  1.00  0.00     0.198 A 
ATOM     86  F   UNL     1      -0.159  -6.863  20.709  1.00  0.00    -0.203 F 
ATOM     87  F   UNL     1      -4.030  -8.186  24.321  1.00  0.00    -0.200 F 
ATOM     88  C   UNL     1      -1.754  -8.153  23.694  1.00  0.00     0.200 A 
ATOM     89  F   UNL     1       0.508  -8.107  23.018  1.00  0.00    -0.200 F 
ATOM     90  F   UNL     1      -1.414  -8.752  24.843  1.00  0.00    -0.200 F 
ENDBRANCH  57  80
ENDBRANCH  31  32
ENDBRANCH  23  26
ENDBRANCH  21  22
ENDBRANCH  20  21
ENDBRANCH   1  20
TORSDOF 13
