REMARK SMILES C[C@]1(O)CC[C@H]2[C@H]3CCC4=C/C(=N\OCC(=O)N[C@@H](CO)C(=O)NCCCNC(=O)c5ccc(-c6c7nc(c(-c8c(F)c(F)c(F)c(F)c8F)c8ccc([nH]8)c(-c8c(F)c(F)c(F)c(F)c8F)c8nc(c(-c9c(F)c(F)c(F)c(F)c9F)c9ccc6[nH]9)C=C8)C=C7)cc5)CC[C@@]4(C)[C@@H]3CC[C@]21C
REMARK SMILES IDX 22 1 23 2 24 3 19 5 18 6 16 7 17 8 15 10 14 11 13 12 97 13
REMARK SMILES IDX 96 14 95 15 10 16 98 17 94 18 11 19 9 20 7 21 99 22 12 23
REMARK SMILES IDX 8 24 6 25 100 26 101 27 5 28 2 29 102 30 4 31 1 32 3 33
REMARK SMILES IDX 20 35 21 36 25 38 26 39 27 40 28 41 29 42 30 44 31 45 32 46
REMARK SMILES IDX 93 47 33 48 92 49 34 50 35 51 36 52 86 53 37 54 91 55 85 56
REMARK SMILES IDX 87 57 38 58 90 59 84 60 83 61 39 63 71 64 51 65 70 66 52 67
REMARK SMILES IDX 55 68 69 69 88 70 53 71 54 72 68 74 89 75 56 76 40 77 41 78
REMARK SMILES IDX 49 79 42 80 43 81 47 82 50 83 44 84 45 85 48 86 46 87 72 88
REMARK SMILES IDX 73 89 81 90 74 91 75 92 79 93 82 94 76 95 77 96 80 97 78 98
REMARK SMILES IDX 57 99 58 100 66 101 59 102 60 103 64 104 67 105 61 106
REMARK SMILES IDX 62 107 65 108 63 109
REMARK H PARENT 24 4 18 9 3 34 21 37 28 43 87 62 55 73
REMARK Flexibility Score: inf
ROOT
ATOM      1  C   UNL     1       4.484  -0.793  -3.288  1.00  0.00     0.244 C 
ATOM      2  O   UNL     1       5.163  -0.039  -2.587  1.00  0.00    -0.273 OA
ATOM      3  N   UNL     1       5.021  -1.216  -4.468  1.00  0.00    -0.354 N 
ATOM      4  H   UNL     1       5.877  -0.792  -4.708  1.00  0.00     0.163 HD
ENDROOT
BRANCH   1   5
ATOM      5  C   UNL     1       3.145  -1.350  -2.783  1.00  0.00     0.197 C 
BRANCH   5   6
ATOM      6  N   UNL     1       2.116  -1.229  -3.824  1.00  0.00    -0.339 N 
ATOM      7  C   UNL     1       0.763  -1.255  -3.756  1.00  0.00     0.261 C 
ATOM      8  O   UNL     1       0.141  -1.029  -4.798  1.00  0.00    -0.271 OA
ATOM      9  H   UNL     1       2.473  -1.107  -4.734  1.00  0.00     0.164 HD
BRANCH   7  10
ATOM     10  C   UNL     1       0.040  -1.450  -2.435  1.00  0.00     0.363 C 
BRANCH  10  11
ATOM     11  O   UNL     1       0.741  -2.201  -1.439  1.00  0.00    -0.385 OA
BRANCH  11  12
ATOM     12  N   UNL     1      -0.151  -2.499  -0.414  1.00  0.00    -0.091 NA
ATOM     13  C   UNL     1       0.863   0.659  -0.092  1.00  0.00     0.016 C 
ATOM     14  C   UNL     1       0.265   0.425   1.342  1.00  0.00    -0.008 C 
ATOM     15  C   UNL     1      -1.105  -0.373   1.439  1.00  0.00     0.018 C 
ATOM     16  C   UNL     1       1.390  -0.406   1.944  1.00  0.00    -0.062 C 
ATOM     17  C   UNL     1      -0.009   1.828   1.946  1.00  0.00     0.002 C 
ATOM     18  C   UNL     1      -0.978  -1.888   1.649  1.00  0.00     0.061 C 
ATOM     19  C   UNL     1       1.478  -1.685   1.472  1.00  0.00     0.027 C 
ATOM     20  C   UNL     1       2.451   0.344   2.740  1.00  0.00     0.032 C 
ATOM     21  C   UNL     1       1.315   2.596   2.098  1.00  0.00    -0.003 C 
ATOM     22  C   UNL     1      -1.124   2.491   1.114  1.00  0.00     0.005 C 
ATOM     23  C   UNL     1       0.209  -2.186   0.790  1.00  0.00     0.080 C 
ATOM     24  C   UNL     1       2.146   1.834   3.155  1.00  0.00     0.008 C 
ATOM     25  C   UNL     1       1.173   4.130   2.156  1.00  0.00     0.001 C 
ATOM     26  C   UNL     1      -1.195   3.981   1.204  1.00  0.00     0.010 C 
ATOM     27  C   UNL     1       0.169   4.693   1.091  1.00  0.00    -0.001 C 
ATOM     28  C   UNL     1       0.721   4.827   3.427  1.00  0.00     0.007 C 
ATOM     29  C   UNL     1      -0.040   6.194   1.510  1.00  0.00     0.068 C 
ATOM     30  C   UNL     1       0.757   4.502  -0.325  1.00  0.00     0.015 C 
ATOM     31  C   UNL     1       0.552   6.280   2.936  1.00  0.00     0.036 C 
ATOM     32  C   UNL     1       0.535   7.228   0.542  1.00  0.00     0.042 C 
BRANCH  29  33
ATOM     33  O   UNL     1      -1.441   6.505   1.596  1.00  0.00    -0.390 OA
ATOM     34  H   UNL     1      -1.874   5.882   2.200  1.00  0.00     0.211 HD
ENDBRANCH  29  33
ENDBRANCH  11  12
ENDBRANCH  10  11
ENDBRANCH   7  10
ENDBRANCH   5   6
BRANCH   5  35
ATOM     35  C   UNL     1       3.408  -2.773  -2.241  1.00  0.00     0.191 C 
BRANCH  35  36
ATOM     36  O   UNL     1       3.120  -3.804  -3.184  1.00  0.00    -0.394 OA
ATOM     37  H   UNL     1       2.178  -3.779  -3.413  1.00  0.00     0.210 HD
ENDBRANCH  35  36
ENDBRANCH   5  35
ENDBRANCH   1   5
BRANCH   3  38
ATOM     38  C   UNL     1       4.533  -2.193  -5.429  1.00  0.00     0.117 C 
BRANCH  38  39
ATOM     39  C   UNL     1       4.241  -1.546  -6.772  1.00  0.00     0.042 C 
BRANCH  39  40
ATOM     40  C   UNL     1       5.498  -1.032  -7.451  1.00  0.00     0.118 C 
BRANCH  40  41
ATOM     41  N   UNL     1       6.439  -2.107  -7.740  1.00  0.00    -0.352 N 
ATOM     42  C   UNL     1       6.788  -2.674  -8.941  1.00  0.00     0.251 C 
ATOM     43  H   UNL     1       6.895  -2.483  -6.953  1.00  0.00     0.163 HD
ATOM     44  O   UNL     1       7.389  -3.738  -8.968  1.00  0.00    -0.269 OA
BRANCH  42  45
ATOM     45  C   UNL     1       6.415  -1.996 -10.198  1.00  0.00     0.039 A 
ATOM     46  C   UNL     1       5.950  -2.759 -11.270  1.00  0.00     0.014 A 
ATOM     47  C   UNL     1       6.518  -0.609 -10.311  1.00  0.00     0.014 A 
ATOM     48  C   UNL     1       5.515  -2.117 -12.429  1.00  0.00     0.010 A 
ATOM     49  C   UNL     1       5.980   0.034 -11.416  1.00  0.00     0.010 A 
ATOM     50  C   UNL     1       5.480  -0.714 -12.491  1.00  0.00    -0.014 A 
BRANCH  50  51
ATOM     51  C   UNL     1       4.928  -0.006 -13.671  1.00  0.00     0.031 A 
ATOM     52  C   UNL     1       5.803   0.922 -14.467  1.00  0.00     0.074 A 
ATOM     53  C   UNL     1       3.625  -0.147 -13.979  1.00  0.00     0.049 A 
ATOM     54  N   UNL     1       5.488   1.693 -15.477  1.00  0.00    -0.248 NA
ATOM     55  C   UNL     1       7.214   1.022 -14.056  1.00  0.00     0.031 C 
ATOM     56  C   UNL     1       2.665  -0.973 -13.243  1.00  0.00     0.029 A 
ATOM     57  N   UNL     1       2.877   0.411 -14.984  1.00  0.00    -0.354 N 
ATOM     58  C   UNL     1       6.654   2.367 -15.814  1.00  0.00     0.074 A 
ATOM     59  C   UNL     1       7.666   1.972 -14.860  1.00  0.00     0.031 C 
ATOM     60  C   UNL     1       1.464  -0.888 -13.835  1.00  0.00     0.029 A 
ATOM     61  C   UNL     1       1.555   0.035 -14.961  1.00  0.00     0.049 A 
ATOM     62  H   UNL     1       3.251   1.023 -15.659  1.00  0.00     0.167 HD
ATOM     63  C   UNL     1       6.869   3.216 -16.847  1.00  0.00     0.037 A 
ATOM     64  C   UNL     1       0.531   0.406 -15.752  1.00  0.00     0.037 A 
ATOM     65  C   UNL     1       5.861   3.591 -17.803  1.00  0.00     0.049 A 
ATOM     66  C   UNL     1       0.794   1.369 -16.878  1.00  0.00     0.074 A 
ATOM     67  C   UNL     1       5.987   4.406 -18.913  1.00  0.00     0.029 A 
ATOM     68  N   UNL     1       4.538   3.175 -17.758  1.00  0.00    -0.354 N 
ATOM     69  N   UNL     1       1.918   1.945 -17.232  1.00  0.00    -0.248 NA
ATOM     70  C   UNL     1      -0.354   1.730 -17.722  1.00  0.00     0.031 C 
ATOM     71  C   UNL     1       4.729   4.527 -19.510  1.00  0.00     0.029 A 
ATOM     72  C   UNL     1       3.831   3.738 -18.808  1.00  0.00     0.049 A 
ATOM     73  H   UNL     1       4.158   2.570 -17.081  1.00  0.00     0.167 HD
ATOM     74  C   UNL     1       1.620   2.712 -18.349  1.00  0.00     0.074 A 
ATOM     75  C   UNL     1       0.214   2.509 -18.630  1.00  0.00     0.031 C 
ATOM     76  C   UNL     1       2.433   3.517 -19.076  1.00  0.00     0.037 A 
BRANCH  63  77
ATOM     77  C   UNL     1       8.249   3.784 -17.007  1.00  0.00     0.064 A 
ATOM     78  C   UNL     1       9.334   2.980 -17.391  1.00  0.00     0.173 A 
ATOM     79  C   UNL     1       8.483   5.156 -16.827  1.00  0.00     0.173 A 
ATOM     80  F   UNL     1       9.169   1.660 -17.564  1.00  0.00    -0.203 F 
ATOM     81  C   UNL     1      10.604   3.524 -17.565  1.00  0.00     0.198 A 
ATOM     82  C   UNL     1       9.747   5.701 -17.034  1.00  0.00     0.198 A 
ATOM     83  F   UNL     1       7.481   5.971 -16.463  1.00  0.00    -0.203 F 
ATOM     84  F   UNL     1      11.633   2.728 -17.887  1.00  0.00    -0.200 F 
ATOM     85  C   UNL     1      10.807   4.885 -17.396  1.00  0.00     0.200 A 
ATOM     86  F   UNL     1       9.939   7.019 -16.885  1.00  0.00    -0.200 F 
ATOM     87  F   UNL     1      12.027   5.409 -17.578  1.00  0.00    -0.200 F 
ENDBRANCH  63  77
BRANCH  64  88
ATOM     88  C   UNL     1      -0.835  -0.130 -15.509  1.00  0.00     0.064 A 
ATOM     89  C   UNL     1      -1.455  -0.979 -16.438  1.00  0.00     0.173 A 
ATOM     90  C   UNL     1      -1.560   0.214 -14.358  1.00  0.00     0.173 A 
ATOM     91  F   UNL     1      -0.812  -1.323 -17.563  1.00  0.00    -0.203 F 
ATOM     92  C   UNL     1      -2.758  -1.433 -16.242  1.00  0.00     0.198 A 
ATOM     93  C   UNL     1      -2.850  -0.269 -14.146  1.00  0.00     0.198 A 
ATOM     94  F   UNL     1      -1.012   1.017 -13.434  1.00  0.00    -0.203 F 
ATOM     95  F   UNL     1      -3.348  -2.190 -17.177  1.00  0.00    -0.200 F 
ATOM     96  C   UNL     1      -3.453  -1.081 -15.095  1.00  0.00     0.200 A 
ATOM     97  F   UNL     1      -3.510   0.060 -13.028  1.00  0.00    -0.200 F 
ATOM     98  F   UNL     1      -4.707  -1.515 -14.908  1.00  0.00    -0.200 F 
ENDBRANCH  64  88
BRANCH  76  99
ATOM     99  C   UNL     1       1.831   4.212 -20.263  1.00  0.00     0.064 A 
ATOM    100  C   UNL     1       0.905   5.255 -20.116  1.00  0.00     0.173 A 
ATOM    101  C   UNL     1       2.217   3.854 -21.564  1.00  0.00     0.173 A 
ATOM    102  F   UNL     1       0.493   5.625 -18.893  1.00  0.00    -0.203 F 
ATOM    103  C   UNL     1       0.365   5.894 -21.228  1.00  0.00     0.198 A 
ATOM    104  C   UNL     1       1.702   4.520 -22.673  1.00  0.00     0.198 A 
ATOM    105  F   UNL     1       3.107   2.869 -21.761  1.00  0.00    -0.203 F 
ATOM    106  F   UNL     1      -0.559   6.851 -21.065  1.00  0.00    -0.200 F 
ATOM    107  C   UNL     1       0.770   5.532 -22.504  1.00  0.00     0.200 A 
ATOM    108  F   UNL     1       2.108   4.181 -23.904  1.00  0.00    -0.200 F 
ATOM    109  F   UNL     1       0.256   6.156 -23.573  1.00  0.00    -0.200 F 
ENDBRANCH  76  99
ENDBRANCH  50  51
ENDBRANCH  42  45
ENDBRANCH  40  41
ENDBRANCH  39  40
ENDBRANCH  38  39
ENDBRANCH   3  38
TORSDOF 17
