REMARK SMILES CCc1ccccc1O[C@H]1CCC[C@@]([NH2+]C)(C(=O)NCCCNC(=O)c2ccc(-c3c4nc(c(-c5c(F)c(F)c(F)c(F)c5F)c5ccc([nH]5)c(-c5c(F)c(F)c(F)c(F)c5F)c5nc(c(-c6c(F)c(F)c(F)c(F)c6F)c6ccc3[nH]6)C=C5)C=C4)cc2)C1
REMARK SMILES IDX 20 1 19 2 17 3 18 4 14 6 10 7 11 8 89 9 12 10 13 11 9 12
REMARK SMILES IDX 8 13 3 14 4 15 5 16 7 17 6 18 2 19 1 20 15 21 16 22 21 25
REMARK SMILES IDX 22 26 23 27 24 28 25 30 26 31 27 32 88 33 28 34 87 35 29 36
REMARK SMILES IDX 30 37 31 38 81 39 32 40 86 41 80 42 82 43 33 44 85 45 79 46
REMARK SMILES IDX 78 47 34 49 66 50 46 51 65 52 47 53 50 54 64 55 83 56 48 57
REMARK SMILES IDX 49 58 63 60 84 61 51 62 35 63 36 64 44 65 37 66 38 67 42 68
REMARK SMILES IDX 45 69 39 70 40 71 43 72 41 73 67 74 68 75 76 76 69 77 70 78
REMARK SMILES IDX 74 79 77 80 71 81 72 82 75 83 73 84 52 85 53 86 61 87 54 88
REMARK SMILES IDX 55 89 59 90 62 91 56 92 57 93 60 94 58 95
REMARK H PARENT 19 5 15 23 15 24 23 29 82 48 50 59
REMARK Flexibility Score: inf
ROOT
ATOM      1  C   UNL     1      -0.248   5.359  -2.600  1.00  0.00     0.118 C 
ENDROOT
BRANCH   1   2
ATOM      2  N   UNL     1       0.922   4.799  -3.246  1.00  0.00    -0.351 N 
ATOM      3  C   UNL     1       1.259   3.507  -3.523  1.00  0.00     0.281 C 
ATOM      4  O   UNL     1       2.114   3.373  -4.406  1.00  0.00    -0.268 OA
ATOM      5  H   UNL     1       1.587   5.465  -3.535  1.00  0.00     0.163 HD
BRANCH   3   6
ATOM      6  C   UNL     1       0.527   2.271  -2.889  1.00  0.00     0.178 C 
ATOM      7  C   UNL     1       2.593   0.722  -2.345  1.00  0.00     0.180 C 
ATOM      8  C   UNL     1       2.270   0.900  -0.855  1.00  0.00     0.046 C 
ATOM      9  C   UNL     1       1.314   0.952  -3.198  1.00  0.00     0.124 C 
ATOM     10  C   UNL     1       1.632   2.251  -0.579  1.00  0.00     0.011 C 
ATOM     11  C   UNL     1       0.333   2.371  -1.358  1.00  0.00     0.079 C 
BRANCH   7  12
ATOM     12  O   UNL     1       3.612   1.626  -2.784  1.00  0.00    -0.490 OA
BRANCH  12  13
ATOM     13  C   UNL     1       4.917   1.459  -2.398  1.00  0.00     0.122 A 
ATOM     14  C   UNL     1       5.831   2.422  -2.870  1.00  0.00    -0.006 A 
ATOM     15  C   UNL     1       7.166   2.388  -2.431  1.00  0.00     0.007 A 
ATOM     16  C   UNL     1       7.599   1.404  -1.548  1.00  0.00     0.001 A 
ATOM     17  C   UNL     1       5.383   0.438  -1.564  1.00  0.00     0.047 A 
ATOM     18  C   UNL     1       6.712   0.420  -1.129  1.00  0.00     0.004 A 
BRANCH  14  19
ATOM     19  C   UNL     1       5.439   3.458  -3.899  1.00  0.00     0.036 C 
ATOM     20  C   UNL     1       5.510   2.886  -5.310  1.00  0.00     0.009 C 
ENDBRANCH  14  19
ENDBRANCH  12  13
ENDBRANCH   7  12
BRANCH   6  21
ATOM     21  N   UNL     1      -0.861   2.204  -3.457  1.00  0.00    -0.336 N 
ATOM     22  C   UNL     1      -0.928   2.190  -4.914  1.00  0.00     0.331 C 
ATOM     23  H   UNL     1      -1.379   3.017  -3.124  1.00  0.00     0.346 HD
ATOM     24  H   UNL     1      -1.256   1.317  -3.144  1.00  0.00     0.346 HD
ENDBRANCH   6  21
ENDBRANCH   3   6
ENDBRANCH   1   2
BRANCH   1  25
ATOM     25  C   UNL     1       0.093   6.058  -1.286  1.00  0.00     0.042 C 
BRANCH  25  26
ATOM     26  C   UNL     1       1.040   7.246  -1.427  1.00  0.00     0.118 C 
BRANCH  26  27
ATOM     27  N   UNL     1       0.480   8.324  -2.228  1.00  0.00    -0.352 N 
ATOM     28  C   UNL     1       0.278   9.646  -1.930  1.00  0.00     0.251 C 
ATOM     29  H   UNL     1       0.198   8.059  -3.134  1.00  0.00     0.163 HD
ATOM     30  O   UNL     1      -0.374  10.343  -2.708  1.00  0.00    -0.269 OA
BRANCH  28  31
ATOM     31  C   UNL     1       0.818  10.252  -0.693  1.00  0.00     0.039 A 
ATOM     32  C   UNL     1       0.044  11.213  -0.032  1.00  0.00     0.014 A 
ATOM     33  C   UNL     1       2.097   9.949  -0.217  1.00  0.00     0.014 A 
ATOM     34  C   UNL     1       0.533  11.839   1.117  1.00  0.00     0.010 A 
ATOM     35  C   UNL     1       2.557  10.523   0.968  1.00  0.00     0.010 A 
ATOM     36  C   UNL     1       1.788  11.486   1.637  1.00  0.00    -0.014 A 
BRANCH  36  37
ATOM     37  C   UNL     1       2.318  12.147   2.856  1.00  0.00     0.031 A 
ATOM     38  C   UNL     1       3.534  13.030   2.770  1.00  0.00     0.074 A 
ATOM     39  C   UNL     1       1.733  11.921   4.048  1.00  0.00     0.049 A 
ATOM     40  N   UNL     1       4.169  13.662   3.726  1.00  0.00    -0.248 NA
ATOM     41  C   UNL     1       4.131  13.206   1.438  1.00  0.00     0.031 C 
ATOM     42  C   UNL     1       0.583  11.044   4.272  1.00  0.00     0.029 A 
ATOM     43  N   UNL     1       2.032  12.405   5.297  1.00  0.00    -0.354 N 
ATOM     44  C   UNL     1       5.248  14.287   3.115  1.00  0.00     0.074 A 
ATOM     45  C   UNL     1       5.208  13.926   1.714  1.00  0.00     0.031 C 
ATOM     46  C   UNL     1       0.262  11.067   5.576  1.00  0.00     0.029 A 
ATOM     47  C   UNL     1       1.195  11.940   6.282  1.00  0.00     0.049 A 
ATOM     48  H   UNL     1       2.775  13.027   5.471  1.00  0.00     0.167 HD
ATOM     49  C   UNL     1       6.177  15.104   3.667  1.00  0.00     0.037 A 
ATOM     50  C   UNL     1       1.181  12.194   7.604  1.00  0.00     0.037 A 
ATOM     51  C   UNL     1       6.192  15.497   5.051  1.00  0.00     0.049 A 
ATOM     52  C   UNL     1       2.189  13.150   8.180  1.00  0.00     0.074 A 
ATOM     53  C   UNL     1       7.058  16.365   5.695  1.00  0.00     0.029 A 
ATOM     54  N   UNL     1       5.290  15.053   6.006  1.00  0.00    -0.354 N 
ATOM     55  N   UNL     1       3.167  13.784   7.580  1.00  0.00    -0.248 NA
ATOM     56  C   UNL     1       2.079  13.440   9.617  1.00  0.00     0.031 C 
ATOM     57  C   UNL     1       6.696  16.424   7.045  1.00  0.00     0.029 A 
ATOM     58  C   UNL     1       5.580  15.625   7.234  1.00  0.00     0.049 A 
ATOM     59  H   UNL     1       4.552  14.423   5.836  1.00  0.00     0.167 HD
ATOM     60  C   UNL     1       3.767  14.569   8.554  1.00  0.00     0.074 A 
ATOM     61  C   UNL     1       3.035  14.343   9.783  1.00  0.00     0.031 C 
ATOM     62  C   UNL     1       4.830  15.403   8.442  1.00  0.00     0.037 A 
BRANCH  49  63
ATOM     63  C   UNL     1       7.254  15.637   2.768  1.00  0.00     0.064 A 
ATOM     64  C   UNL     1       6.984  16.613   1.798  1.00  0.00     0.173 A 
ATOM     65  C   UNL     1       8.579  15.196   2.905  1.00  0.00     0.173 A 
ATOM     66  F   UNL     1       5.731  17.059   1.619  1.00  0.00    -0.203 F 
ATOM     67  C   UNL     1       7.996  17.110   0.980  1.00  0.00     0.198 A 
ATOM     68  C   UNL     1       9.593  15.714   2.104  1.00  0.00     0.198 A 
ATOM     69  F   UNL     1       8.892  14.267   3.821  1.00  0.00    -0.203 F 
ATOM     70  F   UNL     1       7.706  18.011   0.031  1.00  0.00    -0.200 F 
ATOM     71  C   UNL     1       9.300  16.666   1.139  1.00  0.00     0.200 A 
ATOM     72  F   UNL     1      10.855  15.293   2.266  1.00  0.00    -0.200 F 
ATOM     73  F   UNL     1      10.274  17.151   0.356  1.00  0.00    -0.200 F 
ENDBRANCH  49  63
BRANCH  50  74
ATOM     74  C   UNL     1       0.150  11.566   8.468  1.00  0.00     0.064 A 
ATOM     75  C   UNL     1      -0.895  12.328   9.010  1.00  0.00     0.173 A 
ATOM     76  C   UNL     1       0.192  10.199   8.777  1.00  0.00     0.173 A 
ATOM     77  F   UNL     1      -0.964  13.643   8.758  1.00  0.00    -0.203 F 
ATOM     78  C   UNL     1      -1.846  11.751   9.848  1.00  0.00     0.198 A 
ATOM     79  C   UNL     1      -0.775   9.618   9.595  1.00  0.00     0.198 A 
ATOM     80  F   UNL     1       1.168   9.427   8.278  1.00  0.00    -0.203 F 
ATOM     81  F   UNL     1      -2.807  12.511  10.390  1.00  0.00    -0.200 F 
ATOM     82  C   UNL     1      -1.788  10.396  10.137  1.00  0.00     0.200 A 
ATOM     83  F   UNL     1      -0.723   8.306   9.862  1.00  0.00    -0.200 F 
ATOM     84  F   UNL     1      -2.703   9.841  10.943  1.00  0.00    -0.200 F 
ENDBRANCH  50  74
BRANCH  62  85
ATOM     85  C   UNL     1       5.234  16.165   9.668  1.00  0.00     0.064 A 
ATOM     86  C   UNL     1       5.873  15.539  10.748  1.00  0.00     0.173 A 
ATOM     87  C   UNL     1       4.998  17.546   9.752  1.00  0.00     0.173 A 
ATOM     88  F   UNL     1       6.107  14.219  10.720  1.00  0.00    -0.203 F 
ATOM     89  C   UNL     1       6.234  16.263  11.881  1.00  0.00     0.198 A 
ATOM     90  C   UNL     1       5.384  18.271  10.876  1.00  0.00     0.198 A 
ATOM     91  F   UNL     1       4.395  18.192   8.743  1.00  0.00    -0.203 F 
ATOM     92  F   UNL     1       6.799  15.636  12.922  1.00  0.00    -0.200 F 
ATOM     93  C   UNL     1       5.994  17.628  11.942  1.00  0.00     0.200 A 
ATOM     94  F   UNL     1       5.160  19.591  10.929  1.00  0.00    -0.200 F 
ATOM     95  F   UNL     1       6.342  18.322  13.034  1.00  0.00    -0.200 F 
ENDBRANCH  62  85
ENDBRANCH  36  37
ENDBRANCH  28  31
ENDBRANCH  26  27
ENDBRANCH  25  26
ENDBRANCH   1  25
TORSDOF 14
