REMARK SMILES O=C(NCCCNC(=O)[C@H](CO)NC(=O)[C@H](Cc1ccc(O)cc1)NC(=O)c1ccc(F)cc1)c1ccc(-c2c3nc(c(-c4c(F)c(F)c(F)c(F)c4F)c4ccc([nH]4)c(-c4c(F)c(F)c(F)c(F)c4F)c4nc(c(-c5c(F)c(F)c(F)c(F)c5F)c5ccc2[nH]5)C=C4)C=C3)cc1
REMARK SMILES IDX 7 1 8 2 9 3 6 5 5 6 4 7 3 8 1 9 2 10 35 12 36 13 97 14 37 15
REMARK SMILES IDX 96 16 38 17 39 18 40 19 90 20 41 21 95 22 89 23 91 24 42 25
REMARK SMILES IDX 94 26 88 27 87 28 43 30 75 31 55 32 74 33 56 34 59 35 73 36
REMARK SMILES IDX 92 37 57 38 58 39 72 41 93 42 60 43 44 44 45 45 53 46 46 47
REMARK SMILES IDX 47 48 51 49 54 50 48 51 49 52 52 53 50 54 76 55 77 56 85 57
REMARK SMILES IDX 78 58 79 59 83 60 86 61 80 62 81 63 84 64 82 65 61 66 62 67
REMARK SMILES IDX 70 68 63 69 64 70 68 71 71 72 65 73 66 74 69 75 67 76 10 77
REMARK SMILES IDX 13 78 14 79 15 81 16 82 25 83 26 84 27 86 28 87 29 88 34 89
REMARK SMILES IDX 30 90 33 91 31 92 32 93 17 94 18 95 19 96 24 97 20 98 23 99
REMARK SMILES IDX 21 100 22 101 11 103 12 104
REMARK H PARENT 7 4 3 11 91 29 59 40 13 80 25 85 22 102 12 105
REMARK Flexibility Score: inf
ROOT
ATOM      1  N   UNL     1       3.294  -8.949  -8.782  1.00  0.00    -0.354 N 
ATOM      2  C   UNL     1       4.189  -7.958  -8.519  1.00  0.00     0.244 C 
ATOM      3  O   UNL     1       5.152  -7.866  -9.284  1.00  0.00    -0.273 OA
ATOM      4  H   UNL     1       3.545  -9.539  -9.530  1.00  0.00     0.163 HD
ENDROOT
BRANCH   1   5
ATOM      5  C   UNL     1       2.032  -9.285  -8.148  1.00  0.00     0.117 C 
BRANCH   5   6
ATOM      6  C   UNL     1       0.842  -8.731  -8.925  1.00  0.00     0.042 C 
BRANCH   6   7
ATOM      7  C   UNL     1       0.709  -9.278 -10.342  1.00  0.00     0.118 C 
BRANCH   7   8
ATOM      8  N   UNL     1       0.204 -10.640 -10.375  1.00  0.00    -0.352 N 
ATOM      9  O   UNL     1      -1.306 -12.294 -10.576  1.00  0.00    -0.269 OA
ATOM     10  C   UNL     1      -1.007 -11.127 -10.810  1.00  0.00     0.251 C 
ATOM     11  H   UNL     1       0.826 -11.322 -10.033  1.00  0.00     0.163 HD
BRANCH  10  12
ATOM     12  C   UNL     1      -1.965 -10.255 -11.529  1.00  0.00     0.039 A 
ATOM     13  C   UNL     1      -1.536  -9.357 -12.507  1.00  0.00     0.014 A 
ATOM     14  C   UNL     1      -3.330 -10.367 -11.245  1.00  0.00     0.014 A 
ATOM     15  C   UNL     1      -2.440  -8.463 -13.075  1.00  0.00     0.010 A 
ATOM     16  C   UNL     1      -4.253  -9.535 -11.889  1.00  0.00     0.010 A 
ATOM     17  C   UNL     1      -3.811  -8.547 -12.782  1.00  0.00    -0.014 A 
BRANCH  17  18
ATOM     18  C   UNL     1      -4.757  -7.618 -13.456  1.00  0.00     0.031 A 
ATOM     19  C   UNL     1      -5.546  -6.605 -12.675  1.00  0.00     0.074 A 
ATOM     20  C   UNL     1      -4.861  -7.659 -14.799  1.00  0.00     0.049 A 
ATOM     21  N   UNL     1      -6.370  -5.685 -13.113  1.00  0.00    -0.248 NA
ATOM     22  C   UNL     1      -5.402  -6.628 -11.211  1.00  0.00     0.031 C 
ATOM     23  C   UNL     1      -4.158  -8.606 -15.666  1.00  0.00     0.029 A 
ATOM     24  N   UNL     1      -5.567  -6.870 -15.672  1.00  0.00    -0.354 N 
ATOM     25  C   UNL     1      -6.851  -5.033 -11.986  1.00  0.00     0.074 A 
ATOM     26  C   UNL     1      -6.252  -5.680 -10.838  1.00  0.00     0.031 C 
ATOM     27  C   UNL     1      -4.416  -8.304 -16.946  1.00  0.00     0.029 A 
ATOM     28  C   UNL     1      -5.346  -7.181 -16.991  1.00  0.00     0.049 A 
ATOM     29  H   UNL     1      -6.174  -6.152 -15.381  1.00  0.00     0.167 HD
ATOM     30  C   UNL     1      -7.704  -3.982 -11.916  1.00  0.00     0.037 A 
ATOM     31  C   UNL     1      -5.835  -6.626 -18.116  1.00  0.00     0.037 A 
ATOM     32  C   UNL     1      -8.285  -3.328 -13.061  1.00  0.00     0.049 A 
ATOM     33  C   UNL     1      -6.781  -5.465 -18.011  1.00  0.00     0.074 A 
ATOM     34  C   UNL     1      -9.149  -2.246 -13.089  1.00  0.00     0.029 A 
ATOM     35  N   UNL     1      -8.061  -3.693 -14.380  1.00  0.00    -0.354 N 
ATOM     36  N   UNL     1      -7.216  -4.852 -16.938  1.00  0.00    -0.248 NA
ATOM     37  C   UNL     1      -7.305  -4.921 -19.271  1.00  0.00     0.031 C 
ATOM     38  C   UNL     1      -9.476  -1.980 -14.422  1.00  0.00     0.029 A 
ATOM     39  C   UNL     1      -8.779  -2.866 -15.229  1.00  0.00     0.049 A 
ATOM     40  H   UNL     1      -7.477  -4.431 -14.671  1.00  0.00     0.167 HD
ATOM     41  C   UNL     1      -8.057  -3.846 -17.390  1.00  0.00     0.074 A 
ATOM     42  C   UNL     1      -8.055  -3.917 -18.837  1.00  0.00     0.031 C 
ATOM     43  C   UNL     1      -8.769  -2.948 -16.667  1.00  0.00     0.037 A 
BRANCH  30  44
ATOM     44  C   UNL     1      -8.070  -3.468 -10.554  1.00  0.00     0.064 A 
ATOM     45  C   UNL     1      -9.368  -3.647 -10.051  1.00  0.00     0.173 A 
ATOM     46  C   UNL     1      -7.158  -2.744  -9.773  1.00  0.00     0.173 A 
ATOM     47  F   UNL     1     -10.281  -4.327 -10.761  1.00  0.00    -0.203 F 
ATOM     48  C   UNL     1      -9.741  -3.111  -8.821  1.00  0.00     0.198 A 
ATOM     49  C   UNL     1      -7.527  -2.232  -8.531  1.00  0.00     0.198 A 
ATOM     50  F   UNL     1      -5.901  -2.556 -10.203  1.00  0.00    -0.203 F 
ATOM     51  F   UNL     1     -10.993  -3.272  -8.372  1.00  0.00    -0.200 F 
ATOM     52  C   UNL     1      -8.819  -2.408  -8.060  1.00  0.00     0.200 A 
ATOM     53  F   UNL     1      -6.627  -1.574  -7.786  1.00  0.00    -0.200 F 
ATOM     54  F   UNL     1      -9.175  -1.904  -6.870  1.00  0.00    -0.200 F 
ENDBRANCH  30  44
BRANCH  31  55
ATOM     55  C   UNL     1      -5.407  -7.160 -19.433  1.00  0.00     0.064 A 
ATOM     56  C   UNL     1      -5.807  -8.432 -19.868  1.00  0.00     0.173 A 
ATOM     57  C   UNL     1      -4.539  -6.430 -20.256  1.00  0.00     0.173 A 
ATOM     58  F   UNL     1      -6.630  -9.171 -19.111  1.00  0.00    -0.203 F 
ATOM     59  C   UNL     1      -5.331  -8.966 -21.063  1.00  0.00     0.198 A 
ATOM     60  C   UNL     1      -4.085  -6.954 -21.464  1.00  0.00     0.198 A 
ATOM     61  F   UNL     1      -4.143  -5.202 -19.890  1.00  0.00    -0.203 F 
ATOM     62  F   UNL     1      -5.692 -10.202 -21.433  1.00  0.00    -0.200 F 
ATOM     63  C   UNL     1      -4.472  -8.226 -21.861  1.00  0.00     0.200 A 
ATOM     64  F   UNL     1      -3.270  -6.229 -22.243  1.00  0.00    -0.200 F 
ATOM     65  F   UNL     1      -4.016  -8.738 -23.012  1.00  0.00    -0.200 F 
ENDBRANCH  31  55
BRANCH  43  66
ATOM     66  C   UNL     1      -9.599  -1.955 -17.426  1.00  0.00     0.064 A 
ATOM     67  C   UNL     1      -9.224  -0.604 -17.471  1.00  0.00     0.173 A 
ATOM     68  C   UNL     1     -10.794  -2.329 -18.056  1.00  0.00     0.173 A 
ATOM     69  F   UNL     1      -8.093  -0.195 -16.877  1.00  0.00    -0.203 F 
ATOM     70  C   UNL     1     -10.023   0.339 -18.112  1.00  0.00     0.198 A 
ATOM     71  C   UNL     1     -11.577  -1.388 -18.718  1.00  0.00     0.198 A 
ATOM     72  F   UNL     1     -11.187  -3.612 -18.051  1.00  0.00    -0.203 F 
ATOM     73  F   UNL     1      -9.659   1.629 -18.120  1.00  0.00    -0.200 F 
ATOM     74  C   UNL     1     -11.196  -0.054 -18.738  1.00  0.00     0.200 A 
ATOM     75  F   UNL     1     -12.699  -1.773 -19.343  1.00  0.00    -0.200 F 
ATOM     76  F   UNL     1     -11.957   0.852 -19.366  1.00  0.00    -0.200 F 
ENDBRANCH  43  66
ENDBRANCH  17  18
ENDBRANCH  10  12
ENDBRANCH   7   8
ENDBRANCH   6   7
ENDBRANCH   5   6
ENDBRANCH   1   5
BRANCH   2  77
ATOM     77  C   UNL     1       3.988  -6.991  -7.333  1.00  0.00     0.197 C 
BRANCH  77  78
ATOM     78  N   UNL     1       5.251  -6.275  -7.102  1.00  0.00    -0.340 N 
ATOM     79  C   UNL     1       6.202  -6.451  -6.141  1.00  0.00     0.243 C 
ATOM     80  H   UNL     1       5.440  -5.553  -7.743  1.00  0.00     0.164 HD
ATOM     81  O   UNL     1       7.234  -5.781  -6.206  1.00  0.00    -0.273 OA
BRANCH  79  82
ATOM     82  C   UNL     1       5.923  -7.420  -4.977  1.00  0.00     0.176 C 
BRANCH  82  83
ATOM     83  N   UNL     1       7.178  -7.921  -4.415  1.00  0.00    -0.340 N 
ATOM     84  C   UNL     1       7.766  -9.150  -4.537  1.00  0.00     0.251 C 
ATOM     85  H   UNL     1       7.676  -7.274  -3.865  1.00  0.00     0.164 HD
ATOM     86  O   UNL     1       8.824  -9.408  -3.975  1.00  0.00    -0.269 OA
BRANCH  84  87
ATOM     87  C   UNL     1       7.082 -10.206  -5.306  1.00  0.00     0.040 A 
ATOM     88  C   UNL     1       6.824 -10.051  -6.674  1.00  0.00     0.017 A 
ATOM     89  C   UNL     1       6.706 -11.375  -4.635  1.00  0.00     0.017 A 
ATOM     90  C   UNL     1       6.130 -11.050  -7.357  1.00  0.00     0.040 A 
ATOM     91  C   UNL     1       6.018 -12.372  -5.325  1.00  0.00     0.040 A 
ATOM     92  C   UNL     1       5.726 -12.195  -6.675  1.00  0.00     0.123 A 
ATOM     93  F   UNL     1       5.041 -13.142  -7.330  1.00  0.00    -0.207 F 
ENDBRANCH  84  87
ENDBRANCH  82  83
BRANCH  82  94
ATOM     94  C   UNL     1       4.972  -6.782  -3.942  1.00  0.00     0.070 C 
BRANCH  94  95
ATOM     95  C   UNL     1       5.584  -6.071  -2.756  1.00  0.00    -0.045 A 
ATOM     96  C   UNL     1       6.554  -5.069  -2.905  1.00  0.00     0.007 A 
ATOM     97  C   UNL     1       5.147  -6.397  -1.462  1.00  0.00     0.007 A 
ATOM     98  C   UNL     1       7.119  -4.454  -1.784  1.00  0.00     0.046 A 
ATOM     99  C   UNL     1       5.699  -5.773  -0.344  1.00  0.00     0.046 A 
ATOM    100  C   UNL     1       6.691  -4.818  -0.512  1.00  0.00     0.115 A 
BRANCH 100 101
ATOM    101  O   UNL     1       7.226  -4.255   0.607  1.00  0.00    -0.508 OA
ATOM    102  H   UNL     1       7.898  -3.607   0.530  1.00  0.00     0.293 HD
ENDBRANCH 100 101
ENDBRANCH  94  95
ENDBRANCH  82  94
ENDBRANCH  79  82
ENDBRANCH  77  78
BRANCH  77 103
ATOM    103  C   UNL     1       2.866  -5.975  -7.569  1.00  0.00     0.191 C 
BRANCH 103 104
ATOM    104  O   UNL     1       3.051  -5.201  -8.750  1.00  0.00    -0.394 OA
ATOM    105  H   UNL     1       3.870  -4.687  -8.675  1.00  0.00     0.210 HD
ENDBRANCH 103 104
ENDBRANCH  77 103
ENDBRANCH   2  77
TORSDOF 19
