REMARK SMILES CN(CC(=O)NCC(=O)NCCCNC(=O)c1ccc(-c2c3nc(c(-c4c(F)c(F)c(F)c(F)c4F)c4ccc([nH]4)c(-c4c(F)c(F)c(F)c(F)c4F)c4nc(c(-c5c(F)c(F)c(F)c(F)c5F)c5ccc2[nH]5)C=C4)C=C3)cc1)c1ncccn1
REMARK SMILES IDX 11 1 10 2 8 3 9 4 7 6 6 7 4 8 5 9 3 11 2 12 1 13 80 14 81 15
REMARK SMILES IDX 85 16 82 17 84 18 83 19 12 20 13 21 14 22 15 23 16 25 17 26
REMARK SMILES IDX 18 27 79 28 19 29 78 30 20 31 21 32 22 33 72 34 23 35 77 36
REMARK SMILES IDX 71 37 73 38 24 39 76 40 70 41 69 42 25 44 57 45 37 46 56 47
REMARK SMILES IDX 38 48 41 49 55 50 74 51 39 52 40 53 54 55 75 56 42 57 26 58
REMARK SMILES IDX 27 59 35 60 28 61 29 62 33 63 36 64 30 65 31 66 34 67 32 68
REMARK SMILES IDX 58 69 59 70 67 71 60 72 61 73 65 74 68 75 62 76 63 77 66 78
REMARK SMILES IDX 64 79 43 80 44 81 52 82 45 83 46 84 50 85 53 86 47 87 48 88
REMARK SMILES IDX 51 89 49 90
REMARK H PARENT 10 5 6 10 14 24 73 43 41 54
REMARK Flexibility Score: inf
ROOT
ATOM      1  C   UNL     1      -0.823   0.651   2.729  1.00  0.00     0.117 C 
ENDROOT
BRANCH   1   2
ATOM      2  N   UNL     1      -1.871  -0.342   2.660  1.00  0.00    -0.355 N 
ATOM      3  C   UNL     1      -2.517  -0.784   1.538  1.00  0.00     0.239 C 
ATOM      4  O   UNL     1      -3.203  -1.804   1.629  1.00  0.00    -0.273 OA
ATOM      5  H   UNL     1      -2.151  -0.744   3.514  1.00  0.00     0.163 HD
BRANCH   3   6
ATOM      6  C   UNL     1      -2.266  -0.110   0.177  1.00  0.00     0.216 C 
BRANCH   6   7
ATOM      7  N   UNL     1      -2.455   1.331   0.196  1.00  0.00    -0.345 N 
ATOM      8  C   UNL     1      -1.711   2.325  -0.378  1.00  0.00     0.240 C 
ATOM      9  O   UNL     1      -2.164   3.471  -0.302  1.00  0.00    -0.273 OA
ATOM     10  H   UNL     1      -3.241   1.641   0.702  1.00  0.00     0.164 HD
BRANCH   8  11
ATOM     11  C   UNL     1      -0.418   2.005  -1.154  1.00  0.00     0.219 C 
BRANCH  11  12
ATOM     12  N   UNL     1       0.705   1.583  -0.316  1.00  0.00    -0.335 N 
ATOM     13  C   UNL     1       1.345   0.299  -0.505  1.00  0.00     0.147 C 
BRANCH  12  14
ATOM     14  C   UNL     1       1.257   2.451   0.603  1.00  0.00     0.225 A 
ATOM     15  N   UNL     1       0.734   3.675   0.743  1.00  0.00    -0.221 NA
ATOM     16  N   UNL     1       2.252   2.003   1.391  1.00  0.00    -0.221 NA
ATOM     17  C   UNL     1       1.225   4.468   1.715  1.00  0.00     0.117 A 
ATOM     18  C   UNL     1       2.727   2.833   2.342  1.00  0.00     0.117 A 
ATOM     19  C   UNL     1       2.238   4.093   2.558  1.00  0.00     0.040 A 
ENDBRANCH  12  14
ENDBRANCH  11  12
ENDBRANCH   8  11
ENDBRANCH   6   7
ENDBRANCH   3   6
ENDBRANCH   1   2
BRANCH   1  20
ATOM     20  C   UNL     1      -1.250   1.928   3.436  1.00  0.00     0.042 C 
BRANCH  20  21
ATOM     21  C   UNL     1      -0.887   1.972   4.915  1.00  0.00     0.118 C 
BRANCH  21  22
ATOM     22  N   UNL     1       0.542   1.819   5.170  1.00  0.00    -0.352 N 
ATOM     23  C   UNL     1       1.455   2.577   5.853  1.00  0.00     0.251 C 
ATOM     24  H   UNL     1       0.928   1.007   4.769  1.00  0.00     0.163 HD
ATOM     25  O   UNL     1       2.644   2.261   5.782  1.00  0.00    -0.269 OA
BRANCH  23  26
ATOM     26  C   UNL     1       1.077   3.781   6.628  1.00  0.00     0.039 A 
ATOM     27  C   UNL     1       2.030   4.800   6.758  1.00  0.00     0.014 A 
ATOM     28  C   UNL     1      -0.159   3.921   7.259  1.00  0.00     0.014 A 
ATOM     29  C   UNL     1       1.723   5.969   7.455  1.00  0.00     0.010 A 
ATOM     30  C   UNL     1      -0.504   5.127   7.864  1.00  0.00     0.010 A 
ATOM     31  C   UNL     1       0.437   6.159   7.980  1.00  0.00    -0.014 A 
BRANCH  31  32
ATOM     32  C   UNL     1       0.072   7.423   8.665  1.00  0.00     0.031 A 
ATOM     33  C   UNL     1      -0.314   7.418  10.117  1.00  0.00     0.074 A 
ATOM     34  C   UNL     1       0.035   8.570   7.960  1.00  0.00     0.049 A 
ATOM     35  N   UNL     1      -0.693   8.415  10.878  1.00  0.00    -0.248 NA
ATOM     36  C   UNL     1      -0.307   6.115  10.798  1.00  0.00     0.031 C 
ATOM     37  C   UNL     1       0.317   8.691   6.529  1.00  0.00     0.029 A 
ATOM     38  N   UNL     1      -0.262   9.851   8.351  1.00  0.00    -0.354 N 
ATOM     39  C   UNL     1      -0.984   7.856  12.115  1.00  0.00     0.074 A 
ATOM     40  C   UNL     1      -0.800   6.427  11.987  1.00  0.00     0.031 C 
ATOM     41  C   UNL     1       0.205   9.979   6.167  1.00  0.00     0.029 A 
ATOM     42  C   UNL     1      -0.183  10.768   7.332  1.00  0.00     0.049 A 
ATOM     43  H   UNL     1      -0.509  10.090   9.273  1.00  0.00     0.167 HD
ATOM     44  C   UNL     1      -1.343   8.479  13.263  1.00  0.00     0.037 A 
ATOM     45  C   UNL     1      -0.395  12.097   7.339  1.00  0.00     0.037 A 
ATOM     46  C   UNL     1      -1.502   9.904  13.392  1.00  0.00     0.049 A 
ATOM     47  C   UNL     1      -0.751  12.774   8.632  1.00  0.00     0.074 A 
ATOM     48  C   UNL     1      -1.810  10.643  14.521  1.00  0.00     0.029 A 
ATOM     49  N   UNL     1      -1.366  10.809  12.348  1.00  0.00    -0.354 N 
ATOM     50  N   UNL     1      -0.951  12.245   9.815  1.00  0.00    -0.248 NA
ATOM     51  C   UNL     1      -0.891  14.236   8.595  1.00  0.00     0.031 C 
ATOM     52  C   UNL     1      -1.895  11.991  14.152  1.00  0.00     0.029 A 
ATOM     53  C   UNL     1      -1.594  12.098  12.803  1.00  0.00     0.049 A 
ATOM     54  H   UNL     1      -1.140  10.570  11.420  1.00  0.00     0.167 HD
ATOM     55  C   UNL     1      -1.221  13.307  10.667  1.00  0.00     0.074 A 
ATOM     56  C   UNL     1      -1.138  14.513   9.867  1.00  0.00     0.031 C 
ATOM     57  C   UNL     1      -1.512  13.286  11.991  1.00  0.00     0.037 A 
BRANCH  44  58
ATOM     58  C   UNL     1      -1.584   7.613  14.467  1.00  0.00     0.064 A 
ATOM     59  C   UNL     1      -0.535   6.925  15.100  1.00  0.00     0.173 A 
ATOM     60  C   UNL     1      -2.875   7.463  14.993  1.00  0.00     0.173 A 
ATOM     61  F   UNL     1       0.717   7.022  14.628  1.00  0.00    -0.203 F 
ATOM     62  C   UNL     1      -0.778   6.086  16.184  1.00  0.00     0.198 A 
ATOM     63  C   UNL     1      -3.109   6.649  16.099  1.00  0.00     0.198 A 
ATOM     64  F   UNL     1      -3.913   8.101  14.432  1.00  0.00    -0.203 F 
ATOM     65  F   UNL     1       0.229   5.387  16.726  1.00  0.00    -0.200 F 
ATOM     66  C   UNL     1      -2.063   5.952  16.686  1.00  0.00     0.200 A 
ATOM     67  F   UNL     1      -4.350   6.528  16.590  1.00  0.00    -0.200 F 
ATOM     68  F   UNL     1      -2.296   5.141  17.727  1.00  0.00    -0.200 F 
ENDBRANCH  44  58
BRANCH  45  69
ATOM     69  C   UNL     1      -0.223  12.871   6.084  1.00  0.00     0.064 A 
ATOM     70  C   UNL     1       0.884  13.712   5.904  1.00  0.00     0.173 A 
ATOM     71  C   UNL     1      -1.139  12.760   5.028  1.00  0.00     0.173 A 
ATOM     72  F   UNL     1       1.778  13.862   6.893  1.00  0.00    -0.203 F 
ATOM     73  C   UNL     1       1.062  14.423   4.719  1.00  0.00     0.198 A 
ATOM     74  C   UNL     1      -0.946  13.452   3.834  1.00  0.00     0.198 A 
ATOM     75  F   UNL     1      -2.208  11.960   5.148  1.00  0.00    -0.203 F 
ATOM     76  F   UNL     1       2.112  15.244   4.585  1.00  0.00    -0.200 F 
ATOM     77  C   UNL     1       0.151  14.286   3.683  1.00  0.00     0.200 A 
ATOM     78  F   UNL     1      -1.820  13.305   2.829  1.00  0.00    -0.200 F 
ATOM     79  F   UNL     1       0.330  14.961   2.539  1.00  0.00    -0.200 F 
ENDBRANCH  45  69
BRANCH  57  80
ATOM     80  C   UNL     1      -1.738  14.610  12.660  1.00  0.00     0.064 A 
ATOM     81  C   UNL     1      -2.890  15.372  12.415  1.00  0.00     0.173 A 
ATOM     82  C   UNL     1      -0.796  15.116  13.569  1.00  0.00     0.173 A 
ATOM     83  F   UNL     1      -3.813  14.938  11.543  1.00  0.00    -0.203 F 
ATOM     84  C   UNL     1      -3.075  16.607  13.031  1.00  0.00     0.198 A 
ATOM     85  C   UNL     1      -0.999  16.337  14.205  1.00  0.00     0.198 A 
ATOM     86  F   UNL     1       0.320  14.423  13.842  1.00  0.00    -0.203 F 
ATOM     87  F   UNL     1      -4.157  17.343  12.739  1.00  0.00    -0.200 F 
ATOM     88  C   UNL     1      -2.132  17.086  13.928  1.00  0.00     0.200 A 
ATOM     89  F   UNL     1      -0.093  16.793  15.081  1.00  0.00    -0.200 F 
ATOM     90  F   UNL     1      -2.312  18.275  14.519  1.00  0.00    -0.200 F 
ENDBRANCH  57  80
ENDBRANCH  31  32
ENDBRANCH  23  26
ENDBRANCH  21  22
ENDBRANCH  20  21
ENDBRANCH   1  20
TORSDOF 14
