REMARK SMILES CCOC(=O)c1c(NC(=O)/C=C/C(=O)NCCCNC(=O)c2ccc(-c3c4nc(c(-c5c(F)c(F)c(F)c(F)c5F)c5ccc([nH]5)c(-c5c(F)c(F)c(F)c(F)c5F)c5nc(c(-c6c(F)c(F)c(F)c(F)c6F)c6ccc3[nH]6)C=C5)C=C4)cc2)sc(C)c1-c1ccc(C)c(C)c1
REMARK SMILES IDX 13 1 14 2 15 3 12 5 11 6 9 7 8 8 10 10 7 11 6 12 88 13 85 14
REMARK SMILES IDX 86 15 87 16 4 17 5 18 3 19 2 20 1 21 89 22 90 23 96 24 91 25
REMARK SMILES IDX 94 26 92 27 95 28 93 29 16 30 17 31 18 32 19 33 20 34 21 36
REMARK SMILES IDX 22 37 23 38 84 39 24 40 83 41 25 42 26 43 27 44 77 45 28 46
REMARK SMILES IDX 82 47 76 48 78 49 29 50 81 51 75 52 74 53 30 55 62 56 42 57
REMARK SMILES IDX 61 58 43 59 46 60 60 61 79 62 44 63 45 64 59 66 80 67 47 68
REMARK SMILES IDX 31 69 32 70 40 71 33 72 34 73 38 74 41 75 35 76 36 77 39 78
REMARK SMILES IDX 37 79 63 80 64 81 72 82 65 83 66 84 70 85 73 86 67 87 68 88
REMARK SMILES IDX 71 89 69 90 48 91 49 92 57 93 50 94 51 95 55 96 58 97 52 98
REMARK SMILES IDX 53 99 56 100 54 101
REMARK H PARENT 15 4 8 9 19 35 78 54 46 65
REMARK Flexibility Score: inf
ROOT
ATOM      1  C   UNL     1       6.294  -3.363  -6.656  1.00  0.00     0.244 C 
ATOM      2  O   UNL     1       5.509  -3.206  -7.585  1.00  0.00    -0.270 OA
ATOM      3  N   UNL     1       7.626  -3.502  -6.892  1.00  0.00    -0.352 N 
ATOM      4  H   UNL     1       7.959  -3.137  -7.743  1.00  0.00     0.163 HD
ENDROOT
BRANCH   1   5
ATOM      5  C   UNL     1       5.806  -3.404  -5.264  1.00  0.00     0.077 C 
ATOM      6  C   UNL     1       6.350  -2.540  -4.394  1.00  0.00     0.077 C 
BRANCH   6   7
ATOM      7  C   UNL     1       5.715  -2.273  -3.101  1.00  0.00     0.249 C 
ATOM      8  N   UNL     1       4.686  -1.382  -2.996  1.00  0.00    -0.313 N 
ATOM      9  H   UNL     1       4.416  -1.194  -2.068  1.00  0.00     0.171 HD
ATOM     10  O   UNL     1       6.155  -2.842  -2.103  1.00  0.00    -0.270 OA
BRANCH   8  11
ATOM     11  C   UNL     1       3.944  -0.688  -3.945  1.00  0.00     0.111 A 
ATOM     12  C   UNL     1       2.783   0.035  -3.713  1.00  0.00     0.102 A 
ATOM     13  C   UNL     1       2.127   0.371  -4.964  1.00  0.00     0.012 A 
ATOM     14  S   UNL     1       4.395  -0.590  -5.570  1.00  0.00    -0.122 S 
ATOM     15  C   UNL     1       2.877  -0.013  -6.063  1.00  0.00     0.012 A 
ATOM     16  C   UNL     1       2.596   0.038  -7.531  1.00  0.00     0.057 C 
BRANCH  12  17
ATOM     17  C   UNL     1       2.339   0.343  -2.357  1.00  0.00     0.341 C 
ATOM     18  O   UNL     1       3.131   0.537  -1.446  1.00  0.00    -0.246 OA
BRANCH  17  19
ATOM     19  O   UNL     1       0.985   0.373  -2.217  1.00  0.00    -0.462 OA
BRANCH  19  20
ATOM     20  C   UNL     1       0.493   0.889  -0.972  1.00  0.00     0.230 C 
ATOM     21  C   UNL     1       0.704  -0.065   0.192  1.00  0.00     0.049 C 
ENDBRANCH  19  20
ENDBRANCH  17  19
ENDBRANCH  12  17
BRANCH  13  22
ATOM     22  C   UNL     1       0.871   1.085  -5.129  1.00  0.00    -0.016 A 
ATOM     23  C   UNL     1       0.776   2.409  -4.704  1.00  0.00     0.009 A 
ATOM     24  C   UNL     1      -0.239   0.458  -5.706  1.00  0.00     0.012 A 
ATOM     25  C   UNL     1      -0.426   3.096  -4.842  1.00  0.00     0.004 A 
ATOM     26  C   UNL     1      -1.452   1.148  -5.870  1.00  0.00    -0.048 A 
ATOM     27  C   UNL     1      -1.548   2.481  -5.424  1.00  0.00    -0.048 A 
ATOM     28  C   UNL     1      -2.608   0.437  -6.518  1.00  0.00     0.044 C 
ATOM     29  C   UNL     1      -2.813   3.289  -5.510  1.00  0.00     0.044 C 
ENDBRANCH  13  22
ENDBRANCH   8  11
ENDBRANCH   6   7
ENDBRANCH   1   5
BRANCH   3  30
ATOM     30  C   UNL     1       8.612  -4.128  -6.029  1.00  0.00     0.118 C 
BRANCH  30  31
ATOM     31  C   UNL     1       8.480  -5.645  -6.080  1.00  0.00     0.042 C 
BRANCH  31  32
ATOM     32  C   UNL     1       8.729  -6.201  -7.477  1.00  0.00     0.118 C 
BRANCH  32  33
ATOM     33  N   UNL     1      10.095  -5.950  -7.918  1.00  0.00    -0.352 N 
ATOM     34  C   UNL     1      11.165  -6.805  -7.974  1.00  0.00     0.251 C 
ATOM     35  H   UNL     1      10.277  -5.030  -8.219  1.00  0.00     0.163 HD
ATOM     36  O   UNL     1      12.305  -6.359  -8.063  1.00  0.00    -0.269 OA
BRANCH  34  37
ATOM     37  C   UNL     1      10.942  -8.263  -7.930  1.00  0.00     0.039 A 
ATOM     38  C   UNL     1      11.813  -9.066  -7.192  1.00  0.00     0.014 A 
ATOM     39  C   UNL     1       9.894  -8.839  -8.653  1.00  0.00     0.014 A 
ATOM     40  C   UNL     1      11.600 -10.444  -7.137  1.00  0.00     0.010 A 
ATOM     41  C   UNL     1       9.627 -10.196  -8.523  1.00  0.00     0.010 A 
ATOM     42  C   UNL     1      10.488 -11.015  -7.779  1.00  0.00    -0.014 A 
BRANCH  42  43
ATOM     43  C   UNL     1      10.215 -12.470  -7.707  1.00  0.00     0.031 A 
ATOM     44  C   UNL     1      10.232 -13.298  -8.962  1.00  0.00     0.074 A 
ATOM     45  C   UNL     1       9.881 -13.026  -6.527  1.00  0.00     0.049 A 
ATOM     46  N   UNL     1       9.936 -14.563  -9.124  1.00  0.00    -0.248 NA
ATOM     47  C   UNL     1      10.598 -12.604 -10.207  1.00  0.00     0.031 C 
ATOM     48  C   UNL     1       9.779 -12.310  -5.254  1.00  0.00     0.029 A 
ATOM     49  N   UNL     1       9.552 -14.319  -6.208  1.00  0.00    -0.354 N 
ATOM     50  C   UNL     1      10.062 -14.807 -10.486  1.00  0.00     0.074 A 
ATOM     51  C   UNL     1      10.403 -13.550 -11.114  1.00  0.00     0.031 C 
ATOM     52  C   UNL     1       9.436 -13.178  -4.288  1.00  0.00     0.029 A 
ATOM     53  C   UNL     1       9.255 -14.499  -4.880  1.00  0.00     0.049 A 
ATOM     54  H   UNL     1       9.531 -15.048  -6.870  1.00  0.00     0.167 HD
ATOM     55  C   UNL     1       9.932 -15.981 -11.148  1.00  0.00     0.037 A 
ATOM     56  C   UNL     1       8.871 -15.607  -4.218  1.00  0.00     0.037 A 
ATOM     57  C   UNL     1       9.624 -17.234 -10.510  1.00  0.00     0.049 A 
ATOM     58  C   UNL     1       8.735 -16.899  -4.977  1.00  0.00     0.074 A 
ATOM     59  C   UNL     1       9.536 -18.493 -11.076  1.00  0.00     0.029 A 
ATOM     60  N   UNL     1       9.352 -17.382  -9.157  1.00  0.00    -0.354 N 
ATOM     61  N   UNL     1       8.929 -17.135  -6.252  1.00  0.00    -0.248 NA
ATOM     62  C   UNL     1       8.331 -18.081  -4.204  1.00  0.00     0.031 C 
ATOM     63  C   UNL     1       9.165 -19.396 -10.075  1.00  0.00     0.029 A 
ATOM     64  C   UNL     1       9.072 -18.709  -8.875  1.00  0.00     0.049 A 
ATOM     65  H   UNL     1       9.357 -16.653  -8.496  1.00  0.00     0.167 HD
ATOM     66  C   UNL     1       8.697 -18.491  -6.430  1.00  0.00     0.074 A 
ATOM     67  C   UNL     1       8.366 -19.031  -5.127  1.00  0.00     0.031 C 
ATOM     68  C   UNL     1       8.750 -19.225  -7.569  1.00  0.00     0.037 A 
BRANCH  55  69
ATOM     69  C   UNL     1      10.130 -15.967 -12.636  1.00  0.00     0.064 A 
ATOM     70  C   UNL     1      11.391 -15.744 -13.210  1.00  0.00     0.173 A 
ATOM     71  C   UNL     1       9.053 -16.215 -13.501  1.00  0.00     0.173 A 
ATOM     72  F   UNL     1      12.453 -15.491 -12.429  1.00  0.00    -0.203 F 
ATOM     73  C   UNL     1      11.561 -15.739 -14.592  1.00  0.00     0.198 A 
ATOM     74  C   UNL     1       9.232 -16.240 -14.882  1.00  0.00     0.198 A 
ATOM     75  F   UNL     1       7.826 -16.440 -13.007  1.00  0.00    -0.203 F 
ATOM     76  F   UNL     1      12.765 -15.472 -15.116  1.00  0.00    -0.200 F 
ATOM     77  C   UNL     1      10.484 -15.994 -15.426  1.00  0.00     0.200 A 
ATOM     78  F   UNL     1       8.193 -16.501 -15.687  1.00  0.00    -0.200 F 
ATOM     79  F   UNL     1      10.650 -15.997 -16.756  1.00  0.00    -0.200 F 
ENDBRANCH  55  69
BRANCH  56  80
ATOM     80  C   UNL     1       8.613 -15.548  -2.756  1.00  0.00     0.064 A 
ATOM     81  C   UNL     1       9.467 -16.189  -1.849  1.00  0.00     0.173 A 
ATOM     82  C   UNL     1       7.510 -14.855  -2.235  1.00  0.00     0.173 A 
ATOM     83  F   UNL     1      10.525 -16.880  -2.299  1.00  0.00    -0.203 F 
ATOM     84  C   UNL     1       9.217 -16.160  -0.478  1.00  0.00     0.198 A 
ATOM     85  C   UNL     1       7.276 -14.802  -0.862  1.00  0.00     0.198 A 
ATOM     86  F   UNL     1       6.664 -14.220  -3.059  1.00  0.00    -0.203 F 
ATOM     87  F   UNL     1      10.023 -16.822   0.362  1.00  0.00    -0.200 F 
ATOM     88  C   UNL     1       8.125 -15.461   0.014  1.00  0.00     0.200 A 
ATOM     89  F   UNL     1       6.228 -14.114  -0.389  1.00  0.00    -0.200 F 
ATOM     90  F   UNL     1       7.885 -15.431   1.332  1.00  0.00    -0.200 F 
ENDBRANCH  56  80
BRANCH  68  91
ATOM     91  C   UNL     1       8.470 -20.695  -7.451  1.00  0.00     0.064 A 
ATOM     92  C   UNL     1       7.177 -21.180  -7.206  1.00  0.00     0.173 A 
ATOM     93  C   UNL     1       9.502 -21.630  -7.626  1.00  0.00     0.173 A 
ATOM     94  F   UNL     1       6.161 -20.325  -7.016  1.00  0.00    -0.203 F 
ATOM     95  C   UNL     1       6.932 -22.547  -7.117  1.00  0.00     0.198 A 
ATOM     96  C   UNL     1       9.247 -22.997  -7.568  1.00  0.00     0.198 A 
ATOM     97  F   UNL     1      10.755 -21.217  -7.870  1.00  0.00    -0.203 F 
ATOM     98  F   UNL     1       5.698 -22.987  -6.834  1.00  0.00    -0.200 F 
ATOM     99  C   UNL     1       7.964 -23.454  -7.306  1.00  0.00     0.200 A 
ATOM    100  F   UNL     1      10.242 -23.872  -7.766  1.00  0.00    -0.200 F 
ATOM    101  F   UNL     1       7.724 -24.770  -7.228  1.00  0.00    -0.200 F 
ENDBRANCH  68  91
ENDBRANCH  42  43
ENDBRANCH  34  37
ENDBRANCH  32  33
ENDBRANCH  31  32
ENDBRANCH  30  31
ENDBRANCH   3  30
TORSDOF 16
