REMARK SMILES [N-]=[N+]=NC[C@@H](Nc1ccccc1Br)C(=O)NCCCNC(=O)c1ccc(-c2c3nc(c(-c4c(F)c(F)c(F)c(F)c4F)c4ccc([nH]4)c(-c4c(F)c(F)c(F)c(F)c4F)c4nc(c(-c5c(F)c(F)c(F)c(F)c5F)c5ccc2[nH]5)C=C4)C=C3)cc1
REMARK SMILES IDX 18 1 17 2 16 3 14 4 15 5 5 7 4 8 3 9 1 10 2 11 6 12 7 14
REMARK SMILES IDX 8 15 12 16 9 17 11 18 13 19 10 20 19 21 20 22 21 23 22 25
REMARK SMILES IDX 23 26 24 27 85 28 25 29 84 30 26 31 27 32 28 33 78 34 29 35
REMARK SMILES IDX 83 36 77 37 79 38 30 39 82 40 76 41 75 42 31 44 63 45 43 46
REMARK SMILES IDX 62 47 44 48 47 49 61 50 80 51 45 52 46 53 60 55 81 56 48 57
REMARK SMILES IDX 32 58 33 59 41 60 34 61 35 62 39 63 42 64 36 65 37 66 40 67
REMARK SMILES IDX 38 68 64 69 65 70 73 71 66 72 67 73 71 74 74 75 68 76 69 77
REMARK SMILES IDX 72 78 70 79 49 80 50 81 58 82 51 83 52 84 56 85 59 86 53 87
REMARK SMILES IDX 54 88 57 89 55 90
REMARK H PARENT 16 6 6 13 20 24 79 43 47 54
REMARK Flexibility Score: inf
ROOT
ATOM      1  C   UNL     1       4.280   1.456  -4.427  1.00  0.00     0.042 C 
ENDROOT
BRANCH   1   2
ATOM      2  C   UNL     1       3.663   0.100  -4.134  1.00  0.00     0.117 C 
BRANCH   2   3
ATOM      3  N   UNL     1       4.682  -0.901  -3.885  1.00  0.00    -0.354 N 
ATOM      4  C   UNL     1       4.854  -1.735  -2.821  1.00  0.00     0.242 C 
ATOM      5  O   UNL     1       5.886  -2.416  -2.816  1.00  0.00    -0.273 OA
ATOM      6  H   UNL     1       5.356  -0.993  -4.598  1.00  0.00     0.163 HD
BRANCH   4   7
ATOM      7  C   UNL     1       3.875  -1.771  -1.631  1.00  0.00     0.174 C 
BRANCH   7   8
ATOM      8  C   UNL     1       4.151  -0.502  -0.790  1.00  0.00     0.125 C 
BRANCH   8   9
ATOM      9  N   UNL     1       3.374  -0.499   0.466  1.00  0.00    -0.091 NA
ATOM     10  N   UNL     1       1.320   0.705   0.383  1.00  0.00    -0.003 NA
ATOM     11  N   UNL     1       2.308   0.140   0.439  1.00  0.00     0.001 N 
ENDBRANCH   8   9
ENDBRANCH   7   8
BRANCH   7  12
ATOM     12  N   UNL     1       2.437  -1.888  -1.973  1.00  0.00    -0.373 N 
ATOM     13  H   UNL     1       1.802  -1.599  -1.278  1.00  0.00     0.161 HD
BRANCH  12  14
ATOM     14  C   UNL     1       1.879  -2.354  -3.152  1.00  0.00     0.049 A 
ATOM     15  C   UNL     1       0.834  -1.575  -3.688  1.00  0.00     0.027 A 
ATOM     16  C   UNL     1       2.328  -3.439  -3.923  1.00  0.00     0.041 A 
ATOM     17  C   UNL     1       0.345  -1.784  -4.981  1.00  0.00     0.002 A 
ATOM     18  C   UNL     1       1.843  -3.647  -5.223  1.00  0.00     0.018 A 
ATOM     19  Br  UNL     1       3.482  -4.784  -3.232  1.00  0.00    -0.049 Br
ATOM     20  C   UNL     1       0.872  -2.804  -5.760  1.00  0.00     0.001 A 
ENDBRANCH  12  14
ENDBRANCH   7  12
ENDBRANCH   4   7
ENDBRANCH   2   3
ENDBRANCH   1   2
BRANCH   1  21
ATOM     21  C   UNL     1       5.029   1.490  -5.749  1.00  0.00     0.118 C 
BRANCH  21  22
ATOM     22  N   UNL     1       4.146   1.326  -6.897  1.00  0.00    -0.352 N 
ATOM     23  C   UNL     1       3.931   2.170  -7.958  1.00  0.00     0.251 C 
ATOM     24  H   UNL     1       3.629   0.488  -6.914  1.00  0.00     0.163 HD
ATOM     25  O   UNL     1       3.006   1.962  -8.737  1.00  0.00    -0.269 OA
BRANCH  23  26
ATOM     26  C   UNL     1       4.804   3.346  -8.141  1.00  0.00     0.039 A 
ATOM     27  C   UNL     1       4.227   4.575  -8.467  1.00  0.00     0.014 A 
ATOM     28  C   UNL     1       6.187   3.240  -7.971  1.00  0.00     0.014 A 
ATOM     29  C   UNL     1       5.032   5.712  -8.549  1.00  0.00     0.010 A 
ATOM     30  C   UNL     1       6.970   4.387  -7.954  1.00  0.00     0.010 A 
ATOM     31  C   UNL     1       6.403   5.634  -8.251  1.00  0.00    -0.014 A 
BRANCH  31  32
ATOM     32  C   UNL     1       7.264   6.843  -8.255  1.00  0.00     0.031 A 
ATOM     33  C   UNL     1       8.417   6.939  -9.216  1.00  0.00     0.074 A 
ATOM     34  C   UNL     1       7.044   7.823  -7.357  1.00  0.00     0.049 A 
ATOM     35  N   UNL     1       9.328   7.873  -9.326  1.00  0.00    -0.248 NA
ATOM     36  C   UNL     1       8.588   5.823 -10.162  1.00  0.00     0.031 C 
ATOM     37  C   UNL     1       5.985   7.823  -6.345  1.00  0.00     0.029 A 
ATOM     38  N   UNL     1       7.704   9.007  -7.144  1.00  0.00    -0.354 N 
ATOM     39  C   UNL     1      10.176   7.455 -10.343  1.00  0.00     0.074 A 
ATOM     40  C   UNL     1       9.715   6.154 -10.773  1.00  0.00     0.031 C 
ATOM     41  C   UNL     1       6.050   8.964  -5.640  1.00  0.00     0.029 A 
ATOM     42  C   UNL     1       7.180   9.754  -6.117  1.00  0.00     0.049 A 
ATOM     43  H   UNL     1       8.480   9.295  -7.678  1.00  0.00     0.167 HD
ATOM     44  C   UNL     1      11.226   8.111 -10.891  1.00  0.00     0.037 A 
ATOM     45  C   UNL     1       7.576  10.938  -5.611  1.00  0.00     0.037 A 
ATOM     46  C   UNL     1      11.669   9.415 -10.473  1.00  0.00     0.049 A 
ATOM     47  C   UNL     1       8.768  11.629  -6.221  1.00  0.00     0.074 A 
ATOM     48  C   UNL     1      12.697  10.182 -10.990  1.00  0.00     0.029 A 
ATOM     49  N   UNL     1      11.107  10.143  -9.435  1.00  0.00    -0.354 N 
ATOM     50  N   UNL     1       9.521  11.253  -7.225  1.00  0.00    -0.248 NA
ATOM     51  C   UNL     1       9.160  12.915  -5.627  1.00  0.00     0.031 C 
ATOM     52  C   UNL     1      12.790  11.354 -10.233  1.00  0.00     0.029 A 
ATOM     53  C   UNL     1      11.782  11.344  -9.283  1.00  0.00     0.049 A 
ATOM     54  H   UNL     1      10.343   9.851  -8.887  1.00  0.00     0.167 HD
ATOM     55  C   UNL     1      10.450  12.270  -7.408  1.00  0.00     0.074 A 
ATOM     56  C   UNL     1      10.153  13.287  -6.421  1.00  0.00     0.031 C 
ATOM     57  C   UNL     1      11.460  12.354  -8.308  1.00  0.00     0.037 A 
BRANCH  44  58
ATOM     58  C   UNL     1      11.961   7.438 -12.014  1.00  0.00     0.064 A 
ATOM     59  C   UNL     1      11.372   7.265 -13.276  1.00  0.00     0.173 A 
ATOM     60  C   UNL     1      13.287   7.011 -11.846  1.00  0.00     0.173 A 
ATOM     61  F   UNL     1      10.102   7.643 -13.486  1.00  0.00    -0.203 F 
ATOM     62  C   UNL     1      12.074   6.670 -14.320  1.00  0.00     0.198 A 
ATOM     63  C   UNL     1      13.997   6.446 -12.902  1.00  0.00     0.198 A 
ATOM     64  F   UNL     1      13.899   7.156 -10.661  1.00  0.00    -0.203 F 
ATOM     65  F   UNL     1      11.475   6.475 -15.503  1.00  0.00    -0.200 F 
ATOM     66  C   UNL     1      13.389   6.270 -14.135  1.00  0.00     0.200 A 
ATOM     67  F   UNL     1      15.273   6.074 -12.726  1.00  0.00    -0.200 F 
ATOM     68  F   UNL     1      14.069   5.712 -15.146  1.00  0.00    -0.200 F 
ENDBRANCH  44  58
BRANCH  45  69
ATOM     69  C   UNL     1       6.840  11.558  -4.476  1.00  0.00     0.064 A 
ATOM     70  C   UNL     1       6.139  12.761  -4.644  1.00  0.00     0.173 A 
ATOM     71  C   UNL     1       6.854  10.988  -3.195  1.00  0.00     0.173 A 
ATOM     72  F   UNL     1       6.111  13.357  -5.846  1.00  0.00    -0.203 F 
ATOM     73  C   UNL     1       5.514  13.389  -3.568  1.00  0.00     0.198 A 
ATOM     74  C   UNL     1       6.199  11.598  -2.127  1.00  0.00     0.198 A 
ATOM     75  F   UNL     1       7.503   9.834  -2.979  1.00  0.00    -0.203 F 
ATOM     76  F   UNL     1       4.910  14.571  -3.745  1.00  0.00    -0.200 F 
ATOM     77  C   UNL     1       5.542  12.805  -2.311  1.00  0.00     0.200 A 
ATOM     78  F   UNL     1       6.214  11.022  -0.918  1.00  0.00    -0.200 F 
ATOM     79  F   UNL     1       4.946  13.411  -1.276  1.00  0.00    -0.200 F 
ENDBRANCH  45  69
BRANCH  57  80
ATOM     80  C   UNL     1      12.286  13.608  -8.303  1.00  0.00     0.064 A 
ATOM     81  C   UNL     1      13.175  13.903  -7.260  1.00  0.00     0.173 A 
ATOM     82  C   UNL     1      12.211  14.508  -9.378  1.00  0.00     0.173 A 
ATOM     83  F   UNL     1      13.273  13.083  -6.203  1.00  0.00    -0.203 F 
ATOM     84  C   UNL     1      13.937  15.068  -7.278  1.00  0.00     0.198 A 
ATOM     85  C   UNL     1      13.000  15.653  -9.409  1.00  0.00     0.198 A 
ATOM     86  F   UNL     1      11.382  14.268 -10.405  1.00  0.00    -0.203 F 
ATOM     87  F   UNL     1      14.739  15.358  -6.244  1.00  0.00    -0.200 F 
ATOM     88  C   UNL     1      13.855  15.938  -8.356  1.00  0.00     0.200 A 
ATOM     89  F   UNL     1      12.932  16.483 -10.460  1.00  0.00    -0.200 F 
ATOM     90  F   UNL     1      14.596  17.054  -8.375  1.00  0.00    -0.200 F 
ENDBRANCH  57  80
ENDBRANCH  31  32
ENDBRANCH  23  26
ENDBRANCH  21  22
ENDBRANCH   1  21
TORSDOF 14
