REMARK SMILES C[C@@H](C(=O)NCCCNC(=O)c1ccc(-c2c3nc(c(-c4c(F)c(F)c(F)c(F)c4F)c4ccc([nH]4)c(-c4c(F)c(F)c(F)c(F)c4F)c4nc(c(-c5c(F)c(F)c(F)c(F)c5F)c5ccc2[nH]5)C=C4)C=C3)cc1)c1cc(C(=O)c2ccccc2)ccc1O
REMARK SMILES IDX 6 1 5 2 3 3 4 4 2 6 1 7 75 8 76 9 88 10 77 11 87 12 86 13
REMARK SMILES IDX 89 14 78 16 79 17 80 18 81 19 85 20 82 21 84 22 83 23 7 24
REMARK SMILES IDX 8 25 9 26 10 27 11 29 12 30 13 31 74 32 14 33 73 34 15 35
REMARK SMILES IDX 16 36 17 37 67 38 18 39 72 40 66 41 68 42 19 43 71 44 65 45
REMARK SMILES IDX 64 46 20 48 52 49 32 50 51 51 33 52 36 53 50 54 69 55 34 56
REMARK SMILES IDX 35 57 49 59 70 60 37 61 21 62 22 63 30 64 23 65 24 66 28 67
REMARK SMILES IDX 31 68 25 69 26 70 29 71 27 72 53 73 54 74 62 75 55 76 56 77
REMARK SMILES IDX 60 78 63 79 57 80 58 81 61 82 59 83 38 84 39 85 47 86 40 87
REMARK SMILES IDX 41 88 45 89 48 90 42 91 43 92 46 93 44 94
REMARK H PARENT 5 5 89 15 9 28 68 47 36 58
REMARK Flexibility Score: inf
ROOT
ATOM      1  C   UNL     1       3.451  -0.573   1.958  1.00  0.00     0.117 C 
ENDROOT
BRANCH   1   2
ATOM      2  N   UNL     1       2.410   0.124   2.687  1.00  0.00    -0.356 N 
ATOM      3  C   UNL     1       1.072   0.231   2.446  1.00  0.00     0.227 C 
ATOM      4  O   UNL     1       0.438   0.947   3.222  1.00  0.00    -0.274 OA
ATOM      5  H   UNL     1       2.722   0.601   3.490  1.00  0.00     0.163 HD
BRANCH   3   6
ATOM      6  C   UNL     1       0.437  -0.546   1.280  1.00  0.00     0.109 C 
ATOM      7  C   UNL     1       0.787   0.061  -0.081  1.00  0.00     0.023 C 
BRANCH   6   8
ATOM      8  C   UNL     1      -1.080  -0.679   1.390  1.00  0.00     0.007 A 
ATOM      9  C   UNL     1      -1.868   0.488   1.494  1.00  0.00     0.020 A 
ATOM     10  C   UNL     1      -1.750  -1.909   1.363  1.00  0.00     0.119 A 
ATOM     11  C   UNL     1      -3.263   0.432   1.601  1.00  0.00     0.023 A 
ATOM     12  C   UNL     1      -3.141  -1.975   1.450  1.00  0.00     0.047 A 
ATOM     13  C   UNL     1      -3.900  -0.809   1.554  1.00  0.00     0.016 A 
BRANCH  10  14
ATOM     14  O   UNL     1      -1.126  -3.117   1.236  1.00  0.00    -0.508 OA
ATOM     15  H   UNL     1      -0.192  -3.158   1.172  1.00  0.00     0.293 HD
ENDBRANCH  10  14
BRANCH  11  16
ATOM     16  C   UNL     1      -4.013   1.714   1.709  1.00  0.00     0.193 C 
ATOM     17  O   UNL     1      -3.505   2.754   1.296  1.00  0.00    -0.289 OA
BRANCH  16  18
ATOM     18  C   UNL     1      -5.387   1.766   2.263  1.00  0.00     0.022 A 
ATOM     19  C   UNL     1      -6.327   2.577   1.618  1.00  0.00     0.012 A 
ATOM     20  C   UNL     1      -5.751   1.041   3.403  1.00  0.00     0.012 A 
ATOM     21  C   UNL     1      -7.643   2.616   2.077  1.00  0.00     0.001 A 
ATOM     22  C   UNL     1      -7.071   1.080   3.856  1.00  0.00     0.001 A 
ATOM     23  C   UNL     1      -8.016   1.860   3.188  1.00  0.00     0.000 A 
ENDBRANCH  16  18
ENDBRANCH  11  16
ENDBRANCH   6   8
ENDBRANCH   3   6
ENDBRANCH   1   2
BRANCH   1  24
ATOM     24  C   UNL     1       4.324   0.394   1.165  1.00  0.00     0.042 C 
BRANCH  24  25
ATOM     25  C   UNL     1       5.065   1.408   2.028  1.00  0.00     0.118 C 
BRANCH  25  26
ATOM     26  N   UNL     1       6.068   0.792   2.885  1.00  0.00    -0.352 N 
ATOM     27  C   UNL     1       7.421   1.024   2.945  1.00  0.00     0.251 C 
ATOM     28  H   UNL     1       5.728   0.113   3.511  1.00  0.00     0.163 HD
ATOM     29  O   UNL     1       8.146   0.287   3.606  1.00  0.00    -0.269 OA
BRANCH  27  30
ATOM     30  C   UNL     1       8.004   2.151   2.190  1.00  0.00     0.039 A 
ATOM     31  C   UNL     1       9.154   1.938   1.425  1.00  0.00     0.014 A 
ATOM     32  C   UNL     1       7.406   3.412   2.230  1.00  0.00     0.014 A 
ATOM     33  C   UNL     1       9.664   2.975   0.640  1.00  0.00     0.010 A 
ATOM     34  C   UNL     1       7.866   4.418   1.389  1.00  0.00     0.010 A 
ATOM     35  C   UNL     1       9.001   4.210   0.588  1.00  0.00    -0.014 A 
BRANCH  35  36
ATOM     36  C   UNL     1       9.467   5.324  -0.275  1.00  0.00     0.031 A 
ATOM     37  C   UNL     1       9.895   6.616   0.357  1.00  0.00     0.074 A 
ATOM     38  C   UNL     1       9.388   5.218  -1.615  1.00  0.00     0.049 A 
ATOM     39  N   UNL     1      10.140   7.774  -0.199  1.00  0.00    -0.248 NA
ATOM     40  C   UNL     1      10.026   6.611   1.823  1.00  0.00     0.031 C 
ATOM     41  C   UNL     1       8.957   4.028  -2.346  1.00  0.00     0.029 A 
ATOM     42  N   UNL     1       9.633   6.144  -2.598  1.00  0.00    -0.354 N 
ATOM     43  C   UNL     1      10.418   8.642   0.849  1.00  0.00     0.074 A 
ATOM     44  C   UNL     1      10.265   7.889   2.075  1.00  0.00     0.031 C 
ATOM     45  C   UNL     1       8.962   4.295  -3.661  1.00  0.00     0.029 A 
ATOM     46  C   UNL     1       9.349   5.689  -3.862  1.00  0.00     0.049 A 
ATOM     47  H   UNL     1       9.979   7.048  -2.415  1.00  0.00     0.167 HD
ATOM     48  C   UNL     1      10.781   9.945   0.791  1.00  0.00     0.037 A 
ATOM     49  C   UNL     1       9.371   6.331  -5.046  1.00  0.00     0.037 A 
ATOM     50  C   UNL     1      10.954  10.678  -0.435  1.00  0.00     0.049 A 
ATOM     51  C   UNL     1       9.774   7.780  -5.091  1.00  0.00     0.074 A 
ATOM     52  C   UNL     1      11.379  11.983  -0.608  1.00  0.00     0.029 A 
ATOM     53  N   UNL     1      10.705  10.166  -1.701  1.00  0.00    -0.354 N 
ATOM     54  N   UNL     1      10.086   8.580  -4.101  1.00  0.00    -0.248 NA
ATOM     55  C   UNL     1       9.833   8.413  -6.416  1.00  0.00     0.031 C 
ATOM     56  C   UNL     1      11.341  12.276  -1.976  1.00  0.00     0.029 A 
ATOM     57  C   UNL     1      10.948  11.136  -2.660  1.00  0.00     0.049 A 
ATOM     58  H   UNL     1      10.401   9.249  -1.890  1.00  0.00     0.167 HD
ATOM     59  C   UNL     1      10.410   9.799  -4.682  1.00  0.00     0.074 A 
ATOM     60  C   UNL     1      10.255   9.634  -6.113  1.00  0.00     0.031 C 
ATOM     61  C   UNL     1      10.806  10.949  -4.082  1.00  0.00     0.037 A 
BRANCH  48  62
ATOM     62  C   UNL     1      10.996  10.658   2.095  1.00  0.00     0.064 A 
ATOM     63  C   UNL     1      12.062  10.333   2.949  1.00  0.00     0.173 A 
ATOM     64  C   UNL     1      10.122  11.679   2.500  1.00  0.00     0.173 A 
ATOM     65  F   UNL     1      12.921   9.358   2.615  1.00  0.00    -0.203 F 
ATOM     66  C   UNL     1      12.215  10.967   4.179  1.00  0.00     0.198 A 
ATOM     67  C   UNL     1      10.300  12.336   3.715  1.00  0.00     0.198 A 
ATOM     68  F   UNL     1       9.092  12.037   1.720  1.00  0.00    -0.203 F 
ATOM     69  F   UNL     1      13.198  10.588   5.008  1.00  0.00    -0.200 F 
ATOM     70  C   UNL     1      11.337  11.970   4.559  1.00  0.00     0.200 A 
ATOM     71  F   UNL     1       9.460  13.316   4.074  1.00  0.00    -0.200 F 
ATOM     72  F   UNL     1      11.484  12.577   5.745  1.00  0.00    -0.200 F 
ENDBRANCH  48  62
BRANCH  49  73
ATOM     73  C   UNL     1       9.009   5.593  -6.283  1.00  0.00     0.064 A 
ATOM     74  C   UNL     1       9.988   5.237  -7.220  1.00  0.00     0.173 A 
ATOM     75  C   UNL     1       7.688   5.192  -6.534  1.00  0.00     0.173 A 
ATOM     76  F   UNL     1      11.261   5.614  -7.032  1.00  0.00    -0.203 F 
ATOM     77  C   UNL     1       9.659   4.514  -8.365  1.00  0.00     0.198 A 
ATOM     78  C   UNL     1       7.365   4.447  -7.666  1.00  0.00     0.198 A 
ATOM     79  F   UNL     1       6.716   5.500  -5.663  1.00  0.00    -0.203 F 
ATOM     80  F   UNL     1      10.610   4.210  -9.259  1.00  0.00    -0.200 F 
ATOM     81  C   UNL     1       8.350   4.112  -8.583  1.00  0.00     0.200 A 
ATOM     82  F   UNL     1       6.102   4.044  -7.863  1.00  0.00    -0.200 F 
ATOM     83  F   UNL     1       8.038   3.402  -9.675  1.00  0.00    -0.200 F 
ENDBRANCH  49  73
BRANCH  61  84
ATOM     84  C   UNL     1      11.156  12.111  -4.965  1.00  0.00     0.064 A 
ATOM     85  C   UNL     1      10.173  12.865  -5.620  1.00  0.00     0.173 A 
ATOM     86  C   UNL     1      12.493  12.522  -5.087  1.00  0.00     0.173 A 
ATOM     87  F   UNL     1       8.883  12.503  -5.546  1.00  0.00    -0.203 F 
ATOM     88  C   UNL     1      10.517  13.985  -6.373  1.00  0.00     0.198 A 
ATOM     89  C   UNL     1      12.829  13.658  -5.817  1.00  0.00     0.198 A 
ATOM     90  F   UNL     1      13.470  11.837  -4.474  1.00  0.00    -0.203 F 
ATOM     91  F   UNL     1       9.565  14.676  -7.015  1.00  0.00    -0.200 F 
ATOM     92  C   UNL     1      11.842  14.387  -6.461  1.00  0.00     0.200 A 
ATOM     93  F   UNL     1      14.108  14.053  -5.888  1.00  0.00    -0.200 F 
ATOM     94  F   UNL     1      12.167  15.477  -7.169  1.00  0.00    -0.200 F 
ENDBRANCH  61  84
ENDBRANCH  35  36
ENDBRANCH  27  30
ENDBRANCH  25  26
ENDBRANCH  24  25
ENDBRANCH   1  24
TORSDOF 14
