REMARK SMILES O=C(NCCCNC(=O)c1cccc(CS(=O)(=O)Nc2ncccn2)c1)c1ccc(-c2c3nc(c(-c4c(F)c(F)c(F)c(F)c4F)c4ccc([nH]4)c(-c4c(F)c(F)c(F)c(F)c4F)c4nc(c(-c5c(F)c(F)c(F)c(F)c5F)c5ccc2[nH]5)C=C4)C=C3)cc1
REMARK SMILES IDX 6 1 5 2 4 3 3 4 1 5 2 6 27 8 28 9 89 10 29 11 88 12 30 13
REMARK SMILES IDX 31 14 32 15 82 16 33 17 87 18 81 19 83 20 34 21 86 22 80 23
REMARK SMILES IDX 79 24 35 26 67 27 47 28 66 29 48 30 51 31 65 32 84 33 49 34
REMARK SMILES IDX 50 35 64 37 85 38 52 39 36 40 37 41 45 42 38 43 39 44 43 45
REMARK SMILES IDX 46 46 40 47 41 48 44 49 42 50 68 51 69 52 77 53 70 54 71 55
REMARK SMILES IDX 75 56 78 57 72 58 73 59 76 60 74 61 53 62 54 63 62 64 55 65
REMARK SMILES IDX 56 66 60 67 63 68 57 69 58 70 61 71 59 72 7 73 8 74 9 76
REMARK SMILES IDX 10 77 11 78 26 79 12 80 14 81 13 82 15 83 16 84 17 85 18 86
REMARK SMILES IDX 19 87 20 89 21 90 25 91 22 92 24 93 23 94
REMARK H PARENT 3 7 83 25 51 36 7 75 19 88
REMARK Flexibility Score: inf
ROOT
ATOM      1  C   UNL     1       4.470  -3.523   0.540  1.00  0.00     0.118 C 
ENDROOT
BRANCH   1   2
ATOM      2  C   UNL     1       4.862  -2.074   0.769  1.00  0.00     0.042 C 
BRANCH   2   3
ATOM      3  C   UNL     1       4.485  -1.155  -0.380  1.00  0.00     0.118 C 
BRANCH   3   4
ATOM      4  N   UNL     1       3.046  -0.962  -0.501  1.00  0.00    -0.352 N 
ATOM      5  O   UNL     1       1.057   0.059  -0.212  1.00  0.00    -0.269 OA
ATOM      6  C   UNL     1       2.277   0.145  -0.219  1.00  0.00     0.251 C 
ATOM      7  H   UNL     1       2.547  -1.742  -0.835  1.00  0.00     0.163 HD
BRANCH   6   8
ATOM      8  C   UNL     1       2.934   1.429   0.105  1.00  0.00     0.039 A 
ATOM      9  C   UNL     1       4.035   1.866  -0.630  1.00  0.00     0.014 A 
ATOM     10  C   UNL     1       2.447   2.202   1.163  1.00  0.00     0.014 A 
ATOM     11  C   UNL     1       4.766   2.959  -0.190  1.00  0.00     0.010 A 
ATOM     12  C   UNL     1       3.114   3.374   1.528  1.00  0.00     0.010 A 
ATOM     13  C   UNL     1       4.304   3.740   0.881  1.00  0.00    -0.014 A 
BRANCH  13  14
ATOM     14  C   UNL     1       5.058   4.963   1.256  1.00  0.00     0.031 A 
ATOM     15  C   UNL     1       5.689   5.107   2.611  1.00  0.00     0.074 A 
ATOM     16  C   UNL     1       5.202   5.934   0.333  1.00  0.00     0.049 A 
ATOM     17  N   UNL     1       6.398   6.100   3.088  1.00  0.00    -0.248 NA
ATOM     18  C   UNL     1       5.493   4.002   3.560  1.00  0.00     0.031 C 
ATOM     19  C   UNL     1       4.628   5.904  -1.014  1.00  0.00     0.029 A 
ATOM     20  N   UNL     1       5.893   7.117   0.373  1.00  0.00    -0.354 N 
ATOM     21  C   UNL     1       6.707   5.754   4.397  1.00  0.00     0.074 A 
ATOM     22  C   UNL     1       6.090   4.469   4.648  1.00  0.00     0.031 C 
ATOM     23  C   UNL     1       5.043   6.981  -1.694  1.00  0.00     0.029 A 
ATOM     24  C   UNL     1       5.846   7.815  -0.809  1.00  0.00     0.049 A 
ATOM     25  H   UNL     1       6.375   7.435   1.170  1.00  0.00     0.167 HD
ATOM     26  C   UNL     1       7.442   6.446   5.301  1.00  0.00     0.037 A 
ATOM     27  C   UNL     1       6.379   9.004  -1.141  1.00  0.00     0.037 A 
ATOM     28  C   UNL     1       8.070   7.715   5.034  1.00  0.00     0.049 A 
ATOM     29  C   UNL     1       7.171   9.757  -0.114  1.00  0.00     0.074 A 
ATOM     30  C   UNL     1       8.869   8.478   5.869  1.00  0.00     0.029 A 
ATOM     31  N   UNL     1       7.966   8.413   3.838  1.00  0.00    -0.354 N 
ATOM     32  N   UNL     1       7.476   9.408   1.111  1.00  0.00    -0.248 NA
ATOM     33  C   UNL     1       7.684  11.072  -0.514  1.00  0.00     0.031 C 
ATOM     34  C   UNL     1       9.207   9.658   5.196  1.00  0.00     0.029 A 
ATOM     35  C   UNL     1       8.664   9.608   3.922  1.00  0.00     0.049 A 
ATOM     36  H   UNL     1       7.469   8.104   3.046  1.00  0.00     0.167 HD
ATOM     37  C   UNL     1       8.231  10.450   1.626  1.00  0.00     0.074 A 
ATOM     38  C   UNL     1       8.352  11.437   0.571  1.00  0.00     0.031 C 
ATOM     39  C   UNL     1       8.773  10.579   2.862  1.00  0.00     0.037 A 
BRANCH  26  40
ATOM     40  C   UNL     1       7.584   5.859   6.677  1.00  0.00     0.064 A 
ATOM     41  C   UNL     1       8.355   4.712   6.920  1.00  0.00     0.173 A 
ATOM     42  C   UNL     1       6.955   6.468   7.775  1.00  0.00     0.173 A 
ATOM     43  F   UNL     1       8.968   4.084   5.906  1.00  0.00    -0.203 F 
ATOM     44  C   UNL     1       8.465   4.180   8.203  1.00  0.00     0.198 A 
ATOM     45  C   UNL     1       7.090   5.949   9.060  1.00  0.00     0.198 A 
ATOM     46  F   UNL     1       6.210   7.570   7.601  1.00  0.00    -0.203 F 
ATOM     47  F   UNL     1       9.164   3.053   8.402  1.00  0.00    -0.200 F 
ATOM     48  C   UNL     1       7.838   4.801   9.272  1.00  0.00     0.200 A 
ATOM     49  F   UNL     1       6.493   6.559  10.094  1.00  0.00    -0.200 F 
ATOM     50  F   UNL     1       7.945   4.287  10.506  1.00  0.00    -0.200 F 
ENDBRANCH  26  40
BRANCH  27  51
ATOM     51  C   UNL     1       6.177   9.537  -2.512  1.00  0.00     0.064 A 
ATOM     52  C   UNL     1       7.243   9.610  -3.418  1.00  0.00     0.173 A 
ATOM     53  C   UNL     1       4.910   9.944  -2.957  1.00  0.00     0.173 A 
ATOM     54  F   UNL     1       8.475   9.247  -3.033  1.00  0.00    -0.203 F 
ATOM     55  C   UNL     1       7.049  10.073  -4.718  1.00  0.00     0.198 A 
ATOM     56  C   UNL     1       4.712  10.379  -4.264  1.00  0.00     0.198 A 
ATOM     57  F   UNL     1       3.857   9.884  -2.128  1.00  0.00    -0.203 F 
ATOM     58  F   UNL     1       8.090  10.159  -5.557  1.00  0.00    -0.200 F 
ATOM     59  C   UNL     1       5.783  10.448  -5.142  1.00  0.00     0.200 A 
ATOM     60  F   UNL     1       3.484  10.720  -4.676  1.00  0.00    -0.200 F 
ATOM     61  F   UNL     1       5.595  10.877  -6.398  1.00  0.00    -0.200 F 
ENDBRANCH  27  51
BRANCH  39  62
ATOM     62  C   UNL     1       9.573  11.820   3.126  1.00  0.00     0.064 A 
ATOM     63  C   UNL     1       8.959  13.073   3.278  1.00  0.00     0.173 A 
ATOM     64  C   UNL     1      10.969  11.752   3.248  1.00  0.00     0.173 A 
ATOM     65  F   UNL     1       7.629  13.193   3.151  1.00  0.00    -0.203 F 
ATOM     66  C   UNL     1       9.718  14.216   3.515  1.00  0.00     0.198 A 
ATOM     67  C   UNL     1      11.721  12.892   3.514  1.00  0.00     0.198 A 
ATOM     68  F   UNL     1      11.602  10.577   3.114  1.00  0.00    -0.203 F 
ATOM     69  F   UNL     1       9.116  15.410   3.605  1.00  0.00    -0.200 F 
ATOM     70  C   UNL     1      11.096  14.123   3.639  1.00  0.00     0.200 A 
ATOM     71  F   UNL     1      13.051  12.799   3.644  1.00  0.00    -0.200 F 
ATOM     72  F   UNL     1      11.824  15.224   3.870  1.00  0.00    -0.200 F 
ENDBRANCH  39  62
ENDBRANCH  13  14
ENDBRANCH   6   8
ENDBRANCH   3   4
ENDBRANCH   2   3
ENDBRANCH   1   2
BRANCH   1  73
ATOM     73  N   UNL     1       5.111  -4.073  -0.647  1.00  0.00    -0.352 N 
ATOM     74  C   UNL     1       6.040  -5.071  -0.772  1.00  0.00     0.251 C 
ATOM     75  H   UNL     1       4.832  -3.659  -1.496  1.00  0.00     0.163 HD
ATOM     76  O   UNL     1       6.627  -5.209  -1.843  1.00  0.00    -0.269 OA
BRANCH  74  77
ATOM     77  C   UNL     1       6.290  -6.022   0.331  1.00  0.00     0.040 A 
ATOM     78  C   UNL     1       7.569  -6.551   0.504  1.00  0.00     0.014 A 
ATOM     79  C   UNL     1       5.225  -6.511   1.094  1.00  0.00     0.018 A 
ATOM     80  C   UNL     1       7.782  -7.536   1.468  1.00  0.00     0.001 A 
ATOM     81  C   UNL     1       5.416  -7.517   2.045  1.00  0.00    -0.030 A 
ATOM     82  C   UNL     1       6.715  -8.006   2.241  1.00  0.00     0.005 A 
BRANCH  81  83
ATOM     83  C   UNL     1       4.232  -8.003   2.836  1.00  0.00     0.195 C 
BRANCH  83  84
ATOM     84  S   UNL     1       3.797  -9.727   2.522  1.00  0.00     0.239 S 
ATOM     85  O   UNL     1       4.997 -10.519   2.341  1.00  0.00    -0.206 OA
ATOM     86  O   UNL     1       2.879 -10.112   3.580  1.00  0.00    -0.206 OA
BRANCH  84  87
ATOM     87  N   UNL     1       2.932  -9.881   1.114  1.00  0.00    -0.251 N 
ATOM     88  H   UNL     1       2.355 -10.665   0.968  1.00  0.00     0.183 HD
BRANCH  87  89
ATOM     89  C   UNL     1       3.031  -8.889   0.142  1.00  0.00     0.236 A 
ATOM     90  N   UNL     1       1.923  -8.176  -0.075  1.00  0.00    -0.221 NA
ATOM     91  N   UNL     1       4.131  -8.895  -0.607  1.00  0.00    -0.221 NA
ATOM     92  C   UNL     1       1.936  -7.405  -1.180  1.00  0.00     0.117 A 
ATOM     93  C   UNL     1       4.115  -8.060  -1.667  1.00  0.00     0.117 A 
ATOM     94  C   UNL     1       3.025  -7.295  -2.014  1.00  0.00     0.040 A 
ENDBRANCH  87  89
ENDBRANCH  84  87
ENDBRANCH  83  84
ENDBRANCH  81  83
ENDBRANCH  74  77
ENDBRANCH   1  73
TORSDOF 14
