REMARK SMILES CC(C)n1cncc1[C@@H](NC(=O)OC(C)(C)C)C(=O)NCCCNC(=O)c1ccc(-c2c3nc(c(-c4c(F)c(F)c(F)c(F)c4F)c4ccc([nH]4)c(-c4c(F)c(F)c(F)c(F)c4F)c4nc(c(-c5c(F)c(F)c(F)c(F)c5F)c5ccc2[nH]5)C=C4)C=C3)cc1
REMARK SMILES IDX 21 1 20 2 18 3 19 4 9 6 8 7 4 8 5 9 6 10 7 11 2 12 1 13 3 14
REMARK SMILES IDX 10 15 11 16 12 18 13 19 14 20 15 21 16 22 17 23 22 24 23 25
REMARK SMILES IDX 24 26 25 27 26 29 27 30 28 31 89 32 29 33 88 34 30 35 31 36
REMARK SMILES IDX 32 37 82 38 33 39 87 40 81 41 83 42 34 43 86 44 80 45 79 46
REMARK SMILES IDX 35 48 67 49 47 50 66 51 48 52 51 53 65 54 84 55 49 56 50 57
REMARK SMILES IDX 64 59 85 60 52 61 36 62 37 63 45 64 38 65 39 66 43 67 46 68
REMARK SMILES IDX 40 69 41 70 44 71 42 72 68 73 69 74 77 75 70 76 71 77 75 78
REMARK SMILES IDX 78 79 72 80 73 81 76 82 74 83 53 84 54 85 62 86 55 87 56 88
REMARK SMILES IDX 60 89 63 90 57 91 58 92 61 93 59 94
REMARK H PARENT 20 5 10 17 24 28 83 47 51 58
REMARK Flexibility Score: inf
ROOT
ATOM      1  C   UNL     1      -4.329   3.995   0.073  1.00  0.00     0.117 C 
ENDROOT
BRANCH   1   2
ATOM      2  N   UNL     1      -3.169   4.075   0.940  1.00  0.00    -0.354 N 
ATOM      3  C   UNL     1      -1.842   4.086   0.603  1.00  0.00     0.248 C 
ATOM      4  O   UNL     1      -1.024   4.186   1.527  1.00  0.00    -0.272 OA
ATOM      5  H   UNL     1      -3.362   4.129   1.904  1.00  0.00     0.163 HD
BRANCH   3   6
ATOM      6  C   UNL     1      -1.347   3.816  -0.853  1.00  0.00     0.223 C 
BRANCH   6   7
ATOM      7  C   UNL     1      -1.590   2.339  -1.115  1.00  0.00     0.070 A 
ATOM      8  N   UNL     1      -0.736   1.292  -0.800  1.00  0.00    -0.330 N 
ATOM      9  C   UNL     1      -1.467   0.136  -0.894  1.00  0.00     0.199 A 
ATOM     10  N   UNL     1      -2.643   0.346  -1.430  1.00  0.00    -0.245 NA
ATOM     11  C   UNL     1      -2.701   1.692  -1.631  1.00  0.00     0.137 A 
BRANCH   8  12
ATOM     12  C   UNL     1       0.717   1.353  -0.645  1.00  0.00     0.082 C 
ATOM     13  C   UNL     1       1.332   0.123   0.037  1.00  0.00     0.031 C 
ATOM     14  C   UNL     1       1.351   1.534  -2.029  1.00  0.00     0.031 C 
ENDBRANCH   8  12
ENDBRANCH   6   7
BRANCH   6  15
ATOM     15  N   UNL     1      -1.930   4.560  -1.963  1.00  0.00    -0.304 N 
ATOM     16  C   UNL     1      -2.383   5.854  -2.003  1.00  0.00     0.408 C 
ATOM     17  H   UNL     1      -2.010   4.060  -2.807  1.00  0.00     0.168 HD
ATOM     18  O   UNL     1      -2.591   6.396  -3.068  1.00  0.00    -0.225 OA
BRANCH  16  19
ATOM     19  O   UNL     1      -2.686   6.366  -0.783  1.00  0.00    -0.444 OA
BRANCH  19  20
ATOM     20  C   UNL     1      -3.519   7.557  -0.648  1.00  0.00     0.106 C 
ATOM     21  C   UNL     1      -2.807   8.803  -1.176  1.00  0.00     0.056 C 
ATOM     22  C   UNL     1      -4.897   7.393  -1.315  1.00  0.00     0.056 C 
ATOM     23  C   UNL     1      -3.740   7.727   0.867  1.00  0.00     0.056 C 
ENDBRANCH  19  20
ENDBRANCH  16  19
ENDBRANCH   6  15
ENDBRANCH   3   6
ENDBRANCH   1   2
BRANCH   1  24
ATOM     24  C   UNL     1      -5.190   2.759   0.305  1.00  0.00     0.042 C 
BRANCH  24  25
ATOM     25  C   UNL     1      -6.287   3.026   1.317  1.00  0.00     0.118 C 
BRANCH  25  26
ATOM     26  N   UNL     1      -7.269   4.007   0.828  1.00  0.00    -0.352 N 
ATOM     27  C   UNL     1      -8.190   4.738   1.554  1.00  0.00     0.251 C 
ATOM     28  H   UNL     1      -7.270   4.162  -0.144  1.00  0.00     0.163 HD
ATOM     29  O   UNL     1      -9.159   5.264   1.024  1.00  0.00    -0.269 OA
BRANCH  27  30
ATOM     30  C   UNL     1      -7.960   4.877   2.996  1.00  0.00     0.039 A 
ATOM     31  C   UNL     1      -8.966   4.617   3.929  1.00  0.00     0.014 A 
ATOM     32  C   UNL     1      -6.653   5.143   3.387  1.00  0.00     0.014 A 
ATOM     33  C   UNL     1      -8.612   4.521   5.271  1.00  0.00     0.010 A 
ATOM     34  C   UNL     1      -6.279   4.843   4.667  1.00  0.00     0.010 A 
ATOM     35  C   UNL     1      -7.256   4.603   5.626  1.00  0.00    -0.014 A 
BRANCH  35  36
ATOM     36  C   UNL     1      -6.804   4.314   6.980  1.00  0.00     0.031 A 
ATOM     37  C   UNL     1      -7.229   2.987   7.495  1.00  0.00     0.074 A 
ATOM     38  C   UNL     1      -5.877   5.067   7.610  1.00  0.00     0.049 A 
ATOM     39  N   UNL     1      -8.119   2.746   8.398  1.00  0.00    -0.248 NA
ATOM     40  C   UNL     1      -6.730   1.780   6.817  1.00  0.00     0.031 C 
ATOM     41  C   UNL     1      -5.120   6.207   7.075  1.00  0.00     0.029 A 
ATOM     42  N   UNL     1      -5.327   4.903   8.843  1.00  0.00    -0.354 N 
ATOM     43  C   UNL     1      -8.116   1.364   8.574  1.00  0.00     0.074 A 
ATOM     44  C   UNL     1      -7.438   0.825   7.427  1.00  0.00     0.031 C 
ATOM     45  C   UNL     1      -4.064   6.468   7.873  1.00  0.00     0.029 A 
ATOM     46  C   UNL     1      -4.174   5.649   9.063  1.00  0.00     0.049 A 
ATOM     47  H   UNL     1      -5.714   4.306   9.523  1.00  0.00     0.167 HD
ATOM     48  C   UNL     1      -8.387   0.832   9.801  1.00  0.00     0.037 A 
ATOM     49  C   UNL     1      -3.360   5.585  10.143  1.00  0.00     0.037 A 
ATOM     50  C   UNL     1      -8.996   1.831  10.654  1.00  0.00     0.049 A 
ATOM     51  C   UNL     1      -4.141   4.957  11.236  1.00  0.00     0.074 A 
ATOM     52  C   UNL     1     -10.130   2.619  10.601  1.00  0.00     0.029 A 
ATOM     53  N   UNL     1      -8.186   2.412  11.598  1.00  0.00    -0.354 N 
ATOM     54  N   UNL     1      -5.166   5.521  11.812  1.00  0.00    -0.248 NA
ATOM     55  C   UNL     1      -4.055   3.514  11.391  1.00  0.00     0.031 C 
ATOM     56  C   UNL     1      -9.746   3.868  11.180  1.00  0.00     0.029 A 
ATOM     57  C   UNL     1      -8.427   3.757  11.622  1.00  0.00     0.049 A 
ATOM     58  H   UNL     1      -7.537   1.937  12.166  1.00  0.00     0.167 HD
ATOM     59  C   UNL     1      -6.073   4.489  11.997  1.00  0.00     0.074 A 
ATOM     60  C   UNL     1      -5.288   3.267  11.838  1.00  0.00     0.031 C 
ATOM     61  C   UNL     1      -7.417   4.734  11.958  1.00  0.00     0.037 A 
BRANCH  48  62
ATOM     62  C   UNL     1      -7.683  -0.382  10.397  1.00  0.00     0.064 A 
ATOM     63  C   UNL     1      -8.023  -0.760  11.716  1.00  0.00     0.173 A 
ATOM     64  C   UNL     1      -6.489  -0.952   9.905  1.00  0.00     0.173 A 
ATOM     65  F   UNL     1      -9.152  -0.313  12.288  1.00  0.00    -0.203 F 
ATOM     66  C   UNL     1      -7.156  -1.501  12.524  1.00  0.00     0.198 A 
ATOM     67  C   UNL     1      -5.649  -1.732  10.700  1.00  0.00     0.198 A 
ATOM     68  F   UNL     1      -6.021  -0.714   8.678  1.00  0.00    -0.203 F 
ATOM     69  F   UNL     1      -7.449  -1.684  13.818  1.00  0.00    -0.200 F 
ATOM     70  C   UNL     1      -5.958  -1.966  12.021  1.00  0.00     0.200 A 
ATOM     71  F   UNL     1      -4.490  -2.174  10.192  1.00  0.00    -0.200 F 
ATOM     72  F   UNL     1      -5.084  -2.599  12.814  1.00  0.00    -0.200 F 
ENDBRANCH  48  62
BRANCH  49  73
ATOM     73  C   UNL     1      -1.893   5.779  10.224  1.00  0.00     0.064 A 
ATOM     74  C   UNL     1      -1.258   5.957  11.464  1.00  0.00     0.173 A 
ATOM     75  C   UNL     1      -1.056   5.506   9.125  1.00  0.00     0.173 A 
ATOM     76  F   UNL     1      -1.985   6.182  12.568  1.00  0.00    -0.203 F 
ATOM     77  C   UNL     1       0.128   5.828  11.604  1.00  0.00     0.198 A 
ATOM     78  C   UNL     1       0.328   5.385   9.265  1.00  0.00     0.198 A 
ATOM     79  F   UNL     1      -1.571   5.251   7.914  1.00  0.00    -0.203 F 
ATOM     80  F   UNL     1       0.689   5.931  12.817  1.00  0.00    -0.200 F 
ATOM     81  C   UNL     1       0.918   5.529  10.507  1.00  0.00     0.200 A 
ATOM     82  F   UNL     1       1.078   5.060   8.202  1.00  0.00    -0.200 F 
ATOM     83  F   UNL     1       2.236   5.337  10.653  1.00  0.00    -0.200 F 
ENDBRANCH  49  73
BRANCH  61  84
ATOM     84  C   UNL     1      -7.865   6.165  12.074  1.00  0.00     0.064 A 
ATOM     85  C   UNL     1      -7.560   7.176  11.145  1.00  0.00     0.173 A 
ATOM     86  C   UNL     1      -8.733   6.497  13.122  1.00  0.00     0.173 A 
ATOM     87  F   UNL     1      -6.818   6.920  10.062  1.00  0.00    -0.203 F 
ATOM     88  C   UNL     1      -8.060   8.469  11.294  1.00  0.00     0.198 A 
ATOM     89  C   UNL     1      -9.263   7.777  13.246  1.00  0.00     0.198 A 
ATOM     90  F   UNL     1      -9.101   5.559  14.010  1.00  0.00    -0.203 F 
ATOM     91  F   UNL     1      -7.735   9.422  10.408  1.00  0.00    -0.200 F 
ATOM     92  C   UNL     1      -8.915   8.766  12.341  1.00  0.00     0.200 A 
ATOM     93  F   UNL     1     -10.128   8.046  14.234  1.00  0.00    -0.200 F 
ATOM     94  F   UNL     1      -9.424  10.000  12.466  1.00  0.00    -0.200 F 
ENDBRANCH  61  84
ENDBRANCH  35  36
ENDBRANCH  27  30
ENDBRANCH  25  26
ENDBRANCH  24  25
ENDBRANCH   1  24
TORSDOF 15
