REMARK SMILES CN1C(=O)C[C@@H](C(=O)NCCCNC(=O)c2ccc(-c3c4nc(c(-c5c(F)c(F)c(F)c(F)c5F)c5ccc([nH]5)c(-c5c(F)c(F)c(F)c(F)c5F)c5nc(c(-c6c(F)c(F)c(F)c(F)c6F)c6ccc3[nH]6)C=C5)C=C4)cc2)C12CCN(c1ccc(Cl)cn1)CC2
REMARK SMILES IDX 11 1 10 2 9 3 7 4 8 5 6 7 1 8 2 9 3 10 79 11 4 12 5 13 80 14
REMARK SMILES IDX 91 15 81 16 90 17 82 18 83 19 84 20 89 21 85 22 88 23 86 24
REMARK SMILES IDX 87 25 12 26 13 27 14 28 15 30 16 31 17 32 78 33 18 34 77 35
REMARK SMILES IDX 19 36 20 37 21 38 71 39 22 40 76 41 70 42 72 43 23 44 75 45
REMARK SMILES IDX 69 46 68 47 24 49 56 50 36 51 55 52 37 53 40 54 54 55 73 56
REMARK SMILES IDX 38 57 39 58 53 60 74 61 41 62 25 63 26 64 34 65 27 66 28 67
REMARK SMILES IDX 32 68 35 69 29 70 30 71 33 72 31 73 57 74 58 75 66 76 59 77
REMARK SMILES IDX 60 78 64 79 67 80 61 81 62 82 65 83 63 84 42 85 43 86 51 87
REMARK SMILES IDX 44 88 45 89 49 90 52 91 46 92 47 93 50 94 48 95
REMARK H PARENT 9 6 13 29 72 48 40 59
REMARK Flexibility Score: inf
ROOT
ATOM      1  C   UNL     1      -1.324   1.573   2.620  1.00  0.00     0.042 C 
ENDROOT
BRANCH   1   2
ATOM      2  C   UNL     1      -0.859   0.350   3.409  1.00  0.00     0.117 C 
BRANCH   2   3
ATOM      3  N   UNL     1      -1.822  -0.741   3.416  1.00  0.00    -0.356 N 
ATOM      4  C   UNL     1      -1.847  -1.985   2.883  1.00  0.00     0.226 C 
ATOM      5  O   UNL     1      -2.853  -2.656   3.146  1.00  0.00    -0.275 OA
ATOM      6  H   UNL     1      -2.639  -0.526   3.922  1.00  0.00     0.163 HD
BRANCH   4   7
ATOM      7  C   UNL     1      -0.784  -2.590   1.970  1.00  0.00     0.113 C 
ATOM      8  C   UNL     1       1.034  -0.122  -0.164  1.00  0.00     0.147 C 
ATOM      9  N   UNL     1       0.612  -1.174   0.741  1.00  0.00    -0.339 N 
ATOM     10  C   UNL     1       1.377  -1.575   1.825  1.00  0.00     0.223 C 
ATOM     11  C   UNL     1      -0.608  -1.977   0.560  1.00  0.00     0.058 C 
ATOM     12  O   UNL     1       2.470  -1.134   2.148  1.00  0.00    -0.275 OA
ATOM     13  C   UNL     1       0.613  -2.618   2.592  1.00  0.00     0.116 C 
ATOM     14  C   UNL     1      -1.813  -1.143   0.069  1.00  0.00     0.051 C 
ATOM     15  C   UNL     1      -0.294  -3.106  -0.479  1.00  0.00     0.051 C 
ATOM     16  C   UNL     1      -2.997  -2.008  -0.329  1.00  0.00     0.120 C 
ATOM     17  C   UNL     1      -1.532  -3.887  -0.947  1.00  0.00     0.120 C 
ATOM     18  N   UNL     1      -2.523  -2.911  -1.355  1.00  0.00    -0.356 N 
BRANCH  18  19
ATOM     19  C   UNL     1      -3.280  -3.094  -2.488  1.00  0.00     0.128 A 
ATOM     20  C   UNL     1      -3.603  -1.985  -3.277  1.00  0.00     0.048 A 
ATOM     21  N   UNL     1      -3.681  -4.334  -2.829  1.00  0.00    -0.238 NA
ATOM     22  C   UNL     1      -4.368  -2.140  -4.430  1.00  0.00     0.026 A 
ATOM     23  C   UNL     1      -4.454  -4.461  -3.939  1.00  0.00     0.134 A 
ATOM     24  C   UNL     1      -4.815  -3.406  -4.761  1.00  0.00     0.059 A 
ATOM     25  Cl  UNL     1      -5.784  -3.651  -6.155  1.00  0.00    -0.083 Cl
ENDBRANCH  18  19
ENDBRANCH   4   7
ENDBRANCH   2   3
ENDBRANCH   1   2
BRANCH   1  26
ATOM     26  C   UNL     1      -2.584   2.219   3.182  1.00  0.00     0.118 C 
BRANCH  26  27
ATOM     27  N   UNL     1      -2.316   2.909   4.434  1.00  0.00    -0.352 N 
ATOM     28  C   UNL     1      -2.148   4.252   4.674  1.00  0.00     0.251 C 
ATOM     29  H   UNL     1      -2.244   2.329   5.227  1.00  0.00     0.163 HD
ATOM     30  O   UNL     1      -1.630   4.627   5.721  1.00  0.00    -0.269 OA
BRANCH  28  31
ATOM     31  C   UNL     1      -2.578   5.245   3.667  1.00  0.00     0.039 A 
ATOM     32  C   UNL     1      -1.750   6.337   3.389  1.00  0.00     0.014 A 
ATOM     33  C   UNL     1      -3.804   5.113   3.012  1.00  0.00     0.014 A 
ATOM     34  C   UNL     1      -2.116   7.248   2.395  1.00  0.00     0.010 A 
ATOM     35  C   UNL     1      -4.129   5.973   1.968  1.00  0.00     0.010 A 
ATOM     36  C   UNL     1      -3.284   7.045   1.643  1.00  0.00    -0.014 A 
BRANCH  36  37
ATOM     37  C   UNL     1      -3.630   7.915   0.490  1.00  0.00     0.031 A 
ATOM     38  C   UNL     1      -4.895   8.726   0.504  1.00  0.00     0.074 A 
ATOM     39  C   UNL     1      -2.850   7.899  -0.608  1.00  0.00     0.049 A 
ATOM     40  N   UNL     1      -5.430   9.443  -0.451  1.00  0.00    -0.248 NA
ATOM     41  C   UNL     1      -5.676   8.707   1.751  1.00  0.00     0.031 C 
ATOM     42  C   UNL     1      -1.614   7.128  -0.755  1.00  0.00     0.029 A 
ATOM     43  N   UNL     1      -2.989   8.534  -1.817  1.00  0.00    -0.354 N 
ATOM     44  C   UNL     1      -6.612   9.949   0.074  1.00  0.00     0.074 A 
ATOM     45  C   UNL     1      -6.744   9.414   1.412  1.00  0.00     0.031 C 
ATOM     46  C   UNL     1      -1.101   7.347  -1.975  1.00  0.00     0.029 A 
ATOM     47  C   UNL     1      -1.996   8.229  -2.717  1.00  0.00     0.049 A 
ATOM     48  H   UNL     1      -3.729   9.150  -2.021  1.00  0.00     0.167 HD
ATOM     49  C   UNL     1      -7.495  10.799  -0.503  1.00  0.00     0.037 A 
ATOM     50  C   UNL     1      -1.837   8.599  -4.002  1.00  0.00     0.037 A 
ATOM     51  C   UNL     1      -7.351  11.336  -1.831  1.00  0.00     0.049 A 
ATOM     52  C   UNL     1      -2.862   9.499  -4.638  1.00  0.00     0.074 A 
ATOM     53  C   UNL     1      -8.157  12.252  -2.484  1.00  0.00     0.029 A 
ATOM     54  N   UNL     1      -6.336  10.995  -2.715  1.00  0.00    -0.354 N 
ATOM     55  N   UNL     1      -3.938  10.028  -4.109  1.00  0.00    -0.248 NA
ATOM     56  C   UNL     1      -2.654   9.848  -6.050  1.00  0.00     0.031 C 
ATOM     57  C   UNL     1      -7.668  12.416  -3.784  1.00  0.00     0.029 A 
ATOM     58  C   UNL     1      -6.522  11.650  -3.923  1.00  0.00     0.049 A 
ATOM     59  H   UNL     1      -5.595  10.379  -2.514  1.00  0.00     0.167 HD
ATOM     60  C   UNL     1      -4.523  10.787  -5.113  1.00  0.00     0.074 A 
ATOM     61  C   UNL     1      -3.672  10.666  -6.278  1.00  0.00     0.031 C 
ATOM     62  C   UNL     1      -5.665  11.516  -5.074  1.00  0.00     0.037 A 
BRANCH  49  63
ATOM     63  C   UNL     1      -8.704  11.197   0.296  1.00  0.00     0.064 A 
ATOM     64  C   UNL     1      -8.600  12.010   1.436  1.00  0.00     0.173 A 
ATOM     65  C   UNL     1      -9.987  10.791  -0.102  1.00  0.00     0.173 A 
ATOM     66  F   UNL     1      -7.397  12.419   1.866  1.00  0.00    -0.203 F 
ATOM     67  C   UNL     1      -9.731  12.372   2.164  1.00  0.00     0.198 A 
ATOM     68  C   UNL     1     -11.118  11.184   0.609  1.00  0.00     0.198 A 
ATOM     69  F   UNL     1     -10.146  10.020  -1.189  1.00  0.00    -0.203 F 
ATOM     70  F   UNL     1      -9.600  13.103   3.280  1.00  0.00    -0.200 F 
ATOM     71  C   UNL     1     -10.988  11.965   1.746  1.00  0.00     0.200 A 
ATOM     72  F   UNL     1     -12.334  10.803   0.194  1.00  0.00    -0.200 F 
ATOM     73  F   UNL     1     -12.076  12.321   2.445  1.00  0.00    -0.200 F 
ENDBRANCH  49  63
BRANCH  50  74
ATOM     74  C   UNL     1      -0.661   8.116  -4.774  1.00  0.00     0.064 A 
ATOM     75  C   UNL     1       0.343   9.003  -5.184  1.00  0.00     0.173 A 
ATOM     76  C   UNL     1      -0.514   6.763  -5.115  1.00  0.00     0.173 A 
ATOM     77  F   UNL     1       0.239  10.309  -4.901  1.00  0.00    -0.203 F 
ATOM     78  C   UNL     1       1.439   8.559  -5.922  1.00  0.00     0.198 A 
ATOM     79  C   UNL     1       0.598   6.315  -5.825  1.00  0.00     0.198 A 
ATOM     80  F   UNL     1      -1.444   5.870  -4.743  1.00  0.00    -0.203 F 
ATOM     81  F   UNL     1       2.361   9.437  -6.341  1.00  0.00    -0.200 F 
ATOM     82  C   UNL     1       1.569   7.215  -6.236  1.00  0.00     0.200 A 
ATOM     83  F   UNL     1       0.727   5.012  -6.110  1.00  0.00    -0.200 F 
ATOM     84  F   UNL     1       2.627   6.787  -6.939  1.00  0.00    -0.200 F 
ENDBRANCH  50  74
BRANCH  62  85
ATOM     85  C   UNL     1      -6.059  12.253  -6.322  1.00  0.00     0.064 A 
ATOM     86  C   UNL     1      -6.545  11.576  -7.450  1.00  0.00     0.173 A 
ATOM     87  C   UNL     1      -6.011  13.655  -6.368  1.00  0.00     0.173 A 
ATOM     88  F   UNL     1      -6.594  10.235  -7.464  1.00  0.00    -0.203 F 
ATOM     89  C   UNL     1      -6.955  12.274  -8.583  1.00  0.00     0.198 A 
ATOM     90  C   UNL     1      -6.451  14.351  -7.489  1.00  0.00     0.198 A 
ATOM     91  F   UNL     1      -5.559  14.350  -5.314  1.00  0.00    -0.203 F 
ATOM     92  F   UNL     1      -7.379  11.605  -9.664  1.00  0.00    -0.200 F 
ATOM     93  C   UNL     1      -6.918  13.661  -8.597  1.00  0.00     0.200 A 
ATOM     94  F   UNL     1      -6.430  15.691  -7.495  1.00  0.00    -0.200 F 
ATOM     95  F   UNL     1      -7.330  14.332  -9.682  1.00  0.00    -0.200 F 
ENDBRANCH  62  85
ENDBRANCH  36  37
ENDBRANCH  28  31
ENDBRANCH  26  27
ENDBRANCH   1  26
TORSDOF 11
