REMARK SMILES [NH3+]Cc1ccc(C(=O)N2[C@@H](C(=O)NCCCNC(=O)c3ccc(-c4c5nc(c(-c6c(F)c(F)c(F)c(F)c6F)c6ccc([nH]6)c(-c6c(F)c(F)c(F)c(F)c6F)c6nc(c(-c7c(F)c(F)c(F)c(F)c7F)c7ccc4[nH]7)C=C6)C=C5)cc3)C[C@H]3CCCC[C@@H]32)o1
REMARK SMILES IDX 14 1 13 2 11 3 12 4 10 6 9 7 89 8 83 9 84 10 88 11 85 12
REMARK SMILES IDX 87 13 86 14 7 15 8 16 6 17 3 18 4 19 90 20 5 21 2 22 1 23
REMARK SMILES IDX 15 27 16 28 17 29 18 30 19 32 20 33 21 34 82 35 22 36 81 37
REMARK SMILES IDX 23 38 24 39 25 40 75 41 26 42 80 43 74 44 76 45 27 46 79 47
REMARK SMILES IDX 73 48 72 49 28 51 60 52 40 53 59 54 41 55 44 56 58 57 77 58
REMARK SMILES IDX 42 59 43 60 57 62 78 63 45 64 29 65 30 66 38 67 31 68 32 69
REMARK SMILES IDX 36 70 39 71 33 72 34 73 37 74 35 75 61 76 62 77 70 78 63 79
REMARK SMILES IDX 64 80 68 81 71 82 65 83 66 84 69 85 67 86 46 87 47 88 55 89
REMARK SMILES IDX 48 90 49 91 53 92 56 93 50 94 51 95 54 96 52 97
REMARK H PARENT 13 5 1 24 1 25 1 26 17 31 76 50 44 61
REMARK Flexibility Score: inf
ROOT
ATOM      1  C   UNL     1      -1.051   4.832   7.897  1.00  0.00     0.117 C 
ENDROOT
BRANCH   1   2
ATOM      2  N   UNL     1      -0.405   3.541   8.052  1.00  0.00    -0.354 N 
ATOM      3  C   UNL     1       0.746   3.056   7.496  1.00  0.00     0.242 C 
ATOM      4  O   UNL     1       1.091   1.919   7.821  1.00  0.00    -0.273 OA
ATOM      5  H   UNL     1      -0.870   2.914   8.653  1.00  0.00     0.163 HD
BRANCH   3   6
ATOM      6  C   UNL     1       1.560   3.936   6.520  1.00  0.00     0.175 C 
ATOM      7  N   UNL     1       2.728   3.209   5.970  1.00  0.00    -0.321 N 
ATOM      8  C   UNL     1       3.942   3.665   6.621  1.00  0.00     0.089 C 
ATOM      9  C   UNL     1       2.183   5.111   7.310  1.00  0.00     0.041 C 
ATOM     10  C   UNL     1       3.617   5.146   6.812  1.00  0.00     0.014 C 
ATOM     11  C   UNL     1       5.285   3.548   5.899  1.00  0.00     0.025 C 
ATOM     12  C   UNL     1       4.637   5.827   7.703  1.00  0.00     0.006 C 
ATOM     13  C   UNL     1       6.376   4.252   6.715  1.00  0.00     0.002 C 
ATOM     14  C   UNL     1       6.023   5.701   7.064  1.00  0.00     0.000 C 
BRANCH   7  15
ATOM     15  C   UNL     1       2.703   2.083   5.156  1.00  0.00     0.290 C 
ATOM     16  O   UNL     1       3.637   1.281   5.175  1.00  0.00    -0.265 OA
BRANCH  15  17
ATOM     17  C   UNL     1       1.604   1.926   4.219  1.00  0.00     0.192 A 
ATOM     18  C   UNL     1       0.407   0.746   2.784  1.00  0.00     0.159 A 
ATOM     19  C   UNL     1      -0.021   2.048   2.659  1.00  0.00     0.052 A 
ATOM     20  O   UNL     1       1.385   0.666   3.724  1.00  0.00    -0.450 OA
ATOM     21  C   UNL     1       0.757   2.807   3.567  1.00  0.00     0.057 A 
BRANCH  18  22
ATOM     22  C   UNL     1       0.065  -0.519   2.089  1.00  0.00     0.335 C 
BRANCH  22  23
ATOM     23  N   UNL     1       0.915  -0.710   0.915  1.00  0.00    -0.351 N 
ATOM     24  H   UNL     1       0.664  -1.584   0.453  1.00  0.00     0.344 HD
ATOM     25  H   UNL     1       1.892  -0.748   1.205  1.00  0.00     0.344 HD
ATOM     26  H   UNL     1       0.781   0.067   0.269  1.00  0.00     0.344 HD
ENDBRANCH  22  23
ENDBRANCH  18  22
ENDBRANCH  15  17
ENDBRANCH   7  15
ENDBRANCH   3   6
ENDBRANCH   1   2
BRANCH   1  27
ATOM     27  C   UNL     1      -2.509   4.702   7.467  1.00  0.00     0.042 C 
BRANCH  27  28
ATOM     28  C   UNL     1      -3.422   4.031   8.492  1.00  0.00     0.118 C 
BRANCH  28  29
ATOM     29  N   UNL     1      -3.631   4.843   9.682  1.00  0.00    -0.352 N 
ATOM     30  C   UNL     1      -4.801   5.313  10.230  1.00  0.00     0.251 C 
ATOM     31  H   UNL     1      -2.812   5.093  10.167  1.00  0.00     0.163 HD
ATOM     32  O   UNL     1      -4.765   6.112  11.161  1.00  0.00    -0.269 OA
BRANCH  30  33
ATOM     33  C   UNL     1      -6.107   4.886   9.687  1.00  0.00     0.039 A 
ATOM     34  C   UNL     1      -7.061   5.863   9.385  1.00  0.00     0.014 A 
ATOM     35  C   UNL     1      -6.401   3.533   9.490  1.00  0.00     0.014 A 
ATOM     36  C   UNL     1      -8.277   5.493   8.803  1.00  0.00     0.010 A 
ATOM     37  C   UNL     1      -7.601   3.167   8.881  1.00  0.00     0.010 A 
ATOM     38  C   UNL     1      -8.537   4.146   8.514  1.00  0.00    -0.014 A 
BRANCH  38  39
ATOM     39  C   UNL     1      -9.752   3.739   7.768  1.00  0.00     0.031 A 
ATOM     40  C   UNL     1     -10.864   3.009   8.457  1.00  0.00     0.074 A 
ATOM     41  C   UNL     1      -9.810   3.956   6.441  1.00  0.00     0.049 A 
ATOM     42  N   UNL     1     -11.911   2.422   7.935  1.00  0.00    -0.248 NA
ATOM     43  C   UNL     1     -10.782   2.913   9.921  1.00  0.00     0.031 C 
ATOM     44  C   UNL     1      -8.790   4.646   5.650  1.00  0.00     0.029 A 
ATOM     45  N   UNL     1     -10.762   3.597   5.519  1.00  0.00    -0.354 N 
ATOM     46  C   UNL     1     -12.593   1.853   9.000  1.00  0.00     0.074 A 
ATOM     47  C   UNL     1     -11.850   2.176  10.201  1.00  0.00     0.031 C 
ATOM     48  C   UNL     1      -9.171   4.663   4.362  1.00  0.00     0.029 A 
ATOM     49  C   UNL     1     -10.442   3.955   4.234  1.00  0.00     0.049 A 
ATOM     50  H   UNL     1     -11.594   3.128   5.758  1.00  0.00     0.167 HD
ATOM     51  C   UNL     1     -13.733   1.123   8.975  1.00  0.00     0.037 A 
ATOM     52  C   UNL     1     -11.085   3.714   3.078  1.00  0.00     0.037 A 
ATOM     53  C   UNL     1     -14.502   0.836   7.794  1.00  0.00     0.049 A 
ATOM     54  C   UNL     1     -12.348   2.907   3.079  1.00  0.00     0.074 A 
ATOM     55  C   UNL     1     -15.706   0.161   7.688  1.00  0.00     0.029 A 
ATOM     56  N   UNL     1     -14.143   1.215   6.510  1.00  0.00    -0.354 N 
ATOM     57  N   UNL     1     -12.980   2.368   4.091  1.00  0.00    -0.248 NA
ATOM     58  C   UNL     1     -12.975   2.656   1.773  1.00  0.00     0.031 C 
ATOM     59  C   UNL     1     -16.070   0.120   6.336  1.00  0.00     0.029 A 
ATOM     60  C   UNL     1     -15.095   0.777   5.604  1.00  0.00     0.049 A 
ATOM     61  H   UNL     1     -13.331   1.721   6.277  1.00  0.00     0.167 HD
ATOM     62  C   UNL     1     -14.073   1.708   3.548  1.00  0.00     0.074 A 
ATOM     63  C   UNL     1     -14.025   1.922   2.116  1.00  0.00     0.031 C 
ATOM     64  C   UNL     1     -15.026   0.987   4.183  1.00  0.00     0.037 A 
BRANCH  51  65
ATOM     65  C   UNL     1     -14.210   0.565  10.276  1.00  0.00     0.064 A 
ATOM     66  C   UNL     1     -15.046   1.303  11.123  1.00  0.00     0.173 A 
ATOM     67  C   UNL     1     -13.853  -0.735  10.661  1.00  0.00     0.173 A 
ATOM     68  F   UNL     1     -15.403   2.554  10.796  1.00  0.00    -0.203 F 
ATOM     69  C   UNL     1     -15.505   0.759  12.319  1.00  0.00     0.198 A 
ATOM     70  C   UNL     1     -14.319  -1.278  11.854  1.00  0.00     0.198 A 
ATOM     71  F   UNL     1     -13.048  -1.473   9.882  1.00  0.00    -0.203 F 
ATOM     72  F   UNL     1     -16.294   1.484  13.125  1.00  0.00    -0.200 F 
ATOM     73  C   UNL     1     -15.144  -0.531  12.682  1.00  0.00     0.200 A 
ATOM     74  F   UNL     1     -13.966  -2.522  12.207  1.00  0.00    -0.200 F 
ATOM     75  F   UNL     1     -15.586  -1.052  13.835  1.00  0.00    -0.200 F 
ENDBRANCH  51  65
BRANCH  52  76
ATOM     76  C   UNL     1     -10.516   4.224   1.811  1.00  0.00     0.064 A 
ATOM     77  C   UNL     1     -10.950   5.441   1.271  1.00  0.00     0.173 A 
ATOM     78  C   UNL     1      -9.512   3.518   1.135  1.00  0.00     0.173 A 
ATOM     79  F   UNL     1     -11.915   6.140   1.884  1.00  0.00    -0.203 F 
ATOM     80  C   UNL     1     -10.397   5.936   0.092  1.00  0.00     0.198 A 
ATOM     81  C   UNL     1      -8.956   4.018  -0.040  1.00  0.00     0.198 A 
ATOM     82  F   UNL     1      -9.072   2.349   1.620  1.00  0.00    -0.203 F 
ATOM     83  F   UNL     1     -10.832   7.098  -0.414  1.00  0.00    -0.200 F 
ATOM     84  C   UNL     1      -9.399   5.226  -0.560  1.00  0.00     0.200 A 
ATOM     85  F   UNL     1      -7.990   3.333  -0.666  1.00  0.00    -0.200 F 
ATOM     86  F   UNL     1      -8.865   5.704  -1.692  1.00  0.00    -0.200 F 
ENDBRANCH  52  76
BRANCH  64  87
ATOM     87  C   UNL     1     -16.088   0.368   3.330  1.00  0.00     0.064 A 
ATOM     88  C   UNL     1     -15.906  -0.903   2.769  1.00  0.00     0.173 A 
ATOM     89  C   UNL     1     -17.297   1.034   3.092  1.00  0.00     0.173 A 
ATOM     90  F   UNL     1     -14.758  -1.568   2.961  1.00  0.00    -0.203 F 
ATOM     91  C   UNL     1     -16.902  -1.486   1.991  1.00  0.00     0.198 A 
ATOM     92  C   UNL     1     -18.293   0.446   2.317  1.00  0.00     0.198 A 
ATOM     93  F   UNL     1     -17.507   2.257   3.603  1.00  0.00    -0.203 F 
ATOM     94  F   UNL     1     -16.706  -2.695   1.448  1.00  0.00    -0.200 F 
ATOM     95  C   UNL     1     -18.095  -0.812   1.767  1.00  0.00     0.200 A 
ATOM     96  F   UNL     1     -19.442   1.100   2.095  1.00  0.00    -0.200 F 
ATOM     97  F   UNL     1     -19.050  -1.372   1.012  1.00  0.00    -0.200 F 
ENDBRANCH  64  87
ENDBRANCH  38  39
ENDBRANCH  30  33
ENDBRANCH  28  29
ENDBRANCH  27  28
ENDBRANCH   1  27
TORSDOF 14
