REMARK SMILES O=C(NCCCNC(=O)[C@@]1(Cc2cn3ccccc3n2)CCC[NH2+]C1)c1ccc(-c2c3nc(c(-c4c(F)c(F)c(F)c(F)c4F)c4ccc([nH]4)c(-c4c(F)c(F)c(F)c(F)c4F)c4nc(c(-c5c(F)c(F)c(F)c(F)c5F)c5ccc2[nH]5)C=C4)C=C3)cc1
REMARK SMILES IDX 5 1 4 2 3 3 1 4 2 5 26 7 27 8 88 9 28 10 87 11 29 12 30 13
REMARK SMILES IDX 31 14 81 15 32 16 86 17 80 18 82 19 33 20 85 21 79 22 78 23
REMARK SMILES IDX 34 25 66 26 46 27 65 28 47 29 50 30 64 31 83 32 48 33 49 34
REMARK SMILES IDX 63 36 84 37 51 38 35 39 36 40 44 41 37 42 38 43 42 44 45 45
REMARK SMILES IDX 39 46 40 47 43 48 41 49 67 50 68 51 76 52 69 53 70 54 74 55
REMARK SMILES IDX 77 56 71 57 72 58 75 59 73 60 52 61 53 62 61 63 54 64 55 65
REMARK SMILES IDX 59 66 62 67 56 68 57 69 60 70 58 71 6 72 7 73 8 74 9 76
REMARK SMILES IDX 10 77 21 78 25 79 22 80 24 81 23 82 11 85 12 86 13 87 20 88
REMARK SMILES IDX 14 89 19 90 15 91 18 92 16 93 17 94
REMARK H PARENT 3 6 82 24 50 35 7 75 24 83 24 84
REMARK Flexibility Score: inf
ROOT
ATOM      1  C   UNL     1       4.199  -3.681  -0.230  1.00  0.00     0.042 C 
ENDROOT
BRANCH   1   2
ATOM      2  C   UNL     1       4.737  -3.379   1.158  1.00  0.00     0.118 C 
BRANCH   2   3
ATOM      3  N   UNL     1       4.598  -1.972   1.518  1.00  0.00    -0.352 N 
ATOM      4  O   UNL     1       3.630  -0.104   2.317  1.00  0.00    -0.269 OA
ATOM      5  C   UNL     1       3.687  -1.331   2.323  1.00  0.00     0.251 C 
ATOM      6  H   UNL     1       5.272  -1.380   1.114  1.00  0.00     0.163 HD
BRANCH   5   7
ATOM      7  C   UNL     1       2.755  -2.102   3.174  1.00  0.00     0.039 A 
ATOM      8  C   UNL     1       3.171  -3.266   3.815  1.00  0.00     0.014 A 
ATOM      9  C   UNL     1       1.446  -1.644   3.357  1.00  0.00     0.014 A 
ATOM     10  C   UNL     1       2.240  -4.082   4.441  1.00  0.00     0.010 A 
ATOM     11  C   UNL     1       0.540  -2.399   4.111  1.00  0.00     0.010 A 
ATOM     12  C   UNL     1       0.916  -3.651   4.618  1.00  0.00    -0.014 A 
BRANCH  12  13
ATOM     13  C   UNL     1      -0.023  -4.522   5.374  1.00  0.00     0.031 A 
ATOM     14  C   UNL     1      -1.270  -5.069   4.734  1.00  0.00     0.074 A 
ATOM     15  C   UNL     1       0.295  -4.869   6.638  1.00  0.00     0.049 A 
ATOM     16  N   UNL     1      -2.162  -5.888   5.234  1.00  0.00    -0.248 NA
ATOM     17  C   UNL     1      -1.564  -4.636   3.360  1.00  0.00     0.031 C 
ATOM     18  C   UNL     1       1.470  -4.390   7.371  1.00  0.00     0.029 A 
ATOM     19  N   UNL     1      -0.313  -5.728   7.516  1.00  0.00    -0.354 N 
ATOM     20  C   UNL     1      -3.134  -6.041   4.254  1.00  0.00     0.074 A 
ATOM     21  C   UNL     1      -2.737  -5.213   3.136  1.00  0.00     0.031 C 
ATOM     22  C   UNL     1       1.540  -5.018   8.552  1.00  0.00     0.029 A 
ATOM     23  C   UNL     1       0.377  -5.884   8.694  1.00  0.00     0.049 A 
ATOM     24  H   UNL     1      -1.161  -6.189   7.322  1.00  0.00     0.167 HD
ATOM     25  C   UNL     1      -4.251  -6.808   4.285  1.00  0.00     0.037 A 
ATOM     26  C   UNL     1       0.100  -6.634   9.776  1.00  0.00     0.037 A 
ATOM     27  C   UNL     1      -4.624  -7.655   5.389  1.00  0.00     0.049 A 
ATOM     28  C   UNL     1      -1.145  -7.471   9.780  1.00  0.00     0.074 A 
ATOM     29  C   UNL     1      -5.712  -8.504   5.498  1.00  0.00     0.029 A 
ATOM     30  N   UNL     1      -3.917  -7.760   6.579  1.00  0.00    -0.354 N 
ATOM     31  N   UNL     1      -2.036  -7.632   8.833  1.00  0.00    -0.248 NA
ATOM     32  C   UNL     1      -1.424  -8.229  11.006  1.00  0.00     0.031 C 
ATOM     33  C   UNL     1      -5.691  -9.084   6.771  1.00  0.00     0.029 A 
ATOM     34  C   UNL     1      -4.559  -8.642   7.436  1.00  0.00     0.049 A 
ATOM     35  H   UNL     1      -3.083  -7.279   6.785  1.00  0.00     0.167 HD
ATOM     36  C   UNL     1      -2.970  -8.524   9.338  1.00  0.00     0.074 A 
ATOM     37  C   UNL     1      -2.524  -8.886  10.668  1.00  0.00     0.031 C 
ATOM     38  C   UNL     1      -4.098  -8.997   8.754  1.00  0.00     0.037 A 
BRANCH  25  39
ATOM     39  C   UNL     1      -5.170  -6.752   3.097  1.00  0.00     0.064 A 
ATOM     40  C   UNL     1      -4.823  -7.319   1.861  1.00  0.00     0.173 A 
ATOM     41  C   UNL     1      -6.437  -6.159   3.211  1.00  0.00     0.173 A 
ATOM     42  F   UNL     1      -3.620  -7.888   1.693  1.00  0.00    -0.203 F 
ATOM     43  C   UNL     1      -5.699  -7.270   0.778  1.00  0.00     0.198 A 
ATOM     44  C   UNL     1      -7.322  -6.138   2.136  1.00  0.00     0.198 A 
ATOM     45  F   UNL     1      -6.824  -5.608   4.372  1.00  0.00    -0.203 F 
ATOM     46  F   UNL     1      -5.326  -7.776  -0.406  1.00  0.00    -0.200 F 
ATOM     47  C   UNL     1      -6.949  -6.686   0.918  1.00  0.00     0.200 A 
ATOM     48  F   UNL     1      -8.534  -5.585   2.277  1.00  0.00    -0.200 F 
ATOM     49  F   UNL     1      -7.793  -6.647  -0.122  1.00  0.00    -0.200 F 
ENDBRANCH  25  39
BRANCH  26  50
ATOM     50  C   UNL     1       1.026  -6.625  10.939  1.00  0.00     0.064 A 
ATOM     51  C   UNL     1       1.770  -7.763  11.276  1.00  0.00     0.173 A 
ATOM     52  C   UNL     1       1.194  -5.477  11.728  1.00  0.00     0.173 A 
ATOM     53  F   UNL     1       1.631  -8.890  10.562  1.00  0.00    -0.203 F 
ATOM     54  C   UNL     1       2.634  -7.760  12.369  1.00  0.00     0.198 A 
ATOM     55  C   UNL     1       2.083  -5.464  12.800  1.00  0.00     0.198 A 
ATOM     56  F   UNL     1       0.510  -4.359  11.442  1.00  0.00    -0.203 F 
ATOM     57  F   UNL     1       3.302  -8.874  12.696  1.00  0.00    -0.200 F 
ATOM     58  C   UNL     1       2.796  -6.608  13.125  1.00  0.00     0.200 A 
ATOM     59  F   UNL     1       2.250  -4.344  13.515  1.00  0.00    -0.200 F 
ATOM     60  F   UNL     1       3.634  -6.602  14.170  1.00  0.00    -0.200 F 
ENDBRANCH  26  50
BRANCH  38  61
ATOM     61  C   UNL     1      -4.902  -9.992   9.537  1.00  0.00     0.064 A 
ATOM     62  C   UNL     1      -5.639  -9.618  10.671  1.00  0.00     0.173 A 
ATOM     63  C   UNL     1      -4.944 -11.338   9.141  1.00  0.00     0.173 A 
ATOM     64  F   UNL     1      -5.616  -8.347  11.101  1.00  0.00    -0.203 F 
ATOM     65  C   UNL     1      -6.361 -10.560  11.398  1.00  0.00     0.198 A 
ATOM     66  C   UNL     1      -5.693 -12.271   9.851  1.00  0.00     0.198 A 
ATOM     67  F   UNL     1      -4.262 -11.746   8.060  1.00  0.00    -0.203 F 
ATOM     68  F   UNL     1      -7.009 -10.191  12.511  1.00  0.00    -0.200 F 
ATOM     69  C   UNL     1      -6.392 -11.884  10.985  1.00  0.00     0.200 A 
ATOM     70  F   UNL     1      -5.731 -13.547   9.444  1.00  0.00    -0.200 F 
ATOM     71  F   UNL     1      -7.087 -12.790  11.686  1.00  0.00    -0.200 F 
ENDBRANCH  38  61
ENDBRANCH  12  13
ENDBRANCH   5   7
ENDBRANCH   2   3
ENDBRANCH   1   2
BRANCH   1  72
ATOM     72  C   UNL     1       5.062  -3.090  -1.332  1.00  0.00     0.117 C 
BRANCH  72  73
ATOM     73  N   UNL     1       6.360  -3.749  -1.428  1.00  0.00    -0.355 N 
ATOM     74  C   UNL     1       6.924  -4.528  -2.399  1.00  0.00     0.232 C 
ATOM     75  H   UNL     1       6.939  -3.607  -0.645  1.00  0.00     0.163 HD
ATOM     76  O   UNL     1       8.077  -4.909  -2.184  1.00  0.00    -0.274 OA
BRANCH  74  77
ATOM     77  C   UNL     1       6.157  -4.904  -3.685  1.00  0.00     0.104 C 
ATOM     78  C   UNL     1       7.064  -5.813  -4.570  1.00  0.00     0.029 C 
ATOM     79  C   UNL     1       4.953  -5.773  -3.236  1.00  0.00     0.277 C 
ATOM     80  C   UNL     1       6.283  -6.535  -5.667  1.00  0.00     0.063 C 
ATOM     81  N   UNL     1       4.238  -6.501  -4.287  1.00  0.00    -0.345 N 
ATOM     82  C   UNL     1       5.134  -7.341  -5.076  1.00  0.00     0.260 C 
ATOM     83  H   UNL     1       3.528  -7.092  -3.855  1.00  0.00     0.346 HD
ATOM     84  H   UNL     1       3.815  -5.816  -4.914  1.00  0.00     0.346 HD
BRANCH  77  85
ATOM     85  C   UNL     1       5.915  -3.562  -4.429  1.00  0.00     0.080 C 
BRANCH  85  86
ATOM     86  C   UNL     1       4.843  -3.468  -5.451  1.00  0.00     0.061 A 
ATOM     87  C   UNL     1       3.476  -3.607  -5.328  1.00  0.00     0.116 A 
ATOM     88  N   UNL     1       5.172  -3.053  -6.722  1.00  0.00    -0.234 NA
ATOM     89  N   UNL     1       2.962  -3.336  -6.569  1.00  0.00    -0.307 N 
ATOM     90  C   UNL     1       4.035  -2.978  -7.375  1.00  0.00     0.136 A 
ATOM     91  C   UNL     1       1.643  -3.367  -7.012  1.00  0.00     0.093 A 
ATOM     92  C   UNL     1       3.744  -2.596  -8.713  1.00  0.00     0.048 A 
ATOM     93  C   UNL     1       1.373  -3.022  -8.283  1.00  0.00     0.018 A 
ATOM     94  C   UNL     1       2.470  -2.615  -9.151  1.00  0.00     0.005 A 
ENDBRANCH  85  86
ENDBRANCH  77  85
ENDBRANCH  74  77
ENDBRANCH  72  73
ENDBRANCH   1  72
TORSDOF 12
