REMARK SMILES CC(C)c1ccc(C(=O)NNC(=O)[C@@H]2CC=CC[C@@H]2C(=O)NCCCNC(=O)c2ccc(-c3c4nc(c(-c5c(F)c(F)c(F)c(F)c5F)c5ccc([nH]5)c(-c5c(F)c(F)c(F)c(F)c5F)c5nc(c(-c6c(F)c(F)c(F)c(F)c6F)c6ccc3[nH]6)C=C5)C=C4)cc2)cc1
REMARK SMILES IDX 23 1 22 2 20 3 21 4 19 6 14 7 15 8 16 9 18 10 17 11 12 12
REMARK SMILES IDX 11 13 13 15 10 16 8 17 9 18 7 20 4 21 5 22 93 23 6 24 92 25
REMARK SMILES IDX 2 26 1 27 3 28 24 29 25 30 26 31 27 32 28 34 29 35 30 36
REMARK SMILES IDX 91 37 31 38 90 39 32 40 33 41 34 42 84 43 35 44 89 45 83 46
REMARK SMILES IDX 85 47 36 48 88 49 82 50 81 51 37 53 69 54 49 55 68 56 50 57
REMARK SMILES IDX 53 58 67 59 86 60 51 61 52 62 66 64 87 65 54 66 38 67 39 68
REMARK SMILES IDX 47 69 40 70 41 71 45 72 48 73 42 74 43 75 46 76 44 77 70 78
REMARK SMILES IDX 71 79 79 80 72 81 73 82 77 83 80 84 74 85 75 86 78 87 76 88
REMARK SMILES IDX 55 89 56 90 64 91 57 92 58 93 62 94 65 95 59 96 60 97 63 98
REMARK SMILES IDX 61 99
REMARK H PARENT 22 5 11 14 10 19 26 33 85 52 53 63
REMARK Flexibility Score: inf
ROOT
ATOM      1  C   UNL     1      -9.425  -9.044  -1.865  1.00  0.00     0.117 C 
ENDROOT
BRANCH   1   2
ATOM      2  N   UNL     1     -10.075  -7.761  -1.658  1.00  0.00    -0.356 N 
ATOM      3  C   UNL     1      -9.539  -6.552  -1.324  1.00  0.00     0.224 C 
ATOM      4  O   UNL     1     -10.312  -5.620  -1.117  1.00  0.00    -0.275 OA
ATOM      5  H   UNL     1     -11.052  -7.765  -1.776  1.00  0.00     0.163 HD
BRANCH   3   6
ATOM      6  C   UNL     1      -8.023  -6.412  -1.237  1.00  0.00     0.095 C 
ATOM      7  C   UNL     1      -7.577  -5.276  -0.289  1.00  0.00     0.097 C 
ATOM      8  C   UNL     1      -7.761  -3.877  -0.921  1.00  0.00     0.041 C 
ATOM      9  C   UNL     1      -7.481  -3.807  -2.390  1.00  0.00    -0.030 C 
ATOM     10  C   UNL     1      -7.420  -6.286  -2.648  1.00  0.00     0.041 C 
ATOM     11  C   UNL     1      -7.320  -4.886  -3.164  1.00  0.00    -0.030 C 
BRANCH   7  12
ATOM     12  C   UNL     1      -8.297  -5.312   1.065  1.00  0.00     0.242 C 
ATOM     13  N   UNL     1      -8.292  -6.459   1.818  1.00  0.00    -0.267 N 
ATOM     14  H   UNL     1      -8.990  -6.548   2.507  1.00  0.00     0.191 HD
ATOM     15  O   UNL     1      -8.863  -4.330   1.548  1.00  0.00    -0.273 OA
BRANCH  13  16
ATOM     16  N   UNL     1      -7.387  -7.505   1.693  1.00  0.00    -0.263 N 
ATOM     17  C   UNL     1      -7.446  -8.701   2.385  1.00  0.00     0.269 C 
ATOM     18  O   UNL     1      -6.809  -9.665   1.960  1.00  0.00    -0.267 OA
ATOM     19  H   UNL     1      -6.642  -7.385   1.060  1.00  0.00     0.191 HD
BRANCH  17  20
ATOM     20  C   UNL     1      -8.249  -8.850   3.628  1.00  0.00     0.041 A 
ATOM     21  C   UNL     1      -9.631  -9.284   6.076  1.00  0.00    -0.045 A 
ATOM     22  C   UNL     1      -9.464 -10.319   5.141  1.00  0.00     0.005 A 
ATOM     23  C   UNL     1      -9.117  -8.021   5.735  1.00  0.00     0.005 A 
ATOM     24  C   UNL     1      -8.780 -10.108   3.935  1.00  0.00     0.014 A 
ATOM     25  C   UNL     1      -8.397  -7.817   4.553  1.00  0.00     0.014 A 
BRANCH  21  26
ATOM     26  C   UNL     1     -10.357  -9.490   7.408  1.00  0.00     0.013 C 
ATOM     27  C   UNL     1     -10.440 -10.954   7.867  1.00  0.00     0.012 C 
ATOM     28  C   UNL     1      -9.736  -8.677   8.558  1.00  0.00     0.012 C 
ENDBRANCH  21  26
ENDBRANCH  17  20
ENDBRANCH  13  16
ENDBRANCH   7  12
ENDBRANCH   3   6
ENDBRANCH   1   2
BRANCH   1  29
ATOM     29  C   UNL     1      -9.638  -9.991  -0.687  1.00  0.00     0.042 C 
BRANCH  29  30
ATOM     30  C   UNL     1     -11.097 -10.353  -0.421  1.00  0.00     0.118 C 
BRANCH  30  31
ATOM     31  N   UNL     1     -11.737 -10.989  -1.562  1.00  0.00    -0.352 N 
ATOM     32  C   UNL     1     -12.415 -12.176  -1.665  1.00  0.00     0.251 C 
ATOM     33  H   UNL     1     -11.673 -10.480  -2.402  1.00  0.00     0.163 HD
ATOM     34  O   UNL     1     -12.727 -12.590  -2.777  1.00  0.00    -0.269 OA
BRANCH  32  35
ATOM     35  C   UNL     1     -12.770 -12.970  -0.467  1.00  0.00     0.039 A 
ATOM     36  C   UNL     1     -12.719 -14.365  -0.560  1.00  0.00     0.014 A 
ATOM     37  C   UNL     1     -13.223 -12.370   0.711  1.00  0.00     0.014 A 
ATOM     38  C   UNL     1     -13.087 -15.154   0.532  1.00  0.00     0.010 A 
ATOM     39  C   UNL     1     -13.524 -13.156   1.824  1.00  0.00     0.010 A 
ATOM     40  C   UNL     1     -13.475 -14.555   1.740  1.00  0.00    -0.014 A 
BRANCH  40  41
ATOM     41  C   UNL     1     -13.866 -15.384   2.909  1.00  0.00     0.031 A 
ATOM     42  C   UNL     1     -15.283 -15.364   3.411  1.00  0.00     0.074 A 
ATOM     43  C   UNL     1     -12.937 -16.125   3.542  1.00  0.00     0.049 A 
ATOM     44  N   UNL     1     -15.807 -15.985   4.439  1.00  0.00    -0.248 NA
ATOM     45  C   UNL     1     -16.233 -14.512   2.678  1.00  0.00     0.031 C 
ATOM     46  C   UNL     1     -11.521 -16.195   3.180  1.00  0.00     0.029 A 
ATOM     47  N   UNL     1     -13.045 -16.957   4.628  1.00  0.00    -0.354 N 
ATOM     48  C   UNL     1     -17.136 -15.583   4.486  1.00  0.00     0.074 A 
ATOM     49  C   UNL     1     -17.328 -14.631   3.413  1.00  0.00     0.031 C 
ATOM     50  C   UNL     1     -10.897 -17.044   4.013  1.00  0.00     0.029 A 
ATOM     51  C   UNL     1     -11.862 -17.556   4.982  1.00  0.00     0.049 A 
ATOM     52  H   UNL     1     -13.892 -17.110   5.107  1.00  0.00     0.167 HD
ATOM     53  C   UNL     1     -18.112 -15.986   5.334  1.00  0.00     0.037 A 
ATOM     54  C   UNL     1     -11.587 -18.422   5.976  1.00  0.00     0.037 A 
ATOM     55  C   UNL     1     -17.931 -16.964   6.375  1.00  0.00     0.049 A 
ATOM     56  C   UNL     1     -12.697 -18.879   6.883  1.00  0.00     0.074 A 
ATOM     57  C   UNL     1     -18.873 -17.484   7.245  1.00  0.00     0.029 A 
ATOM     58  N   UNL     1     -16.724 -17.574   6.680  1.00  0.00    -0.354 N 
ATOM     59  N   UNL     1     -13.962 -18.538   6.880  1.00  0.00    -0.248 NA
ATOM     60  C   UNL     1     -12.340 -19.853   7.925  1.00  0.00     0.031 C 
ATOM     61  C   UNL     1     -18.229 -18.386   8.099  1.00  0.00     0.029 A 
ATOM     62  C   UNL     1     -16.894 -18.457   7.734  1.00  0.00     0.049 A 
ATOM     63  H   UNL     1     -15.872 -17.405   6.217  1.00  0.00     0.167 HD
ATOM     64  C   UNL     1     -14.558 -19.273   7.895  1.00  0.00     0.074 A 
ATOM     65  C   UNL     1     -13.518 -20.088   8.487  1.00  0.00     0.031 C 
ATOM     66  C   UNL     1     -15.851 -19.271   8.302  1.00  0.00     0.037 A 
BRANCH  53  67
ATOM     67  C   UNL     1     -19.471 -15.373   5.167  1.00  0.00     0.064 A 
ATOM     68  C   UNL     1     -20.292 -15.690   4.074  1.00  0.00     0.173 A 
ATOM     69  C   UNL     1     -19.973 -14.481   6.128  1.00  0.00     0.173 A 
ATOM     70  F   UNL     1     -19.853 -16.527   3.122  1.00  0.00    -0.203 F 
ATOM     71  C   UNL     1     -21.552 -15.116   3.934  1.00  0.00     0.198 A 
ATOM     72  C   UNL     1     -21.245 -13.931   5.999  1.00  0.00     0.198 A 
ATOM     73  F   UNL     1     -19.231 -14.149   7.195  1.00  0.00    -0.203 F 
ATOM     74  F   UNL     1     -22.299 -15.397   2.857  1.00  0.00    -0.200 F 
ATOM     75  C   UNL     1     -22.030 -14.242   4.899  1.00  0.00     0.200 A 
ATOM     76  F   UNL     1     -21.710 -13.095   6.938  1.00  0.00    -0.200 F 
ATOM     77  F   UNL     1     -23.246 -13.694   4.765  1.00  0.00    -0.200 F 
ENDBRANCH  53  67
BRANCH  54  78
ATOM     78  C   UNL     1     -10.208 -18.947   6.139  1.00  0.00     0.064 A 
ATOM     79  C   UNL     1      -9.905 -20.277   5.819  1.00  0.00     0.173 A 
ATOM     80  C   UNL     1      -9.170 -18.135   6.616  1.00  0.00     0.173 A 
ATOM     81  F   UNL     1     -10.871 -21.096   5.378  1.00  0.00    -0.203 F 
ATOM     82  C   UNL     1      -8.618 -20.782   5.988  1.00  0.00     0.198 A 
ATOM     83  C   UNL     1      -7.877 -18.635   6.762  1.00  0.00     0.198 A 
ATOM     84  F   UNL     1      -9.409 -16.854   6.931  1.00  0.00    -0.203 F 
ATOM     85  F   UNL     1      -8.364 -22.069   5.715  1.00  0.00    -0.200 F 
ATOM     86  C   UNL     1      -7.604 -19.959   6.455  1.00  0.00     0.200 A 
ATOM     87  F   UNL     1      -6.897 -17.834   7.202  1.00  0.00    -0.200 F 
ATOM     88  F   UNL     1      -6.365 -20.445   6.616  1.00  0.00    -0.200 F 
ENDBRANCH  54  78
BRANCH  66  89
ATOM     89  C   UNL     1     -16.220 -20.206   9.414  1.00  0.00     0.064 A 
ATOM     90  C   UNL     1     -15.839 -19.958  10.741  1.00  0.00     0.173 A 
ATOM     91  C   UNL     1     -16.992 -21.348   9.153  1.00  0.00     0.173 A 
ATOM     92  F   UNL     1     -15.088 -18.887  11.037  1.00  0.00    -0.203 F 
ATOM     93  C   UNL     1     -16.198 -20.833  11.763  1.00  0.00     0.198 A 
ATOM     94  C   UNL     1     -17.370 -22.207  10.181  1.00  0.00     0.198 A 
ATOM     95  F   UNL     1     -17.386 -21.627   7.901  1.00  0.00    -0.203 F 
ATOM     96  F   UNL     1     -15.785 -20.600  13.017  1.00  0.00    -0.200 F 
ATOM     97  C   UNL     1     -16.967 -21.953  11.483  1.00  0.00     0.200 A 
ATOM     98  F   UNL     1     -18.122 -23.283   9.911  1.00  0.00    -0.200 F 
ATOM     99  F   UNL     1     -17.313 -22.792  12.469  1.00  0.00    -0.200 F 
ENDBRANCH  66  89
ENDBRANCH  40  41
ENDBRANCH  32  35
ENDBRANCH  30  31
ENDBRANCH  29  30
ENDBRANCH   1  29
TORSDOF 14
