REMARK SMILES O=C(NCCCNC(=O)c1nc(NC[C@H]2c3ccccc3CSc3ccccc32)c2ccccc2n1)c1ccc(-c2c3nc(c(-c4c(F)c(F)c(F)c(F)c4F)c4ccc([nH]4)c(-c4c(F)c(F)c(F)c(F)c4F)c4nc(c(-c5c(F)c(F)c(F)c(F)c5F)c5ccc2[nH]5)C=C4)C=C3)cc1
REMARK SMILES IDX 5 1 4 2 3 3 1 4 2 5 37 7 38 8 99 9 39 10 98 11 40 12 41 13
REMARK SMILES IDX 42 14 92 15 43 16 97 17 91 18 93 19 44 20 96 21 90 22 89 23
REMARK SMILES IDX 45 25 77 26 57 27 76 28 58 29 61 30 75 31 94 32 59 33 60 34
REMARK SMILES IDX 74 36 95 37 62 38 46 39 47 40 55 41 48 42 49 43 53 44 56 45
REMARK SMILES IDX 50 46 51 47 54 48 52 49 78 50 79 51 87 52 80 53 81 54 85 55
REMARK SMILES IDX 88 56 82 57 83 58 86 59 84 60 63 61 64 62 72 63 65 64 66 65
REMARK SMILES IDX 70 66 73 67 67 68 68 69 71 70 69 71 6 72 7 73 8 74 9 76
REMARK SMILES IDX 10 77 11 78 36 79 12 80 35 81 30 82 34 83 31 84 33 85 32 86
REMARK SMILES IDX 13 87 14 89 15 90 16 91 29 92 17 93 21 94 24 95 28 96 18 97
REMARK SMILES IDX 20 98 22 99 23 100 25 101 27 102 19 103 26 104
REMARK H PARENT 3 6 93 24 61 35 7 75 13 88
REMARK Flexibility Score: inf
ROOT
ATOM      1  C   UNL     1       4.883   0.679  -2.655  1.00  0.00     0.042 C 
ENDROOT
BRANCH   1   2
ATOM      2  C   UNL     1       4.501   0.949  -1.206  1.00  0.00     0.118 C 
BRANCH   2   3
ATOM      3  N   UNL     1       3.069   0.865  -0.961  1.00  0.00    -0.352 N 
ATOM      4  O   UNL     1       1.126   0.087  -0.142  1.00  0.00    -0.269 OA
ATOM      5  C   UNL     1       2.357   0.087  -0.082  1.00  0.00     0.251 C 
ATOM      6  H   UNL     1       2.520   1.464  -1.517  1.00  0.00     0.163 HD
BRANCH   5   7
ATOM      7  C   UNL     1       3.035  -0.770   0.919  1.00  0.00     0.039 A 
ATOM      8  C   UNL     1       2.468  -2.010   1.234  1.00  0.00     0.014 A 
ATOM      9  C   UNL     1       4.190  -0.357   1.586  1.00  0.00     0.014 A 
ATOM     10  C   UNL     1       3.079  -2.841   2.176  1.00  0.00     0.010 A 
ATOM     11  C   UNL     1       4.858  -1.231   2.442  1.00  0.00     0.010 A 
ATOM     12  C   UNL     1       4.296  -2.472   2.772  1.00  0.00    -0.014 A 
BRANCH  12  13
ATOM     13  C   UNL     1       4.951  -3.342   3.787  1.00  0.00     0.031 A 
ATOM     14  C   UNL     1       5.156  -2.837   5.193  1.00  0.00     0.074 A 
ATOM     15  C   UNL     1       5.372  -4.577   3.449  1.00  0.00     0.049 A 
ATOM     16  N   UNL     1       5.715  -3.437   6.214  1.00  0.00    -0.248 NA
ATOM     17  C   UNL     1       4.696  -1.469   5.490  1.00  0.00     0.031 C 
ATOM     18  C   UNL     1       5.272  -5.168   2.114  1.00  0.00     0.029 A 
ATOM     19  N   UNL     1       5.963  -5.564   4.202  1.00  0.00    -0.354 N 
ATOM     20  C   UNL     1       5.680  -2.521   7.258  1.00  0.00     0.074 A 
ATOM     21  C   UNL     1       5.111  -1.300   6.736  1.00  0.00     0.031 C 
ATOM     22  C   UNL     1       5.737  -6.427   2.153  1.00  0.00     0.029 A 
ATOM     23  C   UNL     1       6.209  -6.722   3.503  1.00  0.00     0.049 A 
ATOM     24  H   UNL     1       6.189  -5.452   5.154  1.00  0.00     0.167 HD
ATOM     25  C   UNL     1       6.048  -2.695   8.548  1.00  0.00     0.037 A 
ATOM     26  C   UNL     1       6.749  -7.890   3.906  1.00  0.00     0.037 A 
ATOM     27  C   UNL     1       6.566  -3.925   9.080  1.00  0.00     0.049 A 
ATOM     28  C   UNL     1       7.167  -8.050   5.345  1.00  0.00     0.074 A 
ATOM     29  C   UNL     1       6.914  -4.214  10.387  1.00  0.00     0.029 A 
ATOM     30  N   UNL     1       6.802  -5.069   8.336  1.00  0.00    -0.354 N 
ATOM     31  N   UNL     1       7.063  -7.197   6.334  1.00  0.00    -0.248 NA
ATOM     32  C   UNL     1       7.777  -9.334   5.726  1.00  0.00     0.031 C 
ATOM     33  C   UNL     1       7.408  -5.518  10.427  1.00  0.00     0.029 A 
ATOM     34  C   UNL     1       7.314  -6.061   9.155  1.00  0.00     0.049 A 
ATOM     35  H   UNL     1       6.632  -5.163   7.371  1.00  0.00     0.167 HD
ATOM     36  C   UNL     1       7.559  -7.848   7.455  1.00  0.00     0.074 A 
ATOM     37  C   UNL     1       7.959  -9.172   7.030  1.00  0.00     0.031 C 
ATOM     38  C   UNL     1       7.676  -7.386   8.723  1.00  0.00     0.037 A 
BRANCH  25  39
ATOM     39  C   UNL     1       5.870  -1.547   9.499  1.00  0.00     0.064 A 
ATOM     40  C   UNL     1       4.595  -1.145   9.925  1.00  0.00     0.173 A 
ATOM     41  C   UNL     1       6.984  -0.917  10.074  1.00  0.00     0.173 A 
ATOM     42  F   UNL     1       3.498  -1.711   9.399  1.00  0.00    -0.203 F 
ATOM     43  C   UNL     1       4.442  -0.151  10.887  1.00  0.00     0.198 A 
ATOM     44  C   UNL     1       6.828   0.056  11.057  1.00  0.00     0.198 A 
ATOM     45  F   UNL     1       8.226  -1.271   9.707  1.00  0.00    -0.203 F 
ATOM     46  F   UNL     1       3.214   0.233  11.261  1.00  0.00    -0.200 F 
ATOM     47  C   UNL     1       5.558   0.438  11.462  1.00  0.00     0.200 A 
ATOM     48  F   UNL     1       7.907   0.611  11.627  1.00  0.00    -0.200 F 
ATOM     49  F   UNL     1       5.409   1.374  12.410  1.00  0.00    -0.200 F 
ENDBRANCH  25  39
BRANCH  26  50
ATOM     50  C   UNL     1       6.890  -9.016   2.942  1.00  0.00     0.064 A 
ATOM     51  C   UNL     1       6.129 -10.185   3.086  1.00  0.00     0.173 A 
ATOM     52  C   UNL     1       7.781  -8.950   1.861  1.00  0.00     0.173 A 
ATOM     53  F   UNL     1       5.277 -10.308   4.114  1.00  0.00    -0.203 F 
ATOM     54  C   UNL     1       6.266 -11.249   2.196  1.00  0.00     0.198 A 
ATOM     55  C   UNL     1       7.894 -10.001   0.954  1.00  0.00     0.198 A 
ATOM     56  F   UNL     1       8.531  -7.853   1.675  1.00  0.00    -0.203 F 
ATOM     57  F   UNL     1       5.559 -12.372   2.383  1.00  0.00    -0.200 F 
ATOM     58  C   UNL     1       7.143 -11.154   1.126  1.00  0.00     0.200 A 
ATOM     59  F   UNL     1       8.731  -9.898  -0.088  1.00  0.00    -0.200 F 
ATOM     60  F   UNL     1       7.269 -12.174   0.266  1.00  0.00    -0.200 F 
ENDBRANCH  26  50
BRANCH  38  61
ATOM     61  C   UNL     1       8.224  -8.308   9.771  1.00  0.00     0.064 A 
ATOM     62  C   UNL     1       9.592  -8.604   9.839  1.00  0.00     0.173 A 
ATOM     63  C   UNL     1       7.394  -8.778  10.801  1.00  0.00     0.173 A 
ATOM     64  F   UNL     1      10.422  -8.184   8.873  1.00  0.00    -0.203 F 
ATOM     65  C   UNL     1      10.111  -9.331  10.906  1.00  0.00     0.198 A 
ATOM     66  C   UNL     1       7.921  -9.479  11.880  1.00  0.00     0.198 A 
ATOM     67  F   UNL     1       6.079  -8.509  10.786  1.00  0.00    -0.203 F 
ATOM     68  F   UNL     1      11.421  -9.610  10.948  1.00  0.00    -0.200 F 
ATOM     69  C   UNL     1       9.280  -9.753  11.933  1.00  0.00     0.200 A 
ATOM     70  F   UNL     1       7.120  -9.866  12.883  1.00  0.00    -0.200 F 
ATOM     71  F   UNL     1       9.789 -10.418  12.979  1.00  0.00    -0.200 F 
ENDBRANCH  38  61
ENDBRANCH  12  13
ENDBRANCH   5   7
ENDBRANCH   2   3
ENDBRANCH   1   2
BRANCH   1  72
ATOM     72  C   UNL     1       4.380   1.711  -3.658  1.00  0.00     0.118 C 
BRANCH  72  73
ATOM     73  N   UNL     1       4.944   3.033  -3.435  1.00  0.00    -0.349 N 
ATOM     74  C   UNL     1       5.680   3.841  -4.287  1.00  0.00     0.289 C 
ATOM     75  H   UNL     1       4.778   3.412  -2.542  1.00  0.00     0.163 HD
ATOM     76  O   UNL     1       6.151   4.880  -3.823  1.00  0.00    -0.266 OA
BRANCH  74  77
ATOM     77  C   UNL     1       5.936   3.446  -5.718  1.00  0.00     0.220 A 
ATOM     78  N   UNL     1       7.178   3.668  -6.173  1.00  0.00    -0.206 NA
ATOM     79  N   UNL     1       4.976   2.778  -6.370  1.00  0.00    -0.224 NA
ATOM     80  C   UNL     1       7.528   3.113  -7.345  1.00  0.00     0.138 A 
ATOM     81  C   UNL     1       5.317   2.251  -7.542  1.00  0.00     0.077 A 
ATOM     82  C   UNL     1       6.599   2.376  -8.105  1.00  0.00     0.043 A 
ATOM     83  C   UNL     1       4.360   1.489  -8.197  1.00  0.00     0.029 A 
ATOM     84  C   UNL     1       6.870   1.730  -9.336  1.00  0.00     0.014 A 
ATOM     85  C   UNL     1       4.633   0.849  -9.405  1.00  0.00     0.002 A 
ATOM     86  C   UNL     1       5.890   0.975  -9.981  1.00  0.00     0.001 A 
BRANCH  80  87
ATOM     87  N   UNL     1       8.888   3.108  -7.671  1.00  0.00    -0.368 N 
ATOM     88  H   UNL     1       9.187   2.741  -8.534  1.00  0.00     0.162 HD
BRANCH  87  89
ATOM     89  C   UNL     1       9.872   3.655  -6.722  1.00  0.00     0.127 C 
BRANCH  89  90
ATOM     90  C   UNL     1      11.037   2.665  -6.317  1.00  0.00     0.070 C 
ATOM     91  C   UNL     1      12.167   3.443  -5.605  1.00  0.00    -0.035 A 
ATOM     92  C   UNL     1      10.653   1.348  -5.595  1.00  0.00    -0.025 A 
ATOM     93  C   UNL     1      11.940   4.660  -4.930  1.00  0.00     0.005 A 
ATOM     94  C   UNL     1      13.488   2.948  -5.630  1.00  0.00    -0.034 A 
ATOM     95  C   UNL     1      11.546   0.293  -5.290  1.00  0.00     0.011 A 
ATOM     96  C   UNL     1       9.295   1.112  -5.284  1.00  0.00     0.005 A 
ATOM     97  C   UNL     1      12.979   5.362  -4.311  1.00  0.00     0.000 A 
ATOM     98  C   UNL     1      14.517   3.640  -4.962  1.00  0.00     0.005 A 
ATOM     99  C   UNL     1      13.818   1.667  -6.342  1.00  0.00     0.110 C 
ATOM    100  S   UNL     1      13.338   0.216  -5.397  1.00  0.00    -0.121 SA
ATOM    101  C   UNL     1      11.034  -0.929  -4.780  1.00  0.00     0.015 A 
ATOM    102  C   UNL     1       8.800  -0.111  -4.829  1.00  0.00     0.000 A 
ATOM    103  C   UNL     1      14.266   4.845  -4.314  1.00  0.00     0.000 A 
ATOM    104  C   UNL     1       9.674  -1.145  -4.583  1.00  0.00     0.001 A 
ENDBRANCH  89  90
ENDBRANCH  87  89
ENDBRANCH  80  87
ENDBRANCH  74  77
ENDBRANCH  72  73
ENDBRANCH   1  72
TORSDOF 13
