REMARK SMILES C[C@@H](C(=O)NCCCNC(=O)c1ccc(-c2c3nc(c(-c4c(F)c(F)c(F)c(F)c4F)c4ccc([nH]4)c(-c4c(F)c(F)c(F)c(F)c4F)c4nc(c(-c5c(F)c(F)c(F)c(F)c5F)c5ccc2[nH]5)C=C4)C=C3)cc1)n1ccc(C(=O)NC2CCCCCCC2)n1
REMARK SMILES IDX 1 1 2 2 3 3 4 4 5 5 6 7 7 8 8 9 9 10 10 11 11 13 12 14 13 15
REMARK SMILES IDX 74 16 14 17 73 18 15 19 16 20 17 21 67 22 18 23 72 24 66 25
REMARK SMILES IDX 68 26 19 27 71 28 65 29 64 30 20 32 52 33 32 34 51 35 33 36
REMARK SMILES IDX 36 37 50 38 69 39 34 40 35 41 49 43 70 44 37 45 21 46 22 47
REMARK SMILES IDX 30 48 23 49 24 50 28 51 31 52 25 53 26 54 29 55 27 56 53 57
REMARK SMILES IDX 54 58 62 59 55 60 56 61 60 62 63 63 57 64 58 65 61 66 59 67
REMARK SMILES IDX 38 68 39 69 47 70 40 71 41 72 45 73 48 74 42 75 43 76 46 77
REMARK SMILES IDX 44 78 75 79 76 80 90 81 77 82 78 83 79 84 80 85 81 86 82 88
REMARK SMILES IDX 83 89 84 90 85 91 86 92 87 93 89 95 88 96
REMARK H PARENT 5 6 9 12 68 31 36 42 81 87
REMARK Flexibility Score: 80.00
ROOT
ATOM      1  C   UNL     1       0.810  -0.322   0.059  1.00  0.00     0.044 C 
ATOM      2  C   UNL     1       0.405   0.213  -1.310  1.00  0.00     0.193 C 
ENDROOT
BRANCH   2   3
ATOM      3  C   UNL     1       1.048  -0.543  -2.470  1.00  0.00     0.244 C 
ATOM      4  O   UNL     1       0.438  -1.327  -3.199  1.00  0.00    -0.273 OA
ATOM      5  N   UNL     1       2.374  -0.363  -2.755  1.00  0.00    -0.354 N 
ATOM      6  H   UNL     1       2.683  -0.809  -3.576  1.00  0.00     0.163 HD
BRANCH   5   7
ATOM      7  C   UNL     1       3.398   0.377  -2.042  1.00  0.00     0.117 C 
BRANCH   7   8
ATOM      8  C   UNL     1       4.319  -0.554  -1.254  1.00  0.00     0.042 C 
BRANCH   8   9
ATOM      9  C   UNL     1       5.096  -1.553  -2.109  1.00  0.00     0.118 C 
BRANCH   9  10
ATOM     10  N   UNL     1       6.016  -0.910  -3.031  1.00  0.00    -0.352 N 
ATOM     11  C   UNL     1       7.362  -1.090  -3.224  1.00  0.00     0.251 C 
ATOM     12  H   UNL     1       5.606  -0.231  -3.615  1.00  0.00     0.163 HD
ATOM     13  O   UNL     1       7.968  -0.305  -3.949  1.00  0.00    -0.269 OA
BRANCH  11  14
ATOM     14  C   UNL     1       8.102  -2.190  -2.562  1.00  0.00     0.039 A 
ATOM     15  C   UNL     1       9.404  -1.933  -2.121  1.00  0.00     0.014 A 
ATOM     16  C   UNL     1       7.567  -3.474  -2.419  1.00  0.00     0.014 A 
ATOM     17  C   UNL     1      10.143  -2.939  -1.495  1.00  0.00     0.010 A 
ATOM     18  C   UNL     1       8.277  -4.458  -1.728  1.00  0.00     0.010 A 
ATOM     19  C   UNL     1       9.574  -4.202  -1.260  1.00  0.00    -0.014 A 
BRANCH  19  20
ATOM     20  C   UNL     1      10.329  -5.235  -0.503  1.00  0.00     0.031 A 
ATOM     21  C   UNL     1      10.759  -6.519  -1.157  1.00  0.00     0.074 A 
ATOM     22  C   UNL     1      10.612  -5.018   0.797  1.00  0.00     0.049 A 
ATOM     23  N   UNL     1      11.443  -7.516  -0.651  1.00  0.00    -0.248 NA
ATOM     24  C   UNL     1      10.350  -6.722  -2.554  1.00  0.00     0.031 C 
ATOM     25  C   UNL     1      10.200  -3.840   1.563  1.00  0.00     0.029 A 
ATOM     26  N   UNL     1      11.312  -5.775   1.703  1.00  0.00    -0.354 N 
ATOM     27  C   UNL     1      11.548  -8.459  -1.665  1.00  0.00     0.074 A 
ATOM     28  C   UNL     1      10.807  -7.943  -2.796  1.00  0.00     0.031 C 
ATOM     29  C   UNL     1      10.681  -3.938   2.812  1.00  0.00     0.029 A 
ATOM     30  C   UNL     1      11.406  -5.197   2.946  1.00  0.00     0.049 A 
ATOM     31  H   UNL     1      11.708  -6.649   1.484  1.00  0.00     0.167 HD
ATOM     32  C   UNL     1      12.223  -9.634  -1.662  1.00  0.00     0.037 A 
ATOM     33  C   UNL     1      12.008  -5.632   4.069  1.00  0.00     0.037 A 
ATOM     34  C   UNL     1      12.966 -10.144  -0.537  1.00  0.00     0.049 A 
ATOM     35  C   UNL     1      12.749  -6.941   4.045  1.00  0.00     0.074 A 
ATOM     36  C   UNL     1      13.721 -11.301  -0.452  1.00  0.00     0.029 A 
ATOM     37  N   UNL     1      13.043  -9.528   0.704  1.00  0.00    -0.354 N 
ATOM     38  N   UNL     1      12.904  -7.787   3.055  1.00  0.00    -0.248 NA
ATOM     39  C   UNL     1      13.410  -7.348   5.292  1.00  0.00     0.031 C 
ATOM     40  C   UNL     1      14.213 -11.411   0.853  1.00  0.00     0.029 A 
ATOM     41  C   UNL     1      13.813 -10.294   1.567  1.00  0.00     0.049 A 
ATOM     42  H   UNL     1      12.614  -8.673   0.938  1.00  0.00     0.167 HD
ATOM     43  C   UNL     1      13.692  -8.815   3.553  1.00  0.00     0.074 A 
ATOM     44  C   UNL     1      14.009  -8.471   4.924  1.00  0.00     0.031 C 
ATOM     45  C   UNL     1      14.111  -9.946   2.933  1.00  0.00     0.037 A 
BRANCH  32  46
ATOM     46  C   UNL     1      12.197 -10.454  -2.922  1.00  0.00     0.064 A 
ATOM     47  C   UNL     1      12.865 -10.036  -4.083  1.00  0.00     0.173 A 
ATOM     48  C   UNL     1      11.536 -11.691  -2.958  1.00  0.00     0.173 A 
ATOM     49  F   UNL     1      13.505  -8.857  -4.107  1.00  0.00    -0.203 F 
ATOM     50  C   UNL     1      12.850 -10.812  -5.240  1.00  0.00     0.198 A 
ATOM     51  C   UNL     1      11.549 -12.479  -4.106  1.00  0.00     0.198 A 
ATOM     52  F   UNL     1      10.887 -12.143  -1.874  1.00  0.00    -0.203 F 
ATOM     53  F   UNL     1      13.456 -10.369  -6.350  1.00  0.00    -0.200 F 
ATOM     54  C   UNL     1      12.199 -12.036  -5.248  1.00  0.00     0.200 A 
ATOM     55  F   UNL     1      10.931 -13.669  -4.108  1.00  0.00    -0.200 F 
ATOM     56  F   UNL     1      12.193 -12.786  -6.359  1.00  0.00    -0.200 F 
ENDBRANCH  32  46
BRANCH  33  57
ATOM     57  C   UNL     1      11.954  -4.809   5.305  1.00  0.00     0.064 A 
ATOM     58  C   UNL     1      13.105  -4.189   5.812  1.00  0.00     0.173 A 
ATOM     59  C   UNL     1      10.753  -4.626   6.005  1.00  0.00     0.173 A 
ATOM     60  F   UNL     1      14.281  -4.349   5.189  1.00  0.00    -0.203 F 
ATOM     61  C   UNL     1      13.060  -3.439   6.985  1.00  0.00     0.198 A 
ATOM     62  C   UNL     1      10.703  -3.849   7.160  1.00  0.00     0.198 A 
ATOM     63  F   UNL     1       9.622  -5.192   5.558  1.00  0.00    -0.203 F 
ATOM     64  F   UNL     1      14.185  -2.898   7.474  1.00  0.00    -0.200 F 
ATOM     65  C   UNL     1      11.859  -3.264   7.655  1.00  0.00     0.200 A 
ATOM     66  F   UNL     1       9.537  -3.669   7.794  1.00  0.00    -0.200 F 
ATOM     67  F   UNL     1      11.816  -2.537   8.780  1.00  0.00    -0.200 F 
ENDBRANCH  33  57
BRANCH  45  68
ATOM     68  C   UNL     1      14.970 -10.883   3.734  1.00  0.00     0.064 A 
ATOM     69  C   UNL     1      14.450 -11.621   4.809  1.00  0.00     0.173 A 
ATOM     70  C   UNL     1      16.328 -11.050   3.421  1.00  0.00     0.173 A 
ATOM     71  F   UNL     1      13.162 -11.488   5.159  1.00  0.00    -0.203 F 
ATOM     72  C   UNL     1      15.267 -12.459   5.565  1.00  0.00     0.198 A 
ATOM     73  C   UNL     1      17.134 -11.914   4.158  1.00  0.00     0.198 A 
ATOM     74  F   UNL     1      16.875 -10.374   2.400  1.00  0.00    -0.203 F 
ATOM     75  F   UNL     1      14.762 -13.102   6.627  1.00  0.00    -0.200 F 
ATOM     76  C   UNL     1      16.606 -12.608   5.236  1.00  0.00     0.200 A 
ATOM     77  F   UNL     1      18.424 -12.068   3.831  1.00  0.00    -0.200 F 
ATOM     78  F   UNL     1      17.390 -13.412   5.966  1.00  0.00    -0.200 F 
ENDBRANCH  45  68
ENDBRANCH  19  20
ENDBRANCH  11  14
ENDBRANCH   9  10
ENDBRANCH   8   9
ENDBRANCH   7   8
ENDBRANCH   5   7
ENDBRANCH   2   3
BRANCH   2  79
ATOM     79  N   UNL     1      -1.056   0.244  -1.418  1.00  0.00    -0.260 N 
ATOM     80  C   UNL     1      -1.927  -0.806  -1.411  1.00  0.00     0.110 A 
ATOM     81  N   UNL     1      -1.674   1.437  -1.347  1.00  0.00    -0.167 NA
ATOM     82  C   UNL     1      -3.184  -0.254  -1.381  1.00  0.00     0.056 A 
ATOM     83  C   UNL     1      -2.991   1.156  -1.339  1.00  0.00     0.150 A 
BRANCH  83  84
ATOM     84  C   UNL     1      -4.067   2.165  -1.281  1.00  0.00     0.271 C 
ATOM     85  O   UNL     1      -5.257   1.827  -1.249  1.00  0.00    -0.267 OA
ATOM     86  N   UNL     1      -3.797   3.517  -1.261  1.00  0.00    -0.348 N 
ATOM     87  H   UNL     1      -4.587   4.098  -1.173  1.00  0.00     0.164 HD
BRANCH  86  88
ATOM     88  C   UNL     1      -2.514   4.223  -1.352  1.00  0.00     0.082 C 
BRANCH  88  89
ATOM     89  C   UNL     1      -2.090   4.298  -2.826  1.00  0.00     0.025 C 
BRANCH  89  90
ATOM     90  C   UNL     1      -0.657   4.755  -3.080  1.00  0.00     0.002 C 
BRANCH  90  91
ATOM     91  C   UNL     1      -0.300   6.190  -2.697  1.00  0.00     0.000 C 
BRANCH  91  92
ATOM     92  C   UNL     1      -1.336   7.242  -3.093  1.00  0.00     0.000 C 
BRANCH  92  93
ATOM     93  C   UNL     1      -2.229   7.725  -1.947  1.00  0.00     0.000 CG0
ATOM     94  G   UNL     1      -3.241   6.723  -1.384  1.00  0.00     0.000 G0
ENDBRANCH  92  93
ENDBRANCH  91  92
ENDBRANCH  90  91
ENDBRANCH  89  90
ENDBRANCH  88  89
BRANCH  88  95
ATOM     95  C   UNL     1      -2.616   5.565  -0.605  1.00  0.00     0.025 C 
BRANCH  95  96
ATOM     96  C   UNL     1      -3.241   6.723  -1.384  1.00  0.00     0.002 CG0
ATOM     97  G   UNL     1      -2.229   7.725  -1.947  1.00  0.00     0.000 G0
ENDBRANCH  95  96
ENDBRANCH  88  95
ENDBRANCH  86  88
ENDBRANCH  83  84
ENDBRANCH   2  79
TORSDOF 13
