REMARK SMILES CC[C@@](C)(NC(=O)NCCc1ncn[nH]1)C(=O)NCCCNC(=O)c1ccc(-c2c3nc(c(-c4c(F)c(F)c(F)c(F)c4F)c4ccc([nH]4)c(-c4c(F)c(F)c(F)c(F)c4F)c4nc(c(-c5c(F)c(F)c(F)c(F)c5F)c5ccc2[nH]5)C=C4)C=C3)cc1
REMARK SMILES IDX 19 1 18 2 16 3 17 4 3 6 4 7 2 8 1 9 5 10 6 11 7 13 8 14 9 16
REMARK SMILES IDX 10 17 11 18 12 19 15 20 13 21 14 22 20 24 21 25 22 26 23 27
REMARK SMILES IDX 24 29 25 30 26 31 87 32 27 33 86 34 28 35 29 36 30 37 80 38
REMARK SMILES IDX 31 39 85 40 79 41 81 42 32 43 84 44 78 45 77 46 33 48 65 49
REMARK SMILES IDX 45 50 64 51 46 52 49 53 63 54 82 55 47 56 48 57 62 59 83 60
REMARK SMILES IDX 50 61 34 62 35 63 43 64 36 65 37 66 41 67 44 68 38 69 39 70
REMARK SMILES IDX 42 71 40 72 66 73 67 74 75 75 68 76 69 77 73 78 76 79 70 80
REMARK SMILES IDX 71 81 74 82 72 83 51 84 52 85 60 86 53 87 54 88 58 89 61 90
REMARK SMILES IDX 55 91 56 92 59 93 57 94
REMARK H PARENT 18 5 5 12 8 15 15 23 22 28 81 47 49 58
REMARK Flexibility Score: inf
ROOT
ATOM      1  C   UNL     1       1.960   0.333  -5.320  1.00  0.00     0.117 C 
ENDROOT
BRANCH   1   2
ATOM      2  N   UNL     1       2.620  -0.011  -4.067  1.00  0.00    -0.354 N 
ATOM      3  C   UNL     1       2.280   0.108  -2.743  1.00  0.00     0.245 C 
ATOM      4  O   UNL     1       2.998  -0.507  -1.947  1.00  0.00    -0.272 OA
ATOM      5  H   UNL     1       3.506  -0.418  -4.200  1.00  0.00     0.163 HD
BRANCH   3   6
ATOM      6  C   UNL     1       1.026   0.882  -2.254  1.00  0.00     0.117 C 
ATOM      7  C   UNL     1      -0.203   0.019  -2.646  1.00  0.00     0.045 C 
BRANCH   6   8
ATOM      8  C   UNL     1       0.901   1.147  -0.723  1.00  0.00     0.035 C 
ATOM      9  C   UNL     1       0.998  -0.051   0.217  1.00  0.00     0.007 C 
ENDBRANCH   6   8
BRANCH   6  10
ATOM     10  N   UNL     1       0.960   2.183  -2.949  1.00  0.00    -0.324 N 
ATOM     11  C   UNL     1       1.748   3.252  -3.075  1.00  0.00     0.315 C 
ATOM     12  H   UNL     1       0.118   2.288  -3.447  1.00  0.00     0.166 HD
ATOM     13  O   UNL     1       1.252   4.238  -3.630  1.00  0.00    -0.249 OA
ATOM     14  N   UNL     1       3.038   3.356  -2.741  1.00  0.00    -0.338 N 
ATOM     15  H   UNL     1       3.459   4.130  -3.180  1.00  0.00     0.165 HD
BRANCH  14  16
ATOM     16  C   UNL     1       3.998   2.635  -1.905  1.00  0.00     0.125 C 
BRANCH  16  17
ATOM     17  C   UNL     1       5.045   1.786  -2.628  1.00  0.00     0.098 C 
BRANCH  17  18
ATOM     18  C   UNL     1       6.206   2.453  -3.282  1.00  0.00     0.125 A 
ATOM     19  N   UNL     1       7.247   1.816  -3.784  1.00  0.00    -0.220 NA
ATOM     20  N   UNL     1       6.349   3.784  -3.542  1.00  0.00    -0.263 N 
ATOM     21  C   UNL     1       8.001   2.806  -4.334  1.00  0.00     0.246 A 
ATOM     22  N   UNL     1       7.477   4.029  -4.233  1.00  0.00    -0.162 NA
ATOM     23  H   UNL     1       5.709   4.478  -3.259  1.00  0.00     0.192 HD
ENDBRANCH  17  18
ENDBRANCH  16  17
ENDBRANCH  14  16
ENDBRANCH   6  10
ENDBRANCH   3   6
ENDBRANCH   1   2
BRANCH   1  24
ATOM     24  C   UNL     1       2.347   1.637  -6.020  1.00  0.00     0.042 C 
BRANCH  24  25
ATOM     25  C   UNL     1       3.816   1.918  -6.297  1.00  0.00     0.118 C 
BRANCH  25  26
ATOM     26  N   UNL     1       4.489   0.900  -7.080  1.00  0.00    -0.352 N 
ATOM     27  C   UNL     1       5.337   1.053  -8.155  1.00  0.00     0.251 C 
ATOM     28  H   UNL     1       4.316  -0.029  -6.805  1.00  0.00     0.163 HD
ATOM     29  O   UNL     1       5.760   0.071  -8.749  1.00  0.00    -0.269 OA
BRANCH  27  30
ATOM     30  C   UNL     1       5.711   2.409  -8.620  1.00  0.00     0.039 A 
ATOM     31  C   UNL     1       5.572   2.721  -9.975  1.00  0.00     0.014 A 
ATOM     32  C   UNL     1       6.211   3.365  -7.733  1.00  0.00     0.014 A 
ATOM     33  C   UNL     1       5.870   4.012 -10.427  1.00  0.00     0.010 A 
ATOM     34  C   UNL     1       6.464   4.664  -8.174  1.00  0.00     0.010 A 
ATOM     35  C   UNL     1       6.287   5.005  -9.525  1.00  0.00    -0.014 A 
BRANCH  35  36
ATOM     36  C   UNL     1       6.521   6.405  -9.969  1.00  0.00     0.031 A 
ATOM     37  C   UNL     1       7.901   7.001  -9.921  1.00  0.00     0.074 A 
ATOM     38  C   UNL     1       5.476   7.168 -10.347  1.00  0.00     0.049 A 
ATOM     39  N   UNL     1       8.286   8.225 -10.187  1.00  0.00    -0.248 NA
ATOM     40  C   UNL     1       8.989   6.106  -9.502  1.00  0.00     0.031 C 
ATOM     41  C   UNL     1       4.084   6.722 -10.408  1.00  0.00     0.029 A 
ATOM     42  N   UNL     1       5.420   8.486 -10.734  1.00  0.00    -0.354 N 
ATOM     43  C   UNL     1       9.655   8.249  -9.958  1.00  0.00     0.074 A 
ATOM     44  C   UNL     1      10.027   6.931  -9.488  1.00  0.00     0.031 C 
ATOM     45  C   UNL     1       3.313   7.743 -10.813  1.00  0.00     0.029 A 
ATOM     46  C   UNL     1       4.146   8.927 -11.002  1.00  0.00     0.049 A 
ATOM     47  H   UNL     1       6.216   9.059 -10.812  1.00  0.00     0.167 HD
ATOM     48  C   UNL     1      10.526   9.273 -10.137  1.00  0.00     0.037 A 
ATOM     49  C   UNL     1       3.698  10.151 -11.343  1.00  0.00     0.037 A 
ATOM     50  C   UNL     1      10.155  10.583 -10.607  1.00  0.00     0.049 A 
ATOM     51  C   UNL     1       4.681  11.281 -11.502  1.00  0.00     0.074 A 
ATOM     52  C   UNL     1      10.972  11.671 -10.864  1.00  0.00     0.029 A 
ATOM     53  N   UNL     1       8.856  10.987 -10.880  1.00  0.00    -0.354 N 
ATOM     54  N   UNL     1       5.982  11.275 -11.347  1.00  0.00    -0.248 NA
ATOM     55  C   UNL     1       4.132  12.588 -11.892  1.00  0.00     0.031 C 
ATOM     56  C   UNL     1      10.163  12.749 -11.236  1.00  0.00     0.029 A 
ATOM     57  C   UNL     1       8.848  12.316 -11.278  1.00  0.00     0.049 A 
ATOM     58  H   UNL     1       8.058  10.416 -10.803  1.00  0.00     0.167 HD
ATOM     59  C   UNL     1       6.411  12.558 -11.659  1.00  0.00     0.074 A 
ATOM     60  C   UNL     1       5.232  13.318 -12.016  1.00  0.00     0.031 C 
ATOM     61  C   UNL     1       7.671  13.058 -11.654  1.00  0.00     0.037 A 
BRANCH  48  62
ATOM     62  C   UNL     1      11.973   9.021  -9.816  1.00  0.00     0.064 A 
ATOM     63  C   UNL     1      12.763   8.166 -10.600  1.00  0.00     0.173 A 
ATOM     64  C   UNL     1      12.590   9.680  -8.742  1.00  0.00     0.173 A 
ATOM     65  F   UNL     1      12.223   7.508 -11.636  1.00  0.00    -0.203 F 
ATOM     66  C   UNL     1      14.107   7.955 -10.300  1.00  0.00     0.198 A 
ATOM     67  C   UNL     1      13.942   9.493  -8.465  1.00  0.00     0.198 A 
ATOM     68  F   UNL     1      11.885  10.519  -7.967  1.00  0.00    -0.203 F 
ATOM     69  F   UNL     1      14.828   7.096 -11.033  1.00  0.00    -0.200 F 
ATOM     70  C   UNL     1      14.697   8.624  -9.238  1.00  0.00     0.200 A 
ATOM     71  F   UNL     1      14.515  10.156  -7.451  1.00  0.00    -0.200 F 
ATOM     72  F   UNL     1      15.992   8.429  -8.958  1.00  0.00    -0.200 F 
ENDBRANCH  48  62
BRANCH  49  73
ATOM     73  C   UNL     1       2.245  10.373 -11.574  1.00  0.00     0.064 A 
ATOM     74  C   UNL     1       1.754  10.656 -12.857  1.00  0.00     0.173 A 
ATOM     75  C   UNL     1       1.321  10.319 -10.521  1.00  0.00     0.173 A 
ATOM     76  F   UNL     1       2.601  10.741 -13.893  1.00  0.00    -0.203 F 
ATOM     77  C   UNL     1       0.400  10.900 -13.072  1.00  0.00     0.198 A 
ATOM     78  C   UNL     1      -0.038  10.531 -10.743  1.00  0.00     0.198 A 
ATOM     79  F   UNL     1       1.737  10.049  -9.274  1.00  0.00    -0.203 F 
ATOM     80  F   UNL     1      -0.034  11.220 -14.299  1.00  0.00    -0.200 F 
ATOM     81  C   UNL     1      -0.496  10.832 -12.016  1.00  0.00     0.200 A 
ATOM     82  F   UNL     1      -0.903  10.450  -9.722  1.00  0.00    -0.200 F 
ATOM     83  F   UNL     1      -1.800  11.064 -12.225  1.00  0.00    -0.200 F 
ENDBRANCH  49  73
BRANCH  61  84
ATOM     84  C   UNL     1       7.859  14.479 -12.107  1.00  0.00     0.064 A 
ATOM     85  C   UNL     1       7.438  15.569 -11.334  1.00  0.00     0.173 A 
ATOM     86  C   UNL     1       8.524  14.749 -13.315  1.00  0.00     0.173 A 
ATOM     87  F   UNL     1       6.785  15.366 -10.179  1.00  0.00    -0.203 F 
ATOM     88  C   UNL     1       7.655  16.877 -11.761  1.00  0.00     0.198 A 
ATOM     89  C   UNL     1       8.769  16.057 -13.722  1.00  0.00     0.198 A 
ATOM     90  F   UNL     1       8.954  13.743 -14.091  1.00  0.00    -0.203 F 
ATOM     91  F   UNL     1       7.204  17.904 -11.027  1.00  0.00    -0.200 F 
ATOM     92  C   UNL     1       8.329  17.120 -12.949  1.00  0.00     0.200 A 
ATOM     93  F   UNL     1       9.435  16.289 -14.862  1.00  0.00    -0.200 F 
ATOM     94  F   UNL     1       8.550  18.379 -13.351  1.00  0.00    -0.200 F 
ENDBRANCH  61  84
ENDBRANCH  35  36
ENDBRANCH  27  30
ENDBRANCH  25  26
ENDBRANCH  24  25
ENDBRANCH   1  24
TORSDOF 15
