REMARK SMILES O=C(NCCCNC(=O)c1cn2ccnc2s1)c1ccc(-c2c3nc(c(-c4c(F)c(F)c(F)c(F)c4F)c4ccc([nH]4)c(-c4c(F)c(F)c(F)c(F)c4F)c4nc(c(-c5c(F)c(F)c(F)c(F)c5F)c5ccc2[nH]5)C=C4)C=C3)cc1
REMARK SMILES IDX 4 1 3 2 1 3 2 4 18 6 19 7 80 8 20 9 79 10 21 11 22 12 23 13
REMARK SMILES IDX 73 14 24 15 78 16 72 17 74 18 25 19 77 20 71 21 70 22 26 24
REMARK SMILES IDX 58 25 38 26 57 27 39 28 42 29 56 30 75 31 40 32 41 33 55 35
REMARK SMILES IDX 76 36 43 37 27 38 28 39 36 40 29 41 30 42 34 43 37 44 31 45
REMARK SMILES IDX 32 46 35 47 33 48 59 49 60 50 68 51 61 52 62 53 66 54 69 55
REMARK SMILES IDX 63 56 64 57 67 58 65 59 44 60 45 61 53 62 46 63 47 64 51 65
REMARK SMILES IDX 54 66 48 67 49 68 52 69 50 70 5 71 6 72 7 73 8 74 9 76 10 77
REMARK SMILES IDX 11 78 17 79 12 80 16 81 13 82 15 83 14 84
REMARK H PARENT 3 5 74 23 42 34 7 75
REMARK Flexibility Score: inf
ROOT
ATOM      1  C   UNL     1       4.589   1.075   0.918  1.00  0.00     0.118 C 
ENDROOT
BRANCH   1   2
ATOM      2  N   UNL     1       3.154   0.845   0.809  1.00  0.00    -0.352 N 
ATOM      3  O   UNL     1       1.234   0.138  -0.136  1.00  0.00    -0.269 OA
ATOM      4  C   UNL     1       2.458   0.044  -0.061  1.00  0.00     0.251 C 
ATOM      5  H   UNL     1       2.601   1.340   1.456  1.00  0.00     0.163 HD
BRANCH   4   6
ATOM      6  C   UNL     1       3.177  -0.926  -0.910  1.00  0.00     0.039 A 
ATOM      7  C   UNL     1       4.228  -1.681  -0.383  1.00  0.00     0.014 A 
ATOM      8  C   UNL     1       2.773  -1.116  -2.234  1.00  0.00     0.014 A 
ATOM      9  C   UNL     1       4.962  -2.518  -1.210  1.00  0.00     0.010 A 
ATOM     10  C   UNL     1       3.444  -2.042  -3.037  1.00  0.00     0.010 A 
ATOM     11  C   UNL     1       4.549  -2.744  -2.531  1.00  0.00    -0.014 A 
BRANCH  11  12
ATOM     12  C   UNL     1       5.198  -3.828  -3.306  1.00  0.00     0.031 A 
ATOM     13  C   UNL     1       5.976  -3.546  -4.555  1.00  0.00     0.074 A 
ATOM     14  C   UNL     1       5.064  -5.090  -2.849  1.00  0.00     0.049 A 
ATOM     15  N   UNL     1       6.576  -4.391  -5.355  1.00  0.00    -0.248 NA
ATOM     16  C   UNL     1       6.095  -2.139  -4.971  1.00  0.00     0.031 C 
ATOM     17  C   UNL     1       4.312  -5.475  -1.650  1.00  0.00     0.029 A 
ATOM     18  N   UNL     1       5.551  -6.279  -3.326  1.00  0.00    -0.354 N 
ATOM     19  C   UNL     1       7.125  -3.627  -6.376  1.00  0.00     0.074 A 
ATOM     20  C   UNL     1       6.778  -2.248  -6.104  1.00  0.00     0.031 C 
ATOM     21  C   UNL     1       4.411  -6.798  -1.470  1.00  0.00     0.029 A 
ATOM     22  C   UNL     1       5.162  -7.366  -2.581  1.00  0.00     0.049 A 
ATOM     23  H   UNL     1       6.124  -6.348  -4.124  1.00  0.00     0.167 HD
ATOM     24  C   UNL     1       7.850  -4.050  -7.438  1.00  0.00     0.037 A 
ATOM     25  C   UNL     1       5.349  -8.681  -2.791  1.00  0.00     0.037 A 
ATOM     26  C   UNL     1       8.206  -5.426  -7.679  1.00  0.00     0.049 A 
ATOM     27  C   UNL     1       6.124  -9.113  -4.003  1.00  0.00     0.074 A 
ATOM     28  C   UNL     1       9.006  -5.944  -8.683  1.00  0.00     0.029 A 
ATOM     29  N   UNL     1       7.771  -6.503  -6.920  1.00  0.00    -0.354 N 
ATOM     30  N   UNL     1       6.702  -8.375  -4.919  1.00  0.00    -0.248 NA
ATOM     31  C   UNL     1       6.264 -10.558  -4.217  1.00  0.00     0.031 C 
ATOM     32  C   UNL     1       8.997  -7.338  -8.575  1.00  0.00     0.029 A 
ATOM     33  C   UNL     1       8.243  -7.687  -7.466  1.00  0.00     0.049 A 
ATOM     34  H   UNL     1       7.210  -6.437  -6.114  1.00  0.00     0.167 HD
ATOM     35  C   UNL     1       7.282  -9.264  -5.811  1.00  0.00     0.074 A 
ATOM     36  C   UNL     1       7.017 -10.595  -5.307  1.00  0.00     0.031 C 
ATOM     37  C   UNL     1       7.963  -9.003  -6.953  1.00  0.00     0.037 A 
BRANCH  24  38
ATOM     38  C   UNL     1       8.303  -3.036  -8.447  1.00  0.00     0.064 A 
ATOM     39  C   UNL     1       9.342  -2.135  -8.178  1.00  0.00     0.173 A 
ATOM     40  C   UNL     1       7.763  -3.047  -9.743  1.00  0.00     0.173 A 
ATOM     41  F   UNL     1       9.888  -2.079  -6.954  1.00  0.00    -0.203 F 
ATOM     42  C   UNL     1       9.823  -1.281  -9.168  1.00  0.00     0.198 A 
ATOM     43  C   UNL     1       8.263  -2.211 -10.737  1.00  0.00     0.198 A 
ATOM     44  F   UNL     1       6.771  -3.896 -10.055  1.00  0.00    -0.203 F 
ATOM     45  F   UNL     1      10.806  -0.415  -8.885  1.00  0.00    -0.200 F 
ATOM     46  C   UNL     1       9.292  -1.328 -10.449  1.00  0.00     0.200 A 
ATOM     47  F   UNL     1       7.759  -2.270 -11.978  1.00  0.00    -0.200 F 
ATOM     48  F   UNL     1       9.774  -0.524 -11.407  1.00  0.00    -0.200 F 
ENDBRANCH  24  38
BRANCH  25  49
ATOM     49  C   UNL     1       4.745  -9.679  -1.869  1.00  0.00     0.064 A 
ATOM     50  C   UNL     1       5.544 -10.534  -1.100  1.00  0.00     0.173 A 
ATOM     51  C   UNL     1       3.352  -9.815  -1.762  1.00  0.00     0.173 A 
ATOM     52  F   UNL     1       6.880 -10.455  -1.179  1.00  0.00    -0.203 F 
ATOM     53  C   UNL     1       4.974 -11.511  -0.286  1.00  0.00     0.198 A 
ATOM     54  C   UNL     1       2.783 -10.764  -0.917  1.00  0.00     0.198 A 
ATOM     55  F   UNL     1       2.540  -9.017  -2.471  1.00  0.00    -0.203 F 
ATOM     56  F   UNL     1       5.761 -12.360   0.388  1.00  0.00    -0.200 F 
ATOM     57  C   UNL     1       3.594 -11.622  -0.191  1.00  0.00     0.200 A 
ATOM     58  F   UNL     1       1.450 -10.853  -0.814  1.00  0.00    -0.200 F 
ATOM     59  F   UNL     1       3.047 -12.563   0.589  1.00  0.00    -0.200 F 
ENDBRANCH  25  49
BRANCH  37  60
ATOM     60  C   UNL     1       8.473 -10.182  -7.727  1.00  0.00     0.064 A 
ATOM     61  C   UNL     1       7.601 -11.029  -8.426  1.00  0.00     0.173 A 
ATOM     62  C   UNL     1       9.848 -10.449  -7.799  1.00  0.00     0.173 A 
ATOM     63  F   UNL     1       6.275 -10.828  -8.370  1.00  0.00    -0.203 F 
ATOM     64  C   UNL     1       8.085 -12.114  -9.150  1.00  0.00     0.198 A 
ATOM     65  C   UNL     1      10.332 -11.514  -8.553  1.00  0.00     0.198 A 
ATOM     66  F   UNL     1      10.725  -9.666  -7.152  1.00  0.00    -0.203 F 
ATOM     67  F   UNL     1       7.230 -12.940  -9.768  1.00  0.00    -0.200 F 
ATOM     68  C   UNL     1       9.450 -12.350  -9.221  1.00  0.00     0.200 A 
ATOM     69  F   UNL     1      11.652 -11.732  -8.632  1.00  0.00    -0.200 F 
ATOM     70  F   UNL     1       9.916 -13.389  -9.928  1.00  0.00    -0.200 F 
ENDBRANCH  37  60
ENDBRANCH  11  12
ENDBRANCH   4   6
ENDBRANCH   1   2
BRANCH   1  71
ATOM     71  C   UNL     1       4.979   2.496   0.550  1.00  0.00     0.042 C 
BRANCH  71  72
ATOM     72  C   UNL     1       4.421   3.538   1.505  1.00  0.00     0.118 C 
BRANCH  72  73
ATOM     73  N   UNL     1       4.981   3.413   2.844  1.00  0.00    -0.351 N 
ATOM     74  C   UNL     1       5.845   4.238   3.509  1.00  0.00     0.263 C 
ATOM     75  H   UNL     1       4.694   2.616   3.344  1.00  0.00     0.163 HD
ATOM     76  O   UNL     1       6.329   3.881   4.578  1.00  0.00    -0.268 OA
BRANCH  74  77
ATOM     77  C   UNL     1       6.165   5.543   2.903  1.00  0.00     0.112 A 
ATOM     78  C   UNL     1       5.268   6.453   2.483  1.00  0.00     0.118 A 
ATOM     79  S   UNL     1       7.842   5.994   2.600  1.00  0.00    -0.091 S 
ATOM     80  N   UNL     1       5.895   7.484   1.835  1.00  0.00    -0.297 N 
ATOM     81  C   UNL     1       7.256   7.417   1.793  1.00  0.00     0.194 A 
ATOM     82  C   UNL     1       5.517   8.577   1.119  1.00  0.00     0.114 A 
ATOM     83  N   UNL     1       7.802   8.382   1.107  1.00  0.00    -0.227 NA
ATOM     84  C   UNL     1       6.714   9.121   0.681  1.00  0.00     0.133 A 
ENDBRANCH  74  77
ENDBRANCH  72  73
ENDBRANCH  71  72
ENDBRANCH   1  71
TORSDOF 10
