REMARK SMILES CCCc1nc(C[N@H+]2CCCC[C@@H]2C(=O)NCCCNC(=O)c2ccc(-c3c4nc(c(-c5c(F)c(F)c(F)c(F)c5F)c5ccc([nH]5)c(-c5c(F)c(F)c(F)c(F)c5F)c5nc(c(-c6c(F)c(F)c(F)c(F)c6F)c6ccc3[nH]6)C=C5)C=C4)cc2)cs1
REMARK SMILES IDX 17 1 16 2 14 3 15 4 13 6 8 7 9 8 10 10 12 11 11 12 7 13 6 14
REMARK SMILES IDX 4 15 5 16 87 17 86 18 3 19 2 20 1 21 18 22 19 23 20 24 21 25
REMARK SMILES IDX 22 27 23 28 24 29 85 30 25 31 84 32 26 33 27 34 28 35 78 36
REMARK SMILES IDX 29 37 83 38 77 39 79 40 30 41 82 42 76 43 75 44 31 46 63 47
REMARK SMILES IDX 43 48 62 49 44 50 47 51 61 52 80 53 45 54 46 55 60 57 81 58
REMARK SMILES IDX 48 59 32 60 33 61 41 62 34 63 35 64 39 65 42 66 36 67 37 68
REMARK SMILES IDX 40 69 38 70 64 71 65 72 73 73 66 74 67 75 71 76 74 77 68 78
REMARK SMILES IDX 69 79 72 80 70 81 49 82 50 83 58 84 51 85 52 86 56 87 59 88
REMARK SMILES IDX 53 89 54 90 57 91 55 92
REMARK H PARENT 16 5 8 9 20 26 79 45 47 56
REMARK Flexibility Score: inf
ROOT
ATOM      1  C   UNL     1      -0.933   3.125   7.388  1.00  0.00     0.118 C 
ENDROOT
BRANCH   1   2
ATOM      2  N   UNL     1      -0.602   1.763   7.773  1.00  0.00    -0.351 N 
ATOM      3  C   UNL     1      -0.981   0.576   7.216  1.00  0.00     0.278 C 
ATOM      4  O   UNL     1      -0.588  -0.460   7.761  1.00  0.00    -0.268 OA
ATOM      5  H   UNL     1      -0.012   1.684   8.557  1.00  0.00     0.163 HD
BRANCH   3   6
ATOM      6  C   UNL     1      -1.841   0.517   5.935  1.00  0.00     0.274 C 
ATOM      7  N   UNL     1      -1.218   1.302   4.843  1.00  0.00    -0.320 N 
ATOM      8  C   UNL     1      -2.047   1.354   3.634  1.00  0.00     0.263 C 
ATOM      9  H   UNL     1      -1.167   2.251   5.212  1.00  0.00     0.349 HD
ATOM     10  C   UNL     1      -3.444   1.892   3.945  1.00  0.00     0.062 C 
ATOM     11  C   UNL     1      -3.280   0.953   6.251  1.00  0.00     0.076 C 
ATOM     12  C   UNL     1      -4.136   1.032   4.994  1.00  0.00     0.012 C 
BRANCH   7  13
ATOM     13  C   UNL     1       0.180   0.925   4.543  1.00  0.00     0.321 C 
BRANCH  13  14
ATOM     14  C   UNL     1       0.351  -0.440   3.938  1.00  0.00     0.106 A 
ATOM     15  C   UNL     1       0.754  -1.774   2.206  1.00  0.00     0.093 A 
ATOM     16  N   UNL     1       0.560  -0.526   2.570  1.00  0.00    -0.240 NA
ATOM     17  S   UNL     1       0.651  -2.927   3.479  1.00  0.00    -0.127 S 
ATOM     18  C   UNL     1       0.387  -1.656   4.595  1.00  0.00     0.096 A 
BRANCH  15  19
ATOM     19  C   UNL     1       1.111  -2.220   0.820  1.00  0.00     0.067 C 
BRANCH  19  20
ATOM     20  C   UNL     1       0.511  -1.355  -0.292  1.00  0.00     0.004 C 
ATOM     21  C   UNL     1       1.110   0.043  -0.387  1.00  0.00     0.004 C 
ENDBRANCH  19  20
ENDBRANCH  15  19
ENDBRANCH  13  14
ENDBRANCH   7  13
ENDBRANCH   3   6
ENDBRANCH   1   2
BRANCH   1  22
ATOM     22  C   UNL     1      -1.863   3.777   8.403  1.00  0.00     0.042 C 
BRANCH  22  23
ATOM     23  C   UNL     1      -1.230   3.974   9.773  1.00  0.00     0.118 C 
BRANCH  23  24
ATOM     24  N   UNL     1      -0.170   4.971   9.761  1.00  0.00    -0.352 N 
ATOM     25  C   UNL     1      -0.042   6.117  10.503  1.00  0.00     0.251 C 
ATOM     26  H   UNL     1       0.563   4.798   9.127  1.00  0.00     0.163 HD
ATOM     27  O   UNL     1       0.836   6.933  10.225  1.00  0.00    -0.269 OA
BRANCH  25  28
ATOM     28  C   UNL     1      -0.968   6.389  11.622  1.00  0.00     0.039 A 
ATOM     29  C   UNL     1      -1.475   7.683  11.777  1.00  0.00     0.014 A 
ATOM     30  C   UNL     1      -1.326   5.384  12.524  1.00  0.00     0.014 A 
ATOM     31  C   UNL     1      -2.385   7.952  12.800  1.00  0.00     0.010 A 
ATOM     32  C   UNL     1      -2.294   5.633  13.493  1.00  0.00     0.010 A 
ATOM     33  C   UNL     1      -2.827   6.922  13.646  1.00  0.00    -0.014 A 
BRANCH  33  34
ATOM     34  C   UNL     1      -3.837   7.175  14.704  1.00  0.00     0.031 A 
ATOM     35  C   UNL     1      -3.470   7.012  16.152  1.00  0.00     0.074 A 
ATOM     36  C   UNL     1      -5.099   7.492  14.357  1.00  0.00     0.049 A 
ATOM     37  N   UNL     1      -4.225   7.123  17.216  1.00  0.00    -0.248 NA
ATOM     38  C   UNL     1      -2.075   6.647  16.443  1.00  0.00     0.031 C 
ATOM     39  C   UNL     1      -5.590   7.631  12.986  1.00  0.00     0.029 A 
ATOM     40  N   UNL     1      -6.203   7.744  15.133  1.00  0.00    -0.354 N 
ATOM     41  C   UNL     1      -3.403   6.826  18.295  1.00  0.00     0.074 A 
ATOM     42  C   UNL     1      -2.107   6.478  17.756  1.00  0.00     0.031 C 
ATOM     43  C   UNL     1      -6.889   7.967  13.016  1.00  0.00     0.029 A 
ATOM     44  C   UNL     1      -7.332   8.031  14.405  1.00  0.00     0.049 A 
ATOM     45  H   UNL     1      -6.188   7.721  16.117  1.00  0.00     0.167 HD
ATOM     46  C   UNL     1      -3.697   6.864  19.617  1.00  0.00     0.037 A 
ATOM     47  C   UNL     1      -8.584   8.310  14.815  1.00  0.00     0.037 A 
ATOM     48  C   UNL     1      -4.980   7.239  20.150  1.00  0.00     0.049 A 
ATOM     49  C   UNL     1      -8.883   8.350  16.288  1.00  0.00     0.074 A 
ATOM     50  C   UNL     1      -5.360   7.369  21.474  1.00  0.00     0.029 A 
ATOM     51  N   UNL     1      -6.094   7.544  19.382  1.00  0.00    -0.354 N 
ATOM     52  N   UNL     1      -8.081   8.133  17.302  1.00  0.00    -0.248 NA
ATOM     53  C   UNL     1     -10.262   8.681  16.674  1.00  0.00     0.031 C 
ATOM     54  C   UNL     1      -6.716   7.712  21.508  1.00  0.00     0.029 A 
ATOM     55  C   UNL     1      -7.168   7.843  20.205  1.00  0.00     0.049 A 
ATOM     56  H   UNL     1      -6.118   7.547  18.398  1.00  0.00     0.167 HD
ATOM     57  C   UNL     1      -8.847   8.327  18.443  1.00  0.00     0.074 A 
ATOM     58  C   UNL     1     -10.175   8.694  17.997  1.00  0.00     0.031 C 
ATOM     59  C   UNL     1      -8.482   8.211  19.744  1.00  0.00     0.037 A 
BRANCH  46  60
ATOM     60  C   UNL     1      -2.606   6.493  20.579  1.00  0.00     0.064 A 
ATOM     61  C   UNL     1      -1.488   7.319  20.777  1.00  0.00     0.173 A 
ATOM     62  C   UNL     1      -2.690   5.313  21.332  1.00  0.00     0.173 A 
ATOM     63  F   UNL     1      -1.353   8.453  20.073  1.00  0.00    -0.203 F 
ATOM     64  C   UNL     1      -0.481   6.961  21.670  1.00  0.00     0.198 A 
ATOM     65  C   UNL     1      -1.696   4.973  22.247  1.00  0.00     0.198 A 
ATOM     66  F   UNL     1      -3.740   4.490  21.186  1.00  0.00    -0.203 F 
ATOM     67  F   UNL     1       0.601   7.740  21.804  1.00  0.00    -0.200 F 
ATOM     68  C   UNL     1      -0.589   5.792  22.409  1.00  0.00     0.200 A 
ATOM     69  F   UNL     1      -1.808   3.850  22.969  1.00  0.00    -0.200 F 
ATOM     70  F   UNL     1       0.378   5.452  23.272  1.00  0.00    -0.200 F 
ENDBRANCH  46  60
BRANCH  47  71
ATOM     71  C   UNL     1      -9.641   8.606  13.813  1.00  0.00     0.064 A 
ATOM     72  C   UNL     1     -10.152   9.903  13.672  1.00  0.00     0.173 A 
ATOM     73  C   UNL     1     -10.158   7.605  12.978  1.00  0.00     0.173 A 
ATOM     74  F   UNL     1      -9.703  10.889  14.463  1.00  0.00    -0.203 F 
ATOM     75  C   UNL     1     -11.154  10.185  12.745  1.00  0.00     0.198 A 
ATOM     76  C   UNL     1     -11.140   7.894  12.033  1.00  0.00     0.198 A 
ATOM     77  F   UNL     1      -9.698   6.349  13.071  1.00  0.00    -0.203 F 
ATOM     78  F   UNL     1     -11.654  11.425  12.660  1.00  0.00    -0.200 F 
ATOM     79  C   UNL     1     -11.643   9.182  11.923  1.00  0.00     0.200 A 
ATOM     80  F   UNL     1     -11.601   6.925  11.230  1.00  0.00    -0.200 F 
ATOM     81  F   UNL     1     -12.602   9.455  11.028  1.00  0.00    -0.200 F 
ENDBRANCH  47  71
BRANCH  59  82
ATOM     82  C   UNL     1      -9.526   8.516  20.778  1.00  0.00     0.064 A 
ATOM     83  C   UNL     1     -10.599   7.646  21.019  1.00  0.00     0.173 A 
ATOM     84  C   UNL     1      -9.431   9.676  21.561  1.00  0.00     0.173 A 
ATOM     85  F   UNL     1     -10.743   6.532  20.285  1.00  0.00    -0.203 F 
ATOM     86  C   UNL     1     -11.553   7.939  21.990  1.00  0.00     0.198 A 
ATOM     87  C   UNL     1     -10.370   9.952  22.551  1.00  0.00     0.198 A 
ATOM     88  F   UNL     1      -8.420  10.538  21.374  1.00  0.00    -0.203 F 
ATOM     89  F   UNL     1     -12.596   7.118  22.171  1.00  0.00    -0.200 F 
ATOM     90  C   UNL     1     -11.434   9.087  22.759  1.00  0.00     0.200 A 
ATOM     91  F   UNL     1     -10.246  11.055  23.302  1.00  0.00    -0.200 F 
ATOM     92  F   UNL     1     -12.350   9.365  23.697  1.00  0.00    -0.200 F 
ENDBRANCH  59  82
ENDBRANCH  33  34
ENDBRANCH  25  28
ENDBRANCH  23  24
ENDBRANCH  22  23
ENDBRANCH   1  22
TORSDOF 14
