REMARK SMILES COc1cc(/C=C2\SC(=S)N([C@H](C)C(=O)NCCCNC(=O)c3ccc(-c4c5nc(c(-c6c(F)c(F)c(F)c(F)c6F)c6ccc([nH]6)c(-c6c(F)c(F)c(F)c(F)c6F)c6nc(c(-c7c(F)c(F)c(F)c(F)c7F)c7ccc4[nH]7)C=C6)C=C5)cc3)C2=O)ccc1OCc1ccc(Cl)cc1Cl
REMARK SMILES IDX 14 1 15 2 16 3 12 5 13 6 11 7 6 8 7 9 8 10 86 11 9 12 87 13
REMARK SMILES IDX 10 14 5 15 3 16 4 17 90 18 89 19 88 20 2 21 1 22 91 23 92 24
REMARK SMILES IDX 93 25 94 26 99 27 95 28 98 29 100 30 96 31 97 32 17 33 18 34
REMARK SMILES IDX 19 35 20 36 21 37 22 39 23 40 24 41 85 42 25 43 84 44 26 45
REMARK SMILES IDX 27 46 28 47 78 48 29 49 83 50 77 51 79 52 30 53 82 54 76 55
REMARK SMILES IDX 75 56 31 58 63 59 43 60 62 61 44 62 47 63 61 64 80 65 45 66
REMARK SMILES IDX 46 67 60 69 81 70 48 71 32 72 33 73 41 74 34 75 35 76 39 77
REMARK SMILES IDX 42 78 36 79 37 80 40 81 38 82 64 83 65 84 73 85 66 86 67 87
REMARK SMILES IDX 71 88 74 89 68 90 69 91 72 92 70 93 49 94 50 95 58 96 51 97
REMARK SMILES IDX 52 98 56 99 59 100 53 101 54 102 57 103 55 104
REMARK H PARENT 16 4 20 38 79 57 47 68
REMARK Flexibility Score: inf
ROOT
ATOM      1  C   UNL     1      -0.949  -4.115  10.165  1.00  0.00     0.242 C 
ATOM      2  O   UNL     1      -0.304  -4.638  11.079  1.00  0.00    -0.273 OA
ATOM      3  N   UNL     1      -1.656  -4.961   9.361  1.00  0.00    -0.354 N 
ATOM      4  H   UNL     1      -1.650  -5.903   9.650  1.00  0.00     0.163 HD
ENDROOT
BRANCH   1   5
ATOM      5  C   UNL     1      -0.889  -2.583   9.939  1.00  0.00     0.178 C 
ATOM      6  C   UNL     1      -0.048  -2.255   8.706  1.00  0.00     0.042 C 
BRANCH   5   7
ATOM      7  N   UNL     1      -2.254  -2.010  10.034  1.00  0.00    -0.281 N 
ATOM      8  C   UNL     1      -5.454  -1.748   8.432  1.00  0.00     0.029 C 
ATOM      9  C   UNL     1      -4.453  -1.603   9.312  1.00  0.00     0.081 C 
ATOM     10  S   UNL     1      -4.566  -1.366  11.005  1.00  0.00    -0.054 SA
ATOM     11  C   UNL     1      -3.024  -1.706   8.924  1.00  0.00     0.266 C 
ATOM     12  C   UNL     1      -2.877  -1.787  11.254  1.00  0.00     0.149 C 
ATOM     13  O   UNL     1      -2.645  -1.532   7.780  1.00  0.00    -0.268 OA
ATOM     14  S   UNL     1      -2.239  -1.890  12.793  1.00  0.00    -0.052 S 
BRANCH   8  15
ATOM     15  C   UNL     1      -6.862  -1.552   8.791  1.00  0.00    -0.020 A 
ATOM     16  C   UNL     1      -9.015  -2.328   9.633  1.00  0.00     0.161 A 
ATOM     17  C   UNL     1      -7.711  -2.603   9.177  1.00  0.00     0.058 A 
ATOM     18  C   UNL     1      -9.459  -1.001   9.697  1.00  0.00     0.161 A 
ATOM     19  C   UNL     1      -8.594   0.034   9.323  1.00  0.00     0.051 A 
ATOM     20  C   UNL     1      -7.317  -0.236   8.853  1.00  0.00     0.012 A 
BRANCH  16  21
ATOM     21  O   UNL     1      -9.813  -3.311  10.157  1.00  0.00    -0.493 OA
ATOM     22  C   UNL     1      -9.946  -4.469   9.339  1.00  0.00     0.278 C 
ENDBRANCH  16  21
BRANCH  18  23
ATOM     23  O   UNL     1     -10.677  -0.536  10.110  1.00  0.00    -0.485 OA
BRANCH  23  24
ATOM     24  C   UNL     1     -11.860  -1.296   9.859  1.00  0.00     0.267 C 
BRANCH  24  25
ATOM     25  C   UNL     1     -12.125  -1.756   8.435  1.00  0.00     0.008 A 
ATOM     26  C   UNL     1     -12.741  -3.012   8.266  1.00  0.00     0.010 A 
ATOM     27  C   UNL     1     -11.827  -1.011   7.283  1.00  0.00     0.049 A 
ATOM     28  C   UNL     1     -12.924  -3.562   6.996  1.00  0.00     0.021 A 
ATOM     29  C   UNL     1     -11.979  -1.575   6.011  1.00  0.00     0.041 A 
ATOM     30  Cl  UNL     1     -11.333   0.643   7.337  1.00  0.00    -0.084 Cl
ATOM     31  C   UNL     1     -12.506  -2.854   5.876  1.00  0.00     0.042 A 
ATOM     32  Cl  UNL     1     -12.662  -3.557   4.315  1.00  0.00    -0.084 Cl
ENDBRANCH  24  25
ENDBRANCH  23  24
ENDBRANCH  18  23
ENDBRANCH   8  15
ENDBRANCH   5   7
ENDBRANCH   1   5
BRANCH   3  33
ATOM     33  C   UNL     1      -2.413  -4.704   8.155  1.00  0.00     0.117 C 
BRANCH  33  34
ATOM     34  C   UNL     1      -1.919  -5.469   6.945  1.00  0.00     0.042 C 
BRANCH  34  35
ATOM     35  C   UNL     1      -2.207  -6.955   7.007  1.00  0.00     0.118 C 
BRANCH  35  36
ATOM     36  N   UNL     1      -3.634  -7.254   6.977  1.00  0.00    -0.352 N 
ATOM     37  C   UNL     1      -4.408  -7.833   6.000  1.00  0.00     0.251 C 
ATOM     38  H   UNL     1      -4.124  -6.999   7.791  1.00  0.00     0.163 HD
ATOM     39  O   UNL     1      -5.631  -7.813   6.107  1.00  0.00    -0.269 OA
BRANCH  37  40
ATOM     40  C   UNL     1      -3.782  -8.451   4.811  1.00  0.00     0.039 A 
ATOM     41  C   UNL     1      -4.394  -8.306   3.563  1.00  0.00     0.014 A 
ATOM     42  C   UNL     1      -2.596  -9.179   4.918  1.00  0.00     0.014 A 
ATOM     43  C   UNL     1      -3.772  -8.816   2.421  1.00  0.00     0.010 A 
ATOM     44  C   UNL     1      -1.918  -9.576   3.772  1.00  0.00     0.010 A 
ATOM     45  C   UNL     1      -2.504  -9.412   2.510  1.00  0.00    -0.014 A 
BRANCH  45  46
ATOM     46  C   UNL     1      -1.776  -9.888   1.306  1.00  0.00     0.031 A 
ATOM     47  C   UNL     1      -1.391 -11.339   1.183  1.00  0.00     0.074 A 
ATOM     48  C   UNL     1      -1.392  -9.005   0.363  1.00  0.00     0.049 A 
ATOM     49  N   UNL     1      -0.680 -11.933   0.259  1.00  0.00    -0.248 NA
ATOM     50  C   UNL     1      -1.835 -12.236   2.263  1.00  0.00     0.031 C 
ATOM     51  C   UNL     1      -1.654  -7.565   0.393  1.00  0.00     0.029 A 
ATOM     52  N   UNL     1      -0.688  -9.188  -0.802  1.00  0.00    -0.354 N 
ATOM     53  C   UNL     1      -0.572 -13.259   0.659  1.00  0.00     0.074 A 
ATOM     54  C   UNL     1      -1.237 -13.372   1.937  1.00  0.00     0.031 C 
ATOM     55  C   UNL     1      -1.148  -7.001  -0.715  1.00  0.00     0.029 A 
ATOM     56  C   UNL     1      -0.485  -8.028  -1.511  1.00  0.00     0.049 A 
ATOM     57  H   UNL     1      -0.360 -10.066  -1.101  1.00  0.00     0.167 HD
ATOM     58  C   UNL     1       0.005 -14.295   0.005  1.00  0.00     0.037 A 
ATOM     59  C   UNL     1       0.171  -7.818  -2.669  1.00  0.00     0.037 A 
ATOM     60  C   UNL     1       0.632 -14.185  -1.285  1.00  0.00     0.049 A 
ATOM     61  C   UNL     1       0.805  -8.989  -3.373  1.00  0.00     0.074 A 
ATOM     62  C   UNL     1       1.176 -15.188  -2.067  1.00  0.00     0.029 A 
ATOM     63  N   UNL     1       0.800 -12.997  -1.981  1.00  0.00    -0.354 N 
ATOM     64  N   UNL     1       0.828 -10.252  -3.025  1.00  0.00    -0.248 NA
ATOM     65  C   UNL     1       1.501  -8.702  -4.635  1.00  0.00     0.031 C 
ATOM     66  C   UNL     1       1.726 -14.599  -3.210  1.00  0.00     0.029 A 
ATOM     67  C   UNL     1       1.468 -13.239  -3.171  1.00  0.00     0.049 A 
ATOM     68  H   UNL     1       0.491 -12.114  -1.675  1.00  0.00     0.167 HD
ATOM     69  C   UNL     1       1.507 -10.915  -4.039  1.00  0.00     0.074 A 
ATOM     70  C   UNL     1       1.867  -9.915  -5.022  1.00  0.00     0.031 C 
ATOM     71  C   UNL     1       1.806 -12.233  -4.146  1.00  0.00     0.037 A 
BRANCH  58  72
ATOM     72  C   UNL     1      -0.017 -15.641   0.672  1.00  0.00     0.064 A 
ATOM     73  C   UNL     1      -1.208 -16.362   0.846  1.00  0.00     0.173 A 
ATOM     74  C   UNL     1       1.177 -16.237   1.107  1.00  0.00     0.173 A 
ATOM     75  F   UNL     1      -2.380 -15.835   0.459  1.00  0.00    -0.203 F 
ATOM     76  C   UNL     1      -1.207 -17.614   1.456  1.00  0.00     0.198 A 
ATOM     77  C   UNL     1       1.179 -17.503   1.686  1.00  0.00     0.198 A 
ATOM     78  F   UNL     1       2.346 -15.595   0.962  1.00  0.00    -0.203 F 
ATOM     79  F   UNL     1      -2.365 -18.259   1.659  1.00  0.00    -0.200 F 
ATOM     80  C   UNL     1      -0.014 -18.187   1.868  1.00  0.00     0.200 A 
ATOM     81  F   UNL     1       2.335 -18.062   2.070  1.00  0.00    -0.200 F 
ATOM     82  F   UNL     1      -0.014 -19.396   2.446  1.00  0.00    -0.200 F 
ENDBRANCH  58  72
BRANCH  59  83
ATOM     83  C   UNL     1       0.242  -6.452  -3.251  1.00  0.00     0.064 A 
ATOM     84  C   UNL     1      -0.420  -6.145  -4.449  1.00  0.00     0.173 A 
ATOM     85  C   UNL     1       0.985  -5.431  -2.639  1.00  0.00     0.173 A 
ATOM     86  F   UNL     1      -1.127  -7.091  -5.083  1.00  0.00    -0.203 F 
ATOM     87  C   UNL     1      -0.318  -4.881  -5.026  1.00  0.00     0.198 A 
ATOM     88  C   UNL     1       1.059  -4.158  -3.200  1.00  0.00     0.198 A 
ATOM     89  F   UNL     1       1.633  -5.669  -1.489  1.00  0.00    -0.203 F 
ATOM     90  F   UNL     1      -0.915  -4.633  -6.200  1.00  0.00    -0.200 F 
ATOM     91  C   UNL     1       0.417  -3.887  -4.399  1.00  0.00     0.200 A 
ATOM     92  F   UNL     1       1.758  -3.196  -2.582  1.00  0.00    -0.200 F 
ATOM     93  F   UNL     1       0.515  -2.671  -4.954  1.00  0.00    -0.200 F 
ENDBRANCH  59  83
BRANCH  71  94
ATOM     94  C   UNL     1       2.520 -12.680  -5.389  1.00  0.00     0.064 A 
ATOM     95  C   UNL     1       3.861 -12.348  -5.632  1.00  0.00     0.173 A 
ATOM     96  C   UNL     1       1.862 -13.487  -6.331  1.00  0.00     0.173 A 
ATOM     97  F   UNL     1       4.530 -11.568  -4.771  1.00  0.00    -0.203 F 
ATOM     98  C   UNL     1       4.507 -12.784  -6.786  1.00  0.00     0.198 A 
ATOM     99  C   UNL     1       2.522 -13.950  -7.465  1.00  0.00     0.198 A 
ATOM    100  F   UNL     1       0.581 -13.840  -6.142  1.00  0.00    -0.203 F 
ATOM    101  F   UNL     1       5.772 -12.411  -7.023  1.00  0.00    -0.200 F 
ATOM    102  C   UNL     1       3.841 -13.591  -7.696  1.00  0.00     0.200 A 
ATOM    103  F   UNL     1       1.881 -14.743  -8.334  1.00  0.00    -0.200 F 
ATOM    104  F   UNL     1       4.468 -14.017  -8.801  1.00  0.00    -0.200 F 
ENDBRANCH  71  94
ENDBRANCH  45  46
ENDBRANCH  37  40
ENDBRANCH  35  36
ENDBRANCH  34  35
ENDBRANCH  33  34
ENDBRANCH   3  33
TORSDOF 16
