REMARK SMILES CCCCNC(=O)[C@]1(C)CC[C@@](C)(C(=O)NCCCNC(=O)c2ccc(-c3c4nc(c(-c5c(F)c(F)c(F)c(F)c5F)c5ccc([nH]5)c(-c5c(F)c(F)c(F)c(F)c5F)c5nc(c(-c6c(F)c(F)c(F)c(F)c6F)c6ccc3[nH]6)C=C5)C=C4)cc2)C1(C)C
REMARK SMILES IDX 17 1 16 2 14 3 15 4 12 6 8 7 10 8 86 9 9 10 11 11 87 12
REMARK SMILES IDX 88 13 13 14 6 15 5 16 7 18 4 19 3 20 2 21 1 22 18 23 19 24
REMARK SMILES IDX 20 25 21 26 22 28 23 29 24 30 85 31 25 32 84 33 26 34 27 35
REMARK SMILES IDX 28 36 78 37 29 38 83 39 77 40 79 41 30 42 82 43 76 44 75 45
REMARK SMILES IDX 31 47 63 48 43 49 62 50 44 51 47 52 61 53 80 54 45 55 46 56
REMARK SMILES IDX 60 58 81 59 48 60 32 61 33 62 41 63 34 64 35 65 39 66 42 67
REMARK SMILES IDX 36 68 37 69 40 70 38 71 64 72 65 73 73 74 66 75 67 76 71 77
REMARK SMILES IDX 74 78 68 79 69 80 72 81 70 82 49 83 50 84 58 85 51 86 52 87
REMARK SMILES IDX 56 88 59 89 53 90 54 91 57 92 55 93
REMARK H PARENT 16 5 5 17 20 27 79 46 47 57
REMARK Flexibility Score: inf
ROOT
ATOM      1  C   UNL     1      -0.389   5.582   0.597  1.00  0.00     0.117 C 
ENDROOT
BRANCH   1   2
ATOM      2  N   UNL     1       0.962   5.903   0.195  1.00  0.00    -0.356 N 
ATOM      3  C   UNL     1       1.646   6.044  -0.962  1.00  0.00     0.226 C 
ATOM      4  O   UNL     1       2.830   6.353  -0.745  1.00  0.00    -0.274 OA
ATOM      5  H   UNL     1       1.541   6.062   0.976  1.00  0.00     0.163 HD
BRANCH   3   6
ATOM      6  C   UNL     1       1.138   5.869  -2.449  1.00  0.00     0.052 C 
ATOM      7  C   UNL     1      -0.975   4.549  -3.100  1.00  0.00     0.052 C 
ATOM      8  C   UNL     1      -1.304   6.051  -2.812  1.00  0.00     0.018 C 
ATOM      9  C   UNL     1       0.631   4.430  -2.929  1.00  0.00    -0.007 C 
ATOM     10  C   UNL     1      -1.837   3.725  -2.126  1.00  0.00     0.022 C 
ATOM     11  C   UNL     1      -0.005   6.831  -2.808  1.00  0.00     0.018 C 
ATOM     12  C   UNL     1       1.131   3.318  -1.987  1.00  0.00     0.013 C 
ATOM     13  C   UNL     1       1.278   3.995  -4.286  1.00  0.00     0.013 C 
ATOM     14  C   UNL     1       2.366   6.365  -3.290  1.00  0.00     0.022 C 
BRANCH   7  15
ATOM     15  C   UNL     1      -1.422   4.317  -4.584  1.00  0.00     0.226 C 
ATOM     16  N   UNL     1      -1.787   3.122  -5.110  1.00  0.00    -0.356 N 
ATOM     17  H   UNL     1      -1.798   3.127  -6.094  1.00  0.00     0.163 HD
ATOM     18  O   UNL     1      -1.355   5.237  -5.411  1.00  0.00    -0.274 OA
BRANCH  16  19
ATOM     19  C   UNL     1      -2.164   1.837  -4.551  1.00  0.00     0.116 C 
BRANCH  19  20
ATOM     20  C   UNL     1      -3.688   1.716  -4.440  1.00  0.00     0.021 C 
BRANCH  20  21
ATOM     21  C   UNL     1      -4.395   1.519  -5.786  1.00  0.00    -0.002 C 
ATOM     22  C   UNL     1      -4.157   0.140  -6.382  1.00  0.00     0.004 C 
ENDBRANCH  20  21
ENDBRANCH  19  20
ENDBRANCH  16  19
ENDBRANCH   7  15
ENDBRANCH   3   6
ENDBRANCH   1   2
BRANCH   1  23
ATOM     23  C   UNL     1      -0.535   4.196   1.229  1.00  0.00     0.042 C 
BRANCH  23  24
ATOM     24  C   UNL     1       0.101   4.086   2.608  1.00  0.00     0.118 C 
BRANCH  24  25
ATOM     25  N   UNL     1      -0.863   4.412   3.646  1.00  0.00    -0.352 N 
ATOM     26  C   UNL     1      -1.560   3.577   4.482  1.00  0.00     0.251 C 
ATOM     27  H   UNL     1      -1.042   5.372   3.767  1.00  0.00     0.163 HD
ATOM     28  O   UNL     1      -2.568   4.003   5.050  1.00  0.00    -0.269 OA
BRANCH  26  29
ATOM     29  C   UNL     1      -1.129   2.179   4.719  1.00  0.00     0.039 A 
ATOM     30  C   UNL     1      -2.105   1.196   4.924  1.00  0.00     0.014 A 
ATOM     31  C   UNL     1       0.222   1.839   4.837  1.00  0.00     0.014 A 
ATOM     32  C   UNL     1      -1.730  -0.119   5.219  1.00  0.00     0.010 A 
ATOM     33  C   UNL     1       0.597   0.513   5.053  1.00  0.00     0.010 A 
ATOM     34  C   UNL     1      -0.373  -0.476   5.272  1.00  0.00    -0.014 A 
BRANCH  34  35
ATOM     35  C   UNL     1       0.053  -1.860   5.612  1.00  0.00     0.031 A 
ATOM     36  C   UNL     1       0.839  -2.118   6.871  1.00  0.00     0.074 A 
ATOM     37  C   UNL     1      -0.211  -2.876   4.768  1.00  0.00     0.049 A 
ATOM     38  N   UNL     1       1.389  -3.228   7.294  1.00  0.00    -0.248 NA
ATOM     39  C   UNL     1       1.061  -0.965   7.759  1.00  0.00     0.031 C 
ATOM     40  C   UNL     1      -0.926  -2.757   3.497  1.00  0.00     0.029 A 
ATOM     41  N   UNL     1       0.108  -4.210   4.846  1.00  0.00    -0.354 N 
ATOM     42  C   UNL     1       2.046  -2.900   8.474  1.00  0.00     0.074 A 
ATOM     43  C   UNL     1       1.860  -1.481   8.681  1.00  0.00     0.031 C 
ATOM     44  C   UNL     1      -1.004  -3.968   2.921  1.00  0.00     0.029 A 
ATOM     45  C   UNL     1      -0.315  -4.942   3.763  1.00  0.00     0.049 A 
ATOM     46  H   UNL     1       0.595  -4.604   5.606  1.00  0.00     0.167 HD
ATOM     47  C   UNL     1       2.726  -3.712   9.319  1.00  0.00     0.037 A 
ATOM     48  C   UNL     1      -0.157  -6.249   3.478  1.00  0.00     0.037 A 
ATOM     49  C   UNL     1       2.865  -5.133   9.144  1.00  0.00     0.049 A 
ATOM     50  C   UNL     1       0.575  -7.135   4.450  1.00  0.00     0.074 A 
ATOM     51  C   UNL     1       3.469  -6.051   9.986  1.00  0.00     0.029 A 
ATOM     52  N   UNL     1       2.386  -5.843   8.054  1.00  0.00    -0.354 N 
ATOM     53  N   UNL     1       1.142  -6.822   5.589  1.00  0.00    -0.248 NA
ATOM     54  C   UNL     1       0.684  -8.558   4.098  1.00  0.00     0.031 C 
ATOM     55  C   UNL     1       3.383  -7.314   9.389  1.00  0.00     0.029 A 
ATOM     56  C   UNL     1       2.692  -7.187   8.195  1.00  0.00     0.049 A 
ATOM     57  H   UNL     1       1.900  -5.451   7.293  1.00  0.00     0.167 HD
ATOM     58  C   UNL     1       1.651  -8.007   6.101  1.00  0.00     0.074 A 
ATOM     59  C   UNL     1       1.314  -9.050   5.155  1.00  0.00     0.031 C 
ATOM     60  C   UNL     1       2.339  -8.213   7.250  1.00  0.00     0.037 A 
BRANCH  47  61
ATOM     61  C   UNL     1       3.368  -3.085  10.522  1.00  0.00     0.064 A 
ATOM     62  C   UNL     1       2.605  -2.622  11.604  1.00  0.00     0.173 A 
ATOM     63  C   UNL     1       4.765  -2.990  10.614  1.00  0.00     0.173 A 
ATOM     64  F   UNL     1       1.266  -2.680  11.560  1.00  0.00    -0.203 F 
ATOM     65  C   UNL     1       3.217  -2.065  12.725  1.00  0.00     0.198 A 
ATOM     66  C   UNL     1       5.374  -2.458  11.748  1.00  0.00     0.198 A 
ATOM     67  F   UNL     1       5.540  -3.424   9.609  1.00  0.00    -0.203 F 
ATOM     68  F   UNL     1       2.466  -1.592  13.729  1.00  0.00    -0.200 F 
ATOM     69  C   UNL     1       4.599  -1.990  12.799  1.00  0.00     0.200 A 
ATOM     70  F   UNL     1       6.710  -2.397  11.823  1.00  0.00    -0.200 F 
ATOM     71  F   UNL     1       5.186  -1.462  13.882  1.00  0.00    -0.200 F 
ENDBRANCH  47  61
BRANCH  48  72
ATOM     72  C   UNL     1      -0.720  -6.807   2.222  1.00  0.00     0.064 A 
ATOM     73  C   UNL     1      -1.826  -7.668   2.251  1.00  0.00     0.173 A 
ATOM     74  C   UNL     1      -0.164  -6.500   0.973  1.00  0.00     0.173 A 
ATOM     75  F   UNL     1      -2.379  -8.007   3.425  1.00  0.00    -0.203 F 
ATOM     76  C   UNL     1      -2.342  -8.216   1.079  1.00  0.00     0.198 A 
ATOM     77  C   UNL     1      -0.697  -7.029  -0.201  1.00  0.00     0.198 A 
ATOM     78  F   UNL     1       0.892  -5.677   0.891  1.00  0.00    -0.203 F 
ATOM     79  F   UNL     1      -3.373  -9.071   1.139  1.00  0.00    -0.200 F 
ATOM     80  C   UNL     1      -1.780  -7.892  -0.146  1.00  0.00     0.200 A 
ATOM     81  F   UNL     1      -0.160  -6.702  -1.385  1.00  0.00    -0.200 F 
ATOM     82  F   UNL     1      -2.279  -8.418  -1.274  1.00  0.00    -0.200 F 
ENDBRANCH  48  72
BRANCH  60  83
ATOM     83  C   UNL     1       2.746  -9.621   7.564  1.00  0.00     0.064 A 
ATOM     84  C   UNL     1       3.795 -10.252   6.879  1.00  0.00     0.173 A 
ATOM     85  C   UNL     1       2.108 -10.332   8.592  1.00  0.00     0.173 A 
ATOM     86  F   UNL     1       4.424  -9.617   5.878  1.00  0.00    -0.203 F 
ATOM     87  C   UNL     1       4.176 -11.552   7.197  1.00  0.00     0.198 A 
ATOM     88  C   UNL     1       2.509 -11.623   8.924  1.00  0.00     0.198 A 
ATOM     89  F   UNL     1       1.104  -9.770   9.280  1.00  0.00    -0.203 F 
ATOM     90  F   UNL     1       5.153 -12.151   6.502  1.00  0.00    -0.200 F 
ATOM     91  C   UNL     1       3.538 -12.234   8.223  1.00  0.00     0.200 A 
ATOM     92  F   UNL     1       1.899 -12.277   9.922  1.00  0.00    -0.200 F 
ATOM     93  F   UNL     1       3.910 -13.484   8.531  1.00  0.00    -0.200 F 
ENDBRANCH  60  83
ENDBRANCH  34  35
ENDBRANCH  26  29
ENDBRANCH  24  25
ENDBRANCH  23  24
ENDBRANCH   1  23
TORSDOF 14
