REMARK SMILES Cc1cc(NC[C@H](C)[NH+](C)C)cc(C(=O)NCCCNC(=O)c2ccc(-c3c4nc(c(-c5c(F)c(F)c(F)c(F)c5F)c5ccc([nH]5)c(-c5c(F)c(F)c(F)c(F)c5F)c5nc(c(-c6c(F)c(F)c(F)c(F)c6F)c6ccc3[nH]6)C=C5)C=C4)cc2)c1N
REMARK SMILES IDX 17 1 16 2 14 3 15 4 13 6 1 7 2 8 3 9 86 10 4 11 12 12 87 13
REMARK SMILES IDX 5 16 6 18 7 19 8 20 9 21 10 22 11 23 18 25 19 26 20 27 21 28
REMARK SMILES IDX 22 30 23 31 24 32 85 33 25 34 84 35 26 36 27 37 28 38 78 39
REMARK SMILES IDX 29 40 83 41 77 42 79 43 30 44 82 45 76 46 75 47 31 49 63 50
REMARK SMILES IDX 43 51 62 52 44 53 47 54 61 55 80 56 45 57 46 58 60 60 81 61
REMARK SMILES IDX 48 62 32 63 33 64 41 65 34 66 35 67 39 68 42 69 36 70 37 71
REMARK SMILES IDX 40 72 38 73 64 74 65 75 73 76 66 77 67 78 71 79 74 80 68 81
REMARK SMILES IDX 69 82 72 83 70 84 49 85 50 86 58 87 51 88 52 89 56 90 59 91
REMARK SMILES IDX 53 92 54 93 57 94 55 95
REMARK H PARENT 16 5 87 14 87 15 5 17 9 24 20 29 79 48 47 59
REMARK Flexibility Score: inf
ROOT
ATOM      1  C   UNL     1      -4.634   6.098  -0.692  1.00  0.00     0.118 C 
ENDROOT
BRANCH   1   2
ATOM      2  N   UNL     1      -5.181   7.337  -0.161  1.00  0.00    -0.352 N 
ATOM      3  C   UNL     1      -5.722   7.687   1.056  1.00  0.00     0.253 C 
ATOM      4  O   UNL     1      -6.081   8.863   1.172  1.00  0.00    -0.269 OA
ATOM      5  H   UNL     1      -5.160   8.080  -0.806  1.00  0.00     0.163 HD
BRANCH   3   6
ATOM      6  C   UNL     1      -5.858   6.746   2.216  1.00  0.00     0.065 A 
ATOM      7  C   UNL     1      -6.057   6.801   6.038  1.00  0.00     0.046 C 
ATOM      8  C   UNL     1      -5.985   6.329   4.610  1.00  0.00    -0.025 A 
ATOM      9  C   UNL     1      -5.996   4.943   4.352  1.00  0.00     0.031 A 
ATOM     10  C   UNL     1      -5.909   7.246   3.538  1.00  0.00     0.047 A 
ATOM     11  C   UNL     1      -5.963   4.442   3.052  1.00  0.00     0.035 A 
ATOM     12  C   UNL     1      -5.990   5.370   2.012  1.00  0.00     0.041 A 
BRANCH  10  13
ATOM     13  N   UNL     1      -5.737   8.609   3.805  1.00  0.00    -0.398 N 
ATOM     14  H   UNL     1      -5.776   8.938   4.733  1.00  0.00     0.156 HD
ATOM     15  H   UNL     1      -5.577   9.239   3.066  1.00  0.00     0.156 HD
ENDBRANCH  10  13
BRANCH  11  16
ATOM     16  N   UNL     1      -5.921   3.073   2.822  1.00  0.00    -0.379 N 
ATOM     17  H   UNL     1      -6.164   2.453   3.547  1.00  0.00     0.160 HD
BRANCH  16  18
ATOM     18  C   UNL     1      -5.522   2.537   1.519  1.00  0.00     0.177 C 
BRANCH  18  19
ATOM     19  C   UNL     1      -5.364   0.990   1.502  1.00  0.00     0.199 C 
ATOM     20  C   UNL     1      -4.461   0.604   0.315  1.00  0.00     0.077 C 
BRANCH  19  21
ATOM     21  N   UNL     1      -6.604   0.174   1.488  1.00  0.00    -0.336 N 
ATOM     22  C   UNL     1      -7.401   0.342   2.702  1.00  0.00     0.332 C 
ATOM     23  C   UNL     1      -7.449   0.363   0.310  1.00  0.00     0.332 C 
ATOM     24  H   UNL     1      -6.256  -0.784   1.447  1.00  0.00     0.347 HD
ENDBRANCH  19  21
ENDBRANCH  18  19
ENDBRANCH  16  18
ENDBRANCH  11  16
ENDBRANCH   3   6
ENDBRANCH   1   2
BRANCH   1  25
ATOM     25  C   UNL     1      -5.671   5.358  -1.540  1.00  0.00     0.042 C 
BRANCH  25  26
ATOM     26  C   UNL     1      -5.880   5.981  -2.917  1.00  0.00     0.118 C 
BRANCH  26  27
ATOM     27  N   UNL     1      -4.738   5.755  -3.790  1.00  0.00    -0.352 N 
ATOM     28  C   UNL     1      -4.674   5.150  -5.020  1.00  0.00     0.251 C 
ATOM     29  H   UNL     1      -3.878   6.088  -3.445  1.00  0.00     0.163 HD
ATOM     30  O   UNL     1      -3.582   4.853  -5.492  1.00  0.00    -0.269 OA
BRANCH  28  31
ATOM     31  C   UNL     1      -5.908   4.843  -5.777  1.00  0.00     0.039 A 
ATOM     32  C   UNL     1      -5.981   3.636  -6.480  1.00  0.00     0.014 A 
ATOM     33  C   UNL     1      -6.966   5.754  -5.842  1.00  0.00     0.014 A 
ATOM     34  C   UNL     1      -7.133   3.320  -7.204  1.00  0.00     0.010 A 
ATOM     35  C   UNL     1      -8.140   5.409  -6.508  1.00  0.00     0.010 A 
ATOM     36  C   UNL     1      -8.233   4.192  -7.200  1.00  0.00    -0.014 A 
BRANCH  36  37
ATOM     37  C   UNL     1      -9.490   3.851  -7.913  1.00  0.00     0.031 A 
ATOM     38  C   UNL     1      -9.952   4.689  -9.073  1.00  0.00     0.074 A 
ATOM     39  C   UNL     1     -10.252   2.834  -7.467  1.00  0.00     0.049 A 
ATOM     40  N   UNL     1     -11.066   4.616  -9.756  1.00  0.00    -0.248 NA
ATOM     41  C   UNL     1      -9.053   5.770  -9.505  1.00  0.00     0.031 C 
ATOM     42  C   UNL     1      -9.930   1.976  -6.326  1.00  0.00     0.029 A 
ATOM     43  N   UNL     1     -11.463   2.361  -7.908  1.00  0.00    -0.354 N 
ATOM     44  C   UNL     1     -11.011   5.650 -10.681  1.00  0.00     0.074 A 
ATOM     45  C   UNL     1      -9.775   6.364 -10.444  1.00  0.00     0.031 C 
ATOM     46  C   UNL     1     -10.911   1.074  -6.164  1.00  0.00     0.029 A 
ATOM     47  C   UNL     1     -11.949   1.316  -7.162  1.00  0.00     0.049 A 
ATOM     48  H   UNL     1     -11.937   2.736  -8.685  1.00  0.00     0.167 HD
ATOM     49  C   UNL     1     -11.902   5.963 -11.652  1.00  0.00     0.037 A 
ATOM     50  C   UNL     1     -13.109   0.639  -7.261  1.00  0.00     0.037 A 
ATOM     51  C   UNL     1     -13.116   5.231 -11.902  1.00  0.00     0.049 A 
ATOM     52  C   UNL     1     -14.082   1.007  -8.348  1.00  0.00     0.074 A 
ATOM     53  C   UNL     1     -14.053   5.428 -12.901  1.00  0.00     0.029 A 
ATOM     54  N   UNL     1     -13.563   4.160 -11.140  1.00  0.00    -0.354 N 
ATOM     55  N   UNL     1     -13.990   1.946  -9.257  1.00  0.00    -0.248 NA
ATOM     56  C   UNL     1     -15.319   0.217  -8.425  1.00  0.00     0.031 C 
ATOM     57  C   UNL     1     -15.089   4.506 -12.717  1.00  0.00     0.029 A 
ATOM     58  C   UNL     1     -14.773   3.701 -11.635  1.00  0.00     0.049 A 
ATOM     59  H   UNL     1     -13.090   3.783 -10.364  1.00  0.00     0.167 HD
ATOM     60  C   UNL     1     -15.138   1.844 -10.031  1.00  0.00     0.074 A 
ATOM     61  C   UNL     1     -15.907   0.742  -9.492  1.00  0.00     0.031 C 
ATOM     62  C   UNL     1     -15.520   2.595 -11.092  1.00  0.00     0.037 A 
BRANCH  49  63
ATOM     63  C   UNL     1     -11.598   7.149 -12.522  1.00  0.00     0.064 A 
ATOM     64  C   UNL     1     -10.556   7.127 -13.461  1.00  0.00     0.173 A 
ATOM     65  C   UNL     1     -12.387   8.308 -12.446  1.00  0.00     0.173 A 
ATOM     66  F   UNL     1      -9.766   6.048 -13.567  1.00  0.00    -0.203 F 
ATOM     67  C   UNL     1     -10.296   8.230 -14.271  1.00  0.00     0.198 A 
ATOM     68  C   UNL     1     -12.143   9.397 -13.279  1.00  0.00     0.198 A 
ATOM     69  F   UNL     1     -13.401   8.380 -11.571  1.00  0.00    -0.203 F 
ATOM     70  F   UNL     1      -9.265   8.202 -15.126  1.00  0.00    -0.200 F 
ATOM     71  C   UNL     1     -11.094   9.360 -14.184  1.00  0.00     0.200 A 
ATOM     72  F   UNL     1     -12.925  10.484 -13.204  1.00  0.00    -0.200 F 
ATOM     73  F   UNL     1     -10.848  10.417 -14.971  1.00  0.00    -0.200 F 
ENDBRANCH  49  63
BRANCH  50  74
ATOM     74  C   UNL     1     -13.404  -0.468  -6.314  1.00  0.00     0.064 A 
ATOM     75  C   UNL     1     -13.422  -1.800  -6.748  1.00  0.00     0.173 A 
ATOM     76  C   UNL     1     -13.669  -0.219  -4.960  1.00  0.00     0.173 A 
ATOM     77  F   UNL     1     -13.194  -2.087  -8.038  1.00  0.00    -0.203 F 
ATOM     78  C   UNL     1     -13.714  -2.840  -5.868  1.00  0.00     0.198 A 
ATOM     79  C   UNL     1     -13.932  -1.262  -4.074  1.00  0.00     0.198 A 
ATOM     80  F   UNL     1     -13.657   1.038  -4.492  1.00  0.00    -0.203 F 
ATOM     81  F   UNL     1     -13.767  -4.101  -6.318  1.00  0.00    -0.200 F 
ATOM     82  C   UNL     1     -13.962  -2.571  -4.530  1.00  0.00     0.200 A 
ATOM     83  F   UNL     1     -14.156  -0.999  -2.779  1.00  0.00    -0.200 F 
ATOM     84  F   UNL     1     -14.236  -3.572  -3.683  1.00  0.00    -0.200 F 
ENDBRANCH  50  74
BRANCH  62  85
ATOM     85  C   UNL     1     -16.811   2.231 -11.765  1.00  0.00     0.064 A 
ATOM     86  C   UNL     1     -18.052   2.488 -11.165  1.00  0.00     0.173 A 
ATOM     87  C   UNL     1     -16.805   1.662 -13.048  1.00  0.00     0.173 A 
ATOM     88  F   UNL     1     -18.111   3.016  -9.934  1.00  0.00    -0.203 F 
ATOM     89  C   UNL     1     -19.241   2.169 -11.818  1.00  0.00     0.198 A 
ATOM     90  C   UNL     1     -17.994   1.372 -13.709  1.00  0.00     0.198 A 
ATOM     91  F   UNL     1     -15.643   1.402 -13.667  1.00  0.00    -0.203 F 
ATOM     92  F   UNL     1     -20.415   2.383 -11.209  1.00  0.00    -0.200 F 
ATOM     93  C   UNL     1     -19.211   1.620 -13.091  1.00  0.00     0.200 A 
ATOM     94  F   UNL     1     -17.964   0.855 -14.945  1.00  0.00    -0.200 F 
ATOM     95  F   UNL     1     -20.356   1.324 -13.722  1.00  0.00    -0.200 F 
ENDBRANCH  62  85
ENDBRANCH  36  37
ENDBRANCH  28  31
ENDBRANCH  26  27
ENDBRANCH  25  26
ENDBRANCH   1  25
TORSDOF 15
