REMARK SMILES CCCC[C@@H](Sc1nc(OCCC2CCCCC2)cc(OCCC2CCCCC2)n1)C(=O)NCCCNC(=O)c1ccc(-c2c3nc(c(-c4c(F)c(F)c(F)c(F)c4F)c4ccc([nH]4)c(-c4c(F)c(F)c(F)c(F)c4F)c4nc(c(-c5c(F)c(F)c(F)c(F)c5F)c5ccc2[nH]5)C=C4)C=C3)cc1
REMARK SMILES IDX 31 1 32 2 33 3 5 5 4 6 3 7 2 8 1 9 6 10 7 11 8 12 30 13 9 14
REMARK SMILES IDX 20 15 19 16 10 17 11 18 12 19 13 20 14 21 18 22 15 23 17 24
REMARK SMILES IDX 16 25 21 26 22 27 23 28 24 29 25 30 29 31 26 32 28 33 27 34
REMARK SMILES IDX 34 35 35 36 36 37 37 38 38 39 39 41 40 42 41 43 102 44 42 45
REMARK SMILES IDX 101 46 43 47 44 48 45 49 95 50 46 51 100 52 94 53 96 54
REMARK SMILES IDX 47 55 99 56 93 57 92 58 48 60 80 61 60 62 79 63 61 64 64 65
REMARK SMILES IDX 78 66 97 67 62 68 63 69 77 71 98 72 65 73 49 74 50 75 58 76
REMARK SMILES IDX 51 77 52 78 56 79 59 80 53 81 54 82 57 83 55 84 81 85 82 86
REMARK SMILES IDX 90 87 83 88 84 89 88 90 91 91 85 92 86 93 89 94 87 95 66 96
REMARK SMILES IDX 67 97 75 98 68 99 69 100 73 101 76 102 70 103 71 104 74 105
REMARK SMILES IDX 72 106
REMARK H PARENT 33 4 37 40 96 59 64 70
REMARK Flexibility Score: inf
ROOT
ATOM      1  C   UNL     1      -1.706   1.952  -3.370  1.00  0.00     0.233 C 
ATOM      2  O   UNL     1      -2.249   0.928  -3.794  1.00  0.00    -0.274 OA
ATOM      3  N   UNL     1      -1.478   2.967  -4.265  1.00  0.00    -0.355 N 
ATOM      4  H   UNL     1      -1.760   2.772  -5.188  1.00  0.00     0.163 HD
ENDROOT
BRANCH   1   5
ATOM      5  C   UNL     1      -1.276   2.077  -1.889  1.00  0.00     0.144 C 
BRANCH   5   6
ATOM      6  C   UNL     1       0.270   2.229  -1.919  1.00  0.00     0.025 C 
BRANCH   6   7
ATOM      7  C   UNL     1       1.174   1.879  -0.738  1.00  0.00     0.001 C 
BRANCH   7   8
ATOM      8  C   UNL     1       0.850   0.625   0.067  1.00  0.00    -0.003 C 
ATOM      9  C   UNL     1       1.185  -0.655  -0.674  1.00  0.00     0.004 C 
ENDBRANCH   7   8
ENDBRANCH   6   7
ENDBRANCH   5   6
BRANCH   5  10
ATOM     10  S   UNL     1      -2.511   3.328  -1.225  1.00  0.00    -0.073 SA
BRANCH  10  11
ATOM     11  C   UNL     1      -2.097   3.541   0.469  1.00  0.00     0.195 A 
ATOM     12  N   UNL     1      -2.810   4.442   1.172  1.00  0.00    -0.187 NA
ATOM     13  N   UNL     1      -0.957   2.997   0.871  1.00  0.00    -0.187 NA
ATOM     14  C   UNL     1      -2.225   4.947   2.266  1.00  0.00     0.221 A 
ATOM     15  C   UNL     1      -0.395   3.545   1.938  1.00  0.00     0.221 A 
ATOM     16  C   UNL     1      -0.942   4.609   2.592  1.00  0.00     0.136 A 
BRANCH  14  17
ATOM     17  O   UNL     1      -3.015   5.777   3.024  1.00  0.00    -0.477 OA
BRANCH  17  18
ATOM     18  C   UNL     1      -2.397   6.628   3.997  1.00  0.00     0.231 C 
BRANCH  18  19
ATOM     19  C   UNL     1      -2.458   6.138   5.468  1.00  0.00     0.045 C 
BRANCH  19  20
ATOM     20  C   UNL     1      -2.107   4.662   5.711  1.00  0.00    -0.008 C 
ATOM     21  C   UNL     1      -1.318   4.401   7.004  1.00  0.00     0.004 C 
ATOM     22  C   UNL     1      -3.330   3.745   5.693  1.00  0.00     0.004 C 
ATOM     23  C   UNL     1      -0.815   2.951   7.027  1.00  0.00     0.000 C 
ATOM     24  C   UNL     1      -2.868   2.291   5.624  1.00  0.00     0.000 C 
ATOM     25  C   UNL     1      -1.914   1.921   6.761  1.00  0.00     0.000 C 
ENDBRANCH  19  20
ENDBRANCH  18  19
ENDBRANCH  17  18
ENDBRANCH  14  17
BRANCH  15  26
ATOM     26  O   UNL     1       0.892   3.152   2.175  1.00  0.00    -0.477 OA
BRANCH  26  27
ATOM     27  C   UNL     1       1.097   2.470   3.413  1.00  0.00     0.231 C 
BRANCH  27  28
ATOM     28  C   UNL     1       2.443   2.945   4.001  1.00  0.00     0.045 C 
BRANCH  28  29
ATOM     29  C   UNL     1       2.558   4.479   4.026  1.00  0.00    -0.008 C 
ATOM     30  C   UNL     1       1.576   5.104   5.014  1.00  0.00     0.004 C 
ATOM     31  C   UNL     1       3.944   5.028   4.375  1.00  0.00     0.004 C 
ATOM     32  C   UNL     1       1.458   6.593   4.724  1.00  0.00     0.000 C 
ATOM     33  C   UNL     1       3.950   6.561   4.233  1.00  0.00     0.000 C 
ATOM     34  C   UNL     1       2.800   7.264   4.966  1.00  0.00     0.000 C 
ENDBRANCH  28  29
ENDBRANCH  27  28
ENDBRANCH  26  27
ENDBRANCH  15  26
ENDBRANCH  10  11
ENDBRANCH   5  10
ENDBRANCH   1   5
BRANCH   3  35
ATOM     35  C   UNL     1      -0.886   4.288  -4.077  1.00  0.00     0.117 C 
BRANCH  35  36
ATOM     36  C   UNL     1       0.493   4.394  -4.721  1.00  0.00     0.042 C 
BRANCH  36  37
ATOM     37  C   UNL     1       0.448   4.383  -6.241  1.00  0.00     0.118 C 
BRANCH  37  38
ATOM     38  N   UNL     1      -0.224   5.557  -6.781  1.00  0.00    -0.352 N 
ATOM     39  C   UNL     1       0.227   6.489  -7.676  1.00  0.00     0.251 C 
ATOM     40  H   UNL     1      -1.141   5.702  -6.453  1.00  0.00     0.163 HD
ATOM     41  O   UNL     1      -0.414   7.529  -7.854  1.00  0.00    -0.269 OA
BRANCH  39  42
ATOM     42  C   UNL     1       1.483   6.268  -8.416  1.00  0.00     0.039 A 
ATOM     43  C   UNL     1       2.359   7.341  -8.598  1.00  0.00     0.014 A 
ATOM     44  C   UNL     1       1.792   5.011  -8.944  1.00  0.00     0.014 A 
ATOM     45  C   UNL     1       3.572   7.139  -9.258  1.00  0.00     0.010 A 
ATOM     46  C   UNL     1       3.037   4.792  -9.525  1.00  0.00     0.010 A 
ATOM     47  C   UNL     1       3.935   5.855  -9.695  1.00  0.00    -0.014 A 
BRANCH  47  48
ATOM     48  C   UNL     1       5.247   5.604 -10.341  1.00  0.00     0.031 A 
ATOM     49  C   UNL     1       5.305   5.122 -11.764  1.00  0.00     0.074 A 
ATOM     50  C   UNL     1       6.378   5.746  -9.624  1.00  0.00     0.049 A 
ATOM     51  N   UNL     1       6.345   4.770 -12.477  1.00  0.00    -0.248 NA
ATOM     52  C   UNL     1       4.021   4.989 -12.472  1.00  0.00     0.031 C 
ATOM     53  C   UNL     1       6.444   6.160  -8.221  1.00  0.00     0.029 A 
ATOM     54  N   UNL     1       7.690   5.545  -9.972  1.00  0.00    -0.354 N 
ATOM     55  C   UNL     1       5.840   4.361 -13.704  1.00  0.00     0.074 A 
ATOM     56  C   UNL     1       4.399   4.455 -13.624  1.00  0.00     0.031 C 
ATOM     57  C   UNL     1       7.729   6.201  -7.834  1.00  0.00     0.029 A 
ATOM     58  C   UNL     1       8.574   5.777  -8.946  1.00  0.00     0.049 A 
ATOM     59  H   UNL     1       7.972   5.261 -10.872  1.00  0.00     0.167 HD
ATOM     60  C   UNL     1       6.520   3.966 -14.806  1.00  0.00     0.037 A 
ATOM     61  C   UNL     1       9.914   5.650  -8.905  1.00  0.00     0.037 A 
ATOM     62  C   UNL     1       7.955   3.903 -14.889  1.00  0.00     0.049 A 
ATOM     63  C   UNL     1      10.643   5.204 -10.145  1.00  0.00     0.074 A 
ATOM     64  C   UNL     1       8.743   3.579 -15.979  1.00  0.00     0.029 A 
ATOM     65  N   UNL     1       8.819   4.169 -13.836  1.00  0.00    -0.354 N 
ATOM     66  N   UNL     1      10.160   4.892 -11.323  1.00  0.00    -0.248 NA
ATOM     67  C   UNL     1      12.106   5.101 -10.050  1.00  0.00     0.031 C 
ATOM     68  C   UNL     1      10.081   3.598 -15.573  1.00  0.00     0.029 A 
ATOM     69  C   UNL     1      10.130   3.991 -14.245  1.00  0.00     0.049 A 
ATOM     70  H   UNL     1       8.541   4.443 -12.932  1.00  0.00     0.167 HD
ATOM     71  C   UNL     1      11.257   4.585 -12.116  1.00  0.00     0.074 A 
ATOM     72  C   UNL     1      12.432   4.766 -11.290  1.00  0.00     0.031 C 
ATOM     73  C   UNL     1      11.289   4.188 -13.412  1.00  0.00     0.037 A 
BRANCH  60  74
ATOM     74  C   UNL     1       5.723   3.575 -16.017  1.00  0.00     0.064 A 
ATOM     75  C   UNL     1       5.013   4.523 -16.769  1.00  0.00     0.173 A 
ATOM     76  C   UNL     1       5.712   2.244 -16.462  1.00  0.00     0.173 A 
ATOM     77  F   UNL     1       4.982   5.807 -16.381  1.00  0.00    -0.203 F 
ATOM     78  C   UNL     1       4.302   4.150 -17.907  1.00  0.00     0.198 A 
ATOM     79  C   UNL     1       5.025   1.880 -17.618  1.00  0.00     0.198 A 
ATOM     80  F   UNL     1       6.378   1.298 -15.784  1.00  0.00    -0.203 F 
ATOM     81  F   UNL     1       3.595   5.066 -18.583  1.00  0.00    -0.200 F 
ATOM     82  C   UNL     1       4.316   2.832 -18.335  1.00  0.00     0.200 A 
ATOM     83  F   UNL     1       5.053   0.608 -18.039  1.00  0.00    -0.200 F 
ATOM     84  F   UNL     1       3.643   2.477 -19.438  1.00  0.00    -0.200 F 
ENDBRANCH  60  74
BRANCH  61  85
ATOM     85  C   UNL     1      10.656   5.961  -7.655  1.00  0.00     0.064 A 
ATOM     86  C   UNL     1      11.518   7.064  -7.583  1.00  0.00     0.173 A 
ATOM     87  C   UNL     1      10.536   5.153  -6.514  1.00  0.00     0.173 A 
ATOM     88  F   UNL     1      11.682   7.856  -8.654  1.00  0.00    -0.203 F 
ATOM     89  C   UNL     1      12.253   7.331  -6.430  1.00  0.00     0.198 A 
ATOM     90  C   UNL     1      11.246   5.440  -5.351  1.00  0.00     0.198 A 
ATOM     91  F   UNL     1       9.720   4.089  -6.527  1.00  0.00    -0.203 F 
ATOM     92  F   UNL     1      13.111   8.360  -6.409  1.00  0.00    -0.200 F 
ATOM     93  C   UNL     1      12.113   6.522  -5.313  1.00  0.00     0.200 A 
ATOM     94  F   UNL     1      11.096   4.665  -4.268  1.00  0.00    -0.200 F 
ATOM     95  F   UNL     1      12.819   6.779  -4.204  1.00  0.00    -0.200 F 
ENDBRANCH  61  85
BRANCH  73  96
ATOM     96  C   UNL     1      12.638   3.961 -14.029  1.00  0.00     0.064 A 
ATOM     97  C   UNL     1      13.437   2.864 -13.674  1.00  0.00     0.173 A 
ATOM     98  C   UNL     1      13.118   4.831 -15.021  1.00  0.00     0.173 A 
ATOM     99  F   UNL     1      13.030   2.012 -12.721  1.00  0.00    -0.203 F 
ATOM    100  C   UNL     1      14.679   2.662 -14.270  1.00  0.00     0.198 A 
ATOM    101  C   UNL     1      14.345   4.606 -15.637  1.00  0.00     0.198 A 
ATOM    102  F   UNL     1      12.390   5.891 -15.402  1.00  0.00    -0.203 F 
ATOM    103  F   UNL     1      15.448   1.636 -13.879  1.00  0.00    -0.200 F 
ATOM    104  C   UNL     1      15.128   3.528 -15.256  1.00  0.00     0.200 A 
ATOM    105  F   UNL     1      14.770   5.435 -16.601  1.00  0.00    -0.200 F 
ATOM    106  F   UNL     1      16.320   3.326 -15.834  1.00  0.00    -0.200 F 
ENDBRANCH  73  96
ENDBRANCH  47  48
ENDBRANCH  39  42
ENDBRANCH  37  38
ENDBRANCH  36  37
ENDBRANCH  35  36
ENDBRANCH   3  35
TORSDOF 23
