REMARK SMILES O=C(COc1ccc(N2C[C@@H](C(=O)NCCCNC(=O)c3ccc(-c4c5nc(c(-c6c(F)c(F)c(F)c(F)c6F)c6ccc([nH]6)c(-c6c(F)c(F)c(F)c(F)c6F)c6nc(c(-c7c(F)c(F)c(F)c(F)c7F)c7ccc4[nH]7)C=C6)C=C5)cc3)CC2=O)cc1)Nc1ccc(Cl)cc1Cl
REMARK SMILES IDX 12 1 13 2 14 3 11 5 9 6 10 7 85 8 84 9 86 10 8 11 5 12 6 13
REMARK SMILES IDX 88 14 7 15 87 16 4 17 3 18 2 19 1 20 89 21 90 23 91 24 96 25
REMARK SMILES IDX 92 26 95 27 97 28 93 29 94 30 15 31 16 32 17 33 18 34 19 35
REMARK SMILES IDX 20 37 21 38 22 39 83 40 23 41 82 42 24 43 25 44 26 45 76 46
REMARK SMILES IDX 27 47 81 48 75 49 77 50 28 51 80 52 74 53 73 54 29 56 61 57
REMARK SMILES IDX 41 58 60 59 42 60 45 61 59 62 78 63 43 64 44 65 58 67 79 68
REMARK SMILES IDX 46 69 30 70 31 71 39 72 32 73 33 74 37 75 40 76 34 77 35 78
REMARK SMILES IDX 38 79 36 80 62 81 63 82 71 83 64 84 65 85 69 86 72 87 66 88
REMARK SMILES IDX 67 89 70 90 68 91 47 92 48 93 56 94 49 95 50 96 54 97 57 98
REMARK SMILES IDX 51 99 52 100 55 101 53 102
REMARK H PARENT 14 4 89 22 18 36 77 55 45 66
REMARK Flexibility Score: inf
ROOT
ATOM      1  C   UNL     1      -0.783  -7.855  -4.407  1.00  0.00     0.225 C 
ATOM      2  O   UNL     1      -0.796  -9.077  -4.575  1.00  0.00    -0.275 OA
ATOM      3  N   UNL     1      -1.947  -7.275  -4.020  1.00  0.00    -0.356 N 
ATOM      4  H   UNL     1      -2.691  -7.910  -3.913  1.00  0.00     0.163 HD
ENDROOT
BRANCH   1   5
ATOM      5  C   UNL     1       0.503  -7.085  -4.614  1.00  0.00     0.107 C 
ATOM      6  N   UNL     1       1.434  -5.132  -3.680  1.00  0.00    -0.312 N 
ATOM      7  C   UNL     1       1.037  -6.473  -3.332  1.00  0.00     0.139 C 
ATOM      8  C   UNL     1       1.073  -4.788  -4.983  1.00  0.00     0.227 C 
ATOM      9  C   UNL     1       0.416  -5.969  -5.637  1.00  0.00     0.116 C 
ATOM     10  O   UNL     1       1.249  -3.728  -5.571  1.00  0.00    -0.274 OA
BRANCH   6  11
ATOM     11  C   UNL     1       2.039  -4.253  -2.748  1.00  0.00     0.044 A 
ATOM     12  C   UNL     1       3.258  -2.461  -0.944  1.00  0.00     0.120 A 
ATOM     13  C   UNL     1       3.487  -3.828  -0.828  1.00  0.00     0.048 A 
ATOM     14  C   UNL     1       2.440  -1.990  -1.964  1.00  0.00     0.048 A 
ATOM     15  C   UNL     1       2.857  -4.723  -1.710  1.00  0.00     0.030 A 
ATOM     16  C   UNL     1       1.837  -2.876  -2.855  1.00  0.00     0.030 A 
BRANCH  12  17
ATOM     17  O   UNL     1       3.946  -1.599  -0.131  1.00  0.00    -0.484 OA
BRANCH  17  18
ATOM     18  C   UNL     1       3.107  -0.965   0.841  1.00  0.00     0.329 C 
BRANCH  18  19
ATOM     19  C   UNL     1       2.216   0.152   0.285  1.00  0.00     0.262 C 
ATOM     20  O   UNL     1       1.012   0.174   0.520  1.00  0.00    -0.271 OA
ATOM     21  N   UNL     1       2.909   1.003  -0.570  1.00  0.00    -0.322 N 
ATOM     22  H   UNL     1       3.891   0.930  -0.590  1.00  0.00     0.170 HD
BRANCH  21  23
ATOM     23  C   UNL     1       2.304   1.965  -1.413  1.00  0.00     0.060 A 
ATOM     24  C   UNL     1       2.814   2.022  -2.722  1.00  0.00     0.029 A 
ATOM     25  C   UNL     1       1.234   2.810  -1.069  1.00  0.00     0.066 A 
ATOM     26  C   UNL     1       2.208   2.825  -3.692  1.00  0.00     0.023 A 
ATOM     27  C   UNL     1       0.627   3.611  -2.046  1.00  0.00     0.043 A 
ATOM     28  Cl  UNL     1       0.725   3.080   0.562  1.00  0.00    -0.082 Cl
ATOM     29  C   UNL     1       1.104   3.600  -3.353  1.00  0.00     0.042 A 
ATOM     30  Cl  UNL     1       0.344   4.571  -4.552  1.00  0.00    -0.084 Cl
ENDBRANCH  21  23
ENDBRANCH  18  19
ENDBRANCH  17  18
ENDBRANCH  12  17
ENDBRANCH   6  11
ENDBRANCH   1   5
BRANCH   3  31
ATOM     31  C   UNL     1      -2.307  -5.895  -3.732  1.00  0.00     0.117 C 
BRANCH  31  32
ATOM     32  C   UNL     1      -3.286  -5.327  -4.756  1.00  0.00     0.042 C 
BRANCH  32  33
ATOM     33  C   UNL     1      -4.629  -6.050  -4.815  1.00  0.00     0.118 C 
BRANCH  33  34
ATOM     34  N   UNL     1      -5.400  -5.920  -3.587  1.00  0.00    -0.352 N 
ATOM     35  C   UNL     1      -6.624  -5.335  -3.364  1.00  0.00     0.251 C 
ATOM     36  H   UNL     1      -4.978  -6.314  -2.789  1.00  0.00     0.163 HD
ATOM     37  O   UNL     1      -7.025  -5.183  -2.214  1.00  0.00    -0.269 OA
BRANCH  35  38
ATOM     38  C   UNL     1      -7.449  -4.862  -4.496  1.00  0.00     0.039 A 
ATOM     39  C   UNL     1      -8.073  -3.615  -4.402  1.00  0.00     0.014 A 
ATOM     40  C   UNL     1      -7.616  -5.641  -5.644  1.00  0.00     0.014 A 
ATOM     41  C   UNL     1      -8.788  -3.111  -5.491  1.00  0.00     0.010 A 
ATOM     42  C   UNL     1      -8.259  -5.105  -6.756  1.00  0.00     0.010 A 
ATOM     43  C   UNL     1      -8.842  -3.830  -6.696  1.00  0.00    -0.014 A 
BRANCH  43  44
ATOM     44  C   UNL     1      -9.471  -3.256  -7.915  1.00  0.00     0.031 A 
ATOM     45  C   UNL     1     -10.662  -3.923  -8.543  1.00  0.00     0.074 A 
ATOM     46  C   UNL     1      -8.913  -2.179  -8.503  1.00  0.00     0.049 A 
ATOM     47  N   UNL     1     -11.278  -3.636  -9.662  1.00  0.00    -0.248 NA
ATOM     48  C   UNL     1     -11.219  -5.084  -7.832  1.00  0.00     0.031 C 
ATOM     49  C   UNL     1      -7.734  -1.464  -8.013  1.00  0.00     0.029 A 
ATOM     50  N   UNL     1      -9.253  -1.508  -9.652  1.00  0.00    -0.354 N 
ATOM     51  C   UNL     1     -12.284  -4.584  -9.793  1.00  0.00     0.074 A 
ATOM     52  C   UNL     1     -12.163  -5.487  -8.669  1.00  0.00     0.031 C 
ATOM     53  C   UNL     1      -7.459  -0.446  -8.843  1.00  0.00     0.029 A 
ATOM     54  C   UNL     1      -8.408  -0.466  -9.951  1.00  0.00     0.049 A 
ATOM     55  H   UNL     1     -10.027  -1.750 -10.209  1.00  0.00     0.167 HD
ATOM     56  C   UNL     1     -13.234  -4.679 -10.755  1.00  0.00     0.037 A 
ATOM     57  C   UNL     1      -8.387   0.368 -11.009  1.00  0.00     0.037 A 
ATOM     58  C   UNL     1     -13.358  -3.768 -11.863  1.00  0.00     0.049 A 
ATOM     59  C   UNL     1      -9.429   0.214 -12.085  1.00  0.00     0.074 A 
ATOM     60  C   UNL     1     -14.322  -3.744 -12.856  1.00  0.00     0.029 A 
ATOM     61  N   UNL     1     -12.483  -2.725 -12.132  1.00  0.00    -0.354 N 
ATOM     62  N   UNL     1     -10.418  -0.643 -12.162  1.00  0.00    -0.248 NA
ATOM     63  C   UNL     1      -9.350   1.142 -13.222  1.00  0.00     0.031 C 
ATOM     64  C   UNL     1     -13.997  -2.727 -13.758  1.00  0.00     0.029 A 
ATOM     65  C   UNL     1     -12.866  -2.075 -13.295  1.00  0.00     0.049 A 
ATOM     66  H   UNL     1     -11.706  -2.482 -11.578  1.00  0.00     0.167 HD
ATOM     67  C   UNL     1     -11.094  -0.341 -13.337  1.00  0.00     0.074 A 
ATOM     68  C   UNL     1     -10.412   0.789 -13.933  1.00  0.00     0.031 C 
ATOM     69  C   UNL     1     -12.180  -0.948 -13.875  1.00  0.00     0.037 A 
BRANCH  56  70
ATOM     70  C   UNL     1     -14.217  -5.810 -10.655  1.00  0.00     0.064 A 
ATOM     71  C   UNL     1     -15.186  -5.858  -9.640  1.00  0.00     0.173 A 
ATOM     72  C   UNL     1     -14.221  -6.837 -11.611  1.00  0.00     0.173 A 
ATOM     73  F   UNL     1     -15.223  -4.907  -8.695  1.00  0.00    -0.203 F 
ATOM     74  C   UNL     1     -16.101  -6.906  -9.570  1.00  0.00     0.198 A 
ATOM     75  C   UNL     1     -15.158  -7.865 -11.558  1.00  0.00     0.198 A 
ATOM     76  F   UNL     1     -13.322  -6.837 -12.608  1.00  0.00    -0.203 F 
ATOM     77  F   UNL     1     -16.983  -6.957  -8.563  1.00  0.00    -0.200 F 
ATOM     78  C   UNL     1     -16.091  -7.904 -10.533  1.00  0.00     0.200 A 
ATOM     79  F   UNL     1     -15.158  -8.820 -12.498  1.00  0.00    -0.200 F 
ATOM     80  F   UNL     1     -16.978  -8.907 -10.470  1.00  0.00    -0.200 F 
ENDBRANCH  56  70
BRANCH  57  81
ATOM     81  C   UNL     1      -7.346   1.426 -11.103  1.00  0.00     0.064 A 
ATOM     82  C   UNL     1      -7.687   2.782 -11.006  1.00  0.00     0.173 A 
ATOM     83  C   UNL     1      -5.994   1.107 -11.300  1.00  0.00     0.173 A 
ATOM     84  F   UNL     1      -8.969   3.139 -10.840  1.00  0.00    -0.203 F 
ATOM     85  C   UNL     1      -6.721   3.779 -11.126  1.00  0.00     0.198 A 
ATOM     86  C   UNL     1      -5.024   2.103 -11.387  1.00  0.00     0.198 A 
ATOM     87  F   UNL     1      -5.613  -0.175 -11.397  1.00  0.00    -0.203 F 
ATOM     88  F   UNL     1      -7.083   5.068 -11.082  1.00  0.00    -0.200 F 
ATOM     89  C   UNL     1      -5.389   3.438 -11.310  1.00  0.00     0.200 A 
ATOM     90  F   UNL     1      -3.737   1.769 -11.550  1.00  0.00    -0.200 F 
ATOM     91  F   UNL     1      -4.460   4.397 -11.422  1.00  0.00    -0.200 F 
ENDBRANCH  57  81
BRANCH  69  92
ATOM     92  C   UNL     1     -12.722  -0.387 -15.159  1.00  0.00     0.064 A 
ATOM     93  C   UNL     1     -12.041  -0.542 -16.375  1.00  0.00     0.173 A 
ATOM     94  C   UNL     1     -13.966   0.263 -15.180  1.00  0.00     0.173 A 
ATOM     95  F   UNL     1     -10.842  -1.142 -16.406  1.00  0.00    -0.203 F 
ATOM     96  C   UNL     1     -12.577  -0.050 -17.562  1.00  0.00     0.198 A 
ATOM     97  C   UNL     1     -14.513   0.725 -16.374  1.00  0.00     0.198 A 
ATOM     98  F   UNL     1     -14.661   0.432 -14.045  1.00  0.00    -0.203 F 
ATOM     99  F   UNL     1     -11.889  -0.171 -18.706  1.00  0.00    -0.200 F 
ATOM    100  C   UNL     1     -13.816   0.573 -17.563  1.00  0.00     0.200 A 
ATOM    101  F   UNL     1     -15.718   1.312 -16.374  1.00  0.00    -0.200 F 
ATOM    102  F   UNL     1     -14.337   1.032 -18.709  1.00  0.00    -0.200 F 
ENDBRANCH  69  92
ENDBRANCH  43  44
ENDBRANCH  35  38
ENDBRANCH  33  34
ENDBRANCH  32  33
ENDBRANCH  31  32
ENDBRANCH   3  31
TORSDOF 15
