REMARK SMILES Cc1cc(C)c(S(=O)(=O)n2cc([C@@H](C)[C@@H]([NH3+])C(=O)NCCCNC(=O)c3ccc(-c4c5nc(c(-c6c(F)c(F)c(F)c(F)c6F)c6ccc([nH]6)c(-c6c(F)c(F)c(F)c(F)c6F)c6nc(c(-c7c(F)c(F)c(F)c(F)c7F)c7ccc4[nH]7)C=C6)C=C5)cc3)c3ccccc32)c(C)c1
REMARK SMILES IDX 20 1 19 2 17 3 18 4 15 6 13 7 14 8 12 9 10 10 11 11 94 12
REMARK SMILES IDX 89 13 93 14 90 15 92 16 91 17 7 18 8 19 9 20 6 21 1 22 2 23
REMARK SMILES IDX 3 24 97 25 4 26 95 27 5 28 96 29 16 30 21 34 22 35 23 36
REMARK SMILES IDX 24 37 25 39 26 40 27 41 88 42 28 43 87 44 29 45 30 46 31 47
REMARK SMILES IDX 81 48 32 49 86 50 80 51 82 52 33 53 85 54 79 55 78 56 34 58
REMARK SMILES IDX 66 59 46 60 65 61 47 62 50 63 64 64 83 65 48 66 49 67 63 69
REMARK SMILES IDX 84 70 51 71 35 72 36 73 44 74 37 75 38 76 42 77 45 78 39 79
REMARK SMILES IDX 40 80 43 81 41 82 67 83 68 84 76 85 69 86 70 87 74 88 77 89
REMARK SMILES IDX 71 90 72 91 75 92 73 93 52 94 53 95 61 96 54 97 55 98 59 99
REMARK SMILES IDX 62 100 56 101 57 102 60 103 58 104
REMARK H PARENT 19 5 16 31 16 32 16 33 23 38 82 57 50 68
REMARK Flexibility Score: inf
ROOT
ATOM      1  C   UNL     1      -3.739  -8.507  -3.311  1.00  0.00     0.118 C 
ENDROOT
BRANCH   1   2
ATOM      2  N   UNL     1      -2.839  -9.508  -2.764  1.00  0.00    -0.351 N 
ATOM      3  C   UNL     1      -2.079  -9.492  -1.633  1.00  0.00     0.278 C 
ATOM      4  O   UNL     1      -1.434 -10.512  -1.365  1.00  0.00    -0.268 OA
ATOM      5  H   UNL     1      -2.766 -10.332  -3.298  1.00  0.00     0.163 HD
BRANCH   3   6
ATOM      6  C   UNL     1      -2.001  -8.259  -0.709  1.00  0.00     0.278 C 
BRANCH   6   7
ATOM      7  C   UNL     1      -1.310  -7.050  -1.394  1.00  0.00     0.086 C 
ATOM      8  C   UNL     1       0.109  -7.380  -1.873  1.00  0.00     0.020 C 
BRANCH   7   9
ATOM      9  C   UNL     1      -1.319  -5.810  -0.524  1.00  0.00    -0.012 A 
ATOM     10  N   UNL     1      -1.765  -3.737   0.161  1.00  0.00    -0.241 N 
ATOM     11  C   UNL     1      -1.968  -4.635  -0.853  1.00  0.00     0.109 A 
ATOM     12  C   UNL     1      -1.080  -4.315   1.207  1.00  0.00     0.064 A 
ATOM     13  C   UNL     1      -0.717  -5.598   0.765  1.00  0.00     0.004 A 
ATOM     14  C   UNL     1      -0.688  -3.824   2.466  1.00  0.00     0.028 A 
ATOM     15  C   UNL     1       0.105  -6.386   1.598  1.00  0.00     0.010 A 
ATOM     16  C   UNL     1       0.132  -4.628   3.262  1.00  0.00     0.002 A 
ATOM     17  C   UNL     1       0.535  -5.886   2.830  1.00  0.00     0.001 A 
BRANCH  10  18
ATOM     18  S   UNL     1      -2.289  -2.128   0.070  1.00  0.00     0.268 S 
ATOM     19  O   UNL     1      -2.933  -1.899   1.361  1.00  0.00    -0.201 OA
ATOM     20  O   UNL     1      -3.027  -2.036  -1.170  1.00  0.00    -0.201 OA
BRANCH  18  21
ATOM     21  C   UNL     1      -0.923  -0.970  -0.057  1.00  0.00     0.094 A 
ATOM     22  C   UNL     1       2.152   2.087   0.047  1.00  0.00     0.044 C 
ATOM     23  C   UNL     1       1.089   1.032  -0.007  1.00  0.00    -0.051 A 
ATOM     24  C   UNL     1      -0.254   1.382   0.071  1.00  0.00     0.008 A 
ATOM     25  C   UNL     1       1.417  -0.311  -0.169  1.00  0.00     0.008 A 
ATOM     26  C   UNL     1      -1.270   0.408   0.045  1.00  0.00    -0.030 A 
ATOM     27  C   UNL     1       0.435  -1.325  -0.242  1.00  0.00    -0.030 A 
ATOM     28  C   UNL     1      -2.679   0.954   0.094  1.00  0.00     0.046 C 
ATOM     29  C   UNL     1       0.987  -2.691  -0.528  1.00  0.00     0.046 C 
ENDBRANCH  18  21
ENDBRANCH  10  18
ENDBRANCH   7   9
ENDBRANCH   6   7
BRANCH   6  30
ATOM     30  N   UNL     1      -3.356  -7.963  -0.177  1.00  0.00    -0.347 N 
ATOM     31  H   UNL     1      -3.986  -7.750  -0.951  1.00  0.00     0.345 HD
ATOM     32  H   UNL     1      -3.307  -7.162   0.452  1.00  0.00     0.345 HD
ATOM     33  H   UNL     1      -3.706  -8.775   0.332  1.00  0.00     0.345 HD
ENDBRANCH   6  30
ENDBRANCH   3   6
ENDBRANCH   1   2
BRANCH   1  34
ATOM     34  C   UNL     1      -3.245  -7.955  -4.650  1.00  0.00     0.042 C 
BRANCH  34  35
ATOM     35  C   UNL     1      -3.185  -8.987  -5.778  1.00  0.00     0.118 C 
BRANCH  35  36
ATOM     36  N   UNL     1      -4.443  -9.662  -6.034  1.00  0.00    -0.352 N 
ATOM     37  C   UNL     1      -5.532  -9.432  -6.829  1.00  0.00     0.251 C 
ATOM     38  H   UNL     1      -4.536 -10.488  -5.507  1.00  0.00     0.163 HD
ATOM     39  O   UNL     1      -6.363 -10.344  -6.873  1.00  0.00    -0.269 OA
BRANCH  37  40
ATOM     40  C   UNL     1      -5.813  -8.182  -7.588  1.00  0.00     0.039 A 
ATOM     41  C   UNL     1      -5.011  -7.045  -7.605  1.00  0.00     0.014 A 
ATOM     42  C   UNL     1      -7.036  -8.145  -8.293  1.00  0.00     0.014 A 
ATOM     43  C   UNL     1      -5.454  -5.884  -8.238  1.00  0.00     0.010 A 
ATOM     44  C   UNL     1      -7.477  -6.991  -8.941  1.00  0.00     0.010 A 
ATOM     45  C   UNL     1      -6.699  -5.844  -8.883  1.00  0.00    -0.014 A 
BRANCH  45  46
ATOM     46  C   UNL     1      -7.065  -4.597  -9.557  1.00  0.00     0.031 A 
ATOM     47  C   UNL     1      -6.083  -4.134 -10.574  1.00  0.00     0.074 A 
ATOM     48  C   UNL     1      -8.182  -3.873  -9.347  1.00  0.00     0.049 A 
ATOM     49  N   UNL     1      -5.279  -3.126 -10.484  1.00  0.00    -0.248 NA
ATOM     50  C   UNL     1      -5.897  -4.947 -11.781  1.00  0.00     0.031 C 
ATOM     51  C   UNL     1      -9.392  -4.246  -8.614  1.00  0.00     0.029 A 
ATOM     52  N   UNL     1      -8.473  -2.617  -9.810  1.00  0.00    -0.354 N 
ATOM     53  C   UNL     1      -4.587  -3.072 -11.690  1.00  0.00     0.074 A 
ATOM     54  C   UNL     1      -4.919  -4.281 -12.399  1.00  0.00     0.031 C 
ATOM     55  C   UNL     1     -10.355  -3.320  -8.836  1.00  0.00     0.029 A 
ATOM     56  C   UNL     1      -9.783  -2.216  -9.589  1.00  0.00     0.049 A 
ATOM     57  H   UNL     1      -7.809  -2.047 -10.262  1.00  0.00     0.167 HD
ATOM     58  C   UNL     1      -3.960  -1.929 -12.082  1.00  0.00     0.037 A 
ATOM     59  C   UNL     1     -10.356  -1.060 -10.005  1.00  0.00     0.037 A 
ATOM     60  C   UNL     1      -3.751  -1.044 -10.963  1.00  0.00     0.049 A 
ATOM     61  C   UNL     1      -9.273  -0.069 -10.195  1.00  0.00     0.074 A 
ATOM     62  C   UNL     1      -3.018  -1.076  -9.796  1.00  0.00     0.029 A 
ATOM     63  N   UNL     1      -4.645  -0.015 -10.826  1.00  0.00    -0.354 N 
ATOM     64  N   UNL     1      -8.578   0.453  -9.225  1.00  0.00    -0.248 NA
ATOM     65  C   UNL     1      -8.740   0.146 -11.532  1.00  0.00     0.031 C 
ATOM     66  C   UNL     1      -3.772  -0.317  -8.851  1.00  0.00     0.029 A 
ATOM     67  C   UNL     1      -4.913   0.162  -9.497  1.00  0.00     0.049 A 
ATOM     68  H   UNL     1      -5.032   0.510 -11.563  1.00  0.00     0.167 HD
ATOM     69  C   UNL     1      -7.329   0.675  -9.775  1.00  0.00     0.074 A 
ATOM     70  C   UNL     1      -7.538   0.631 -11.216  1.00  0.00     0.031 C 
ATOM     71  C   UNL     1      -6.206   0.581  -9.007  1.00  0.00     0.037 A 
BRANCH  58  72
ATOM     72  C   UNL     1      -3.929  -1.410 -13.508  1.00  0.00     0.064 A 
ATOM     73  C   UNL     1      -3.264  -0.191 -13.772  1.00  0.00     0.173 A 
ATOM     74  C   UNL     1      -4.793  -1.856 -14.531  1.00  0.00     0.173 A 
ATOM     75  F   UNL     1      -2.413   0.334 -12.877  1.00  0.00    -0.203 F 
ATOM     76  C   UNL     1      -3.543   0.577 -14.906  1.00  0.00     0.198 A 
ATOM     77  C   UNL     1      -5.030  -1.110 -15.685  1.00  0.00     0.198 A 
ATOM     78  F   UNL     1      -5.527  -2.967 -14.415  1.00  0.00    -0.203 F 
ATOM     79  F   UNL     1      -3.002   1.796 -15.034  1.00  0.00    -0.200 F 
ATOM     80  C   UNL     1      -4.438   0.123 -15.855  1.00  0.00     0.200 A 
ATOM     81  F   UNL     1      -5.910  -1.562 -16.590  1.00  0.00    -0.200 F 
ATOM     82  F   UNL     1      -4.767   0.889 -16.903  1.00  0.00    -0.200 F 
ENDBRANCH  58  72
BRANCH  59  83
ATOM     83  C   UNL     1     -11.737  -0.807 -10.480  1.00  0.00     0.064 A 
ATOM     84  C   UNL     1     -12.216   0.506 -10.645  1.00  0.00     0.173 A 
ATOM     85  C   UNL     1     -12.495  -1.828 -11.082  1.00  0.00     0.173 A 
ATOM     86  F   UNL     1     -11.537   1.543 -10.133  1.00  0.00    -0.203 F 
ATOM     87  C   UNL     1     -13.351   0.784 -11.413  1.00  0.00     0.198 A 
ATOM     88  C   UNL     1     -13.633  -1.549 -11.842  1.00  0.00     0.198 A 
ATOM     89  F   UNL     1     -12.090  -3.104 -11.032  1.00  0.00    -0.203 F 
ATOM     90  F   UNL     1     -13.726   2.055 -11.616  1.00  0.00    -0.200 F 
ATOM     91  C   UNL     1     -14.048  -0.243 -12.025  1.00  0.00     0.200 A 
ATOM     92  F   UNL     1     -14.280  -2.549 -12.459  1.00  0.00    -0.200 F 
ATOM     93  F   UNL     1     -15.089   0.027 -12.825  1.00  0.00    -0.200 F 
ENDBRANCH  59  83
BRANCH  71  94
ATOM     94  C   UNL     1      -6.369   0.681  -7.519  1.00  0.00     0.064 A 
ATOM     95  C   UNL     1      -7.057  -0.255  -6.731  1.00  0.00     0.173 A 
ATOM     96  C   UNL     1      -5.683   1.709  -6.857  1.00  0.00     0.173 A 
ATOM     97  F   UNL     1      -7.666  -1.312  -7.285  1.00  0.00    -0.203 F 
ATOM     98  C   UNL     1      -7.082  -0.142  -5.341  1.00  0.00     0.198 A 
ATOM     99  C   UNL     1      -5.677   1.797  -5.469  1.00  0.00     0.198 A 
ATOM    100  F   UNL     1      -4.973   2.606  -7.561  1.00  0.00    -0.203 F 
ATOM    101  F   UNL     1      -7.758  -1.038  -4.606  1.00  0.00    -0.200 F 
ATOM    102  C   UNL     1      -6.384   0.877  -4.712  1.00  0.00     0.200 A 
ATOM    103  F   UNL     1      -4.965   2.758  -4.866  1.00  0.00    -0.200 F 
ATOM    104  F   UNL     1      -6.372   0.961  -3.374  1.00  0.00    -0.200 F 
ENDBRANCH  71  94
ENDBRANCH  45  46
ENDBRANCH  37  40
ENDBRANCH  35  36
ENDBRANCH  34  35
ENDBRANCH   1  34
TORSDOF 15
