REMARK SMILES COC(=O)[C@@H]1CN(C(=O)NC(=O)CCCC(=O)NCCCNC(=O)c2ccc(-c3c4nc(c(-c5c(F)c(F)c(F)c(F)c5F)c5ccc([nH]5)c(-c5c(F)c(F)c(F)c(F)c5F)c5nc(c(-c6c(F)c(F)c(F)c(F)c6F)c6ccc3[nH]6)C=C5)C=C4)cc2)C[C@H]1C
REMARK SMILES IDX 16 1 17 2 18 3 15 5 14 6 13 7 11 8 8 9 9 10 10 11 12 13 7 14
REMARK SMILES IDX 5 15 6 16 89 17 88 18 90 19 3 20 4 21 2 22 1 23 19 24 20 25
REMARK SMILES IDX 21 26 22 27 23 28 24 30 25 31 26 32 87 33 27 34 86 35 28 36
REMARK SMILES IDX 29 37 30 38 80 39 31 40 85 41 79 42 81 43 32 44 84 45 78 46
REMARK SMILES IDX 77 47 33 49 65 50 45 51 64 52 46 53 49 54 63 55 82 56 47 57
REMARK SMILES IDX 48 58 62 60 83 61 50 62 34 63 35 64 43 65 36 66 37 67 41 68
REMARK SMILES IDX 44 69 38 70 39 71 42 72 40 73 66 74 67 75 75 76 68 77 69 78
REMARK SMILES IDX 73 79 76 80 70 81 71 82 74 83 72 84 51 85 52 86 60 87 53 88
REMARK SMILES IDX 54 89 58 90 61 91 55 92 56 93 59 94 57 95
REMARK H PARENT 18 4 10 12 22 29 81 48 49 59
REMARK Flexibility Score: inf
ROOT
ATOM      1  C   UNL     1       1.883  -3.601  -0.917  1.00  0.00     0.220 C 
ATOM      2  O   UNL     1       0.778  -4.064  -0.545  1.00  0.00    -0.275 OA
ATOM      3  N   UNL     1       3.523  -3.234   0.112  1.00  0.00    -0.356 N 
ATOM      4  H   UNL     1       3.432  -3.589   1.026  1.00  0.00     0.163 HD
ENDROOT
BRANCH   1   5
ATOM      5  C   UNL     1       1.627  -3.221  -2.680  1.00  0.00     0.100 C 
BRANCH   5   6
ATOM      6  C   UNL     1       1.752  -1.891  -3.511  1.00  0.00     0.020 C 
BRANCH   6   7
ATOM      7  C   UNL     1       2.871  -0.831  -3.438  1.00  0.00     0.101 C 
BRANCH   7   8
ATOM      8  C   UNL     1       4.312  -1.159  -3.721  1.00  0.00     0.227 C 
ATOM      9  C   UNL     1       4.444  -3.476  -2.819  1.00  0.00     0.324 C 
ATOM     10  O   UNL     1       4.970  -4.565  -3.052  1.00  0.00    -0.248 OA
ATOM     11  N   UNL     1       4.779  -2.424  -3.596  1.00  0.00    -0.278 N 
ATOM     12  H   UNL     1       5.528  -2.619  -4.205  1.00  0.00     0.174 HD
ATOM     13  O   UNL     1       5.107  -0.262  -4.016  1.00  0.00    -0.275 OA
BRANCH   9  14
ATOM     14  N   UNL     1       3.593  -3.322  -1.756  1.00  0.00    -0.323 N 
ATOM     15  C   UNL     1       1.899  -2.619   0.924  1.00  0.00     0.123 C 
ATOM     16  C   UNL     1       2.660  -1.831  -0.799  1.00  0.00     0.137 C 
ATOM     17  C   UNL     1       2.327  -4.611   0.906  1.00  0.00     0.021 C 
ATOM     18  C   UNL     1       3.382  -4.975  -0.765  1.00  0.00     0.125 C 
ATOM     19  C   UNL     1       3.079  -5.128   2.164  1.00  0.00     0.010 C 
BRANCH  15  20
ATOM     20  C   UNL     1       0.457  -2.356   1.358  1.00  0.00     0.310 C 
ATOM     21  O   UNL     1      -0.193  -3.218   1.947  1.00  0.00    -0.252 OA
BRANCH  20  22
ATOM     22  O   UNL     1      -0.019  -1.091   1.322  1.00  0.00    -0.469 OA
ATOM     23  C   UNL     1       0.543  -0.024   0.559  1.00  0.00     0.282 C 
ENDBRANCH  20  22
ENDBRANCH  15  20
ENDBRANCH   9  14
ENDBRANCH   7   8
ENDBRANCH   6   7
ENDBRANCH   5   6
ENDBRANCH   1   5
BRANCH   3  24
ATOM     24  C   UNL     1       5.009  -2.517  -0.070  1.00  0.00     0.117 C 
BRANCH  24  25
ATOM     25  C   UNL     1       5.190  -1.366   0.923  1.00  0.00     0.042 C 
BRANCH  25  26
ATOM     26  C   UNL     1       5.454  -1.838   2.328  1.00  0.00     0.118 C 
BRANCH  26  27
ATOM     27  N   UNL     1       6.837  -2.238   2.484  1.00  0.00    -0.352 N 
ATOM     28  C   UNL     1       7.867  -1.538   3.062  1.00  0.00     0.251 C 
ATOM     29  H   UNL     1       7.068  -3.127   2.130  1.00  0.00     0.163 HD
ATOM     30  O   UNL     1       9.027  -1.845   2.813  1.00  0.00    -0.269 OA
BRANCH  28  31
ATOM     31  C   UNL     1       7.569  -0.405   3.965  1.00  0.00     0.039 A 
ATOM     32  C   UNL     1       8.431   0.690   3.992  1.00  0.00     0.014 A 
ATOM     33  C   UNL     1       6.445  -0.426   4.796  1.00  0.00     0.014 A 
ATOM     34  C   UNL     1       8.149   1.761   4.839  1.00  0.00     0.010 A 
ATOM     35  C   UNL     1       6.074   0.709   5.498  1.00  0.00     0.010 A 
ATOM     36  C   UNL     1       6.955   1.789   5.582  1.00  0.00    -0.014 A 
BRANCH  36  37
ATOM     37  C   UNL     1       6.664   2.904   6.515  1.00  0.00     0.031 A 
ATOM     38  C   UNL     1       6.478   2.627   7.984  1.00  0.00     0.074 A 
ATOM     39  C   UNL     1       6.569   4.158   6.036  1.00  0.00     0.049 A 
ATOM     40  N   UNL     1       6.276   3.470   8.965  1.00  0.00    -0.248 NA
ATOM     41  C   UNL     1       6.484   1.217   8.411  1.00  0.00     0.031 C 
ATOM     42  C   UNL     1       6.652   4.531   4.623  1.00  0.00     0.029 A 
ATOM     43  N   UNL     1       6.399   5.352   6.686  1.00  0.00    -0.354 N 
ATOM     44  C   UNL     1       6.131   2.692  10.107  1.00  0.00     0.074 A 
ATOM     45  C   UNL     1       6.166   1.312   9.691  1.00  0.00     0.031 C 
ATOM     46  C   UNL     1       6.593   5.867   4.518  1.00  0.00     0.029 A 
ATOM     47  C   UNL     1       6.428   6.440   5.850  1.00  0.00     0.049 A 
ATOM     48  H   UNL     1       6.269   5.423   7.660  1.00  0.00     0.167 HD
ATOM     49  C   UNL     1       6.028   3.091  11.396  1.00  0.00     0.037 A 
ATOM     50  C   UNL     1       6.340   7.753   6.130  1.00  0.00     0.037 A 
ATOM     51  C   UNL     1       6.011   4.470  11.801  1.00  0.00     0.049 A 
ATOM     52  C   UNL     1       6.229   8.177   7.570  1.00  0.00     0.074 A 
ATOM     53  C   UNL     1       5.950   4.996  13.078  1.00  0.00     0.029 A 
ATOM     54  N   UNL     1       6.050   5.546  10.924  1.00  0.00    -0.354 N 
ATOM     55  N   UNL     1       6.176   7.434   8.650  1.00  0.00    -0.248 NA
ATOM     56  C   UNL     1       6.181   9.621   7.831  1.00  0.00     0.031 C 
ATOM     57  C   UNL     1       5.889   6.388  12.971  1.00  0.00     0.029 A 
ATOM     58  C   UNL     1       5.989   6.734  11.632  1.00  0.00     0.049 A 
ATOM     59  H   UNL     1       6.111   5.474   9.944  1.00  0.00     0.167 HD
ATOM     60  C   UNL     1       6.117   8.317   9.719  1.00  0.00     0.074 A 
ATOM     61  C   UNL     1       6.160   9.652   9.156  1.00  0.00     0.031 C 
ATOM     62  C   UNL     1       6.037   8.051  11.047  1.00  0.00     0.037 A 
BRANCH  49  63
ATOM     63  C   UNL     1       5.934   2.021  12.449  1.00  0.00     0.064 A 
ATOM     64  C   UNL     1       7.002   1.145  12.711  1.00  0.00     0.173 A 
ATOM     65  C   UNL     1       4.767   1.871  13.212  1.00  0.00     0.173 A 
ATOM     66  F   UNL     1       8.137   1.232  12.001  1.00  0.00    -0.203 F 
ATOM     67  C   UNL     1       6.888   0.137  13.665  1.00  0.00     0.198 A 
ATOM     68  C   UNL     1       4.672   0.887  14.194  1.00  0.00     0.198 A 
ATOM     69  F   UNL     1       3.716   2.679  13.008  1.00  0.00    -0.203 F 
ATOM     70  F   UNL     1       7.896  -0.728  13.846  1.00  0.00    -0.200 F 
ATOM     71  C   UNL     1       5.727   0.014  14.411  1.00  0.00     0.200 A 
ATOM     72  F   UNL     1       3.553   0.778  14.924  1.00  0.00    -0.200 F 
ATOM     73  F   UNL     1       5.620  -0.954  15.332  1.00  0.00    -0.200 F 
ENDBRANCH  49  63
BRANCH  50  74
ATOM     74  C   UNL     1       6.390   8.749   5.027  1.00  0.00     0.064 A 
ATOM     75  C   UNL     1       7.479   9.619   4.878  1.00  0.00     0.173 A 
ATOM     76  C   UNL     1       5.354   8.835   4.084  1.00  0.00     0.173 A 
ATOM     77  F   UNL     1       8.489   9.585   5.759  1.00  0.00    -0.203 F 
ATOM     78  C   UNL     1       7.519  10.552   3.843  1.00  0.00     0.198 A 
ATOM     79  C   UNL     1       5.412   9.744   3.030  1.00  0.00     0.198 A 
ATOM     80  F   UNL     1       4.296   8.016   4.172  1.00  0.00    -0.203 F 
ATOM     81  F   UNL     1       8.550  11.402   3.750  1.00  0.00    -0.200 F 
ATOM     82  C   UNL     1       6.489  10.608   2.916  1.00  0.00     0.200 A 
ATOM     83  F   UNL     1       4.426   9.777   2.124  1.00  0.00    -0.200 F 
ATOM     84  F   UNL     1       6.534  11.497   1.914  1.00  0.00    -0.200 F 
ENDBRANCH  50  74
BRANCH  62  85
ATOM     85  C   UNL     1       6.033   9.224  11.984  1.00  0.00     0.064 A 
ATOM     86  C   UNL     1       4.944  10.104  12.066  1.00  0.00     0.173 A 
ATOM     87  C   UNL     1       7.122   9.445  12.842  1.00  0.00     0.173 A 
ATOM     88  F   UNL     1       3.883   9.943  11.261  1.00  0.00    -0.203 F 
ATOM     89  C   UNL     1       4.961  11.182  12.946  1.00  0.00     0.198 A 
ATOM     90  C   UNL     1       7.119  10.500  13.748  1.00  0.00     0.198 A 
ATOM     91  F   UNL     1       8.184   8.626  12.812  1.00  0.00    -0.203 F 
ATOM     92  F   UNL     1       3.936  12.046  12.965  1.00  0.00    -0.200 F 
ATOM     93  C   UNL     1       6.044  11.375  13.792  1.00  0.00     0.200 A 
ATOM     94  F   UNL     1       8.157  10.671  14.578  1.00  0.00    -0.200 F 
ATOM     95  F   UNL     1       6.055  12.408  14.644  1.00  0.00    -0.200 F 
ENDBRANCH  62  85
ENDBRANCH  36  37
ENDBRANCH  28  31
ENDBRANCH  26  27
ENDBRANCH  25  26
ENDBRANCH  24  25
ENDBRANCH   3  24
TORSDOF 16
