REMARK SMILES CC(C)(C#N)Nc1ccccc1C(=O)NCCCNC(=O)c1ccc(-c2c3nc(c(-c4c(F)c(F)c(F)c(F)c4F)c4ccc([nH]4)c(-c4c(F)c(F)c(F)c(F)c4F)c4nc(c(-c5c(F)c(F)c(F)c(F)c5F)c5ccc2[nH]5)C=C4)C=C3)cc1
REMARK SMILES IDX 16 1 15 2 13 3 14 4 12 6 7 7 8 8 9 9 11 10 10 11 6 12 2 14
REMARK SMILES IDX 1 15 3 16 4 17 5 18 17 19 18 20 19 21 20 22 21 24 22 25
REMARK SMILES IDX 23 26 84 27 24 28 83 29 25 30 26 31 27 32 77 33 28 34 82 35
REMARK SMILES IDX 76 36 78 37 29 38 81 39 75 40 74 41 30 43 62 44 42 45 61 46
REMARK SMILES IDX 43 47 46 48 60 49 79 50 44 51 45 52 59 54 80 55 47 56 31 57
REMARK SMILES IDX 32 58 40 59 33 60 34 61 38 62 41 63 35 64 36 65 39 66 37 67
REMARK SMILES IDX 63 68 64 69 72 70 65 71 66 72 70 73 73 74 67 75 68 76 71 77
REMARK SMILES IDX 69 78 48 79 49 80 57 81 50 82 51 83 55 84 58 85 52 86 53 87
REMARK SMILES IDX 56 88 54 89
REMARK H PARENT 15 5 6 13 19 23 78 42 46 53
REMARK Flexibility Score: inf
ROOT
ATOM      1  C   UNL     1      -1.886   1.599  -1.656  1.00  0.00     0.118 C 
ENDROOT
BRANCH   1   2
ATOM      2  N   UNL     1      -2.900   0.902  -0.886  1.00  0.00    -0.352 N 
ATOM      3  C   UNL     1      -3.231  -0.436  -0.892  1.00  0.00     0.253 C 
ATOM      4  O   UNL     1      -4.106  -0.828  -0.120  1.00  0.00    -0.269 OA
ATOM      5  H   UNL     1      -3.425   1.464  -0.272  1.00  0.00     0.163 HD
BRANCH   3   6
ATOM      6  C   UNL     1      -2.655  -1.382  -1.883  1.00  0.00     0.062 A 
ATOM      7  C   UNL     1      -1.291  -1.516  -2.192  1.00  0.00     0.048 A 
ATOM      8  C   UNL     1      -0.968  -2.239  -3.359  1.00  0.00     0.026 A 
ATOM      9  C   UNL     1      -1.935  -2.909  -4.112  1.00  0.00     0.002 A 
ATOM     10  C   UNL     1      -3.620  -2.120  -2.602  1.00  0.00     0.016 A 
ATOM     11  C   UNL     1      -3.259  -2.893  -3.703  1.00  0.00     0.001 A 
BRANCH   7  12
ATOM     12  N   UNL     1      -0.218  -1.090  -1.426  1.00  0.00    -0.367 N 
ATOM     13  H   UNL     1       0.445  -0.531  -1.892  1.00  0.00     0.162 HD
BRANCH  12  14
ATOM     14  C   UNL     1       0.063  -1.367   0.004  1.00  0.00     0.119 C 
ATOM     15  C   UNL     1      -0.246  -0.127   0.836  1.00  0.00     0.051 C 
ATOM     16  C   UNL     1      -0.691  -2.571   0.567  1.00  0.00     0.051 C 
BRANCH  14  17
ATOM     17  C   UNL     1       1.535  -1.611   0.150  1.00  0.00     0.090 C 
ATOM     18  N   UNL     1       2.680  -1.746   0.229  1.00  0.00    -0.196 NA
ENDBRANCH  14  17
ENDBRANCH  12  14
ENDBRANCH   7  12
ENDBRANCH   3   6
ENDBRANCH   1   2
BRANCH   1  19
ATOM     19  C   UNL     1      -1.666   3.066  -1.292  1.00  0.00     0.042 C 
BRANCH  19  20
ATOM     20  C   UNL     1      -1.709   3.456   0.187  1.00  0.00     0.118 C 
BRANCH  20  21
ATOM     21  N   UNL     1      -0.542   3.123   1.004  1.00  0.00    -0.352 N 
ATOM     22  C   UNL     1       0.530   3.858   1.458  1.00  0.00     0.251 C 
ATOM     23  H   UNL     1      -0.519   2.180   1.287  1.00  0.00     0.163 HD
ATOM     24  O   UNL     1       1.455   3.309   2.048  1.00  0.00    -0.269 OA
BRANCH  22  25
ATOM     25  C   UNL     1       0.566   5.312   1.236  1.00  0.00     0.039 A 
ATOM     26  C   UNL     1       1.740   5.939   0.815  1.00  0.00     0.014 A 
ATOM     27  C   UNL     1      -0.602   6.047   1.406  1.00  0.00     0.014 A 
ATOM     28  C   UNL     1       1.689   7.273   0.406  1.00  0.00     0.010 A 
ATOM     29  C   UNL     1      -0.691   7.309   0.854  1.00  0.00     0.010 A 
ATOM     30  C   UNL     1       0.452   7.933   0.338  1.00  0.00    -0.014 A 
BRANCH  30  31
ATOM     31  C   UNL     1       0.292   9.260  -0.299  1.00  0.00     0.031 A 
ATOM     32  C   UNL     1      -0.310  10.393   0.482  1.00  0.00     0.074 A 
ATOM     33  C   UNL     1       0.553   9.393  -1.614  1.00  0.00     0.049 A 
ATOM     34  N   UNL     1      -0.675  11.580   0.073  1.00  0.00    -0.248 NA
ATOM     35  C   UNL     1      -0.588  10.136   1.905  1.00  0.00     0.031 C 
ATOM     36  C   UNL     1       1.071   8.335  -2.487  1.00  0.00     0.029 A 
ATOM     37  N   UNL     1       0.404  10.467  -2.453  1.00  0.00    -0.354 N 
ATOM     38  C   UNL     1      -1.242  12.197   1.180  1.00  0.00     0.074 A 
ATOM     39  C   UNL     1      -1.253  11.226   2.250  1.00  0.00     0.031 C 
ATOM     40  C   UNL     1       1.237   8.826  -3.724  1.00  0.00     0.029 A 
ATOM     41  C   UNL     1       0.784  10.211  -3.748  1.00  0.00     0.049 A 
ATOM     42  H   UNL     1       0.058  11.339  -2.155  1.00  0.00     0.167 HD
ATOM     43  C   UNL     1      -1.682  13.471   1.300  1.00  0.00     0.037 A 
ATOM     44  C   UNL     1       0.758  11.006  -4.833  1.00  0.00     0.037 A 
ATOM     45  C   UNL     1      -1.649  14.426   0.225  1.00  0.00     0.049 A 
ATOM     46  C   UNL     1       0.241  12.410  -4.684  1.00  0.00     0.074 A 
ATOM     47  C   UNL     1      -2.002  15.762   0.245  1.00  0.00     0.029 A 
ATOM     48  N   UNL     1      -1.248  14.136  -1.073  1.00  0.00    -0.354 N 
ATOM     49  N   UNL     1      -0.206  13.018  -3.611  1.00  0.00    -0.248 NA
ATOM     50  C   UNL     1       0.223  13.239  -5.896  1.00  0.00     0.031 C 
ATOM     51  C   UNL     1      -1.881  16.262  -1.056  1.00  0.00     0.029 A 
ATOM     52  C   UNL     1      -1.387  15.257  -1.874  1.00  0.00     0.049 A 
ATOM     53  H   UNL     1      -0.914  13.261  -1.378  1.00  0.00     0.167 HD
ATOM     54  C   UNL     1      -0.541  14.303  -4.011  1.00  0.00     0.074 A 
ATOM     55  C   UNL     1      -0.221  14.394  -5.422  1.00  0.00     0.031 C 
ATOM     56  C   UNL     1      -1.071  15.317  -3.280  1.00  0.00     0.037 A 
BRANCH  43  57
ATOM     57  C   UNL     1      -2.237  13.886   2.635  1.00  0.00     0.064 A 
ATOM     58  C   UNL     1      -1.438  13.931   3.790  1.00  0.00     0.173 A 
ATOM     59  C   UNL     1      -3.592  14.226   2.769  1.00  0.00     0.173 A 
ATOM     60  F   UNL     1      -0.137  13.605   3.725  1.00  0.00    -0.203 F 
ATOM     61  C   UNL     1      -1.984  14.243   5.032  1.00  0.00     0.198 A 
ATOM     62  C   UNL     1      -4.125  14.581   4.006  1.00  0.00     0.198 A 
ATOM     63  F   UNL     1      -4.404  14.207   1.701  1.00  0.00    -0.203 F 
ATOM     64  F   UNL     1      -1.217  14.195   6.130  1.00  0.00    -0.200 F 
ATOM     65  C   UNL     1      -3.326  14.573   5.138  1.00  0.00     0.200 A 
ATOM     66  F   UNL     1      -5.420  14.914   4.104  1.00  0.00    -0.200 F 
ATOM     67  F   UNL     1      -3.852  14.869   6.335  1.00  0.00    -0.200 F 
ENDBRANCH  43  57
BRANCH  44  68
ATOM     68  C   UNL     1       1.270  10.501  -6.135  1.00  0.00     0.064 A 
ATOM     69  C   UNL     1       2.453  11.015  -6.685  1.00  0.00     0.173 A 
ATOM     70  C   UNL     1       0.613   9.483  -6.842  1.00  0.00     0.173 A 
ATOM     71  F   UNL     1       3.110  12.000  -6.055  1.00  0.00    -0.203 F 
ATOM     72  C   UNL     1       2.951  10.541  -7.897  1.00  0.00     0.198 A 
ATOM     73  C   UNL     1       1.128   8.988  -8.038  1.00  0.00     0.198 A 
ATOM     74  F   UNL     1      -0.518   8.950  -6.356  1.00  0.00    -0.203 F 
ATOM     75  F   UNL     1       4.063  11.077  -8.417  1.00  0.00    -0.200 F 
ATOM     76  C   UNL     1       2.293   9.522  -8.568  1.00  0.00     0.200 A 
ATOM     77  F   UNL     1       0.500   7.989  -8.673  1.00  0.00    -0.200 F 
ATOM     78  F   UNL     1       2.779   9.057  -9.727  1.00  0.00    -0.200 F 
ENDBRANCH  44  68
BRANCH  56  79
ATOM     79  C   UNL     1      -1.329  16.612  -3.994  1.00  0.00     0.064 A 
ATOM     80  C   UNL     1      -2.350  16.733  -4.949  1.00  0.00     0.173 A 
ATOM     81  C   UNL     1      -0.580  17.757  -3.684  1.00  0.00     0.173 A 
ATOM     82  F   UNL     1      -3.084  15.664  -5.292  1.00  0.00    -0.203 F 
ATOM     83  C   UNL     1      -2.594  17.947  -5.585  1.00  0.00     0.198 A 
ATOM     84  C   UNL     1      -0.852  18.978  -4.294  1.00  0.00     0.198 A 
ATOM     85  F   UNL     1       0.403  17.697  -2.773  1.00  0.00    -0.203 F 
ATOM     86  F   UNL     1      -3.539  18.026  -6.531  1.00  0.00    -0.200 F 
ATOM     87  C   UNL     1      -1.852  19.070  -5.249  1.00  0.00     0.200 A 
ATOM     88  F   UNL     1      -0.148  20.066  -3.954  1.00  0.00    -0.200 F 
ATOM     89  F   UNL     1      -2.099  20.241  -5.852  1.00  0.00    -0.200 F 
ENDBRANCH  56  79
ENDBRANCH  30  31
ENDBRANCH  22  25
ENDBRANCH  20  21
ENDBRANCH  19  20
ENDBRANCH   1  19
TORSDOF 13
