REMARK SMILES O=C(NCCCNC(=O)[C@H](CO)NC(=O)[C@H](Cc1c[nH]c2ccccc12)NC(=O)c1ccc(F)cc1)c1ccc(-c2c3nc(c(-c4c(F)c(F)c(F)c(F)c4F)c4ccc([nH]4)c(-c4c(F)c(F)c(F)c(F)c4F)c4nc(c(-c5c(F)c(F)c(F)c(F)c5F)c5ccc2[nH]5)C=C4)C=C3)cc1
REMARK SMILES IDX 6 1 5 2 4 3 3 4 1 5 2 6 37 8 38 9 99 10 39 11 98 12 40 13
REMARK SMILES IDX 41 14 42 15 92 16 43 17 97 18 91 19 93 20 44 21 96 22 90 23
REMARK SMILES IDX 89 24 45 26 77 27 57 28 76 29 58 30 61 31 75 32 94 33 59 34
REMARK SMILES IDX 60 35 74 37 95 38 62 39 46 40 47 41 55 42 48 43 49 44 53 45
REMARK SMILES IDX 56 46 50 47 51 48 54 49 52 50 78 51 79 52 87 53 80 54 81 55
REMARK SMILES IDX 85 56 88 57 82 58 83 59 86 60 84 61 63 62 64 63 72 64 65 65
REMARK SMILES IDX 66 66 70 67 73 68 67 69 68 70 71 71 69 72 7 73 8 74 9 76
REMARK SMILES IDX 10 77 13 78 14 79 15 81 16 82 27 83 28 84 29 86 30 87 31 88
REMARK SMILES IDX 36 89 32 90 35 91 33 92 34 93 17 94 18 95 19 96 26 97 20 98
REMARK SMILES IDX 21 99 25 100 22 102 24 103 23 104 11 105 12 106
REMARK H PARENT 3 7 93 25 61 36 7 75 13 80 27 85 20 101 12 107
REMARK Flexibility Score: inf
ROOT
ATOM      1  C   UNL     1       4.487 -12.166   3.857  1.00  0.00     0.117 C 
ENDROOT
BRANCH   1   2
ATOM      2  C   UNL     1       5.855 -12.413   4.486  1.00  0.00     0.042 C 
BRANCH   2   3
ATOM      3  C   UNL     1       5.808 -13.440   5.616  1.00  0.00     0.118 C 
BRANCH   3   4
ATOM      4  N   UNL     1       5.237 -14.709   5.193  1.00  0.00    -0.352 N 
ATOM      5  O   UNL     1       5.210 -16.933   4.824  1.00  0.00    -0.269 OA
ATOM      6  C   UNL     1       5.727 -15.973   5.383  1.00  0.00     0.251 C 
ATOM      7  H   UNL     1       4.385 -14.652   4.704  1.00  0.00     0.163 HD
BRANCH   6   8
ATOM      8  C   UNL     1       6.905 -16.150   6.245  1.00  0.00     0.039 A 
ATOM      9  C   UNL     1       6.954 -15.545   7.505  1.00  0.00     0.014 A 
ATOM     10  C   UNL     1       7.979 -16.901   5.767  1.00  0.00     0.014 A 
ATOM     11  C   UNL     1       8.130 -15.592   8.240  1.00  0.00     0.010 A 
ATOM     12  C   UNL     1       9.127 -17.018   6.545  1.00  0.00     0.010 A 
ATOM     13  C   UNL     1       9.218 -16.346   7.775  1.00  0.00    -0.014 A 
BRANCH  13  14
ATOM     14  C   UNL     1      10.430 -16.486   8.613  1.00  0.00     0.031 A 
ATOM     15  C   UNL     1      11.750 -15.949   8.149  1.00  0.00     0.074 A 
ATOM     16  C   UNL     1      10.326 -17.128   9.791  1.00  0.00     0.049 A 
ATOM     17  N   UNL     1      12.926 -16.055   8.714  1.00  0.00    -0.248 NA
ATOM     18  C   UNL     1      11.757 -15.203   6.881  1.00  0.00     0.031 C 
ATOM     19  C   UNL     1       9.086 -17.683  10.337  1.00  0.00     0.029 A 
ATOM     20  N   UNL     1      11.269 -17.422  10.740  1.00  0.00    -0.354 N 
ATOM     21  C   UNL     1      13.813 -15.408   7.865  1.00  0.00     0.074 A 
ATOM     22  C   UNL     1      13.048 -14.938   6.731  1.00  0.00     0.031 C 
ATOM     23  C   UNL     1       9.338 -18.224  11.536  1.00  0.00     0.029 A 
ATOM     24  C   UNL     1      10.767 -18.118  11.810  1.00  0.00     0.049 A 
ATOM     25  H   UNL     1      12.215 -17.160  10.661  1.00  0.00     0.167 HD
ATOM     26  C   UNL     1      15.144 -15.223   8.030  1.00  0.00     0.037 A 
ATOM     27  C   UNL     1      11.390 -18.641  12.881  1.00  0.00     0.037 A 
ATOM     28  C   UNL     1      15.886 -15.688   9.174  1.00  0.00     0.049 A 
ATOM     29  C   UNL     1      12.874 -18.466  13.015  1.00  0.00     0.074 A 
ATOM     30  C   UNL     1      17.232 -15.523   9.451  1.00  0.00     0.029 A 
ATOM     31  N   UNL     1      15.347 -16.415  10.227  1.00  0.00    -0.354 N 
ATOM     32  N   UNL     1      13.704 -17.841  12.216  1.00  0.00    -0.248 NA
ATOM     33  C   UNL     1      13.511 -19.069  14.193  1.00  0.00     0.031 C 
ATOM     34  C   UNL     1      17.519 -16.202  10.638  1.00  0.00     0.029 A 
ATOM     35  C   UNL     1      16.340 -16.731  11.140  1.00  0.00     0.049 A 
ATOM     36  H   UNL     1      14.399 -16.669  10.312  1.00  0.00     0.167 HD
ATOM     37  C   UNL     1      14.956 -17.951  12.803  1.00  0.00     0.074 A 
ATOM     38  C   UNL     1      14.775 -18.701  14.030  1.00  0.00     0.031 C 
ATOM     39  C   UNL     1      16.143 -17.471  12.363  1.00  0.00     0.037 A 
BRANCH  26  40
ATOM     40  C   UNL     1      15.896 -14.502   6.947  1.00  0.00     0.064 A 
ATOM     41  C   UNL     1      16.849 -15.182   6.173  1.00  0.00     0.173 A 
ATOM     42  C   UNL     1      15.726 -13.129   6.716  1.00  0.00     0.173 A 
ATOM     43  F   UNL     1      17.057 -16.495   6.356  1.00  0.00    -0.203 F 
ATOM     44  C   UNL     1      17.611 -14.513   5.220  1.00  0.00     0.198 A 
ATOM     45  C   UNL     1      16.467 -12.469   5.740  1.00  0.00     0.198 A 
ATOM     46  F   UNL     1      14.820 -12.433   7.421  1.00  0.00    -0.203 F 
ATOM     47  F   UNL     1      18.539 -15.178   4.518  1.00  0.00    -0.200 F 
ATOM     48  C   UNL     1      17.416 -13.158   5.000  1.00  0.00     0.200 A 
ATOM     49  F   UNL     1      16.259 -11.165   5.510  1.00  0.00    -0.200 F 
ATOM     50  F   UNL     1      18.140 -12.518   4.072  1.00  0.00    -0.200 F 
ENDBRANCH  26  40
BRANCH  27  51
ATOM     51  C   UNL     1      10.588 -19.364  13.900  1.00  0.00     0.064 A 
ATOM     52  C   UNL     1       9.972 -20.590  13.606  1.00  0.00     0.173 A 
ATOM     53  C   UNL     1      10.356 -18.801  15.161  1.00  0.00     0.173 A 
ATOM     54  F   UNL     1      10.154 -21.164  12.408  1.00  0.00    -0.203 F 
ATOM     55  C   UNL     1       9.127 -21.208  14.524  1.00  0.00     0.198 A 
ATOM     56  C   UNL     1       9.534 -19.435  16.089  1.00  0.00     0.198 A 
ATOM     57  F   UNL     1      10.935 -17.637  15.491  1.00  0.00    -0.203 F 
ATOM     58  F   UNL     1       8.509 -22.352  14.199  1.00  0.00    -0.200 F 
ATOM     59  C   UNL     1       8.910 -20.631  15.766  1.00  0.00     0.200 A 
ATOM     60  F   UNL     1       9.341 -18.884  17.296  1.00  0.00    -0.200 F 
ATOM     61  F   UNL     1       8.098 -21.226  16.650  1.00  0.00    -0.200 F 
ENDBRANCH  27  51
BRANCH  39  62
ATOM     62  C   UNL     1      17.352 -17.701  13.222  1.00  0.00     0.064 A 
ATOM     63  C   UNL     1      17.972 -16.622  13.871  1.00  0.00     0.173 A 
ATOM     64  C   UNL     1      17.955 -18.963  13.319  1.00  0.00     0.173 A 
ATOM     65  F   UNL     1      17.436 -15.394  13.802  1.00  0.00    -0.203 F 
ATOM     66  C   UNL     1      19.167 -16.793  14.562  1.00  0.00     0.198 A 
ATOM     67  C   UNL     1      19.136 -19.135  14.037  1.00  0.00     0.198 A 
ATOM     68  F   UNL     1      17.393 -20.028  12.729  1.00  0.00    -0.203 F 
ATOM     69  F   UNL     1      19.766 -15.738  15.132  1.00  0.00    -0.200 F 
ATOM     70  C   UNL     1      19.747 -18.049  14.646  1.00  0.00     0.200 A 
ATOM     71  F   UNL     1      19.684 -20.354  14.138  1.00  0.00    -0.200 F 
ATOM     72  F   UNL     1      20.899 -18.213  15.311  1.00  0.00    -0.200 F 
ENDBRANCH  39  62
ENDBRANCH  13  14
ENDBRANCH   6   8
ENDBRANCH   3   4
ENDBRANCH   2   3
ENDBRANCH   1   2
BRANCH   1  73
ATOM     73  N   UNL     1       3.493 -11.942   4.885  1.00  0.00    -0.354 N 
ATOM     74  C   UNL     1       3.431 -10.942   5.814  1.00  0.00     0.244 C 
ATOM     75  H   UNL     1       2.762 -12.600   4.919  1.00  0.00     0.163 HD
ATOM     76  O   UNL     1       2.955 -11.255   6.910  1.00  0.00    -0.273 OA
BRANCH  74  77
ATOM     77  C   UNL     1       3.628  -9.467   5.427  1.00  0.00     0.197 C 
BRANCH  77  78
ATOM     78  N   UNL     1       4.780  -9.121   4.582  1.00  0.00    -0.340 N 
ATOM     79  C   UNL     1       5.596  -8.026   4.580  1.00  0.00     0.243 C 
ATOM     80  H   UNL     1       5.002  -9.795   3.900  1.00  0.00     0.164 HD
ATOM     81  O   UNL     1       6.531  -8.044   3.770  1.00  0.00    -0.273 OA
BRANCH  79  82
ATOM     82  C   UNL     1       5.376  -6.841   5.542  1.00  0.00     0.176 C 
BRANCH  82  83
ATOM     83  N   UNL     1       6.711  -6.455   6.063  1.00  0.00    -0.340 N 
ATOM     84  C   UNL     1       7.424  -6.882   7.151  1.00  0.00     0.251 C 
ATOM     85  H   UNL     1       7.167  -5.766   5.529  1.00  0.00     0.164 HD
ATOM     86  O   UNL     1       8.494  -6.352   7.433  1.00  0.00    -0.269 OA
BRANCH  84  87
ATOM     87  C   UNL     1       6.917  -7.968   8.009  1.00  0.00     0.040 A 
ATOM     88  C   UNL     1       6.642  -9.233   7.482  1.00  0.00     0.017 A 
ATOM     89  C   UNL     1       6.814  -7.743   9.387  1.00  0.00     0.017 A 
ATOM     90  C   UNL     1       6.162 -10.243   8.317  1.00  0.00     0.040 A 
ATOM     91  C   UNL     1       6.357  -8.763  10.223  1.00  0.00     0.040 A 
ATOM     92  C   UNL     1       6.017  -9.996   9.677  1.00  0.00     0.123 A 
ATOM     93  F   UNL     1       5.567 -10.973  10.476  1.00  0.00    -0.207 F 
ENDBRANCH  84  87
ENDBRANCH  82  83
BRANCH  82  94
ATOM     94  C   UNL     1       4.729  -5.617   4.834  1.00  0.00     0.072 C 
BRANCH  94  95
ATOM     95  C   UNL     1       3.771  -5.916   3.716  1.00  0.00    -0.020 A 
ATOM     96  C   UNL     1       4.129  -6.336   2.447  1.00  0.00     0.087 A 
ATOM     97  C   UNL     1       2.338  -5.845   3.729  1.00  0.00     0.003 A 
ATOM     98  N   UNL     1       2.995  -6.639   1.750  1.00  0.00    -0.361 N 
ATOM     99  C   UNL     1       1.887  -6.401   2.527  1.00  0.00     0.046 A 
ATOM    100  C   UNL     1       1.375  -5.446   4.679  1.00  0.00     0.010 A 
ATOM    101  H   UNL     1       2.974  -6.978   0.826  1.00  0.00     0.166 HD
ATOM    102  C   UNL     1       0.537  -6.678   2.276  1.00  0.00     0.026 A 
ATOM    103  C   UNL     1       0.017  -5.688   4.429  1.00  0.00     0.001 A 
ATOM    104  C   UNL     1      -0.390  -6.324   3.259  1.00  0.00     0.002 A 
ENDBRANCH  94  95
ENDBRANCH  82  94
ENDBRANCH  79  82
ENDBRANCH  77  78
BRANCH  77 105
ATOM    105  C   UNL     1       2.295  -9.108   4.761  1.00  0.00     0.191 C 
BRANCH 105 106
ATOM    106  O   UNL     1       1.493  -8.373   5.678  1.00  0.00    -0.394 OA
ATOM    107  H   UNL     1       1.327  -8.913   6.466  1.00  0.00     0.210 HD
ENDBRANCH 105 106
ENDBRANCH  77 105
ENDBRANCH  74  77
ENDBRANCH   1  73
TORSDOF 18
