REMARK SMILES CCCC1CN(c2ccc(C(=O)NCC(=O)NCCCNC(=O)c3ccc(-c4c5nc(c(-c6c(F)c(F)c(F)c(F)c6F)c6ccc([nH]6)c(-c6c(F)c(F)c(F)c(F)c6F)c6nc(c(-c7c(F)c(F)c(F)c(F)c7F)c7ccc4[nH]7)C=C6)C=C5)cc3)cc2)C1
REMARK SMILES IDX 15 1 16 2 17 3 14 5 13 6 11 7 12 8 10 10 7 11 8 12 88 13
REMARK SMILES IDX 9 14 87 15 6 16 4 17 5 18 89 19 3 20 2 21 1 22 18 23 19 24
REMARK SMILES IDX 20 25 21 26 22 27 23 29 24 30 25 31 86 32 26 33 85 34 27 35
REMARK SMILES IDX 28 36 29 37 79 38 30 39 84 40 78 41 80 42 31 43 83 44 77 45
REMARK SMILES IDX 76 46 32 48 64 49 44 50 63 51 45 52 48 53 62 54 81 55 46 56
REMARK SMILES IDX 47 57 61 59 82 60 49 61 33 62 34 63 42 64 35 65 36 66 40 67
REMARK SMILES IDX 43 68 37 69 38 70 41 71 39 72 65 73 66 74 74 75 67 76 68 77
REMARK SMILES IDX 72 78 75 79 69 80 70 81 73 82 71 83 50 84 51 85 59 86 52 87
REMARK SMILES IDX 53 88 57 89 60 90 54 91 55 92 58 93 56 94
REMARK H PARENT 17 4 13 9 21 28 80 47 48 58
REMARK Flexibility Score: inf
ROOT
ATOM      1  C   UNL     1      -2.428  -2.521   9.644  1.00  0.00     0.239 C 
ATOM      2  O   UNL     1      -3.308  -1.811  10.145  1.00  0.00    -0.273 OA
ATOM      3  N   UNL     1      -2.848  -3.659   9.028  1.00  0.00    -0.355 N 
ATOM      4  H   UNL     1      -3.790  -3.891   9.195  1.00  0.00     0.163 HD
ENDROOT
BRANCH   1   5
ATOM      5  C   UNL     1      -0.974  -2.017   9.605  1.00  0.00     0.216 C 
BRANCH   5   6
ATOM      6  N   UNL     1       0.098  -2.998   9.662  1.00  0.00    -0.343 N 
ATOM      7  C   UNL     1       1.047  -3.486   8.807  1.00  0.00     0.251 C 
ATOM      8  O   UNL     1       1.853  -4.272   9.312  1.00  0.00    -0.269 OA
ATOM      9  H   UNL     1       0.155  -3.421  10.549  1.00  0.00     0.164 HD
BRANCH   7  10
ATOM     10  C   UNL     1       1.151  -3.204   7.339  1.00  0.00     0.039 A 
ATOM     11  C   UNL     1       1.454  -2.940   4.521  1.00  0.00     0.037 A 
ATOM     12  C   UNL     1       2.296  -3.778   5.249  1.00  0.00     0.027 A 
ATOM     13  C   UNL     1       0.455  -2.253   5.211  1.00  0.00     0.027 A 
ATOM     14  C   UNL     1       2.157  -3.896   6.639  1.00  0.00     0.016 A 
ATOM     15  C   UNL     1       0.298  -2.390   6.596  1.00  0.00     0.016 A 
BRANCH  11  16
ATOM     16  N   UNL     1       1.635  -2.780   3.142  1.00  0.00    -0.371 N 
ATOM     17  C   UNL     1       0.741  -2.625   1.279  1.00  0.00     0.028 C 
ATOM     18  C   UNL     1       1.374  -3.750   2.121  1.00  0.00     0.122 C 
ATOM     19  C   UNL     1       1.313  -1.659   2.322  1.00  0.00     0.122 C 
BRANCH  17  20
ATOM     20  C   UNL     1       1.233  -2.473  -0.154  1.00  0.00     0.007 C 
BRANCH  20  21
ATOM     21  C   UNL     1       0.584  -1.282  -0.867  1.00  0.00    -0.003 C 
ATOM     22  C   UNL     1       1.038   0.077  -0.352  1.00  0.00     0.004 C 
ENDBRANCH  20  21
ENDBRANCH  17  20
ENDBRANCH  11  16
ENDBRANCH   7  10
ENDBRANCH   5   6
ENDBRANCH   1   5
BRANCH   3  23
ATOM     23  C   UNL     1      -2.143  -4.585   8.169  1.00  0.00     0.117 C 
BRANCH  23  24
ATOM     24  C   UNL     1      -1.656  -5.833   8.891  1.00  0.00     0.042 C 
BRANCH  24  25
ATOM     25  C   UNL     1      -2.772  -6.803   9.264  1.00  0.00     0.118 C 
BRANCH  25  26
ATOM     26  N   UNL     1      -3.464  -7.342   8.102  1.00  0.00    -0.352 N 
ATOM     27  C   UNL     1      -3.787  -8.631   7.766  1.00  0.00     0.251 C 
ATOM     28  H   UNL     1      -3.748  -6.665   7.446  1.00  0.00     0.163 HD
ATOM     29  O   UNL     1      -4.245  -8.857   6.649  1.00  0.00    -0.269 OA
BRANCH  27  30
ATOM     30  C   UNL     1      -3.585  -9.752   8.711  1.00  0.00     0.039 A 
ATOM     31  C   UNL     1      -3.199 -10.992   8.191  1.00  0.00     0.014 A 
ATOM     32  C   UNL     1      -3.831  -9.622  10.080  1.00  0.00     0.014 A 
ATOM     33  C   UNL     1      -3.024 -12.085   9.042  1.00  0.00     0.010 A 
ATOM     34  C   UNL     1      -3.584 -10.692  10.940  1.00  0.00     0.010 A 
ATOM     35  C   UNL     1      -3.194 -11.938  10.428  1.00  0.00    -0.014 A 
BRANCH  35  36
ATOM     36  C   UNL     1      -2.986 -13.086  11.344  1.00  0.00     0.031 A 
ATOM     37  C   UNL     1      -4.141 -13.657  12.121  1.00  0.00     0.074 A 
ATOM     38  C   UNL     1      -1.748 -13.591  11.507  1.00  0.00     0.049 A 
ATOM     39  N   UNL     1      -4.152 -14.641  12.985  1.00  0.00    -0.248 NA
ATOM     40  C   UNL     1      -5.452 -13.021  11.920  1.00  0.00     0.031 C 
ATOM     41  C   UNL     1      -0.540 -13.090  10.851  1.00  0.00     0.029 A 
ATOM     42  N   UNL     1      -1.301 -14.634  12.278  1.00  0.00    -0.354 N 
ATOM     43  C   UNL     1      -5.461 -14.729  13.441  1.00  0.00     0.074 A 
ATOM     44  C   UNL     1      -6.206 -13.670  12.796  1.00  0.00     0.031 C 
ATOM     45  C   UNL     1       0.507 -13.842  11.226  1.00  0.00     0.029 A 
ATOM     46  C   UNL     1       0.049 -14.859  12.167  1.00  0.00     0.049 A 
ATOM     47  H   UNL     1      -1.892 -15.170  12.855  1.00  0.00     0.167 HD
ATOM     48  C   UNL     1      -5.998 -15.628  14.300  1.00  0.00     0.037 A 
ATOM     49  C   UNL     1       0.828 -15.786  12.756  1.00  0.00     0.037 A 
ATOM     50  C   UNL     1      -5.263 -16.701  14.915  1.00  0.00     0.049 A 
ATOM     51  C   UNL     1       0.200 -16.793  13.681  1.00  0.00     0.074 A 
ATOM     52  C   UNL     1      -5.726 -17.695  15.759  1.00  0.00     0.029 A 
ATOM     53  N   UNL     1      -3.903 -16.921  14.748  1.00  0.00    -0.354 N 
ATOM     54  N   UNL     1      -1.052 -16.908  14.052  1.00  0.00    -0.248 NA
ATOM     55  C   UNL     1       1.093 -17.808  14.257  1.00  0.00     0.031 C 
ATOM     56  C   UNL     1      -4.641 -18.498  16.128  1.00  0.00     0.029 A 
ATOM     57  C   UNL     1      -3.510 -18.030  15.480  1.00  0.00     0.049 A 
ATOM     58  H   UNL     1      -3.306 -16.371  14.191  1.00  0.00     0.167 HD
ATOM     59  C   UNL     1      -1.104 -18.023  14.877  1.00  0.00     0.074 A 
ATOM     60  C   UNL     1       0.241 -18.556  14.943  1.00  0.00     0.031 C 
ATOM     61  C   UNL     1      -2.170 -18.557  15.521  1.00  0.00     0.037 A 
BRANCH  48  62
ATOM     62  C   UNL     1      -7.459 -15.492  14.621  1.00  0.00     0.064 A 
ATOM     63  C   UNL     1      -8.450 -15.790  13.673  1.00  0.00     0.173 A 
ATOM     64  C   UNL     1      -7.874 -15.094  15.901  1.00  0.00     0.173 A 
ATOM     65  F   UNL     1      -8.105 -16.164  12.432  1.00  0.00    -0.203 F 
ATOM     66  C   UNL     1      -9.801 -15.666  13.985  1.00  0.00     0.198 A 
ATOM     67  C   UNL     1      -9.227 -14.998  16.218  1.00  0.00     0.198 A 
ATOM     68  F   UNL     1      -6.968 -14.802  16.846  1.00  0.00    -0.203 F 
ATOM     69  F   UNL     1     -10.728 -15.909  13.049  1.00  0.00    -0.200 F 
ATOM     70  C   UNL     1     -10.188 -15.277  15.258  1.00  0.00     0.200 A 
ATOM     71  F   UNL     1      -9.600 -14.634  17.453  1.00  0.00    -0.200 F 
ATOM     72  F   UNL     1     -11.489 -15.164  15.559  1.00  0.00    -0.200 F 
ENDBRANCH  48  62
BRANCH  49  73
ATOM     73  C   UNL     1       2.280 -15.835  12.448  1.00  0.00     0.064 A 
ATOM     74  C   UNL     1       2.814 -16.873  11.673  1.00  0.00     0.173 A 
ATOM     75  C   UNL     1       3.159 -14.848  12.916  1.00  0.00     0.173 A 
ATOM     76  F   UNL     1       2.015 -17.849  11.220  1.00  0.00    -0.203 F 
ATOM     77  C   UNL     1       4.177 -16.933  11.393  1.00  0.00     0.198 A 
ATOM     78  C   UNL     1       4.518 -14.895  12.614  1.00  0.00     0.198 A 
ATOM     79  F   UNL     1       2.694 -13.831  13.658  1.00  0.00    -0.203 F 
ATOM     80  F   UNL     1       4.669 -17.959  10.685  1.00  0.00    -0.200 F 
ATOM     81  C   UNL     1       5.027 -15.941  11.859  1.00  0.00     0.200 A 
ATOM     82  F   UNL     1       5.334 -13.929  13.056  1.00  0.00    -0.200 F 
ATOM     83  F   UNL     1       6.338 -15.997  11.587  1.00  0.00    -0.200 F 
ENDBRANCH  49  73
BRANCH  61  84
ATOM     84  C   UNL     1      -1.935 -19.807  16.316  1.00  0.00     0.064 A 
ATOM     85  C   UNL     1      -1.242 -19.786  17.534  1.00  0.00     0.173 A 
ATOM     86  C   UNL     1      -2.439 -21.037  15.865  1.00  0.00     0.173 A 
ATOM     87  F   UNL     1      -0.729 -18.637  18.000  1.00  0.00    -0.203 F 
ATOM     88  C   UNL     1      -1.037 -20.957  18.260  1.00  0.00     0.198 A 
ATOM     89  C   UNL     1      -2.256 -22.200  16.606  1.00  0.00     0.198 A 
ATOM     90  F   UNL     1      -3.114 -21.108  14.708  1.00  0.00    -0.203 F 
ATOM     91  F   UNL     1      -0.331 -20.923  19.398  1.00  0.00    -0.200 F 
ATOM     92  C   UNL     1      -1.549 -22.161  17.798  1.00  0.00     0.200 A 
ATOM     93  F   UNL     1      -2.761 -23.361  16.164  1.00  0.00    -0.200 F 
ATOM     94  F   UNL     1      -1.354 -23.286  18.499  1.00  0.00    -0.200 F 
ENDBRANCH  61  84
ENDBRANCH  35  36
ENDBRANCH  27  30
ENDBRANCH  25  26
ENDBRANCH  24  25
ENDBRANCH  23  24
ENDBRANCH   3  23
TORSDOF 15
