REMARK SMILES CN(C)Nc1ncnc(Nc2ccc(C(=O)NCCCNC(=O)c3ccc(-c4c5nc(c(-c6c(F)c(F)c(F)c(F)c6F)c6ccc([nH]6)c(-c6c(F)c(F)c(F)c(F)c6F)c6nc(c(-c7c(F)c(F)c(F)c(F)c7F)c7ccc4[nH]7)C=C6)C=C5)cc3)cc2)c1[N+](=O)[O-]
REMARK SMILES IDX 18 1 17 2 15 3 16 4 14 6 11 7 12 8 88 9 13 10 87 11 10 12
REMARK SMILES IDX 9 14 5 15 6 16 89 17 7 18 8 19 4 20 2 22 1 23 3 24 90 25
REMARK SMILES IDX 91 26 92 27 19 28 20 29 21 30 22 31 23 33 24 34 25 35 86 36
REMARK SMILES IDX 26 37 85 38 27 39 28 40 29 41 79 42 30 43 84 44 78 45 80 46
REMARK SMILES IDX 31 47 83 48 77 49 76 50 32 52 64 53 44 54 63 55 45 56 48 57
REMARK SMILES IDX 62 58 81 59 46 60 47 61 61 63 82 64 49 65 33 66 34 67 42 68
REMARK SMILES IDX 35 69 36 70 40 71 43 72 37 73 38 74 41 75 39 76 65 77 66 78
REMARK SMILES IDX 74 79 67 80 68 81 72 82 75 83 69 84 70 85 73 86 71 87 50 88
REMARK SMILES IDX 51 89 59 90 52 91 53 92 57 93 60 94 54 95 55 96 58 97 56 98
REMARK H PARENT 17 5 10 13 4 21 21 32 80 51 48 62
REMARK Flexibility Score: inf
ROOT
ATOM      1  C   UNL     1       6.637   6.477   4.860  1.00  0.00     0.118 C 
ENDROOT
BRANCH   1   2
ATOM      2  N   UNL     1       7.904   5.767   4.859  1.00  0.00    -0.352 N 
ATOM      3  C   UNL     1       8.332   4.641   4.203  1.00  0.00     0.251 C 
ATOM      4  O   UNL     1       9.505   4.301   4.356  1.00  0.00    -0.269 OA
ATOM      5  H   UNL     1       8.587   6.172   5.441  1.00  0.00     0.163 HD
BRANCH   3   6
ATOM      6  C   UNL     1       7.465   3.857   3.283  1.00  0.00     0.039 A 
ATOM      7  C   UNL     1       5.948   2.436   1.374  1.00  0.00     0.040 A 
ATOM      8  C   UNL     1       7.335   2.507   1.257  1.00  0.00     0.027 A 
ATOM      9  C   UNL     1       5.341   2.989   2.509  1.00  0.00     0.027 A 
ATOM     10  C   UNL     1       8.085   3.229   2.192  1.00  0.00     0.016 A 
ATOM     11  C   UNL     1       6.094   3.678   3.465  1.00  0.00     0.016 A 
BRANCH   7  12
ATOM     12  N   UNL     1       5.193   1.738   0.411  1.00  0.00    -0.334 N 
ATOM     13  H   UNL     1       5.518   0.850   0.138  1.00  0.00     0.168 HD
BRANCH  12  14
ATOM     14  C   UNL     1       4.010   2.210  -0.192  1.00  0.00     0.215 A 
ATOM     15  C   UNL     1       1.919   1.939  -1.291  1.00  0.00     0.225 A 
ATOM     16  N   UNL     1       1.721   3.274  -1.267  1.00  0.00    -0.212 NA
ATOM     17  C   UNL     1       3.104   1.388  -0.843  1.00  0.00     0.354 A 
ATOM     18  C   UNL     1       2.677   4.017  -0.708  1.00  0.00     0.227 A 
ATOM     19  N   UNL     1       3.786   3.544  -0.136  1.00  0.00    -0.212 NA
BRANCH  15  20
ATOM     20  N   UNL     1       0.772   1.238  -1.677  1.00  0.00    -0.298 N 
ATOM     21  H   UNL     1       0.204   1.635  -2.376  1.00  0.00     0.184 HD
BRANCH  20  22
ATOM     22  N   UNL     1       0.376  -0.004  -1.130  1.00  0.00    -0.228 NA
ATOM     23  C   UNL     1       0.185   0.099   0.327  1.00  0.00     0.130 C 
ATOM     24  C   UNL     1      -0.916  -0.361  -1.742  1.00  0.00     0.130 C 
ENDBRANCH  20  22
ENDBRANCH  15  20
BRANCH  17  25
ATOM     25  N   UNL     1       3.410   0.008  -1.062  1.00  0.00     0.070 N 
ATOM     26  O   UNL     1       3.731  -0.662  -0.066  1.00  0.00    -0.258 OA
ATOM     27  O   UNL     1       3.457  -0.392  -2.233  1.00  0.00    -0.258 OA
ENDBRANCH  17  25
ENDBRANCH  12  14
ENDBRANCH   7  12
ENDBRANCH   3   6
ENDBRANCH   1   2
BRANCH   1  28
ATOM     28  C   UNL     1       5.847   6.194   6.139  1.00  0.00     0.042 C 
BRANCH  28  29
ATOM     29  C   UNL     1       6.438   6.854   7.383  1.00  0.00     0.118 C 
BRANCH  29  30
ATOM     30  N   UNL     1       6.271   8.299   7.366  1.00  0.00    -0.352 N 
ATOM     31  C   UNL     1       5.751   9.143   8.312  1.00  0.00     0.251 C 
ATOM     32  H   UNL     1       6.582   8.741   6.544  1.00  0.00     0.163 HD
ATOM     33  O   UNL     1       5.518  10.310   8.009  1.00  0.00    -0.269 OA
BRANCH  31  34
ATOM     34  C   UNL     1       5.459   8.678   9.688  1.00  0.00     0.039 A 
ATOM     35  C   UNL     1       4.334   9.199  10.337  1.00  0.00     0.014 A 
ATOM     36  C   UNL     1       6.315   7.812  10.376  1.00  0.00     0.014 A 
ATOM     37  C   UNL     1       4.055   8.837  11.657  1.00  0.00     0.010 A 
ATOM     38  C   UNL     1       6.003   7.402  11.673  1.00  0.00     0.010 A 
ATOM     39  C   UNL     1       4.881   7.926  12.332  1.00  0.00    -0.014 A 
BRANCH  39  40
ATOM     40  C   UNL     1       4.593   7.542  13.738  1.00  0.00     0.031 A 
ATOM     41  C   UNL     1       5.528   7.952  14.843  1.00  0.00     0.074 A 
ATOM     42  C   UNL     1       3.507   6.798  14.017  1.00  0.00     0.049 A 
ATOM     43  N   UNL     1       5.456   7.699  16.127  1.00  0.00    -0.248 NA
ATOM     44  C   UNL     1       6.714   8.729  14.452  1.00  0.00     0.031 C 
ATOM     45  C   UNL     1       2.551   6.298  13.028  1.00  0.00     0.029 A 
ATOM     46  N   UNL     1       3.026   6.328  15.213  1.00  0.00    -0.354 N 
ATOM     47  C   UNL     1       6.591   8.268  16.689  1.00  0.00     0.074 A 
ATOM     48  C   UNL     1       7.358   8.841  15.605  1.00  0.00     0.031 C 
ATOM     49  C   UNL     1       1.587   5.609  13.659  1.00  0.00     0.029 A 
ATOM     50  C   UNL     1       1.869   5.598  15.092  1.00  0.00     0.049 A 
ATOM     51  H   UNL     1       3.468   6.498  16.076  1.00  0.00     0.167 HD
ATOM     52  C   UNL     1       6.949   8.327  17.995  1.00  0.00     0.037 A 
ATOM     53  C   UNL     1       1.121   4.990  16.031  1.00  0.00     0.037 A 
ATOM     54  C   UNL     1       6.168   7.785  19.076  1.00  0.00     0.049 A 
ATOM     55  C   UNL     1       1.524   5.096  17.476  1.00  0.00     0.074 A 
ATOM     56  C   UNL     1       6.414   7.848  20.437  1.00  0.00     0.029 A 
ATOM     57  N   UNL     1       4.985   7.079  18.916  1.00  0.00    -0.354 N 
ATOM     58  N   UNL     1       2.563   5.698  18.003  1.00  0.00    -0.248 NA
ATOM     59  C   UNL     1       0.643   4.449  18.458  1.00  0.00     0.031 C 
ATOM     60  C   UNL     1       5.398   7.149  21.098  1.00  0.00     0.029 A 
ATOM     61  C   UNL     1       4.497   6.688  20.153  1.00  0.00     0.049 A 
ATOM     62  H   UNL     1       4.556   6.885  18.052  1.00  0.00     0.167 HD
ATOM     63  C   UNL     1       2.448   5.525  19.375  1.00  0.00     0.074 A 
ATOM     64  C   UNL     1       1.230   4.776  19.601  1.00  0.00     0.031 C 
ATOM     65  C   UNL     1       3.279   5.948  20.360  1.00  0.00     0.037 A 
BRANCH  52  66
ATOM     66  C   UNL     1       8.246   9.007  18.327  1.00  0.00     0.064 A 
ATOM     67  C   UNL     1       8.398  10.397  18.215  1.00  0.00     0.173 A 
ATOM     68  C   UNL     1       9.341   8.264  18.794  1.00  0.00     0.173 A 
ATOM     69  F   UNL     1       7.386  11.152  17.762  1.00  0.00    -0.203 F 
ATOM     70  C   UNL     1       9.606  11.014  18.528  1.00  0.00     0.198 A 
ATOM     71  C   UNL     1      10.539   8.888  19.135  1.00  0.00     0.198 A 
ATOM     72  F   UNL     1       9.248   6.932  18.927  1.00  0.00    -0.203 F 
ATOM     73  F   UNL     1       9.742  12.338  18.366  1.00  0.00    -0.200 F 
ATOM     74  C   UNL     1      10.673  10.261  18.994  1.00  0.00     0.200 A 
ATOM     75  F   UNL     1      11.565   8.159  19.596  1.00  0.00    -0.200 F 
ATOM     76  F   UNL     1      11.834  10.857  19.300  1.00  0.00    -0.200 F 
ENDBRANCH  52  66
BRANCH  53  77
ATOM     77  C   UNL     1      -0.110   4.260  15.635  1.00  0.00     0.064 A 
ATOM     78  C   UNL     1      -1.379   4.773  15.938  1.00  0.00     0.173 A 
ATOM     79  C   UNL     1      -0.045   3.044  14.941  1.00  0.00     0.173 A 
ATOM     80  F   UNL     1      -1.491   5.924  16.617  1.00  0.00    -0.203 F 
ATOM     81  C   UNL     1      -2.537   4.088  15.578  1.00  0.00     0.198 A 
ATOM     82  C   UNL     1      -1.204   2.372  14.558  1.00  0.00     0.198 A 
ATOM     83  F   UNL     1       1.145   2.515  14.622  1.00  0.00    -0.203 F 
ATOM     84  F   UNL     1      -3.737   4.580  15.914  1.00  0.00    -0.200 F 
ATOM     85  C   UNL     1      -2.449   2.891  14.883  1.00  0.00     0.200 A 
ATOM     86  F   UNL     1      -1.116   1.223  13.874  1.00  0.00    -0.200 F 
ATOM     87  F   UNL     1      -3.563   2.235  14.530  1.00  0.00    -0.200 F 
ENDBRANCH  53  77
BRANCH  65  88
ATOM     88  C   UNL     1       2.880   5.635  21.772  1.00  0.00     0.064 A 
ATOM     89  C   UNL     1       2.964   4.334  22.288  1.00  0.00     0.173 A 
ATOM     90  C   UNL     1       2.435   6.655  22.626  1.00  0.00     0.173 A 
ATOM     91  F   UNL     1       3.368   3.322  21.506  1.00  0.00    -0.203 F 
ATOM     92  C   UNL     1       2.590   4.061  23.601  1.00  0.00     0.198 A 
ATOM     93  C   UNL     1       2.088   6.383  23.946  1.00  0.00     0.198 A 
ATOM     94  F   UNL     1       2.343   7.918  22.181  1.00  0.00    -0.203 F 
ATOM     95  F   UNL     1       2.631   2.802  24.059  1.00  0.00    -0.200 F 
ATOM     96  C   UNL     1       2.158   5.086  24.430  1.00  0.00     0.200 A 
ATOM     97  F   UNL     1       1.681   7.376  24.749  1.00  0.00    -0.200 F 
ATOM     98  F   UNL     1       1.801   4.821  25.694  1.00  0.00    -0.200 F 
ENDBRANCH  65  88
ENDBRANCH  39  40
ENDBRANCH  31  34
ENDBRANCH  29  30
ENDBRANCH  28  29
ENDBRANCH   1  28
TORSDOF 15
