REMARK SMILES CCCn1ncc(C(=O)N2CCC(C(=O)NCCCNC(=O)c3ccc(-c4c5nc(c(-c6c(F)c(F)c(F)c(F)c6F)c6ccc([nH]6)c(-c6c(F)c(F)c(F)c(F)c6F)c6nc(c(-c7c(F)c(F)c(F)c(F)c7F)c7ccc4[nH]7)C=C6)C=C5)cc3)CC2)c1C
REMARK SMILES IDX 17 1 16 2 14 3 15 4 13 6 8 7 9 8 10 9 11 10 87 11 12 12
REMARK SMILES IDX 86 13 7 14 4 15 5 16 88 17 6 18 89 19 3 20 2 21 1 22 18 23
REMARK SMILES IDX 19 24 20 25 21 26 22 28 23 29 24 30 85 31 25 32 84 33 26 34
REMARK SMILES IDX 27 35 28 36 78 37 29 38 83 39 77 40 79 41 30 42 82 43 76 44
REMARK SMILES IDX 75 45 31 47 63 48 43 49 62 50 44 51 47 52 61 53 80 54 45 55
REMARK SMILES IDX 46 56 60 58 81 59 48 60 32 61 33 62 41 63 34 64 35 65 39 66
REMARK SMILES IDX 42 67 36 68 37 69 40 70 38 71 64 72 65 73 73 74 66 75 67 76
REMARK SMILES IDX 71 77 74 78 68 79 69 80 72 81 70 82 49 83 50 84 58 85 51 86
REMARK SMILES IDX 52 87 56 88 59 89 53 90 54 91 57 92 55 93
REMARK H PARENT 16 5 20 27 79 46 47 57
REMARK Flexibility Score: inf
ROOT
ATOM      1  C   UNL     1      -0.667  10.020   1.967  1.00  0.00     0.117 C 
ENDROOT
BRANCH   1   2
ATOM      2  N   UNL     1      -1.112  10.862   0.858  1.00  0.00    -0.356 N 
ATOM      3  C   UNL     1      -1.323  10.581  -0.460  1.00  0.00     0.223 C 
ATOM      4  O   UNL     1      -1.768  11.479  -1.178  1.00  0.00    -0.275 OA
ATOM      5  H   UNL     1      -1.291  11.797   1.106  1.00  0.00     0.163 HD
BRANCH   3   6
ATOM      6  C   UNL     1      -1.006   9.212  -1.050  1.00  0.00     0.082 C 
ATOM      7  C   UNL     1       0.630   6.010   0.742  1.00  0.00     0.257 C 
ATOM      8  O   UNL     1       1.494   6.571   1.416  1.00  0.00    -0.269 OA
ATOM      9  N   UNL     1       0.046   6.648  -0.346  1.00  0.00    -0.338 N 
ATOM     10  C   UNL     1       0.866   7.505  -1.175  1.00  0.00     0.120 C 
ATOM     11  C   UNL     1      -1.385   6.699  -0.602  1.00  0.00     0.120 C 
ATOM     12  C   UNL     1       0.504   8.957  -0.970  1.00  0.00     0.035 C 
ATOM     13  C   UNL     1      -1.927   8.122  -0.472  1.00  0.00     0.035 C 
BRANCH   7  14
ATOM     14  C   UNL     1       0.293   4.602   0.933  1.00  0.00     0.080 A 
ATOM     15  N   UNL     1       0.368   2.485   1.570  1.00  0.00    -0.269 N 
ATOM     16  N   UNL     1      -0.512   2.493   0.554  1.00  0.00    -0.180 NA
ATOM     17  C   UNL     1       0.801   3.748   1.910  1.00  0.00     0.048 A 
ATOM     18  C   UNL     1      -0.492   3.751   0.125  1.00  0.00     0.149 A 
ATOM     19  C   UNL     1       1.697   4.035   3.064  1.00  0.00     0.067 C 
BRANCH  15  20
ATOM     20  C   UNL     1       0.803   1.223   2.147  1.00  0.00     0.144 C 
BRANCH  20  21
ATOM     21  C   UNL     1       0.371  -0.056   1.418  1.00  0.00     0.020 C 
ATOM     22  C   UNL     1       1.035  -0.242   0.059  1.00  0.00     0.006 C 
ENDBRANCH  20  21
ENDBRANCH  15  20
ENDBRANCH   7  14
ENDBRANCH   3   6
ENDBRANCH   1   2
BRANCH   1  23
ATOM     23  C   UNL     1       0.719  10.374   2.510  1.00  0.00     0.042 C 
BRANCH  23  24
ATOM     24  C   UNL     1       0.775  11.731   3.179  1.00  0.00     0.118 C 
BRANCH  24  25
ATOM     25  N   UNL     1       0.020  11.804   4.429  1.00  0.00    -0.352 N 
ATOM     26  C   UNL     1      -0.097  12.894   5.270  1.00  0.00     0.251 C 
ATOM     27  H   UNL     1      -0.456  10.987   4.702  1.00  0.00     0.163 HD
ATOM     28  O   UNL     1      -0.469  12.766   6.432  1.00  0.00    -0.269 OA
BRANCH  26  29
ATOM     29  C   UNL     1       0.268  14.221   4.743  1.00  0.00     0.039 A 
ATOM     30  C   UNL     1       1.079  15.088   5.472  1.00  0.00     0.014 A 
ATOM     31  C   UNL     1      -0.131  14.539   3.449  1.00  0.00     0.014 A 
ATOM     32  C   UNL     1       1.573  16.228   4.841  1.00  0.00     0.010 A 
ATOM     33  C   UNL     1       0.503  15.556   2.777  1.00  0.00     0.010 A 
ATOM     34  C   UNL     1       1.320  16.439   3.471  1.00  0.00    -0.014 A 
BRANCH  34  35
ATOM     35  C   UNL     1       1.982  17.534   2.760  1.00  0.00     0.031 A 
ATOM     36  C   UNL     1       3.431  17.707   3.066  1.00  0.00     0.074 A 
ATOM     37  C   UNL     1       1.412  18.283   1.790  1.00  0.00     0.049 A 
ATOM     38  N   UNL     1       3.983  18.688   3.700  1.00  0.00    -0.248 NA
ATOM     39  C   UNL     1       4.360  16.618   2.727  1.00  0.00     0.031 C 
ATOM     40  C   UNL     1       0.111  18.120   1.132  1.00  0.00     0.029 A 
ATOM     41  N   UNL     1       1.946  19.348   1.126  1.00  0.00    -0.354 N 
ATOM     42  C   UNL     1       5.351  18.434   3.704  1.00  0.00     0.074 A 
ATOM     43  C   UNL     1       5.512  17.089   3.213  1.00  0.00     0.031 C 
ATOM     44  C   UNL     1       0.053  18.898   0.029  1.00  0.00     0.029 A 
ATOM     45  C   UNL     1       1.221  19.756   0.015  1.00  0.00     0.049 A 
ATOM     46  H   UNL     1       2.778  19.791   1.411  1.00  0.00     0.167 HD
ATOM     47  C   UNL     1       6.248  19.436   3.921  1.00  0.00     0.037 A 
ATOM     48  C   UNL     1       1.546  20.741  -0.855  1.00  0.00     0.037 A 
ATOM     49  C   UNL     1       5.615  20.578   4.534  1.00  0.00     0.049 A 
ATOM     50  C   UNL     1       2.489  21.645  -0.159  1.00  0.00     0.074 A 
ATOM     51  C   UNL     1       4.934  20.795   5.717  1.00  0.00     0.029 A 
ATOM     52  N   UNL     1       5.308  21.651   3.736  1.00  0.00    -0.354 N 
ATOM     53  N   UNL     1       2.156  22.414   0.839  1.00  0.00    -0.248 NA
ATOM     54  C   UNL     1       3.911  21.388  -0.307  1.00  0.00     0.031 C 
ATOM     55  C   UNL     1       3.880  21.697   5.376  1.00  0.00     0.029 A 
ATOM     56  C   UNL     1       4.020  22.021   4.027  1.00  0.00     0.049 A 
ATOM     57  H   UNL     1       5.902  22.077   3.077  1.00  0.00     0.167 HD
ATOM     58  C   UNL     1       3.248  22.366   1.691  1.00  0.00     0.074 A 
ATOM     59  C   UNL     1       4.334  21.817   0.884  1.00  0.00     0.031 C 
ATOM     60  C   UNL     1       3.091  22.516   3.039  1.00  0.00     0.037 A 
BRANCH  47  61
ATOM     61  C   UNL     1       7.600  19.533   3.254  1.00  0.00     0.064 A 
ATOM     62  C   UNL     1       8.485  20.562   3.638  1.00  0.00     0.173 A 
ATOM     63  C   UNL     1       7.930  18.867   2.054  1.00  0.00     0.173 A 
ATOM     64  F   UNL     1       8.265  21.273   4.755  1.00  0.00    -0.203 F 
ATOM     65  C   UNL     1       9.560  20.953   2.833  1.00  0.00     0.198 A 
ATOM     66  C   UNL     1       9.033  19.226   1.280  1.00  0.00     0.198 A 
ATOM     67  F   UNL     1       7.142  17.927   1.521  1.00  0.00    -0.203 F 
ATOM     68  F   UNL     1      10.290  22.024   3.173  1.00  0.00    -0.200 F 
ATOM     69  C   UNL     1       9.827  20.291   1.650  1.00  0.00     0.200 A 
ATOM     70  F   UNL     1       9.264  18.583   0.127  1.00  0.00    -0.200 F 
ATOM     71  F   UNL     1      10.811  20.706   0.843  1.00  0.00    -0.200 F 
ENDBRANCH  47  61
BRANCH  48  72
ATOM     72  C   UNL     1       1.310  20.812  -2.313  1.00  0.00     0.064 A 
ATOM     73  C   UNL     1       1.465  22.024  -3.006  1.00  0.00     0.173 A 
ATOM     74  C   UNL     1       1.239  19.644  -3.096  1.00  0.00     0.173 A 
ATOM     75  F   UNL     1       1.573  23.178  -2.331  1.00  0.00    -0.203 F 
ATOM     76  C   UNL     1       1.597  22.061  -4.396  1.00  0.00     0.198 A 
ATOM     77  C   UNL     1       1.364  19.683  -4.485  1.00  0.00     0.198 A 
ATOM     78  F   UNL     1       1.152  18.436  -2.521  1.00  0.00    -0.203 F 
ATOM     79  F   UNL     1       1.826  23.227  -5.015  1.00  0.00    -0.200 F 
ATOM     80  C   UNL     1       1.564  20.888  -5.133  1.00  0.00     0.200 A 
ATOM     81  F   UNL     1       1.365  18.539  -5.184  1.00  0.00    -0.200 F 
ATOM     82  F   UNL     1       1.768  20.915  -6.457  1.00  0.00    -0.200 F 
ENDBRANCH  48  72
BRANCH  60  83
ATOM     83  C   UNL     1       1.762  23.023   3.533  1.00  0.00     0.064 A 
ATOM     84  C   UNL     1       0.536  22.361   3.338  1.00  0.00     0.173 A 
ATOM     85  C   UNL     1       1.747  24.179   4.325  1.00  0.00     0.173 A 
ATOM     86  F   UNL     1       0.475  21.197   2.682  1.00  0.00    -0.203 F 
ATOM     87  C   UNL     1      -0.652  22.869   3.863  1.00  0.00     0.198 A 
ATOM     88  C   UNL     1       0.565  24.662   4.880  1.00  0.00     0.198 A 
ATOM     89  F   UNL     1       2.893  24.826   4.592  1.00  0.00    -0.203 F 
ATOM     90  F   UNL     1      -1.812  22.232   3.640  1.00  0.00    -0.200 F 
ATOM     91  C   UNL     1      -0.636  24.016   4.637  1.00  0.00     0.200 A 
ATOM     92  F   UNL     1       0.595  25.745   5.668  1.00  0.00    -0.200 F 
ATOM     93  F   UNL     1      -1.773  24.488   5.168  1.00  0.00    -0.200 F 
ENDBRANCH  60  83
ENDBRANCH  34  35
ENDBRANCH  26  29
ENDBRANCH  24  25
ENDBRANCH  23  24
ENDBRANCH   1  23
TORSDOF 13
