REMARK SMILES Cc1c(C(=O)NCCCNC(=O)c2ccc(-c3c4nc(c(-c5c(F)c(F)c(F)c(F)c5F)c5ccc([nH]5)c(-c5c(F)c(F)c(F)c(F)c5F)c5nc(c(-c6c(F)c(F)c(F)c(F)c6F)c6ccc3[nH]6)C=C5)C=C4)cc2)cccc1-n1c(C)cc(/C=C2/C(=O)NC(=S)N=C2O)c1C
REMARK SMILES IDX 7 1 6 2 4 3 5 4 3 6 1 7 2 8 79 9 76 10 78 11 77 12 80 13
REMARK SMILES IDX 81 14 95 15 82 16 83 17 84 18 96 19 85 20 86 21 87 22 93 23
REMARK SMILES IDX 88 24 89 25 92 26 90 27 91 29 94 30 8 32 9 33 10 34 11 35
REMARK SMILES IDX 12 37 13 38 14 39 75 40 15 41 74 42 16 43 17 44 18 45 68 46
REMARK SMILES IDX 19 47 73 48 67 49 69 50 20 51 72 52 66 53 65 54 21 56 53 57
REMARK SMILES IDX 33 58 52 59 34 60 37 61 51 62 70 63 35 64 36 65 50 67 71 68
REMARK SMILES IDX 38 69 22 70 23 71 31 72 24 73 25 74 29 75 32 76 26 77 27 78
REMARK SMILES IDX 30 79 28 80 54 81 55 82 63 83 56 84 57 85 61 86 64 87 58 88
REMARK SMILES IDX 59 89 62 90 60 91 39 92 40 93 48 94 41 95 42 96 46 97 49 98
REMARK SMILES IDX 43 99 44 100 47 101 45 102
REMARK H PARENT 6 5 89 28 94 31 10 36 69 55 37 66
REMARK Flexibility Score: inf
ROOT
ATOM      1  C   UNL     1       3.297  -2.089  -0.656  1.00  0.00     0.118 C 
ENDROOT
BRANCH   1   2
ATOM      2  N   UNL     1       2.111  -2.711  -0.079  1.00  0.00    -0.352 N 
ATOM      3  C   UNL     1       0.823  -2.317   0.183  1.00  0.00     0.251 C 
ATOM      4  O   UNL     1       0.115  -3.167   0.734  1.00  0.00    -0.269 OA
ATOM      5  H   UNL     1       2.275  -3.645   0.188  1.00  0.00     0.163 HD
BRANCH   3   6
ATOM      6  C   UNL     1       0.180  -1.009  -0.179  1.00  0.00     0.044 A 
ATOM      7  C   UNL     1       2.079   0.559   0.481  1.00  0.00     0.047 C 
ATOM      8  C   UNL     1       0.716   0.287  -0.055  1.00  0.00    -0.014 A 
ATOM      9  C   UNL     1      -0.096   1.398  -0.394  1.00  0.00     0.049 A 
ATOM     10  C   UNL     1      -1.187  -1.124  -0.525  1.00  0.00     0.014 A 
ATOM     11  C   UNL     1      -1.440   1.264  -0.739  1.00  0.00     0.027 A 
ATOM     12  C   UNL     1      -1.990  -0.008  -0.787  1.00  0.00     0.003 A 
BRANCH   9  13
ATOM     13  N   UNL     1       0.419   2.712  -0.267  1.00  0.00    -0.318 N 
ATOM     14  C   UNL     1       1.226   3.338  -1.202  1.00  0.00     0.020 A 
ATOM     15  C   UNL     1       0.481   3.420   0.933  1.00  0.00     0.027 A 
ATOM     16  C   UNL     1       1.617   2.726  -2.503  1.00  0.00     0.065 C 
ATOM     17  C   UNL     1       1.593   4.556  -0.671  1.00  0.00     0.031 A 
ATOM     18  C   UNL     1       1.116   4.624   0.666  1.00  0.00    -0.003 A 
ATOM     19  C   UNL     1      -0.004   2.806   2.210  1.00  0.00     0.065 C 
BRANCH  18  20
ATOM     20  C   UNL     1       1.473   5.685   1.555  1.00  0.00     0.029 C 
ATOM     21  C   UNL     1       0.858   6.223   2.624  1.00  0.00     0.102 C 
ATOM     22  C   UNL     1       1.643   7.231   3.384  1.00  0.00     0.262 C 
ATOM     23  C   UNL     1      -0.442   5.924   3.224  1.00  0.00     0.226 C 
ATOM     24  O   UNL     1       2.646   7.792   2.960  1.00  0.00    -0.269 OA
ATOM     25  N   UNL     1       1.172   7.461   4.649  1.00  0.00    -0.297 N 
ATOM     26  N   UNL     1      -0.828   6.226   4.410  1.00  0.00    -0.184 NA
ATOM     27  C   UNL     1       0.031   6.936   5.204  1.00  0.00     0.203 C 
ATOM     28  H   UNL     1       1.705   8.062   5.217  1.00  0.00     0.172 HD
ATOM     29  S   UNL     1      -0.263   7.256   6.822  1.00  0.00    -0.038 S 
BRANCH  23  30
ATOM     30  O   UNL     1      -1.342   5.335   2.436  1.00  0.00    -0.493 OA
ATOM     31  H   UNL     1      -1.111   5.094   1.560  1.00  0.00     0.295 HD
ENDBRANCH  23  30
ENDBRANCH  18  20
ENDBRANCH   9  13
ENDBRANCH   3   6
ENDBRANCH   1   2
BRANCH   1  32
ATOM     32  C   UNL     1       4.178  -1.503   0.451  1.00  0.00     0.042 C 
BRANCH  32  33
ATOM     33  C   UNL     1       5.515  -2.158   0.690  1.00  0.00     0.118 C 
BRANCH  33  34
ATOM     34  N   UNL     1       6.650  -1.373   0.203  1.00  0.00    -0.352 N 
ATOM     35  C   UNL     1       8.005  -1.616   0.385  1.00  0.00     0.251 C 
ATOM     36  H   UNL     1       6.424  -0.570  -0.320  1.00  0.00     0.163 HD
ATOM     37  O   UNL     1       8.852  -0.888  -0.090  1.00  0.00    -0.269 OA
BRANCH  35  38
ATOM     38  C   UNL     1       8.378  -2.877   1.068  1.00  0.00     0.039 A 
ATOM     39  C   UNL     1       9.075  -3.830   0.320  1.00  0.00     0.014 A 
ATOM     40  C   UNL     1       7.705  -3.228   2.229  1.00  0.00     0.014 A 
ATOM     41  C   UNL     1       8.855  -5.178   0.583  1.00  0.00     0.010 A 
ATOM     42  C   UNL     1       7.351  -4.550   2.374  1.00  0.00     0.010 A 
ATOM     43  C   UNL     1       7.886  -5.527   1.518  1.00  0.00    -0.014 A 
BRANCH  43  44
ATOM     44  C   UNL     1       7.312  -6.862   1.672  1.00  0.00     0.031 A 
ATOM     45  C   UNL     1       7.476  -7.562   2.969  1.00  0.00     0.074 A 
ATOM     46  C   UNL     1       6.497  -7.381   0.725  1.00  0.00     0.049 A 
ATOM     47  N   UNL     1       7.098  -8.771   3.204  1.00  0.00    -0.248 NA
ATOM     48  C   UNL     1       8.155  -6.952   4.108  1.00  0.00     0.031 C 
ATOM     49  C   UNL     1       5.520  -8.456   0.903  1.00  0.00     0.029 A 
ATOM     50  N   UNL     1       6.517  -7.166  -0.666  1.00  0.00    -0.354 N 
ATOM     51  C   UNL     1       7.249  -9.019   4.549  1.00  0.00     0.074 A 
ATOM     52  C   UNL     1       7.977  -7.881   5.049  1.00  0.00     0.031 C 
ATOM     53  C   UNL     1       5.259  -9.013  -0.288  1.00  0.00     0.029 A 
ATOM     54  C   UNL     1       6.177  -8.423  -1.241  1.00  0.00     0.049 A 
ATOM     55  H   UNL     1       6.723  -6.328  -1.139  1.00  0.00     0.167 HD
ATOM     56  C   UNL     1       6.657 -10.131   5.073  1.00  0.00     0.037 A 
ATOM     57  C   UNL     1       7.066  -9.126  -2.003  1.00  0.00     0.037 A 
ATOM     58  C   UNL     1       6.221 -11.030   4.001  1.00  0.00     0.049 A 
ATOM     59  C   UNL     1       7.429 -10.498  -1.474  1.00  0.00     0.074 A 
ATOM     60  C   UNL     1       5.016 -11.346   3.397  1.00  0.00     0.029 A 
ATOM     61  N   UNL     1       7.202 -11.590   3.203  1.00  0.00    -0.354 N 
ATOM     62  N   UNL     1       7.018 -10.980  -0.335  1.00  0.00    -0.248 NA
ATOM     63  C   UNL     1       8.384 -11.388  -2.139  1.00  0.00     0.031 C 
ATOM     64  C   UNL     1       5.299 -12.089   2.210  1.00  0.00     0.029 A 
ATOM     65  C   UNL     1       6.672 -12.228   2.104  1.00  0.00     0.049 A 
ATOM     66  H   UNL     1       8.166 -11.538   3.398  1.00  0.00     0.167 HD
ATOM     67  C   UNL     1       7.694 -12.140  -0.065  1.00  0.00     0.074 A 
ATOM     68  C   UNL     1       8.522 -12.370  -1.232  1.00  0.00     0.031 C 
ATOM     69  C   UNL     1       7.581 -12.794   1.124  1.00  0.00     0.037 A 
BRANCH  56  70
ATOM     70  C   UNL     1       6.353 -10.397   6.536  1.00  0.00     0.064 A 
ATOM     71  C   UNL     1       5.512 -11.478   6.892  1.00  0.00     0.173 A 
ATOM     72  C   UNL     1       6.763  -9.608   7.630  1.00  0.00     0.173 A 
ATOM     73  F   UNL     1       5.069 -12.352   5.979  1.00  0.00    -0.203 F 
ATOM     74  C   UNL     1       5.078 -11.702   8.204  1.00  0.00     0.198 A 
ATOM     75  C   UNL     1       6.331  -9.832   8.940  1.00  0.00     0.198 A 
ATOM     76  F   UNL     1       7.603  -8.583   7.506  1.00  0.00    -0.203 F 
ATOM     77  F   UNL     1       4.255 -12.727   8.464  1.00  0.00    -0.200 F 
ATOM     78  C   UNL     1       5.477 -10.871   9.227  1.00  0.00     0.200 A 
ATOM     79  F   UNL     1       6.750  -9.017   9.920  1.00  0.00    -0.200 F 
ATOM     80  F   UNL     1       5.050 -11.071  10.480  1.00  0.00    -0.200 F 
ENDBRANCH  56  70
BRANCH  57  81
ATOM     81  C   UNL     1       7.995  -8.237  -2.745  1.00  0.00     0.064 A 
ATOM     82  C   UNL     1       7.457  -7.374  -3.719  1.00  0.00     0.173 A 
ATOM     83  C   UNL     1       9.259  -7.932  -2.228  1.00  0.00     0.173 A 
ATOM     84  F   UNL     1       6.247  -7.627  -4.243  1.00  0.00    -0.203 F 
ATOM     85  C   UNL     1       8.093  -6.182  -4.052  1.00  0.00     0.198 A 
ATOM     86  C   UNL     1       9.901  -6.746  -2.579  1.00  0.00     0.198 A 
ATOM     87  F   UNL     1       9.810  -8.707  -1.282  1.00  0.00    -0.203 F 
ATOM     88  F   UNL     1       7.495  -5.314  -4.880  1.00  0.00    -0.200 F 
ATOM     89  C   UNL     1       9.299  -5.854  -3.455  1.00  0.00     0.200 A 
ATOM     90  F   UNL     1      11.052  -6.412  -1.979  1.00  0.00    -0.200 F 
ATOM     91  F   UNL     1       9.856  -4.656  -3.682  1.00  0.00    -0.200 F 
ENDBRANCH  57  81
BRANCH  69  92
ATOM     92  C   UNL     1       8.363 -14.027   1.461  1.00  0.00     0.064 A 
ATOM     93  C   UNL     1       8.363 -15.157   0.632  1.00  0.00     0.173 A 
ATOM     94  C   UNL     1       9.032 -14.150   2.696  1.00  0.00     0.173 A 
ATOM     95  F   UNL     1       7.739 -15.132  -0.555  1.00  0.00    -0.203 F 
ATOM     96  C   UNL     1       8.996 -16.341   1.018  1.00  0.00     0.198 A 
ATOM     97  C   UNL     1       9.618 -15.347   3.100  1.00  0.00     0.198 A 
ATOM     98  F   UNL     1       9.154 -13.105   3.528  1.00  0.00    -0.203 F 
ATOM     99  F   UNL     1       9.007 -17.391   0.186  1.00  0.00    -0.200 F 
ATOM    100  C   UNL     1       9.604 -16.442   2.259  1.00  0.00     0.200 A 
ATOM    101  F   UNL     1      10.195 -15.430   4.307  1.00  0.00    -0.200 F 
ATOM    102  F   UNL     1      10.182 -17.589   2.640  1.00  0.00    -0.200 F 
ENDBRANCH  69  92
ENDBRANCH  43  44
ENDBRANCH  35  38
ENDBRANCH  33  34
ENDBRANCH  32  33
ENDBRANCH   1  32
TORSDOF 13
