REMARK SMILES O=C(NCCCNC(=O)c1ccc(-c2c3nc(c(-c4c(F)c(F)c(F)c(F)c4F)c4ccc([nH]4)c(-c4c(F)c(F)c(F)c(F)c4F)c4nc(c(-c5c(F)c(F)c(F)c(F)c5F)c5ccc2[nH]5)C=C4)C=C3)cc1)c1ccc(C[N@@H+]2CCC[C@H]2c2nc(-c3ccc(-c4cncnc4)nc3)no2)cc1
REMARK SMILES IDX 1 1 2 2 3 3 73 5 74 6 101 7 75 8 100 9 76 10 77 11 78 12
REMARK SMILES IDX 79 13 82 14 80 16 81 17 83 18 84 19 99 20 85 21 98 22 86 23
REMARK SMILES IDX 87 24 97 25 88 26 96 27 89 28 90 29 91 30 95 31 92 32 94 33
REMARK SMILES IDX 93 34 4 35 5 36 6 37 7 38 8 39 9 41 10 42 11 43 72 44 12 45
REMARK SMILES IDX 71 46 13 47 14 48 15 49 65 50 16 51 70 52 64 53 66 54 17 55
REMARK SMILES IDX 69 56 63 57 62 58 18 60 50 61 30 62 49 63 31 64 34 65 48 66
REMARK SMILES IDX 67 67 32 68 33 69 47 71 68 72 35 73 19 74 20 75 28 76 21 77
REMARK SMILES IDX 22 78 26 79 29 80 23 81 24 82 27 83 25 84 51 85 52 86 60 87
REMARK SMILES IDX 53 88 54 89 58 90 61 91 55 92 56 93 59 94 57 95 36 96 37 97
REMARK SMILES IDX 45 98 38 99 39 100 43 101 46 102 40 103 41 104 44 105 42 106
REMARK H PARENT 3 4 78 15 7 40 66 59 34 70
REMARK Flexibility Score: inf
ROOT
ATOM      1  O   UNL     1       1.115  -0.094  -0.146  1.00  0.00    -0.269 OA
ATOM      2  C   UNL     1       2.330  -0.155  -0.006  1.00  0.00     0.251 C 
ATOM      3  N   UNL     1       3.053   0.958   0.351  1.00  0.00    -0.352 N 
ATOM      4  H   UNL     1       2.519   1.740   0.619  1.00  0.00     0.163 HD
ENDROOT
BRANCH   2   5
ATOM      5  C   UNL     1       3.041  -1.424  -0.250  1.00  0.00     0.039 A 
ATOM      6  C   UNL     1       3.810  -2.007   0.759  1.00  0.00     0.014 A 
ATOM      7  C   UNL     1       2.955  -2.017  -1.509  1.00  0.00     0.014 A 
ATOM      8  C   UNL     1       4.590  -3.126   0.469  1.00  0.00     0.010 A 
ATOM      9  C   UNL     1       3.739  -3.137  -1.795  1.00  0.00     0.010 A 
ATOM     10  C   UNL     1       4.607  -3.670  -0.825  1.00  0.00     0.006 A 
BRANCH  10  11
ATOM     11  C   UNL     1       5.558  -4.800  -1.171  1.00  0.00     0.299 C 
BRANCH  11  12
ATOM     12  N   UNL     1       6.917  -4.435  -1.599  1.00  0.00    -0.321 N 
ATOM     13  C   UNL     1       7.729  -3.736  -0.605  1.00  0.00     0.263 C 
ATOM     14  C   UNL     1       6.993  -3.649  -2.844  1.00  0.00     0.275 C 
ATOM     15  H   UNL     1       7.305  -5.366  -1.754  1.00  0.00     0.349 HD
ATOM     16  C   UNL     1       7.644  -2.259  -0.945  1.00  0.00     0.068 C 
ATOM     17  C   UNL     1       7.356  -2.215  -2.437  1.00  0.00     0.081 C 
BRANCH  14  18
ATOM     18  C   UNL     1       8.008  -4.184  -3.820  1.00  0.00     0.285 A 
ATOM     19  N   UNL     1       9.305  -4.406  -3.707  1.00  0.00    -0.186 NA
ATOM     20  O   UNL     1       7.550  -4.346  -5.096  1.00  0.00    -0.332 OA
ATOM     21  C   UNL     1       9.668  -4.690  -5.005  1.00  0.00     0.204 A 
ATOM     22  N   UNL     1       8.650  -4.665  -5.879  1.00  0.00    -0.057 NA
BRANCH  21  23
ATOM     23  C   UNL     1      11.037  -4.908  -5.427  1.00  0.00     0.041 A 
ATOM     24  C   UNL     1      11.572  -4.195  -6.502  1.00  0.00     0.016 A 
ATOM     25  C   UNL     1      11.850  -5.856  -4.827  1.00  0.00     0.123 A 
ATOM     26  C   UNL     1      12.872  -4.458  -6.934  1.00  0.00     0.030 A 
ATOM     27  N   UNL     1      13.112  -6.154  -5.246  1.00  0.00    -0.255 NA
ATOM     28  C   UNL     1      13.611  -5.452  -6.294  1.00  0.00     0.073 A 
BRANCH  28  29
ATOM     29  C   UNL     1      14.948  -5.819  -6.747  1.00  0.00     0.037 A 
ATOM     30  C   UNL     1      15.983  -4.911  -6.882  1.00  0.00     0.124 A 
ATOM     31  C   UNL     1      15.283  -7.107  -7.125  1.00  0.00     0.124 A 
ATOM     32  N   UNL     1      17.212  -5.211  -7.359  1.00  0.00    -0.244 NA
ATOM     33  N   UNL     1      16.490  -7.473  -7.615  1.00  0.00    -0.244 NA
ATOM     34  C   UNL     1      17.401  -6.493  -7.706  1.00  0.00     0.221 A 
ENDBRANCH  28  29
ENDBRANCH  21  23
ENDBRANCH  14  18
ENDBRANCH  11  12
ENDBRANCH  10  11
ENDBRANCH   2   5
BRANCH   3  35
ATOM     35  C   UNL     1       4.497   1.143   0.389  1.00  0.00     0.118 C 
BRANCH  35  36
ATOM     36  C   UNL     1       4.997   2.047  -0.732  1.00  0.00     0.042 C 
BRANCH  36  37
ATOM     37  C   UNL     1       4.518   3.490  -0.633  1.00  0.00     0.118 C 
BRANCH  37  38
ATOM     38  N   UNL     1       5.037   4.185   0.539  1.00  0.00    -0.352 N 
ATOM     39  C   UNL     1       5.805   5.323   0.630  1.00  0.00     0.251 C 
ATOM     40  H   UNL     1       4.801   3.775   1.402  1.00  0.00     0.163 HD
ATOM     41  O   UNL     1       6.265   5.666   1.711  1.00  0.00    -0.269 OA
BRANCH  39  42
ATOM     42  C   UNL     1       6.106   6.117  -0.582  1.00  0.00     0.039 A 
ATOM     43  C   UNL     1       7.414   6.563  -0.792  1.00  0.00     0.014 A 
ATOM     44  C   UNL     1       5.107   6.417  -1.510  1.00  0.00     0.014 A 
ATOM     45  C   UNL     1       7.741   7.225  -1.978  1.00  0.00     0.010 A 
ATOM     46  C   UNL     1       5.447   7.007  -2.723  1.00  0.00     0.010 A 
ATOM     47  C   UNL     1       6.770   7.405  -2.976  1.00  0.00    -0.014 A 
BRANCH  47  48
ATOM     48  C   UNL     1       7.101   7.987  -4.302  1.00  0.00     0.031 A 
ATOM     49  C   UNL     1       6.451   9.267  -4.742  1.00  0.00     0.074 A 
ATOM     50  C   UNL     1       7.897   7.308  -5.151  1.00  0.00     0.049 A 
ATOM     51  N   UNL     1       6.461   9.842  -5.918  1.00  0.00    -0.248 NA
ATOM     52  C   UNL     1       5.657   9.981  -3.731  1.00  0.00     0.031 C 
ATOM     53  C   UNL     1       8.569   6.042  -4.854  1.00  0.00     0.029 A 
ATOM     54  N   UNL     1       8.256   7.576  -6.449  1.00  0.00    -0.354 N 
ATOM     55  C   UNL     1       5.658  10.967  -5.795  1.00  0.00     0.074 A 
ATOM     56  C   UNL     1       5.141  10.972  -4.442  1.00  0.00     0.031 C 
ATOM     57  C   UNL     1       9.263   5.648  -5.933  1.00  0.00     0.029 A 
ATOM     58  C   UNL     1       9.046   6.604  -7.014  1.00  0.00     0.049 A 
ATOM     59  H   UNL     1       7.974   8.387  -6.930  1.00  0.00     0.167 HD
ATOM     60  C   UNL     1       5.388  11.918  -6.721  1.00  0.00     0.037 A 
ATOM     61  C   UNL     1       9.520   6.484  -8.269  1.00  0.00     0.037 A 
ATOM     62  C   UNL     1       5.926  11.923  -8.056  1.00  0.00     0.049 A 
ATOM     63  C   UNL     1       9.186   7.540  -9.287  1.00  0.00     0.074 A 
ATOM     64  C   UNL     1       5.754  12.869  -9.051  1.00  0.00     0.029 A 
ATOM     65  N   UNL     1       6.741  10.932  -8.582  1.00  0.00    -0.354 N 
ATOM     66  N   UNL     1       8.461   8.623  -9.147  1.00  0.00    -0.248 NA
ATOM     67  C   UNL     1       9.734   7.357 -10.639  1.00  0.00     0.031 C 
ATOM     68  C   UNL     1       6.431  12.430 -10.194  1.00  0.00     0.029 A 
ATOM     69  C   UNL     1       7.065  11.235  -9.895  1.00  0.00     0.049 A 
ATOM     70  H   UNL     1       7.045  10.132  -8.095  1.00  0.00     0.167 HD
ATOM     71  C   UNL     1       8.495   9.267 -10.377  1.00  0.00     0.074 A 
ATOM     72  C   UNL     1       9.314   8.455 -11.252  1.00  0.00     0.031 C 
ATOM     73  C   UNL     1       7.901  10.428 -10.746  1.00  0.00     0.037 A 
BRANCH  60  74
ATOM     74  C   UNL     1       4.468  13.034  -6.321  1.00  0.00     0.064 A 
ATOM     75  C   UNL     1       4.859  14.016  -5.398  1.00  0.00     0.173 A 
ATOM     76  C   UNL     1       3.192  13.144  -6.894  1.00  0.00     0.173 A 
ATOM     77  F   UNL     1       6.065  13.950  -4.814  1.00  0.00    -0.203 F 
ATOM     78  C   UNL     1       3.996  15.047  -5.040  1.00  0.00     0.198 A 
ATOM     79  C   UNL     1       2.342  14.194  -6.556  1.00  0.00     0.198 A 
ATOM     80  F   UNL     1       2.770  12.236  -7.787  1.00  0.00    -0.203 F 
ATOM     81  F   UNL     1       4.372  15.944  -4.117  1.00  0.00    -0.200 F 
ATOM     82  C   UNL     1       2.741  15.140  -5.623  1.00  0.00     0.200 A 
ATOM     83  F   UNL     1       1.135  14.290  -7.131  1.00  0.00    -0.200 F 
ATOM     84  F   UNL     1       1.914  16.137  -5.282  1.00  0.00    -0.200 F 
ENDBRANCH  60  74
BRANCH  61  85
ATOM     85  C   UNL     1      10.375   5.323  -8.632  1.00  0.00     0.064 A 
ATOM     86  C   UNL     1      11.739   5.496  -8.905  1.00  0.00     0.173 A 
ATOM     87  C   UNL     1       9.852   4.024  -8.717  1.00  0.00     0.173 A 
ATOM     88  F   UNL     1      12.280   6.722  -8.857  1.00  0.00    -0.203 F 
ATOM     89  C   UNL     1      12.544   4.418  -9.267  1.00  0.00     0.198 A 
ATOM     90  C   UNL     1      10.664   2.942  -9.052  1.00  0.00     0.198 A 
ATOM     91  F   UNL     1       8.554   3.804  -8.461  1.00  0.00    -0.203 F 
ATOM     92  F   UNL     1      13.835   4.618  -9.563  1.00  0.00    -0.200 F 
ATOM     93  C   UNL     1      12.007   3.141  -9.334  1.00  0.00     0.200 A 
ATOM     94  F   UNL     1      10.145   1.708  -9.100  1.00  0.00    -0.200 F 
ATOM     95  F   UNL     1      12.782   2.103  -9.675  1.00  0.00    -0.200 F 
ENDBRANCH  61  85
BRANCH  73  96
ATOM     96  C   UNL     1       8.155  10.924 -12.139  1.00  0.00     0.064 A 
ATOM     97  C   UNL     1       7.558  10.324 -13.256  1.00  0.00     0.173 A 
ATOM     98  C   UNL     1       8.957  12.056 -12.349  1.00  0.00     0.173 A 
ATOM     99  F   UNL     1       6.797   9.229 -13.108  1.00  0.00    -0.203 F 
ATOM    100  C   UNL     1       7.767  10.831 -14.536  1.00  0.00     0.198 A 
ATOM    101  C   UNL     1       9.141  12.577 -13.626  1.00  0.00     0.198 A 
ATOM    102  F   UNL     1       9.546  12.669 -11.311  1.00  0.00    -0.203 F 
ATOM    103  F   UNL     1       7.215  10.222 -15.594  1.00  0.00    -0.200 F 
ATOM    104  C   UNL     1       8.549  11.963 -14.719  1.00  0.00     0.200 A 
ATOM    105  F   UNL     1       9.886  13.678 -13.799  1.00  0.00    -0.200 F 
ATOM    106  F   UNL     1       8.736  12.458 -15.950  1.00  0.00    -0.200 F 
ENDBRANCH  73  96
ENDBRANCH  47  48
ENDBRANCH  39  42
ENDBRANCH  37  38
ENDBRANCH  36  37
ENDBRANCH  35  36
ENDBRANCH   3  35
TORSDOF 15
