REMARK SMILES CCOc1ccc(N2C[C@H](C(=O)NCCCNC(=O)c3ccc(-c4c5nc(c(-c6c(F)c(F)c(F)c(F)c6F)c6ccc([nH]6)c(-c6c(F)c(F)c(F)c(F)c6F)c6nc(c(-c7c(F)c(F)c(F)c(F)c7F)c7ccc4[nH]7)C=C6)C=C5)cc3)CC2=O)cc1C(F)(F)F
REMARK SMILES IDX 14 1 13 2 11 3 12 4 10 6 8 7 9 8 84 9 83 10 85 11 7 12 4 13
REMARK SMILES IDX 5 14 87 15 6 16 86 17 3 18 2 19 1 20 88 21 89 22 90 23 91 24
REMARK SMILES IDX 15 25 16 26 17 27 18 28 19 30 20 31 21 32 82 33 22 34 81 35
REMARK SMILES IDX 23 36 24 37 25 38 75 39 26 40 80 41 74 42 76 43 27 44 79 45
REMARK SMILES IDX 73 46 72 47 28 49 60 50 40 51 59 52 41 53 44 54 58 55 77 56
REMARK SMILES IDX 42 57 43 58 57 60 78 61 45 62 29 63 30 64 38 65 31 66 32 67
REMARK SMILES IDX 36 68 39 69 33 70 34 71 37 72 35 73 61 74 62 75 70 76 63 77
REMARK SMILES IDX 64 78 68 79 71 80 65 81 66 82 69 83 67 84 46 85 47 86 55 87
REMARK SMILES IDX 48 88 49 89 53 90 56 91 50 92 51 93 54 94 52 95
REMARK H PARENT 13 5 17 29 76 48 44 59
REMARK Flexibility Score: inf
ROOT
ATOM      1  C   UNL     1       6.456   4.780  -3.729  1.00  0.00     0.117 C 
ENDROOT
BRANCH   1   2
ATOM      2  N   UNL     1       7.655   5.474  -3.290  1.00  0.00    -0.356 N 
ATOM      3  C   UNL     1       8.556   5.228  -2.308  1.00  0.00     0.225 C 
ATOM      4  O   UNL     1       9.468   6.052  -2.182  1.00  0.00    -0.275 OA
ATOM      5  H   UNL     1       7.852   6.287  -3.811  1.00  0.00     0.163 HD
BRANCH   3   6
ATOM      6  C   UNL     1       8.513   4.023  -1.380  1.00  0.00     0.107 C 
ATOM      7  N   UNL     1       6.548   2.749  -1.097  1.00  0.00    -0.312 N 
ATOM      8  C   UNL     1       7.247   3.893  -0.561  1.00  0.00     0.139 C 
ATOM      9  C   UNL     1       7.377   1.999  -1.945  1.00  0.00     0.227 C 
ATOM     10  C   UNL     1       8.704   2.692  -2.076  1.00  0.00     0.116 C 
ATOM     11  O   UNL     1       7.116   0.978  -2.570  1.00  0.00    -0.274 OA
BRANCH   7  12
ATOM     12  C   UNL     1       5.174   2.473  -0.843  1.00  0.00     0.044 A 
ATOM     13  C   UNL     1       2.398   1.977  -0.625  1.00  0.00     0.131 A 
ATOM     14  C   UNL     1       2.928   3.212  -0.248  1.00  0.00     0.049 A 
ATOM     15  C   UNL     1       3.238   0.969  -1.093  1.00  0.00     0.100 A 
ATOM     16  C   UNL     1       4.308   3.447  -0.329  1.00  0.00     0.030 A 
ATOM     17  C   UNL     1       4.620   1.230  -1.171  1.00  0.00     0.043 A 
BRANCH  13  18
ATOM     18  O   UNL     1       1.043   1.813  -0.669  1.00  0.00    -0.493 OA
BRANCH  18  19
ATOM     19  C   UNL     1       0.440   1.653   0.620  1.00  0.00     0.226 C 
ATOM     20  C   UNL     1       0.211   0.178   0.898  1.00  0.00     0.049 C 
ENDBRANCH  18  19
ENDBRANCH  13  18
BRANCH  15  21
ATOM     21  C   UNL     1       2.745  -0.402  -1.476  1.00  0.00     0.420 C 
ATOM     22  F   UNL     1       3.503  -0.985  -2.449  1.00  0.00    -0.166 F 
ATOM     23  F   UNL     1       2.788  -1.266  -0.421  1.00  0.00    -0.166 F 
ATOM     24  F   UNL     1       1.468  -0.447  -1.944  1.00  0.00    -0.166 F 
ENDBRANCH  15  21
ENDBRANCH   7  12
ENDBRANCH   3   6
ENDBRANCH   1   2
BRANCH   1  25
ATOM     25  C   UNL     1       5.188   5.426  -3.180  1.00  0.00     0.042 C 
BRANCH  25  26
ATOM     26  C   UNL     1       4.765   6.674  -3.946  1.00  0.00     0.118 C 
BRANCH  26  27
ATOM     27  N   UNL     1       4.284   6.357  -5.283  1.00  0.00    -0.352 N 
ATOM     28  C   UNL     1       3.023   6.407  -5.822  1.00  0.00     0.251 C 
ATOM     29  H   UNL     1       4.983   6.057  -5.908  1.00  0.00     0.163 HD
ATOM     30  O   UNL     1       2.812   5.859  -6.901  1.00  0.00    -0.269 OA
BRANCH  28  31
ATOM     31  C   UNL     1       1.914   7.098  -5.127  1.00  0.00     0.039 A 
ATOM     32  C   UNL     1       0.626   6.561  -5.218  1.00  0.00     0.014 A 
ATOM     33  C   UNL     1       2.116   8.295  -4.437  1.00  0.00     0.014 A 
ATOM     34  C   UNL     1      -0.439   7.184  -4.562  1.00  0.00     0.010 A 
ATOM     35  C   UNL     1       1.075   8.864  -3.706  1.00  0.00     0.010 A 
ATOM     36  C   UNL     1      -0.215   8.316  -3.762  1.00  0.00    -0.014 A 
BRANCH  36  37
ATOM     37  C   UNL     1      -1.310   8.925  -2.962  1.00  0.00     0.031 A 
ATOM     38  C   UNL     1      -1.739  10.345  -3.207  1.00  0.00     0.074 A 
ATOM     39  C   UNL     1      -1.869   8.213  -1.963  1.00  0.00     0.049 A 
ATOM     40  N   UNL     1      -2.620  11.067  -2.561  1.00  0.00    -0.248 NA
ATOM     41  C   UNL     1      -1.071  11.059  -4.307  1.00  0.00     0.031 C 
ATOM     42  C   UNL     1      -1.506   6.843  -1.597  1.00  0.00     0.029 A 
ATOM     43  N   UNL     1      -2.853   8.546  -1.065  1.00  0.00    -0.354 N 
ATOM     44  C   UNL     1      -2.602  12.318  -3.165  1.00  0.00     0.074 A 
ATOM     45  C   UNL     1      -1.583  12.276  -4.191  1.00  0.00     0.031 C 
ATOM     46  C   UNL     1      -2.274   6.443  -0.572  1.00  0.00     0.029 A 
ATOM     47  C   UNL     1      -3.146   7.543  -0.174  1.00  0.00     0.049 A 
ATOM     48  H   UNL     1      -3.305   9.421  -1.061  1.00  0.00     0.167 HD
ATOM     49  C   UNL     1      -3.380  13.396  -2.902  1.00  0.00     0.037 A 
ATOM     50  C   UNL     1      -4.009   7.517   0.860  1.00  0.00     0.037 A 
ATOM     51  C   UNL     1      -4.406  13.424  -1.891  1.00  0.00     0.049 A 
ATOM     52  C   UNL     1      -4.842   8.736   1.148  1.00  0.00     0.074 A 
ATOM     53  C   UNL     1      -5.296  14.440  -1.594  1.00  0.00     0.029 A 
ATOM     54  N   UNL     1      -4.671  12.389  -1.005  1.00  0.00    -0.354 N 
ATOM     55  N   UNL     1      -4.871   9.886   0.518  1.00  0.00    -0.248 NA
ATOM     56  C   UNL     1      -5.762   8.654   2.290  1.00  0.00     0.031 C 
ATOM     57  C   UNL     1      -6.056  14.046  -0.487  1.00  0.00     0.029 A 
ATOM     58  C   UNL     1      -5.683  12.760  -0.133  1.00  0.00     0.049 A 
ATOM     59  H   UNL     1      -4.208  11.520  -0.996  1.00  0.00     0.167 HD
ATOM     60  C   UNL     1      -5.821  10.656   1.175  1.00  0.00     0.074 A 
ATOM     61  C   UNL     1      -6.365   9.833   2.235  1.00  0.00     0.031 C 
ATOM     62  C   UNL     1      -6.206  11.932   0.925  1.00  0.00     0.037 A 
BRANCH  49  63
ATOM     63  C   UNL     1      -3.151  14.639  -3.715  1.00  0.00     0.064 A 
ATOM     64  C   UNL     1      -3.461  14.695  -5.083  1.00  0.00     0.173 A 
ATOM     65  C   UNL     1      -2.654  15.803  -3.111  1.00  0.00     0.173 A 
ATOM     66  F   UNL     1      -3.932  13.608  -5.714  1.00  0.00    -0.203 F 
ATOM     67  C   UNL     1      -3.251  15.858  -5.821  1.00  0.00     0.198 A 
ATOM     68  C   UNL     1      -2.477  16.975  -3.843  1.00  0.00     0.198 A 
ATOM     69  F   UNL     1      -2.347  15.810  -1.804  1.00  0.00    -0.203 F 
ATOM     70  F   UNL     1      -3.504  15.870  -7.137  1.00  0.00    -0.200 F 
ATOM     71  C   UNL     1      -2.767  16.998  -5.199  1.00  0.00     0.200 A 
ATOM     72  F   UNL     1      -2.024  18.081  -3.237  1.00  0.00    -0.200 F 
ATOM     73  F   UNL     1      -2.573  18.119  -5.908  1.00  0.00    -0.200 F 
ENDBRANCH  49  63
BRANCH  50  74
ATOM     74  C   UNL     1      -4.130   6.291   1.692  1.00  0.00     0.064 A 
ATOM     75  C   UNL     1      -5.303   5.523   1.679  1.00  0.00     0.173 A 
ATOM     76  C   UNL     1      -3.078   5.858   2.514  1.00  0.00     0.173 A 
ATOM     77  F   UNL     1      -6.344   5.904   0.925  1.00  0.00    -0.203 F 
ATOM     78  C   UNL     1      -5.426   4.382   2.470  1.00  0.00     0.198 A 
ATOM     79  C   UNL     1      -3.189   4.698   3.277  1.00  0.00     0.198 A 
ATOM     80  F   UNL     1      -1.931   6.551   2.558  1.00  0.00    -0.203 F 
ATOM     81  F   UNL     1      -6.575   3.692   2.474  1.00  0.00    -0.200 F 
ATOM     82  C   UNL     1      -4.366   3.966   3.262  1.00  0.00     0.200 A 
ATOM     83  F   UNL     1      -2.154   4.289   4.023  1.00  0.00    -0.200 F 
ATOM     84  F   UNL     1      -4.480   2.864   4.014  1.00  0.00    -0.200 F 
ENDBRANCH  50  74
BRANCH  62  85
ATOM     85  C   UNL     1      -7.270  12.515   1.810  1.00  0.00     0.064 A 
ATOM     86  C   UNL     1      -7.013  12.838   3.151  1.00  0.00     0.173 A 
ATOM     87  C   UNL     1      -8.549  12.793   1.302  1.00  0.00     0.173 A 
ATOM     88  F   UNL     1      -5.812  12.577   3.690  1.00  0.00    -0.203 F 
ATOM     89  C   UNL     1      -8.004  13.392   3.957  1.00  0.00     0.198 A 
ATOM     90  C   UNL     1      -9.526  13.380   2.101  1.00  0.00     0.198 A 
ATOM     91  F   UNL     1      -8.845  12.510   0.025  1.00  0.00    -0.203 F 
ATOM     92  F   UNL     1      -7.751  13.644   5.249  1.00  0.00    -0.200 F 
ATOM     93  C   UNL     1      -9.256  13.671   3.429  1.00  0.00     0.200 A 
ATOM     94  F   UNL     1     -10.730  13.663   1.585  1.00  0.00    -0.200 F 
ATOM     95  F   UNL     1     -10.205  14.215   4.204  1.00  0.00    -0.200 F 
ENDBRANCH  62  85
ENDBRANCH  36  37
ENDBRANCH  28  31
ENDBRANCH  26  27
ENDBRANCH  25  26
ENDBRANCH   1  25
TORSDOF 14
