REMARK SMILES O=C(N[C@H](CCBr)C(=O)NCCCNC(=O)c1ccc(-c2c3nc(c(-c4c(F)c(F)c(F)c(F)c4F)c4ccc([nH]4)c(-c4c(F)c(F)c(F)c(F)c4F)c4nc(c(-c5c(F)c(F)c(F)c(F)c5F)c5ccc2[nH]5)C=C4)C=C3)cc1)OCc1ccccc1
REMARK SMILES IDX 11 1 10 2 8 3 9 4 4 6 3 7 1 8 2 9 80 11 81 12 82 13 83 14
REMARK SMILES IDX 87 15 84 16 86 17 85 18 5 19 6 20 7 21 12 22 13 23 14 24
REMARK SMILES IDX 15 25 16 27 17 28 18 29 79 30 19 31 78 32 20 33 21 34 22 35
REMARK SMILES IDX 72 36 23 37 77 38 71 39 73 40 24 41 76 42 70 43 69 44 25 46
REMARK SMILES IDX 57 47 37 48 56 49 38 50 41 51 55 52 74 53 39 54 40 55 54 57
REMARK SMILES IDX 75 58 42 59 26 60 27 61 35 62 28 63 29 64 33 65 36 66 30 67
REMARK SMILES IDX 31 68 34 69 32 70 58 71 59 72 67 73 60 74 61 75 65 76 68 77
REMARK SMILES IDX 62 78 63 79 66 80 64 81 43 82 44 83 52 84 45 85 46 86 50 87
REMARK SMILES IDX 53 88 47 89 48 90 51 91 49 92
REMARK H PARENT 10 5 3 10 14 26 73 45 41 56
REMARK Flexibility Score: inf
ROOT
ATOM      1  C   UNL     1       4.274   2.715   3.851  1.00  0.00     0.117 C 
ENDROOT
BRANCH   1   2
ATOM      2  N   UNL     1       5.092   1.514   3.756  1.00  0.00    -0.354 N 
ATOM      3  C   UNL     1       5.182   0.553   2.791  1.00  0.00     0.242 C 
ATOM      4  O   UNL     1       5.941  -0.399   2.995  1.00  0.00    -0.273 OA
ATOM      5  H   UNL     1       5.687   1.369   4.527  1.00  0.00     0.163 HD
BRANCH   3   6
ATOM      6  C   UNL     1       4.323   0.614   1.518  1.00  0.00     0.175 C 
BRANCH   6   7
ATOM      7  N   UNL     1       4.579   1.939   0.924  1.00  0.00    -0.310 N 
ATOM      8  O   UNL     1       4.370   3.582  -0.613  1.00  0.00    -0.225 OA
ATOM      9  C   UNL     1       3.907   2.602  -0.054  1.00  0.00     0.408 C 
ATOM     10  H   UNL     1       5.357   2.417   1.292  1.00  0.00     0.167 HD
BRANCH   9  11
ATOM     11  O   UNL     1       2.716   2.044  -0.353  1.00  0.00    -0.445 OA
BRANCH  11  12
ATOM     12  C   UNL     1       2.588   1.631  -1.718  1.00  0.00     0.270 C 
BRANCH  12  13
ATOM     13  C   UNL     1       3.563   0.506  -1.993  1.00  0.00    -0.011 A 
ATOM     14  C   UNL     1       3.238  -0.827  -1.700  1.00  0.00     0.007 A 
ATOM     15  C   UNL     1       4.873   0.811  -2.396  1.00  0.00     0.007 A 
ATOM     16  C   UNL     1       4.209  -1.826  -1.788  1.00  0.00     0.000 A 
ATOM     17  C   UNL     1       5.843  -0.186  -2.474  1.00  0.00     0.000 A 
ATOM     18  C   UNL     1       5.512  -1.504  -2.167  1.00  0.00     0.000 A 
ENDBRANCH  12  13
ENDBRANCH  11  12
ENDBRANCH   9  11
ENDBRANCH   6   7
BRANCH   6  19
ATOM     19  C   UNL     1       2.851   0.235   1.757  1.00  0.00     0.047 C 
BRANCH  19  20
ATOM     20  C   UNL     1       2.581  -1.173   2.262  1.00  0.00     0.083 C 
ATOM     21  Br  UNL     1       2.795  -1.372   4.174  1.00  0.00    -0.093 Br
ENDBRANCH  19  20
ENDBRANCH   6  19
ENDBRANCH   3   6
ENDBRANCH   1   2
BRANCH   1  22
ATOM     22  C   UNL     1       2.982   2.516   4.632  1.00  0.00     0.042 C 
BRANCH  22  23
ATOM     23  C   UNL     1       3.181   1.907   6.007  1.00  0.00     0.118 C 
BRANCH  23  24
ATOM     24  N   UNL     1       3.816   2.837   6.922  1.00  0.00    -0.352 N 
ATOM     25  C   UNL     1       3.305   3.424   8.050  1.00  0.00     0.251 C 
ATOM     26  H   UNL     1       4.744   3.080   6.702  1.00  0.00     0.163 HD
ATOM     27  O   UNL     1       3.903   4.358   8.576  1.00  0.00    -0.269 OA
BRANCH  25  28
ATOM     28  C   UNL     1       2.027   2.950   8.623  1.00  0.00     0.039 A 
ATOM     29  C   UNL     1       1.116   3.894   9.100  1.00  0.00     0.014 A 
ATOM     30  C   UNL     1       1.736   1.585   8.719  1.00  0.00     0.014 A 
ATOM     31  C   UNL     1      -0.099   3.473   9.641  1.00  0.00     0.010 A 
ATOM     32  C   UNL     1       0.488   1.170   9.172  1.00  0.00     0.010 A 
ATOM     33  C   UNL     1      -0.431   2.108   9.662  1.00  0.00    -0.014 A 
BRANCH  33  34
ATOM     34  C   UNL     1      -1.718   1.646  10.238  1.00  0.00     0.031 A 
ATOM     35  C   UNL     1      -1.722   0.788  11.473  1.00  0.00     0.074 A 
ATOM     36  C   UNL     1      -2.876   1.969   9.634  1.00  0.00     0.049 A 
ATOM     37  N   UNL     1      -2.736   0.268  12.118  1.00  0.00    -0.248 NA
ATOM     38  C   UNL     1      -0.410   0.446  12.044  1.00  0.00     0.031 C 
ATOM     39  C   UNL     1      -2.998   2.762   8.411  1.00  0.00     0.029 A 
ATOM     40  N   UNL     1      -4.172   1.670   9.969  1.00  0.00    -0.354 N 
ATOM     41  C   UNL     1      -2.183  -0.466  13.159  1.00  0.00     0.074 A 
ATOM     42  C   UNL     1      -0.746  -0.381  13.021  1.00  0.00     0.031 C 
ATOM     43  C   UNL     1      -4.298   2.919   8.118  1.00  0.00     0.029 A 
ATOM     44  C   UNL     1      -5.099   2.208   9.111  1.00  0.00     0.049 A 
ATOM     45  H   UNL     1      -4.415   1.122  10.750  1.00  0.00     0.167 HD
ATOM     46  C   UNL     1      -2.815  -1.127  14.159  1.00  0.00     0.037 A 
ATOM     47  C   UNL     1      -6.443   2.136   9.127  1.00  0.00     0.037 A 
ATOM     48  C   UNL     1      -4.245  -1.197  14.300  1.00  0.00     0.049 A 
ATOM     49  C   UNL     1      -7.124   1.376  10.232  1.00  0.00     0.074 A 
ATOM     50  C   UNL     1      -4.987  -1.799  15.300  1.00  0.00     0.029 A 
ATOM     51  N   UNL     1      -5.153  -0.646  13.405  1.00  0.00    -0.354 N 
ATOM     52  N   UNL     1      -6.594   0.741  11.249  1.00  0.00    -0.248 NA
ATOM     53  C   UNL     1      -8.591   1.329  10.194  1.00  0.00     0.031 C 
ATOM     54  C   UNL     1      -6.343  -1.657  14.984  1.00  0.00     0.029 A 
ATOM     55  C   UNL     1      -6.448  -0.917  13.817  1.00  0.00     0.049 A 
ATOM     56  H   UNL     1      -4.911  -0.138  12.597  1.00  0.00     0.167 HD
ATOM     57  C   UNL     1      -7.660   0.245  11.988  1.00  0.00     0.074 A 
ATOM     58  C   UNL     1      -8.868   0.665  11.307  1.00  0.00     0.031 C 
ATOM     59  C   UNL     1      -7.640  -0.488  13.129  1.00  0.00     0.037 A 
BRANCH  46  60
ATOM     60  C   UNL     1      -1.954  -1.831  15.170  1.00  0.00     0.064 A 
ATOM     61  C   UNL     1      -1.140  -1.120  16.067  1.00  0.00     0.173 A 
ATOM     62  C   UNL     1      -1.939  -3.232  15.243  1.00  0.00     0.173 A 
ATOM     63  F   UNL     1      -1.106   0.221  16.032  1.00  0.00    -0.203 F 
ATOM     64  C   UNL     1      -0.311  -1.786  16.967  1.00  0.00     0.198 A 
ATOM     65  C   UNL     1      -1.135  -3.893  16.169  1.00  0.00     0.198 A 
ATOM     66  F   UNL     1      -2.701  -3.961  14.415  1.00  0.00    -0.203 F 
ATOM     67  F   UNL     1       0.507  -1.086  17.766  1.00  0.00    -0.200 F 
ATOM     68  C   UNL     1      -0.313  -3.171  17.021  1.00  0.00     0.200 A 
ATOM     69  F   UNL     1      -1.149  -5.232  16.229  1.00  0.00    -0.200 F 
ATOM     70  F   UNL     1       0.485  -3.811  17.886  1.00  0.00    -0.200 F 
ENDBRANCH  46  60
BRANCH  47  71
ATOM     71  C   UNL     1      -7.232   2.845   8.087  1.00  0.00     0.064 A 
ATOM     72  C   UNL     1      -7.987   3.981   8.412  1.00  0.00     0.173 A 
ATOM     73  C   UNL     1      -7.234   2.419   6.751  1.00  0.00     0.173 A 
ATOM     74  F   UNL     1      -8.031   4.415   9.680  1.00  0.00    -0.203 F 
ATOM     75  C   UNL     1      -8.726   4.655   7.442  1.00  0.00     0.198 A 
ATOM     76  C   UNL     1      -7.952   3.110   5.777  1.00  0.00     0.198 A 
ATOM     77  F   UNL     1      -6.523   1.342   6.388  1.00  0.00    -0.203 F 
ATOM     78  F   UNL     1      -9.469   5.716   7.787  1.00  0.00    -0.200 F 
ATOM     79  C   UNL     1      -8.702   4.224   6.125  1.00  0.00     0.200 A 
ATOM     80  F   UNL     1      -7.915   2.700   4.502  1.00  0.00    -0.200 F 
ATOM     81  F   UNL     1      -9.405   4.878   5.191  1.00  0.00    -0.200 F 
ENDBRANCH  47  71
BRANCH  59  82
ATOM     82  C   UNL     1      -8.965  -0.852  13.734  1.00  0.00     0.064 A 
ATOM     83  C   UNL     1      -9.812  -1.800  13.142  1.00  0.00     0.173 A 
ATOM     84  C   UNL     1      -9.375  -0.270  14.944  1.00  0.00     0.173 A 
ATOM     85  F   UNL     1      -9.473  -2.374  11.977  1.00  0.00    -0.203 F 
ATOM     86  C   UNL     1     -11.034  -2.131  13.723  1.00  0.00     0.198 A 
ATOM     87  C   UNL     1     -10.582  -0.626  15.539  1.00  0.00     0.198 A 
ATOM     88  F   UNL     1      -8.599   0.637  15.555  1.00  0.00    -0.203 F 
ATOM     89  F   UNL     1     -11.850  -3.001  13.113  1.00  0.00    -0.200 F 
ATOM     90  C   UNL     1     -11.414  -1.550  14.924  1.00  0.00     0.200 A 
ATOM     91  F   UNL     1     -10.940  -0.075  16.706  1.00  0.00    -0.200 F 
ATOM     92  F   UNL     1     -12.586  -1.875  15.486  1.00  0.00    -0.200 F 
ENDBRANCH  59  82
ENDBRANCH  33  34
ENDBRANCH  25  28
ENDBRANCH  23  24
ENDBRANCH  22  23
ENDBRANCH   1  22
TORSDOF 16
