REMARK SMILES O=C(NCCCNC(=O)c1ccc(NS(=O)(=O)c2ccc3c(c2)CCC3)cc1Cl)c1ccc(-c2c3nc(c(-c4c(F)c(F)c(F)c(F)c4F)c4ccc([nH]4)c(-c4c(F)c(F)c(F)c(F)c4F)c4nc(c(-c5c(F)c(F)c(F)c(F)c5F)c5ccc2[nH]5)C=C4)C=C3)cc1
REMARK SMILES IDX 5 1 4 2 3 3 1 4 2 5 30 7 31 8 92 9 32 10 91 11 33 12 34 13
REMARK SMILES IDX 35 14 85 15 36 16 90 17 84 18 86 19 37 20 89 21 83 22 82 23
REMARK SMILES IDX 38 25 70 26 50 27 69 28 51 29 54 30 68 31 87 32 52 33 53 34
REMARK SMILES IDX 67 36 88 37 55 38 39 39 40 40 48 41 41 42 42 43 46 44 49 45
REMARK SMILES IDX 43 46 44 47 47 48 45 49 71 50 72 51 80 52 73 53 74 54 78 55
REMARK SMILES IDX 81 56 75 57 76 58 79 59 77 60 56 61 57 62 65 63 58 64 59 65
REMARK SMILES IDX 63 66 66 67 60 68 61 69 64 70 62 71 6 72 7 73 8 74 9 76
REMARK SMILES IDX 10 77 11 78 28 79 12 80 27 81 29 82 13 83 14 84 15 86 16 87
REMARK SMILES IDX 17 88 18 89 19 90 23 91 20 92 22 93 21 94 24 95 26 96 25 97
REMARK H PARENT 3 6 86 24 54 35 7 75 14 85
REMARK Flexibility Score: inf
ROOT
ATOM      1  C   UNL     1       4.729   0.964  -2.373  1.00  0.00     0.042 C 
ENDROOT
BRANCH   1   2
ATOM      2  C   UNL     1       4.393   1.151  -0.901  1.00  0.00     0.118 C 
BRANCH   2   3
ATOM      3  N   UNL     1       2.975   0.968  -0.610  1.00  0.00    -0.352 N 
ATOM      4  O   UNL     1       1.094  -0.060   0.081  1.00  0.00    -0.269 OA
ATOM      5  C   UNL     1       2.320  -0.009   0.102  1.00  0.00     0.251 C 
ATOM      6  H   UNL     1       2.387   1.661  -0.988  1.00  0.00     0.163 HD
BRANCH   5   7
ATOM      7  C   UNL     1       3.083  -1.013   0.874  1.00  0.00     0.039 A 
ATOM      8  C   UNL     1       4.221  -0.641   1.586  1.00  0.00     0.014 A 
ATOM      9  C   UNL     1       2.647  -2.342   0.906  1.00  0.00     0.014 A 
ATOM     10  C   UNL     1       5.028  -1.615   2.153  1.00  0.00     0.010 A 
ATOM     11  C   UNL     1       3.394  -3.306   1.594  1.00  0.00     0.010 A 
ATOM     12  C   UNL     1       4.612  -2.956   2.193  1.00  0.00    -0.014 A 
BRANCH  12  13
ATOM     13  C   UNL     1       5.448  -3.926   2.948  1.00  0.00     0.031 A 
ATOM     14  C   UNL     1       6.106  -5.097   2.275  1.00  0.00     0.074 A 
ATOM     15  C   UNL     1       5.676  -3.678   4.254  1.00  0.00     0.049 A 
ATOM     16  N   UNL     1       6.937  -5.974   2.781  1.00  0.00    -0.248 NA
ATOM     17  C   UNL     1       5.789  -5.324   0.857  1.00  0.00     0.031 C 
ATOM     18  C   UNL     1       5.067  -2.585   5.018  1.00  0.00     0.029 A 
ATOM     19  N   UNL     1       6.503  -4.291   5.159  1.00  0.00    -0.354 N 
ATOM     20  C   UNL     1       7.235  -6.858   1.752  1.00  0.00     0.074 A 
ATOM     21  C   UNL     1       6.471  -6.433   0.599  1.00  0.00     0.031 C 
ATOM     22  C   UNL     1       5.598  -2.556   6.248  1.00  0.00     0.029 A 
ATOM     23  C   UNL     1       6.521  -3.675   6.387  1.00  0.00     0.049 A 
ATOM     24  H   UNL     1       7.033  -5.094   4.949  1.00  0.00     0.167 HD
ATOM     25  C   UNL     1       8.079  -7.919   1.771  1.00  0.00     0.037 A 
ATOM     26  C   UNL     1       7.194  -3.982   7.510  1.00  0.00     0.037 A 
ATOM     27  C   UNL     1       8.841  -8.331   2.923  1.00  0.00     0.049 A 
ATOM     28  C   UNL     1       8.115  -5.167   7.497  1.00  0.00     0.074 A 
ATOM     29  C   UNL     1       9.728  -9.388   3.040  1.00  0.00     0.029 A 
ATOM     30  N   UNL     1       8.807  -7.704   4.161  1.00  0.00    -0.354 N 
ATOM     31  N   UNL     1       8.402  -5.979   6.509  1.00  0.00    -0.248 NA
ATOM     32  C   UNL     1       8.803  -5.479   8.755  1.00  0.00     0.031 C 
ATOM     33  C   UNL     1      10.198  -9.425   4.357  1.00  0.00     0.029 A 
ATOM     34  C   UNL     1       9.646  -8.361   5.049  1.00  0.00     0.049 A 
ATOM     35  H   UNL     1       8.268  -6.909   4.376  1.00  0.00     0.167 HD
ATOM     36  C   UNL     1       9.304  -6.897   7.023  1.00  0.00     0.074 A 
ATOM     37  C   UNL     1       9.550  -6.514   8.399  1.00  0.00     0.031 C 
ATOM     38  C   UNL     1       9.869  -7.970   6.418  1.00  0.00     0.037 A 
BRANCH  25  39
ATOM     39  C   UNL     1       8.226  -8.721   0.509  1.00  0.00     0.064 A 
ATOM     40  C   UNL     1       8.918  -8.218  -0.604  1.00  0.00     0.173 A 
ATOM     41  C   UNL     1       7.736 -10.034   0.436  1.00  0.00     0.173 A 
ATOM     42  F   UNL     1       9.398  -6.965  -0.591  1.00  0.00    -0.203 F 
ATOM     43  C   UNL     1       9.101  -8.995  -1.746  1.00  0.00     0.198 A 
ATOM     44  C   UNL     1       7.943 -10.817  -0.697  1.00  0.00     0.198 A 
ATOM     45  F   UNL     1       7.073 -10.566   1.473  1.00  0.00    -0.203 F 
ATOM     46  F   UNL     1       9.737  -8.482  -2.808  1.00  0.00    -0.200 F 
ATOM     47  C   UNL     1       8.622 -10.296  -1.788  1.00  0.00     0.200 A 
ATOM     48  F   UNL     1       7.492 -12.078  -0.731  1.00  0.00    -0.200 F 
ATOM     49  F   UNL     1       8.813 -11.047  -2.882  1.00  0.00    -0.200 F 
ENDBRANCH  25  39
BRANCH  26  50
ATOM     50  C   UNL     1       6.997  -3.169   8.738  1.00  0.00     0.064 A 
ATOM     51  C   UNL     1       8.036  -2.399   9.277  1.00  0.00     0.173 A 
ATOM     52  C   UNL     1       5.760  -3.149   9.400  1.00  0.00     0.173 A 
ATOM     53  F   UNL     1       9.242  -2.397   8.691  1.00  0.00    -0.203 F 
ATOM     54  C   UNL     1       7.852  -1.660  10.444  1.00  0.00     0.198 A 
ATOM     55  C   UNL     1       5.566  -2.380  10.544  1.00  0.00     0.198 A 
ATOM     56  F   UNL     1       4.729  -3.862   8.921  1.00  0.00    -0.203 F 
ATOM     57  F   UNL     1       8.877  -0.975  10.968  1.00  0.00    -0.200 F 
ATOM     58  C   UNL     1       6.615  -1.645  11.072  1.00  0.00     0.200 A 
ATOM     59  F   UNL     1       4.363  -2.353  11.133  1.00  0.00    -0.200 F 
ATOM     60  F   UNL     1       6.437  -0.929  12.191  1.00  0.00    -0.200 F 
ENDBRANCH  26  50
BRANCH  38  61
ATOM     61  C   UNL     1      10.813  -8.790   7.247  1.00  0.00     0.064 A 
ATOM     62  C   UNL     1      10.354  -9.589   8.305  1.00  0.00     0.173 A 
ATOM     63  C   UNL     1      12.191  -8.772   6.986  1.00  0.00     0.173 A 
ATOM     64  F   UNL     1       9.046  -9.625   8.606  1.00  0.00    -0.203 F 
ATOM     65  C   UNL     1      11.245 -10.307   9.098  1.00  0.00     0.198 A 
ATOM     66  C   UNL     1      13.075  -9.518   7.760  1.00  0.00     0.198 A 
ATOM     67  F   UNL     1      12.680  -8.029   5.982  1.00  0.00    -0.203 F 
ATOM     68  F   UNL     1      10.790 -11.009  10.145  1.00  0.00    -0.200 F 
ATOM     69  C   UNL     1      12.603 -10.274   8.822  1.00  0.00     0.200 A 
ATOM     70  F   UNL     1      14.387  -9.494   7.486  1.00  0.00    -0.200 F 
ATOM     71  F   UNL     1      13.460 -10.961   9.590  1.00  0.00    -0.200 F 
ENDBRANCH  38  61
ENDBRANCH  12  13
ENDBRANCH   5   7
ENDBRANCH   2   3
ENDBRANCH   1   2
BRANCH   1  72
ATOM     72  C   UNL     1       4.051   1.973  -3.287  1.00  0.00     0.118 C 
BRANCH  72  73
ATOM     73  N   UNL     1       4.453   3.343  -3.003  1.00  0.00    -0.352 N 
ATOM     74  C   UNL     1       5.274   4.162  -3.736  1.00  0.00     0.252 C 
ATOM     75  H   UNL     1       4.088   3.733  -2.176  1.00  0.00     0.163 HD
ATOM     76  O   UNL     1       5.570   5.286  -3.349  1.00  0.00    -0.269 OA
BRANCH  74  77
ATOM     77  C   UNL     1       5.883   3.623  -4.959  1.00  0.00     0.058 A 
ATOM     78  C   UNL     1       7.185   3.141  -4.840  1.00  0.00     0.017 A 
ATOM     79  C   UNL     1       5.176   3.473  -6.156  1.00  0.00     0.055 A 
ATOM     80  C   UNL     1       7.747   2.434  -5.899  1.00  0.00     0.027 A 
ATOM     81  C   UNL     1       5.771   2.803  -7.235  1.00  0.00     0.048 A 
ATOM     82  Cl  UNL     1       3.545   4.014  -6.328  1.00  0.00    -0.083 Cl
ATOM     83  C   UNL     1       7.059   2.276  -7.106  1.00  0.00     0.050 A 
BRANCH  83  84
ATOM     84  N   UNL     1       7.616   1.449  -8.141  1.00  0.00    -0.280 N 
ATOM     85  H   UNL     1       7.228   0.562  -8.321  1.00  0.00     0.180 HD
BRANCH  84  86
ATOM     86  S   UNL     1       8.950   1.998  -9.062  1.00  0.00     0.261 S 
ATOM     87  O   UNL     1       9.621   0.814  -9.550  1.00  0.00    -0.201 OA
ATOM     88  O   UNL     1       8.419   2.978  -9.989  1.00  0.00    -0.201 OA
BRANCH  86  89
ATOM     89  C   UNL     1      10.034   2.829  -7.934  1.00  0.00     0.088 A 
ATOM     90  C   UNL     1      10.963   2.082  -7.181  1.00  0.00     0.022 A 
ATOM     91  C   UNL     1       9.883   4.208  -7.751  1.00  0.00     0.026 A 
ATOM     92  C   UNL     1      11.678   2.701  -6.152  1.00  0.00     0.005 A 
ATOM     93  C   UNL     1      10.600   4.801  -6.730  1.00  0.00    -0.043 A 
ATOM     94  C   UNL     1      11.468   4.053  -5.925  1.00  0.00    -0.045 A 
ATOM     95  C   UNL     1      10.499   6.214  -6.249  1.00  0.00     0.036 C 
ATOM     96  C   UNL     1      12.001   4.895  -4.807  1.00  0.00     0.036 C 
ATOM     97  C   UNL     1      11.729   6.310  -5.337  1.00  0.00     0.010 C 
ENDBRANCH  86  89
ENDBRANCH  84  86
ENDBRANCH  83  84
ENDBRANCH  74  77
ENDBRANCH  72  73
ENDBRANCH   1  72
TORSDOF 13
