REMARK SMILES CC(C)(C)C[C@@H](O)[C@@H](F)C(=O)NCCCNC(=O)c1ccc(-c2c3nc(c(-c4c(F)c(F)c(F)c(F)c4F)c4ccc([nH]4)c(-c4c(F)c(F)c(F)c(F)c4F)c4nc(c(-c5c(F)c(F)c(F)c(F)c5F)c5ccc2[nH]5)C=C4)C=C3)cc1
REMARK SMILES IDX 13 1 12 2 10 3 11 4 8 6 9 7 6 8 5 9 2 10 1 11 3 12 4 13 7 14
REMARK SMILES IDX 14 16 15 17 16 18 17 19 18 21 19 22 20 23 81 24 21 25 80 26
REMARK SMILES IDX 22 27 23 28 24 29 74 30 25 31 79 32 73 33 75 34 26 35 78 36
REMARK SMILES IDX 72 37 71 38 27 40 59 41 39 42 58 43 40 44 43 45 57 46 76 47
REMARK SMILES IDX 41 48 42 49 56 51 77 52 44 53 28 54 29 55 37 56 30 57 31 58
REMARK SMILES IDX 35 59 38 60 32 61 33 62 36 63 34 64 60 65 61 66 69 67 62 68
REMARK SMILES IDX 63 69 67 70 70 71 64 72 65 73 68 74 66 75 45 76 46 77 54 78
REMARK SMILES IDX 47 79 48 80 52 81 55 82 49 83 50 84 53 85 51 86
REMARK H PARENT 12 5 7 15 16 20 75 39 43 50
REMARK Flexibility Score: inf
ROOT
ATOM      1  C   UNL     1      -1.938   4.468  -2.059  1.00  0.00     0.117 C 
ENDROOT
BRANCH   1   2
ATOM      2  N   UNL     1      -0.875   5.214  -1.406  1.00  0.00    -0.353 N 
ATOM      3  C   UNL     1       0.465   4.953  -1.336  1.00  0.00     0.257 C 
ATOM      4  O   UNL     1       1.158   5.727  -0.670  1.00  0.00    -0.272 OA
ATOM      5  H   UNL     1      -1.164   6.033  -0.943  1.00  0.00     0.163 HD
BRANCH   3   6
ATOM      6  C   UNL     1       1.065   3.709  -1.989  1.00  0.00     0.283 C 
ATOM      7  F   UNL     1       0.589   3.542  -3.259  1.00  0.00    -0.234 F 
BRANCH   6   8
ATOM      8  C   UNL     1       0.763   2.459  -1.144  1.00  0.00     0.159 C 
BRANCH   8   9
ATOM      9  C   UNL     1       1.079   1.168  -1.923  1.00  0.00     0.041 C 
BRANCH   9  10
ATOM     10  C   UNL     1       0.497  -0.154  -1.339  1.00  0.00    -0.036 C 
ATOM     11  C   UNL     1       0.958  -0.414   0.103  1.00  0.00     0.011 C 
ATOM     12  C   UNL     1       0.990  -1.318  -2.223  1.00  0.00     0.011 C 
ATOM     13  C   UNL     1      -1.043  -0.140  -1.379  1.00  0.00     0.011 C 
ENDBRANCH   9  10
ENDBRANCH   8   9
BRANCH   8  14
ATOM     14  O   UNL     1       1.551   2.459   0.051  1.00  0.00    -0.390 OA
ATOM     15  H   UNL     1       2.492   2.433  -0.182  1.00  0.00     0.211 HD
ENDBRANCH   8  14
ENDBRANCH   6   8
ENDBRANCH   3   6
ENDBRANCH   1   2
BRANCH   1  16
ATOM     16  C   UNL     1      -2.864   3.779  -1.058  1.00  0.00     0.042 C 
BRANCH  16  17
ATOM     17  C   UNL     1      -3.618   4.720  -0.125  1.00  0.00     0.118 C 
BRANCH  17  18
ATOM     18  N   UNL     1      -4.590   5.545  -0.821  1.00  0.00    -0.352 N 
ATOM     19  C   UNL     1      -5.930   5.726  -0.591  1.00  0.00     0.251 C 
ATOM     20  H   UNL     1      -4.228   6.057  -1.580  1.00  0.00     0.163 HD
ATOM     21  O   UNL     1      -6.595   6.357  -1.409  1.00  0.00    -0.269 OA
BRANCH  19  22
ATOM     22  C   UNL     1      -6.597   5.167   0.610  1.00  0.00     0.039 A 
ATOM     23  C   UNL     1      -7.902   4.678   0.473  1.00  0.00     0.014 A 
ATOM     24  C   UNL     1      -5.996   5.182   1.871  1.00  0.00     0.014 A 
ATOM     25  C   UNL     1      -8.585   4.178   1.584  1.00  0.00     0.010 A 
ATOM     26  C   UNL     1      -6.652   4.620   2.968  1.00  0.00     0.010 A 
ATOM     27  C   UNL     1      -7.960   4.128   2.840  1.00  0.00    -0.014 A 
BRANCH  27  28
ATOM     28  C   UNL     1      -8.679   3.603   4.029  1.00  0.00     0.031 A 
ATOM     29  C   UNL     1      -9.036   4.522   5.165  1.00  0.00     0.074 A 
ATOM     30  C   UNL     1      -8.982   2.293   4.106  1.00  0.00     0.049 A 
ATOM     31  N   UNL     1      -9.624   4.246   6.303  1.00  0.00    -0.248 NA
ATOM     32  C   UNL     1      -8.658   5.936   5.015  1.00  0.00     0.031 C 
ATOM     33  C   UNL     1      -8.655   1.289   3.094  1.00  0.00     0.029 A 
ATOM     34  N   UNL     1      -9.629   1.581   5.085  1.00  0.00    -0.354 N 
ATOM     35  C   UNL     1      -9.669   5.442   7.006  1.00  0.00     0.074 A 
ATOM     36  C   UNL     1      -9.010   6.438   6.189  1.00  0.00     0.031 C 
ATOM     37  C   UNL     1      -9.118   0.094   3.495  1.00  0.00     0.029 A 
ATOM     38  C   UNL     1      -9.753   0.243   4.802  1.00  0.00     0.049 A 
ATOM     39  H   UNL     1      -9.972   1.991   5.912  1.00  0.00     0.167 HD
ATOM     40  C   UNL     1     -10.228   5.694   8.214  1.00  0.00     0.037 A 
ATOM     41  C   UNL     1     -10.317  -0.750   5.514  1.00  0.00     0.037 A 
ATOM     42  C   UNL     1     -10.916   4.715   9.013  1.00  0.00     0.049 A 
ATOM     43  C   UNL     1     -10.962  -0.438   6.837  1.00  0.00     0.074 A 
ATOM     44  C   UNL     1     -11.559   4.886  10.227  1.00  0.00     0.029 A 
ATOM     45  N   UNL     1     -11.057   3.378   8.671  1.00  0.00    -0.354 N 
ATOM     46  N   UNL     1     -11.046   0.709   7.466  1.00  0.00    -0.248 NA
ATOM     47  C   UNL     1     -11.604  -1.557   7.541  1.00  0.00     0.031 C 
ATOM     48  C   UNL     1     -12.066   3.646  10.633  1.00  0.00     0.029 A 
ATOM     49  C   UNL     1     -11.770   2.711   9.654  1.00  0.00     0.049 A 
ATOM     50  H   UNL     1     -10.703   2.964   7.851  1.00  0.00     0.167 HD
ATOM     51  C   UNL     1     -11.768   0.457   8.624  1.00  0.00     0.074 A 
ATOM     52  C   UNL     1     -12.111  -0.950   8.605  1.00  0.00     0.031 C 
ATOM     53  C   UNL     1     -12.114   1.314   9.614  1.00  0.00     0.037 A 
BRANCH  40  54
ATOM     54  C   UNL     1     -10.123   7.094   8.745  1.00  0.00     0.064 A 
ATOM     55  C   UNL     1     -10.867   8.146   8.189  1.00  0.00     0.173 A 
ATOM     56  C   UNL     1      -9.294   7.381   9.839  1.00  0.00     0.173 A 
ATOM     57  F   UNL     1     -11.664   7.924   7.133  1.00  0.00    -0.203 F 
ATOM     58  C   UNL     1     -10.762   9.440   8.691  1.00  0.00     0.198 A 
ATOM     59  C   UNL     1      -9.213   8.672  10.356  1.00  0.00     0.198 A 
ATOM     60  F   UNL     1      -8.567   6.410  10.411  1.00  0.00    -0.203 F 
ATOM     61  F   UNL     1     -11.446  10.438   8.114  1.00  0.00    -0.200 F 
ATOM     62  C   UNL     1      -9.941   9.701   9.778  1.00  0.00     0.200 A 
ATOM     63  F   UNL     1      -8.426   8.921  11.412  1.00  0.00    -0.200 F 
ATOM     64  F   UNL     1      -9.844  10.947  10.262  1.00  0.00    -0.200 F 
ENDBRANCH  40  54
BRANCH  41  65
ATOM     65  C   UNL     1     -10.331  -2.132   4.971  1.00  0.00     0.064 A 
ATOM     66  C   UNL     1     -11.518  -2.705   4.497  1.00  0.00     0.173 A 
ATOM     67  C   UNL     1      -9.162  -2.903   4.912  1.00  0.00     0.173 A 
ATOM     68  F   UNL     1     -12.665  -2.012   4.553  1.00  0.00    -0.203 F 
ATOM     69  C   UNL     1     -11.540  -4.006   3.999  1.00  0.00     0.198 A 
ATOM     70  C   UNL     1      -9.180  -4.195   4.391  1.00  0.00     0.198 A 
ATOM     71  F   UNL     1      -8.000  -2.396   5.349  1.00  0.00    -0.203 F 
ATOM     72  F   UNL     1     -12.696  -4.544   3.587  1.00  0.00    -0.200 F 
ATOM     73  C   UNL     1     -10.370  -4.748   3.941  1.00  0.00     0.200 A 
ATOM     74  F   UNL     1      -8.045  -4.905   4.327  1.00  0.00    -0.200 F 
ATOM     75  F   UNL     1     -10.390  -5.997   3.458  1.00  0.00    -0.200 F 
ENDBRANCH  41  65
BRANCH  53  76
ATOM     76  C   UNL     1     -12.935   0.763  10.742  1.00  0.00     0.064 A 
ATOM     77  C   UNL     1     -12.374  -0.070  11.720  1.00  0.00     0.173 A 
ATOM     78  C   UNL     1     -14.292   1.100  10.862  1.00  0.00     0.173 A 
ATOM     79  F   UNL     1     -11.084  -0.431  11.639  1.00  0.00    -0.203 F 
ATOM     80  C   UNL     1     -13.148  -0.565  12.766  1.00  0.00     0.198 A 
ATOM     81  C   UNL     1     -15.056   0.622  11.922  1.00  0.00     0.198 A 
ATOM     82  F   UNL     1     -14.873   1.897   9.954  1.00  0.00    -0.203 F 
ATOM     83  F   UNL     1     -12.601  -1.394  13.667  1.00  0.00    -0.200 F 
ATOM     84  C   UNL     1     -14.486  -0.214  12.870  1.00  0.00     0.200 A 
ATOM     85  F   UNL     1     -16.347   0.969  12.026  1.00  0.00    -0.200 F 
ATOM     86  F   UNL     1     -15.228  -0.690  13.879  1.00  0.00    -0.200 F 
ENDBRANCH  53  76
ENDBRANCH  27  28
ENDBRANCH  19  22
ENDBRANCH  17  18
ENDBRANCH  16  17
ENDBRANCH   1  16
TORSDOF 14
