REMARK SMILES CCCC(=O)N(c1cc2sc(=O)oc2c2ccccc12)S(=O)(=O)c1ccc(C(=O)NCCCNC(=O)c2ccc(-c3c4nc(c(-c5c(F)c(F)c(F)c(F)c5F)c5ccc([nH]5)c(-c5c(F)c(F)c(F)c(F)c5F)c5nc(c(-c6c(F)c(F)c(F)c(F)c6F)c6ccc3[nH]6)C=C5)C=C4)cc2)cc1
REMARK SMILES IDX 28 1 29 2 30 3 27 5 24 6 25 7 101 8 26 9 100 10 21 11 22 12
REMARK SMILES IDX 23 13 6 14 4 15 5 16 3 17 2 18 1 19 7 20 8 21 20 22 9 23
REMARK SMILES IDX 15 24 19 25 10 26 14 27 16 28 18 29 11 30 13 31 17 32 12 33
REMARK SMILES IDX 31 34 32 35 33 36 34 37 35 38 36 40 37 41 38 42 99 43 39 44
REMARK SMILES IDX 98 45 40 46 41 47 42 48 92 49 43 50 97 51 91 52 93 53 44 54
REMARK SMILES IDX 96 55 90 56 89 57 45 59 77 60 57 61 76 62 58 63 61 64 75 65
REMARK SMILES IDX 94 66 59 67 60 68 74 70 95 71 62 72 46 73 47 74 55 75 48 76
REMARK SMILES IDX 49 77 53 78 56 79 50 80 51 81 54 82 52 83 78 84 79 85 87 86
REMARK SMILES IDX 80 87 81 88 85 89 88 90 82 91 83 92 86 93 84 94 63 95 64 96
REMARK SMILES IDX 72 97 65 98 66 99 70 100 73 101 67 102 68 103 71 104 69 105
REMARK H PARENT 30 4 34 39 93 58 61 69
REMARK Flexibility Score: inf
ROOT
ATOM      1  C   UNL     1       1.440   7.357  -2.897  1.00  0.00     0.251 C 
ATOM      2  O   UNL     1       1.385   8.575  -2.714  1.00  0.00    -0.269 OA
ATOM      3  N   UNL     1       1.805   6.945  -4.155  1.00  0.00    -0.352 N 
ATOM      4  H   UNL     1       1.917   7.701  -4.775  1.00  0.00     0.163 HD
ENDROOT
BRANCH   1   5
ATOM      5  C   UNL     1       1.099   6.454  -1.759  1.00  0.00     0.039 A 
ATOM      6  C   UNL     1       0.378   4.853   0.466  1.00  0.00     0.088 A 
ATOM      7  C   UNL     1       0.588   6.221   0.641  1.00  0.00     0.023 A 
ATOM      8  C   UNL     1       0.418   4.333  -0.824  1.00  0.00     0.023 A 
ATOM      9  C   UNL     1       0.925   7.016  -0.474  1.00  0.00     0.015 A 
ATOM     10  C   UNL     1       0.831   5.101  -1.910  1.00  0.00     0.015 A 
BRANCH   6  11
ATOM     11  S   UNL     1      -0.158   3.799   1.818  1.00  0.00     0.270 S 
ATOM     12  O   UNL     1      -1.507   3.418   1.456  1.00  0.00    -0.201 OA
ATOM     13  O   UNL     1       0.123   4.544   3.031  1.00  0.00    -0.201 OA
BRANCH  11  14
ATOM     14  N   UNL     1       0.834   2.394   1.877  1.00  0.00    -0.202 N 
BRANCH  14  15
ATOM     15  C   UNL     1       0.440   1.321   2.758  1.00  0.00     0.241 C 
ATOM     16  O   UNL     1      -0.623   1.343   3.372  1.00  0.00    -0.273 OA
BRANCH  15  17
ATOM     17  C   UNL     1       1.393   0.143   2.970  1.00  0.00     0.101 C 
BRANCH  17  18
ATOM     18  C   UNL     1       1.026  -1.133   2.203  1.00  0.00     0.006 C 
ATOM     19  C   UNL     1       2.154  -1.619   1.297  1.00  0.00     0.004 C 
ENDBRANCH  17  18
ENDBRANCH  15  17
ENDBRANCH  14  15
BRANCH  14  20
ATOM     20  C   UNL     1       1.586   2.010   0.712  1.00  0.00     0.070 A 
ATOM     21  C   UNL     1       2.866   2.570   0.588  1.00  0.00     0.051 A 
ATOM     22  C   UNL     1       1.047   1.163  -0.311  1.00  0.00     0.010 A 
ATOM     23  C   UNL     1       3.610   2.289  -0.542  1.00  0.00     0.080 A 
ATOM     24  C   UNL     1       1.863   0.832  -1.426  1.00  0.00     0.028 A 
ATOM     25  C   UNL     1      -0.270   0.646  -0.288  1.00  0.00     0.011 A 
ATOM     26  S   UNL     1       5.179   2.931  -0.981  1.00  0.00    -0.052 S 
ATOM     27  C   UNL     1       3.127   1.430  -1.522  1.00  0.00     0.157 A 
ATOM     28  C   UNL     1       1.387  -0.066  -2.399  1.00  0.00     0.013 A 
ATOM     29  C   UNL     1      -0.719  -0.257  -1.247  1.00  0.00     0.001 A 
ATOM     30  C   UNL     1       5.090   2.016  -2.493  1.00  0.00     0.396 A 
ATOM     31  O   UNL     1       3.948   1.225  -2.638  1.00  0.00    -0.413 OA
ATOM     32  C   UNL     1       0.111  -0.612  -2.297  1.00  0.00     0.001 A 
ATOM     33  O   UNL     1       5.951   2.089  -3.343  1.00  0.00    -0.233 OA
ENDBRANCH  14  20
ENDBRANCH  11  14
ENDBRANCH   6  11
ENDBRANCH   1   5
BRANCH   3  34
ATOM     34  C   UNL     1       2.068   5.661  -4.798  1.00  0.00     0.118 C 
BRANCH  34  35
ATOM     35  C   UNL     1       0.861   5.185  -5.608  1.00  0.00     0.042 C 
BRANCH  35  36
ATOM     36  C   UNL     1       0.741   5.954  -6.926  1.00  0.00     0.118 C 
BRANCH  36  37
ATOM     37  N   UNL     1       1.655   5.477  -7.962  1.00  0.00    -0.352 N 
ATOM     38  C   UNL     1       1.601   4.345  -8.742  1.00  0.00     0.251 C 
ATOM     39  H   UNL     1       2.432   6.058  -8.128  1.00  0.00     0.163 HD
ATOM     40  O   UNL     1       2.523   4.063  -9.500  1.00  0.00    -0.269 OA
BRANCH  38  41
ATOM     41  C   UNL     1       0.456   3.428  -8.604  1.00  0.00     0.039 A 
ATOM     42  C   UNL     1      -0.849   3.919  -8.652  1.00  0.00     0.014 A 
ATOM     43  C   UNL     1       0.703   2.072  -8.366  1.00  0.00     0.014 A 
ATOM     44  C   UNL     1      -1.901   3.098  -8.284  1.00  0.00     0.010 A 
ATOM     45  C   UNL     1      -0.361   1.230  -8.054  1.00  0.00     0.010 A 
ATOM     46  C   UNL     1      -1.655   1.758  -7.971  1.00  0.00    -0.014 A 
BRANCH  46  47
ATOM     47  C   UNL     1      -2.837   0.940  -7.687  1.00  0.00     0.031 A 
ATOM     48  C   UNL     1      -3.101  -0.088  -8.733  1.00  0.00     0.074 A 
ATOM     49  C   UNL     1      -3.287   0.765  -6.428  1.00  0.00     0.049 A 
ATOM     50  N   UNL     1      -2.457  -1.218  -8.767  1.00  0.00    -0.248 NA
ATOM     51  C   UNL     1      -3.852   0.201  -9.954  1.00  0.00     0.031 C 
ATOM     52  C   UNL     1      -2.430   0.765  -5.236  1.00  0.00     0.029 A 
ATOM     53  N   UNL     1      -4.518   0.372  -5.958  1.00  0.00    -0.354 N 
ATOM     54  C   UNL     1      -2.677  -1.779 -10.010  1.00  0.00     0.074 A 
ATOM     55  C   UNL     1      -3.556  -0.869 -10.710  1.00  0.00     0.031 C 
ATOM     56  C   UNL     1      -3.112   0.199  -4.221  1.00  0.00     0.029 A 
ATOM     57  C   UNL     1      -4.480  -0.076  -4.641  1.00  0.00     0.049 A 
ATOM     58  H   UNL     1      -5.341   0.404  -6.497  1.00  0.00     0.167 HD
ATOM     59  C   UNL     1      -2.117  -2.958 -10.383  1.00  0.00     0.037 A 
ATOM     60  C   UNL     1      -5.231  -1.103  -4.154  1.00  0.00     0.037 A 
ATOM     61  C   UNL     1      -1.274  -3.582  -9.409  1.00  0.00     0.049 A 
ATOM     62  C   UNL     1      -4.591  -2.283  -4.865  1.00  0.00     0.074 A 
ATOM     63  C   UNL     1       0.073  -3.715  -9.164  1.00  0.00     0.029 A 
ATOM     64  N   UNL     1      -1.883  -4.268  -8.385  1.00  0.00    -0.354 N 
ATOM     65  N   UNL     1      -3.460  -2.872  -4.557  1.00  0.00    -0.248 NA
ATOM     66  C   UNL     1      -5.079  -2.571  -6.215  1.00  0.00     0.031 C 
ATOM     67  C   UNL     1       0.171  -4.080  -7.784  1.00  0.00     0.029 A 
ATOM     68  C   UNL     1      -1.124  -4.069  -7.263  1.00  0.00     0.049 A 
ATOM     69  H   UNL     1      -2.708  -4.801  -8.447  1.00  0.00     0.167 HD
ATOM     70  C   UNL     1      -2.978  -3.411  -5.756  1.00  0.00     0.074 A 
ATOM     71  C   UNL     1      -4.022  -3.177  -6.733  1.00  0.00     0.031 C 
ATOM     72  C   UNL     1      -1.706  -3.876  -5.949  1.00  0.00     0.037 A 
BRANCH  59  73
ATOM     73  C   UNL     1      -2.453  -3.729 -11.592  1.00  0.00     0.064 A 
ATOM     74  C   UNL     1      -3.287  -4.845 -11.415  1.00  0.00     0.173 A 
ATOM     75  C   UNL     1      -1.771  -3.593 -12.802  1.00  0.00     0.173 A 
ATOM     76  F   UNL     1      -3.945  -5.011 -10.255  1.00  0.00    -0.203 F 
ATOM     77  C   UNL     1      -3.380  -5.832 -12.385  1.00  0.00     0.198 A 
ATOM     78  C   UNL     1      -1.883  -4.577 -13.785  1.00  0.00     0.198 A 
ATOM     79  F   UNL     1      -0.951  -2.551 -13.006  1.00  0.00    -0.203 F 
ATOM     80  F   UNL     1      -4.117  -6.926 -12.150  1.00  0.00    -0.200 F 
ATOM     81  C   UNL     1      -2.668  -5.704 -13.566  1.00  0.00     0.200 A 
ATOM     82  F   UNL     1      -1.195  -4.462 -14.929  1.00  0.00    -0.200 F 
ATOM     83  F   UNL     1      -2.720  -6.679 -14.483  1.00  0.00    -0.200 F 
ENDBRANCH  59  73
BRANCH  60  84
ATOM     84  C   UNL     1      -6.710  -0.832  -4.131  1.00  0.00     0.064 A 
ATOM     85  C   UNL     1      -7.159   0.391  -3.582  1.00  0.00     0.173 A 
ATOM     86  C   UNL     1      -7.710  -1.679  -4.629  1.00  0.00     0.173 A 
ATOM     87  F   UNL     1      -6.292   1.214  -2.971  1.00  0.00    -0.203 F 
ATOM     88  C   UNL     1      -8.489   0.802  -3.669  1.00  0.00     0.198 A 
ATOM     89  C   UNL     1      -9.040  -1.258  -4.739  1.00  0.00     0.198 A 
ATOM     90  F   UNL     1      -7.422  -2.920  -5.042  1.00  0.00    -0.203 F 
ATOM     91  F   UNL     1      -8.853   1.998  -3.187  1.00  0.00    -0.200 F 
ATOM     92  C   UNL     1      -9.424  -0.010  -4.282  1.00  0.00     0.200 A 
ATOM     93  F   UNL     1      -9.943  -2.059  -5.324  1.00  0.00    -0.200 F 
ATOM     94  F   UNL     1     -10.688   0.407  -4.432  1.00  0.00    -0.200 F 
ENDBRANCH  60  84
BRANCH  72  95
ATOM     95  C   UNL     1      -0.828  -4.017  -4.750  1.00  0.00     0.064 A 
ATOM     96  C   UNL     1      -1.139  -4.938  -3.741  1.00  0.00     0.173 A 
ATOM     97  C   UNL     1       0.403  -3.348  -4.660  1.00  0.00     0.173 A 
ATOM     98  F   UNL     1      -2.290  -5.626  -3.780  1.00  0.00    -0.203 F 
ATOM     99  C   UNL     1      -0.241  -5.198  -2.708  1.00  0.00     0.198 A 
ATOM    100  C   UNL     1       1.319  -3.648  -3.657  1.00  0.00     0.198 A 
ATOM    101  F   UNL     1       0.730  -2.387  -5.540  1.00  0.00    -0.203 F 
ATOM    102  F   UNL     1      -0.559  -6.084  -1.754  1.00  0.00    -0.200 F 
ATOM    103  C   UNL     1       0.996  -4.571  -2.679  1.00  0.00     0.200 A 
ATOM    104  F   UNL     1       2.510  -3.031  -3.635  1.00  0.00    -0.200 F 
ATOM    105  F   UNL     1       1.876  -4.854  -1.709  1.00  0.00    -0.200 F 
ENDBRANCH  72  95
ENDBRANCH  46  47
ENDBRANCH  38  41
ENDBRANCH  36  37
ENDBRANCH  35  36
ENDBRANCH  34  35
ENDBRANCH   3  34
TORSDOF 16
