REMARK SMILES CC(C)[C@@H]([NH3+])C(=O)N[C@@H](Cc1ccccc1)C(=O)NCCCNC(=O)c1ccc(-c2c3nc(c(-c4c(F)c(F)c(F)c(F)c4F)c4ccc([nH]4)c(-c4c(F)c(F)c(F)c(F)c4F)c4nc(c(-c5c(F)c(F)c(F)c(F)c5F)c5ccc2[nH]5)C=C4)C=C3)cc1
REMARK SMILES IDX 20 1 19 2 17 3 18 4 9 6 8 7 6 8 7 9 4 11 2 12 1 13 3 14 5 15
REMARK SMILES IDX 10 19 11 20 12 21 16 22 13 23 15 24 14 25 21 26 22 27 23 28
REMARK SMILES IDX 24 29 25 31 26 32 27 33 88 34 28 35 87 36 29 37 30 38 31 39
REMARK SMILES IDX 81 40 32 41 86 42 80 43 82 44 33 45 85 46 79 47 78 48 34 50
REMARK SMILES IDX 66 51 46 52 65 53 47 54 50 55 64 56 83 57 48 58 49 59 63 61
REMARK SMILES IDX 84 62 51 63 35 64 36 65 44 66 37 67 38 68 42 69 45 70 39 71
REMARK SMILES IDX 40 72 43 73 41 74 67 75 68 76 76 77 69 78 70 79 74 80 77 81
REMARK SMILES IDX 71 82 72 83 75 84 73 85 52 86 53 87 61 88 54 89 55 90 59 91
REMARK SMILES IDX 62 92 56 93 57 94 60 95 58 96
REMARK H PARENT 19 5 8 10 5 16 5 17 5 18 23 30 82 49 50 60
REMARK Flexibility Score: inf
ROOT
ATOM      1  C   UNL     1      -1.756   5.461  -3.798  1.00  0.00     0.117 C 
ENDROOT
BRANCH   1   2
ATOM      2  N   UNL     1      -1.739   5.398  -2.355  1.00  0.00    -0.354 N 
ATOM      3  C   UNL     1      -0.847   4.740  -1.556  1.00  0.00     0.242 C 
ATOM      4  O   UNL     1      -0.641   5.236  -0.443  1.00  0.00    -0.273 OA
ATOM      5  H   UNL     1      -2.455   5.888  -1.892  1.00  0.00     0.163 HD
BRANCH   3   6
ATOM      6  C   UNL     1      -0.032   3.514  -2.036  1.00  0.00     0.175 C 
BRANCH   6   7
ATOM      7  N   UNL     1      -0.820   2.534  -2.798  1.00  0.00    -0.339 N 
ATOM      8  C   UNL     1      -1.269   1.299  -2.443  1.00  0.00     0.279 C 
ATOM      9  O   UNL     1      -2.067   0.747  -3.207  1.00  0.00    -0.268 OA
ATOM     10  H   UNL     1      -1.061   2.816  -3.710  1.00  0.00     0.164 HD
BRANCH   8  11
ATOM     11  C   UNL     1      -0.799   0.592  -1.151  1.00  0.00     0.273 C 
BRANCH  11  12
ATOM     12  C   UNL     1       0.727   0.325  -1.132  1.00  0.00     0.051 C 
ATOM     13  C   UNL     1       1.180  -0.379   0.151  1.00  0.00     0.014 C 
ATOM     14  C   UNL     1       1.155  -0.510  -2.346  1.00  0.00     0.014 C 
ENDBRANCH  11  12
BRANCH  11  15
ATOM     15  N   UNL     1      -1.282   1.361   0.013  1.00  0.00    -0.347 N 
ATOM     16  H   UNL     1      -0.882   2.299  -0.009  1.00  0.00     0.345 HD
ATOM     17  H   UNL     1      -0.997   0.891   0.873  1.00  0.00     0.345 HD
ATOM     18  H   UNL     1      -2.299   1.425  -0.019  1.00  0.00     0.345 HD
ENDBRANCH  11  15
ENDBRANCH   8  11
ENDBRANCH   6   7
BRANCH   6  19
ATOM     19  C   UNL     1       1.324   3.862  -2.698  1.00  0.00     0.070 C 
BRANCH  19  20
ATOM     20  C   UNL     1       1.301   4.607  -4.014  1.00  0.00    -0.045 A 
ATOM     21  C   UNL     1       1.568   5.984  -4.049  1.00  0.00     0.004 A 
ATOM     22  C   UNL     1       0.961   3.954  -5.210  1.00  0.00     0.004 A 
ATOM     23  C   UNL     1       1.424   6.706  -5.237  1.00  0.00     0.000 A 
ATOM     24  C   UNL     1       0.798   4.683  -6.393  1.00  0.00     0.000 A 
ATOM     25  C   UNL     1       1.017   6.059  -6.402  1.00  0.00     0.000 A 
ENDBRANCH  19  20
ENDBRANCH   6  19
ENDBRANCH   3   6
ENDBRANCH   1   2
BRANCH   1  26
ATOM     26  C   UNL     1      -3.132   5.555  -4.413  1.00  0.00     0.042 C 
BRANCH  26  27
ATOM     27  C   UNL     1      -3.760   6.925  -4.238  1.00  0.00     0.118 C 
BRANCH  27  28
ATOM     28  N   UNL     1      -3.017   7.991  -4.909  1.00  0.00    -0.352 N 
ATOM     29  C   UNL     1      -3.297   8.728  -6.037  1.00  0.00     0.251 C 
ATOM     30  H   UNL     1      -2.163   8.223  -4.477  1.00  0.00     0.163 HD
ATOM     31  O   UNL     1      -2.440   9.458  -6.518  1.00  0.00    -0.269 OA
BRANCH  29  32
ATOM     32  C   UNL     1      -4.618   8.613  -6.692  1.00  0.00     0.039 A 
ATOM     33  C   UNL     1      -4.696   8.622  -8.087  1.00  0.00     0.014 A 
ATOM     34  C   UNL     1      -5.777   8.479  -5.933  1.00  0.00     0.014 A 
ATOM     35  C   UNL     1      -5.924   8.389  -8.712  1.00  0.00     0.010 A 
ATOM     36  C   UNL     1      -6.962   8.106  -6.546  1.00  0.00     0.010 A 
ATOM     37  C   UNL     1      -7.055   8.070  -7.944  1.00  0.00    -0.014 A 
BRANCH  37  38
ATOM     38  C   UNL     1      -8.360   7.722  -8.559  1.00  0.00     0.031 A 
ATOM     39  C   UNL     1      -9.582   8.531  -8.218  1.00  0.00     0.074 A 
ATOM     40  C   UNL     1      -8.467   6.625  -9.332  1.00  0.00     0.049 A 
ATOM     41  N   UNL     1     -10.836   8.311  -8.520  1.00  0.00    -0.248 NA
ATOM     42  C   UNL     1      -9.370   9.722  -7.378  1.00  0.00     0.031 C 
ATOM     43  C   UNL     1      -7.370   5.724  -9.688  1.00  0.00     0.029 A 
ATOM     44  N   UNL     1      -9.561   6.075  -9.952  1.00  0.00    -0.354 N 
ATOM     45  C   UNL     1     -11.557   9.308  -7.876  1.00  0.00     0.074 A 
ATOM     46  C   UNL     1     -10.612  10.090  -7.111  1.00  0.00     0.031 C 
ATOM     47  C   UNL     1      -7.835   4.762 -10.501  1.00  0.00     0.029 A 
ATOM     48  C   UNL     1      -9.270   4.950 -10.684  1.00  0.00     0.049 A 
ATOM     49  H   UNL     1     -10.468   6.451  -9.879  1.00  0.00     0.167 HD
ATOM     50  C   UNL     1     -12.883   9.572  -7.943  1.00  0.00     0.037 A 
ATOM     51  C   UNL     1     -10.075   4.162 -11.421  1.00  0.00     0.037 A 
ATOM     52  C   UNL     1     -13.809   8.826  -8.751  1.00  0.00     0.049 A 
ATOM     53  C   UNL     1     -11.542   4.484 -11.496  1.00  0.00     0.074 A 
ATOM     54  C   UNL     1     -15.158   9.051  -8.953  1.00  0.00     0.029 A 
ATOM     55  N   UNL     1     -13.471   7.709  -9.501  1.00  0.00    -0.354 N 
ATOM     56  N   UNL     1     -12.205   5.462 -10.931  1.00  0.00    -0.248 NA
ATOM     57  C   UNL     1     -12.372   3.588 -12.314  1.00  0.00     0.031 C 
ATOM     58  C   UNL     1     -15.644   8.050  -9.801  1.00  0.00     0.029 A 
ATOM     59  C   UNL     1     -14.589   7.225 -10.159  1.00  0.00     0.049 A 
ATOM     60  H   UNL     1     -12.569   7.318  -9.558  1.00  0.00     0.167 HD
ATOM     61  C   UNL     1     -13.522   5.321 -11.346  1.00  0.00     0.074 A 
ATOM     62  C   UNL     1     -13.561   4.165 -12.219  1.00  0.00     0.031 C 
ATOM     63  C   UNL     1     -14.601   6.080 -11.034  1.00  0.00     0.037 A 
BRANCH  50  64
ATOM     64  C   UNL     1     -13.396  10.725  -7.127  1.00  0.00     0.064 A 
ATOM     65  C   UNL     1     -13.050  12.052  -7.429  1.00  0.00     0.173 A 
ATOM     66  C   UNL     1     -14.229  10.502  -6.021  1.00  0.00     0.173 A 
ATOM     67  F   UNL     1     -12.242  12.319  -8.467  1.00  0.00    -0.203 F 
ATOM     68  C   UNL     1     -13.478  13.106  -6.627  1.00  0.00     0.198 A 
ATOM     69  C   UNL     1     -14.684  11.563  -5.242  1.00  0.00     0.198 A 
ATOM     70  F   UNL     1     -14.595   9.255  -5.690  1.00  0.00    -0.203 F 
ATOM     71  F   UNL     1     -13.072  14.355  -6.894  1.00  0.00    -0.200 F 
ATOM     72  C   UNL     1     -14.298  12.861  -5.537  1.00  0.00     0.200 A 
ATOM     73  F   UNL     1     -15.486  11.326  -4.194  1.00  0.00    -0.200 F 
ATOM     74  F   UNL     1     -14.704  13.876  -4.762  1.00  0.00    -0.200 F 
ENDBRANCH  50  64
BRANCH  51  75
ATOM     75  C   UNL     1      -9.499   3.032 -12.194  1.00  0.00     0.064 A 
ATOM     76  C   UNL     1      -9.403   3.107 -13.591  1.00  0.00     0.173 A 
ATOM     77  C   UNL     1      -9.022   1.873 -11.567  1.00  0.00     0.173 A 
ATOM     78  F   UNL     1      -9.864   4.189 -14.236  1.00  0.00    -0.203 F 
ATOM     79  C   UNL     1      -8.862   2.060 -14.333  1.00  0.00     0.198 A 
ATOM     80  C   UNL     1      -8.459   0.836 -12.309  1.00  0.00     0.198 A 
ATOM     81  F   UNL     1      -9.086   1.756 -10.233  1.00  0.00    -0.203 F 
ATOM     82  F   UNL     1      -8.813   2.144 -15.669  1.00  0.00    -0.200 F 
ATOM     83  C   UNL     1      -8.385   0.927 -13.691  1.00  0.00     0.200 A 
ATOM     84  F   UNL     1      -7.988  -0.252 -11.684  1.00  0.00    -0.200 F 
ATOM     85  F   UNL     1      -7.858  -0.077 -14.404  1.00  0.00    -0.200 F 
ENDBRANCH  51  75
BRANCH  63  86
ATOM     86  C   UNL     1     -15.905   5.710 -11.673  1.00  0.00     0.064 A 
ATOM     87  C   UNL     1     -16.631   4.582 -11.262  1.00  0.00     0.173 A 
ATOM     88  C   UNL     1     -16.455   6.519 -12.679  1.00  0.00     0.173 A 
ATOM     89  F   UNL     1     -16.137   3.770 -10.316  1.00  0.00    -0.203 F 
ATOM     90  C   UNL     1     -17.852   4.266 -11.851  1.00  0.00     0.198 A 
ATOM     91  C   UNL     1     -17.689   6.215 -13.246  1.00  0.00     0.198 A 
ATOM     92  F   UNL     1     -15.801   7.611 -13.101  1.00  0.00    -0.203 F 
ATOM     93  F   UNL     1     -18.509   3.161 -11.474  1.00  0.00    -0.200 F 
ATOM     94  C   UNL     1     -18.383   5.086 -12.836  1.00  0.00     0.200 A 
ATOM     95  F   UNL     1     -18.206   7.014 -14.189  1.00  0.00    -0.200 F 
ATOM     96  F   UNL     1     -19.562   4.785 -13.396  1.00  0.00    -0.200 F 
ENDBRANCH  63  86
ENDBRANCH  37  38
ENDBRANCH  29  32
ENDBRANCH  27  28
ENDBRANCH  26  27
ENDBRANCH   1  26
TORSDOF 16
