REMARK SMILES COc1ccc([C@H]2C[NH2+]C[C@@H]2C(=O)NCCCNC(=O)c2ccc(-c3c4nc(c(-c5c(F)c(F)c(F)c(F)c5F)c5ccc([nH]5)c(-c5c(F)c(F)c(F)c(F)c5F)c5nc(c(-c6c(F)c(F)c(F)c(F)c6F)c6ccc3[nH]6)C=C5)C=C4)cc2)cc1OC
REMARK SMILES IDX 16 1 15 2 14 3 12 4 13 5 11 7 7 8 8 9 9 10 10 11 6 14 3 15
REMARK SMILES IDX 4 16 85 17 5 18 84 19 2 20 1 21 86 22 87 23 17 24 18 25
REMARK SMILES IDX 19 26 20 28 21 29 22 30 83 31 23 32 82 33 24 34 25 35 26 36
REMARK SMILES IDX 76 37 27 38 81 39 75 40 77 41 28 42 80 43 74 44 73 45 29 47
REMARK SMILES IDX 61 48 41 49 60 50 42 51 45 52 59 53 78 54 43 55 44 56 58 58
REMARK SMILES IDX 79 59 46 60 30 61 31 62 39 63 32 64 33 65 37 66 40 67 34 68
REMARK SMILES IDX 35 69 38 70 36 71 62 72 63 73 71 74 64 75 65 76 69 77 72 78
REMARK SMILES IDX 66 79 67 80 70 81 68 82 47 83 48 84 56 85 49 86 50 87 54 88
REMARK SMILES IDX 57 89 51 90 52 91 55 92 53 93
REMARK H PARENT 14 6 9 12 9 13 18 27 77 46 45 57
REMARK Flexibility Score: inf
ROOT
ATOM      1  C   UNL     1       3.147  -0.698  -7.835  1.00  0.00     0.042 C 
ENDROOT
BRANCH   1   2
ATOM      2  C   UNL     1       3.825  -1.981  -7.375  1.00  0.00     0.117 C 
BRANCH   2   3
ATOM      3  N   UNL     1       3.952  -2.051  -5.926  1.00  0.00    -0.356 N 
ATOM      4  C   UNL     1       3.337  -2.912  -5.052  1.00  0.00     0.229 C 
ATOM      5  O   UNL     1       3.533  -2.778  -3.847  1.00  0.00    -0.275 OA
ATOM      6  H   UNL     1       4.559  -1.392  -5.519  1.00  0.00     0.163 HD
BRANCH   4   7
ATOM      7  C   UNL     1       2.425  -3.972  -5.645  1.00  0.00     0.146 C 
ATOM      8  C   UNL     1       1.580  -4.746  -4.619  1.00  0.00     0.092 C 
ATOM      9  C   UNL     1       2.553  -5.883  -4.271  1.00  0.00     0.269 C 
ATOM     10  N   UNL     1       3.125  -6.296  -5.563  1.00  0.00    -0.345 N 
ATOM     11  C   UNL     1       3.264  -5.052  -6.336  1.00  0.00     0.274 C 
ATOM     12  H   UNL     1       2.500  -6.946  -6.040  1.00  0.00     0.346 HD
ATOM     13  H   UNL     1       4.017  -6.777  -5.450  1.00  0.00     0.346 HD
BRANCH   8  14
ATOM     14  C   UNL     1       0.227  -5.256  -5.147  1.00  0.00    -0.034 A 
ATOM     15  C   UNL     1      -2.317  -6.138  -6.059  1.00  0.00     0.160 A 
ATOM     16  C   UNL     1      -1.789  -6.598  -4.846  1.00  0.00     0.051 A 
ATOM     17  C   UNL     1      -1.597  -5.217  -6.816  1.00  0.00     0.161 A 
ATOM     18  C   UNL     1      -0.536  -6.158  -4.392  1.00  0.00     0.008 A 
ATOM     19  C   UNL     1      -0.340  -4.803  -6.351  1.00  0.00     0.054 A 
BRANCH  15  20
ATOM     20  O   UNL     1      -3.588  -6.518  -6.387  1.00  0.00    -0.493 OA
ATOM     21  C   UNL     1      -3.607  -7.780  -7.054  1.00  0.00     0.278 C 
ENDBRANCH  15  20
BRANCH  17  22
ATOM     22  O   UNL     1      -1.936  -4.584  -7.979  1.00  0.00    -0.493 OA
ATOM     23  C   UNL     1      -3.068  -5.022  -8.705  1.00  0.00     0.278 C 
ENDBRANCH  17  22
ENDBRANCH   8  14
ENDBRANCH   4   7
ENDBRANCH   2   3
ENDBRANCH   1   2
BRANCH   1  24
ATOM     24  C   UNL     1       3.971   0.556  -7.576  1.00  0.00     0.118 C 
BRANCH  24  25
ATOM     25  N   UNL     1       5.245   0.547  -8.285  1.00  0.00    -0.352 N 
ATOM     26  C   UNL     1       5.770   1.445  -9.177  1.00  0.00     0.251 C 
ATOM     27  H   UNL     1       5.819  -0.229  -8.092  1.00  0.00     0.163 HD
ATOM     28  O   UNL     1       6.791   1.156  -9.800  1.00  0.00    -0.269 OA
BRANCH  26  29
ATOM     29  C   UNL     1       5.112   2.747  -9.413  1.00  0.00     0.039 A 
ATOM     30  C   UNL     1       5.046   3.240 -10.719  1.00  0.00     0.014 A 
ATOM     31  C   UNL     1       4.582   3.493  -8.357  1.00  0.00     0.014 A 
ATOM     32  C   UNL     1       4.388   4.445 -10.973  1.00  0.00     0.010 A 
ATOM     33  C   UNL     1       3.853   4.649  -8.622  1.00  0.00     0.010 A 
ATOM     34  C   UNL     1       3.750   5.139  -9.932  1.00  0.00    -0.014 A 
BRANCH  34  35
ATOM     35  C   UNL     1       2.974   6.378 -10.195  1.00  0.00     0.031 A 
ATOM     36  C   UNL     1       3.402   7.684  -9.582  1.00  0.00     0.074 A 
ATOM     37  C   UNL     1       1.856   6.318 -10.945  1.00  0.00     0.049 A 
ATOM     38  N   UNL     1       2.818   8.854  -9.633  1.00  0.00    -0.248 NA
ATOM     39  C   UNL     1       4.641   7.668  -8.787  1.00  0.00     0.031 C 
ATOM     40  C   UNL     1       1.318   5.107 -11.567  1.00  0.00     0.029 A 
ATOM     41  N   UNL     1       0.965   7.299 -11.306  1.00  0.00    -0.354 N 
ATOM     42  C   UNL     1       3.615   9.709  -8.883  1.00  0.00     0.074 A 
ATOM     43  C   UNL     1       4.688   8.911  -8.331  1.00  0.00     0.031 C 
ATOM     44  C   UNL     1       0.208   5.421 -12.255  1.00  0.00     0.029 A 
ATOM     45  C   UNL     1      -0.072   6.843 -12.084  1.00  0.00     0.049 A 
ATOM     46  H   UNL     1       1.061   8.240 -11.034  1.00  0.00     0.167 HD
ATOM     47  C   UNL     1       3.483  11.044  -8.697  1.00  0.00     0.037 A 
ATOM     48  C   UNL     1      -1.135   7.497 -12.590  1.00  0.00     0.037 A 
ATOM     49  C   UNL     1       2.420  11.839  -9.255  1.00  0.00     0.049 A 
ATOM     50  C   UNL     1      -1.283   8.972 -12.319  1.00  0.00     0.074 A 
ATOM     51  C   UNL     1       2.209  13.201  -9.138  1.00  0.00     0.029 A 
ATOM     52  N   UNL     1       1.389  11.340 -10.037  1.00  0.00    -0.354 N 
ATOM     53  N   UNL     1      -0.492   9.778 -11.654  1.00  0.00    -0.248 NA
ATOM     54  C   UNL     1      -2.472   9.629 -12.879  1.00  0.00     0.031 C 
ATOM     55  C   UNL     1       1.026  13.521  -9.811  1.00  0.00     0.029 A 
ATOM     56  C   UNL     1       0.531  12.367 -10.397  1.00  0.00     0.049 A 
ATOM     57  H   UNL     1       1.282  10.397 -10.297  1.00  0.00     0.167 HD
ATOM     58  C   UNL     1      -1.064  11.040 -11.751  1.00  0.00     0.074 A 
ATOM     59  C   UNL     1      -2.259  10.896 -12.554  1.00  0.00     0.031 C 
ATOM     60  C   UNL     1      -0.640  12.213 -11.221  1.00  0.00     0.037 A 
BRANCH  47  61
ATOM     61  C   UNL     1       4.527  11.739  -7.871  1.00  0.00     0.064 A 
ATOM     62  C   UNL     1       5.839  11.905  -8.341  1.00  0.00     0.173 A 
ATOM     63  C   UNL     1       4.201  12.298  -6.626  1.00  0.00     0.173 A 
ATOM     64  F   UNL     1       6.205  11.379  -9.520  1.00  0.00    -0.203 F 
ATOM     65  C   UNL     1       6.791  12.585  -7.586  1.00  0.00     0.198 A 
ATOM     66  C   UNL     1       5.148  13.006  -5.888  1.00  0.00     0.198 A 
ATOM     67  F   UNL     1       2.960  12.175  -6.132  1.00  0.00    -0.203 F 
ATOM     68  F   UNL     1       8.048  12.693  -8.037  1.00  0.00    -0.200 F 
ATOM     69  C   UNL     1       6.442  13.143  -6.366  1.00  0.00     0.200 A 
ATOM     70  F   UNL     1       4.805  13.559  -4.717  1.00  0.00    -0.200 F 
ATOM     71  F   UNL     1       7.356  13.812  -5.648  1.00  0.00    -0.200 F 
ENDBRANCH  47  61
BRANCH  48  72
ATOM     72  C   UNL     1      -2.145   6.778 -13.413  1.00  0.00     0.064 A 
ATOM     73  C   UNL     1      -2.325   7.094 -14.768  1.00  0.00     0.173 A 
ATOM     74  C   UNL     1      -2.988   5.806 -12.856  1.00  0.00     0.173 A 
ATOM     75  F   UNL     1      -1.557   8.031 -15.345  1.00  0.00    -0.203 F 
ATOM     76  C   UNL     1      -3.335   6.498 -15.520  1.00  0.00     0.198 A 
ATOM     77  C   UNL     1      -3.974   5.184 -13.619  1.00  0.00     0.198 A 
ATOM     78  F   UNL     1      -2.857   5.461 -11.566  1.00  0.00    -0.203 F 
ATOM     79  F   UNL     1      -3.531   6.874 -16.792  1.00  0.00    -0.200 F 
ATOM     80  C   UNL     1      -4.158   5.541 -14.945  1.00  0.00     0.200 A 
ATOM     81  F   UNL     1      -4.756   4.248 -13.064  1.00  0.00    -0.200 F 
ATOM     82  F   UNL     1      -5.136   4.976 -15.666  1.00  0.00    -0.200 F 
ENDBRANCH  48  72
BRANCH  60  83
ATOM     83  C   UNL     1      -1.436  13.445 -11.544  1.00  0.00     0.064 A 
ATOM     84  C   UNL     1      -2.721  13.656 -11.022  1.00  0.00     0.173 A 
ATOM     85  C   UNL     1      -0.889  14.444 -12.366  1.00  0.00     0.173 A 
ATOM     86  F   UNL     1      -3.295  12.726 -10.244  1.00  0.00    -0.203 F 
ATOM     87  C   UNL     1      -3.441  14.805 -11.337  1.00  0.00     0.198 A 
ATOM     88  C   UNL     1      -1.598  15.608 -12.648  1.00  0.00     0.198 A 
ATOM     89  F   UNL     1       0.339  14.296 -12.885  1.00  0.00    -0.203 F 
ATOM     90  F   UNL     1      -4.689  14.958 -10.874  1.00  0.00    -0.200 F 
ATOM     91  C   UNL     1      -2.877  15.783 -12.142  1.00  0.00     0.200 A 
ATOM     92  F   UNL     1      -1.044  16.559 -13.413  1.00  0.00    -0.200 F 
ATOM     93  F   UNL     1      -3.569  16.892 -12.438  1.00  0.00    -0.200 F 
ENDBRANCH  60  83
ENDBRANCH  34  35
ENDBRANCH  26  29
ENDBRANCH  24  25
ENDBRANCH   1  24
TORSDOF 13
