REMARK SMILES Cc1ccccc1-c1nc(CC(=O)NCCCNC(=O)c2ccc(-c3c4nc(c(-c5c(F)c(F)c(F)c(F)c5F)c5ccc([nH]5)c(-c5c(F)c(F)c(F)c(F)c5F)c5nc(c(-c6c(F)c(F)c(F)c(F)c6F)c6ccc3[nH]6)C=C5)C=C4)cc2)cs1
REMARK SMILES IDX 16 1 15 2 14 3 12 4 13 5 11 7 10 8 8 9 9 10 85 11 84 12 7 13
REMARK SMILES IDX 1 14 2 15 3 16 4 17 6 18 5 19 17 20 18 21 19 22 20 24 21 25
REMARK SMILES IDX 22 26 83 27 23 28 82 29 24 30 25 31 26 32 76 33 27 34 81 35
REMARK SMILES IDX 75 36 77 37 28 38 80 39 74 40 73 41 29 43 61 44 41 45 60 46
REMARK SMILES IDX 42 47 45 48 59 49 78 50 43 51 44 52 58 54 79 55 46 56 30 57
REMARK SMILES IDX 31 58 39 59 32 60 33 61 37 62 40 63 34 64 35 65 38 66 36 67
REMARK SMILES IDX 62 68 63 69 71 70 64 71 65 72 69 73 72 74 66 75 67 76 70 77
REMARK SMILES IDX 68 78 47 79 48 80 56 81 49 82 50 83 54 84 57 85 51 86 52 87
REMARK SMILES IDX 55 88 53 89
REMARK H PARENT 14 6 18 23 77 42 45 53
REMARK Flexibility Score: inf
ROOT
ATOM      1  C   UNL     1       0.072   4.077  -2.934  1.00  0.00     0.042 C 
ENDROOT
BRANCH   1   2
ATOM      2  C   UNL     1       1.331   4.485  -3.692  1.00  0.00     0.117 C 
BRANCH   2   3
ATOM      3  N   UNL     1       1.900   5.731  -3.192  1.00  0.00    -0.356 N 
ATOM      4  C   UNL     1       2.825   5.911  -2.199  1.00  0.00     0.226 C 
ATOM      5  O   UNL     1       3.124   7.066  -1.883  1.00  0.00    -0.275 OA
ATOM      6  H   UNL     1       1.575   6.552  -3.627  1.00  0.00     0.163 HD
BRANCH   4   7
ATOM      7  C   UNL     1       3.467   4.718  -1.516  1.00  0.00     0.157 C 
BRANCH   7   8
ATOM      8  C   UNL     1       2.552   4.096  -0.516  1.00  0.00     0.061 A 
ATOM      9  C   UNL     1       1.196   2.465   0.154  1.00  0.00     0.123 A 
ATOM     10  N   UNL     1       2.053   2.828  -0.780  1.00  0.00    -0.241 NA
ATOM     11  S   UNL     1       1.000   3.594   1.438  1.00  0.00    -0.122 S 
ATOM     12  C   UNL     1       2.105   4.653   0.667  1.00  0.00     0.091 A 
BRANCH   9  13
ATOM     13  C   UNL     1       0.434   1.210   0.140  1.00  0.00     0.013 A 
ATOM     14  C   UNL     1       2.573  -0.205   0.080  1.00  0.00     0.045 C 
ATOM     15  C   UNL     1       1.076  -0.045   0.095  1.00  0.00    -0.041 A 
ATOM     16  C   UNL     1       0.295  -1.214   0.030  1.00  0.00     0.004 A 
ATOM     17  C   UNL     1      -1.098  -1.147   0.017  1.00  0.00     0.000 A 
ATOM     18  C   UNL     1      -0.974   1.257   0.118  1.00  0.00     0.011 A 
ATOM     19  C   UNL     1      -1.734   0.088   0.060  1.00  0.00     0.001 A 
ENDBRANCH   9  13
ENDBRANCH   7   8
ENDBRANCH   4   7
ENDBRANCH   2   3
ENDBRANCH   1   2
BRANCH   1  20
ATOM     20  C   UNL     1      -1.174   4.844  -3.337  1.00  0.00     0.118 C 
BRANCH  20  21
ATOM     21  N   UNL     1      -1.949   4.238  -4.411  1.00  0.00    -0.352 N 
ATOM     22  C   UNL     1      -3.090   4.700  -5.050  1.00  0.00     0.251 C 
ATOM     23  H   UNL     1      -1.612   3.371  -4.731  1.00  0.00     0.163 HD
ATOM     24  O   UNL     1      -3.633   4.011  -5.896  1.00  0.00    -0.269 OA
BRANCH  22  25
ATOM     25  C   UNL     1      -3.576   6.083  -4.798  1.00  0.00     0.039 A 
ATOM     26  C   UNL     1      -4.026   6.843  -5.888  1.00  0.00     0.014 A 
ATOM     27  C   UNL     1      -3.432   6.685  -3.555  1.00  0.00     0.014 A 
ATOM     28  C   UNL     1      -4.087   8.233  -5.785  1.00  0.00     0.010 A 
ATOM     29  C   UNL     1      -3.361   8.057  -3.485  1.00  0.00     0.010 A 
ATOM     30  C   UNL     1      -3.637   8.835  -4.615  1.00  0.00    -0.014 A 
BRANCH  30  31
ATOM     31  C   UNL     1      -3.310  10.248  -4.469  1.00  0.00     0.031 A 
ATOM     32  C   UNL     1      -4.079  11.100  -3.535  1.00  0.00     0.074 A 
ATOM     33  C   UNL     1      -2.126  10.672  -4.964  1.00  0.00     0.049 A 
ATOM     34  N   UNL     1      -3.951  12.379  -3.435  1.00  0.00    -0.248 NA
ATOM     35  C   UNL     1      -5.098  10.563  -2.641  1.00  0.00     0.031 C 
ATOM     36  C   UNL     1      -1.348  11.830  -4.529  1.00  0.00     0.029 A 
ATOM     37  N   UNL     1      -1.448  10.207  -6.104  1.00  0.00    -0.354 N 
ATOM     38  C   UNL     1      -4.621  12.789  -2.301  1.00  0.00     0.074 A 
ATOM     39  C   UNL     1      -5.377  11.631  -1.889  1.00  0.00     0.031 C 
ATOM     40  C   UNL     1      -0.489  12.169  -5.503  1.00  0.00     0.029 A 
ATOM     41  C   UNL     1      -0.821  11.352  -6.655  1.00  0.00     0.049 A 
ATOM     42  H   UNL     1      -1.415   9.284  -6.447  1.00  0.00     0.167 HD
ATOM     43  C   UNL     1      -4.341  14.023  -1.787  1.00  0.00     0.037 A 
ATOM     44  C   UNL     1      -1.192  11.855  -7.869  1.00  0.00     0.037 A 
ATOM     45  C   UNL     1      -3.446  14.761  -2.681  1.00  0.00     0.049 A 
ATOM     46  C   UNL     1      -1.660  13.289  -7.823  1.00  0.00     0.074 A 
ATOM     47  C   UNL     1      -2.082  15.000  -2.662  1.00  0.00     0.029 A 
ATOM     48  N   UNL     1      -3.892  15.121  -3.949  1.00  0.00    -0.354 N 
ATOM     49  N   UNL     1      -2.130  13.864  -6.752  1.00  0.00    -0.248 NA
ATOM     50  C   UNL     1      -1.653  14.177  -8.980  1.00  0.00     0.031 C 
ATOM     51  C   UNL     1      -1.701  15.474  -3.942  1.00  0.00     0.029 A 
ATOM     52  C   UNL     1      -2.836  15.537  -4.733  1.00  0.00     0.049 A 
ATOM     53  H   UNL     1      -4.831  15.085  -4.244  1.00  0.00     0.167 HD
ATOM     54  C   UNL     1      -2.494  15.153  -7.048  1.00  0.00     0.074 A 
ATOM     55  C   UNL     1      -2.162  15.304  -8.452  1.00  0.00     0.031 C 
ATOM     56  C   UNL     1      -3.045  15.974  -6.106  1.00  0.00     0.037 A 
BRANCH  43  57
ATOM     57  C   UNL     1      -4.640  14.484  -0.368  1.00  0.00     0.064 A 
ATOM     58  C   UNL     1      -3.897  15.540   0.215  1.00  0.00     0.173 A 
ATOM     59  C   UNL     1      -5.585  13.905   0.498  1.00  0.00     0.173 A 
ATOM     60  F   UNL     1      -3.036  16.273  -0.502  1.00  0.00    -0.203 F 
ATOM     61  C   UNL     1      -4.010  15.893   1.564  1.00  0.00     0.198 A 
ATOM     62  C   UNL     1      -5.670  14.229   1.858  1.00  0.00     0.198 A 
ATOM     63  F   UNL     1      -6.513  13.051   0.060  1.00  0.00    -0.203 F 
ATOM     64  F   UNL     1      -3.263  16.893   2.054  1.00  0.00    -0.200 F 
ATOM     65  C   UNL     1      -4.873  15.215   2.395  1.00  0.00     0.200 A 
ATOM     66  F   UNL     1      -6.544  13.577   2.640  1.00  0.00    -0.200 F 
ATOM     67  F   UNL     1      -4.960  15.528   3.695  1.00  0.00    -0.200 F 
ENDBRANCH  43  57
BRANCH  44  68
ATOM     68  C   UNL     1      -1.733  10.817  -8.785  1.00  0.00     0.064 A 
ATOM     69  C   UNL     1      -0.864   9.800  -9.223  1.00  0.00     0.173 A 
ATOM     70  C   UNL     1      -3.110  10.580  -8.877  1.00  0.00     0.173 A 
ATOM     71  F   UNL     1       0.465   9.979  -9.152  1.00  0.00    -0.203 F 
ATOM     72  C   UNL     1      -1.349   8.553  -9.612  1.00  0.00     0.198 A 
ATOM     73  C   UNL     1      -3.592   9.334  -9.281  1.00  0.00     0.198 A 
ATOM     74  F   UNL     1      -3.987  11.505  -8.461  1.00  0.00    -0.203 F 
ATOM     75  F   UNL     1      -0.492   7.565  -9.908  1.00  0.00    -0.200 F 
ATOM     76  C   UNL     1      -2.712   8.312  -9.609  1.00  0.00     0.200 A 
ATOM     77  F   UNL     1      -4.910   9.087  -9.251  1.00  0.00    -0.200 F 
ATOM     78  F   UNL     1      -3.178   7.084  -9.878  1.00  0.00    -0.200 F 
ENDBRANCH  44  68
BRANCH  56  79
ATOM     79  C   UNL     1      -3.739  17.297  -6.351  1.00  0.00     0.064 A 
ATOM     80  C   UNL     1      -4.330  17.664  -7.571  1.00  0.00     0.173 A 
ATOM     81  C   UNL     1      -3.965  18.197  -5.278  1.00  0.00     0.173 A 
ATOM     82  F   UNL     1      -4.306  16.850  -8.634  1.00  0.00    -0.203 F 
ATOM     83  C   UNL     1      -5.031  18.865  -7.726  1.00  0.00     0.198 A 
ATOM     84  C   UNL     1      -4.718  19.363  -5.421  1.00  0.00     0.198 A 
ATOM     85  F   UNL     1      -3.491  17.960  -4.047  1.00  0.00    -0.203 F 
ATOM     86  F   UNL     1      -5.537  19.185  -8.925  1.00  0.00    -0.200 F 
ATOM     87  C   UNL     1      -5.236  19.706  -6.650  1.00  0.00     0.200 A 
ATOM     88  F   UNL     1      -4.955  20.137  -4.352  1.00  0.00    -0.200 F 
ATOM     89  F   UNL     1      -5.951  20.830  -6.792  1.00  0.00    -0.200 F 
ENDBRANCH  56  79
ENDBRANCH  30  31
ENDBRANCH  22  25
ENDBRANCH  20  21
ENDBRANCH   1  20
TORSDOF 12
