REMARK SMILES Cc1ccc2c(CC(=O)N3CCC(C(=O)NCCCNC(=O)c4ccc(-c5c6nc(c(-c7c(F)c(F)c(F)c(F)c7F)c7ccc([nH]7)c(-c7c(F)c(F)c(F)c(F)c7F)c7nc(c(-c8c(F)c(F)c(F)c(F)c8F)c8ccc5[nH]8)C=C7)C=C6)cc4)CC3)coc2c1
REMARK SMILES IDX 18 1 17 2 16 3 14 4 15 5 13 7 8 8 9 9 10 10 11 11 87 12
REMARK SMILES IDX 12 13 86 14 7 15 6 16 1 17 2 18 3 19 91 20 4 21 90 22 5 23
REMARK SMILES IDX 89 24 88 25 19 26 20 27 21 28 22 30 23 31 24 32 85 33 25 34
REMARK SMILES IDX 84 35 26 36 27 37 28 38 78 39 29 40 83 41 77 42 79 43 30 44
REMARK SMILES IDX 82 45 76 46 75 47 31 49 63 50 43 51 62 52 44 53 47 54 61 55
REMARK SMILES IDX 80 56 45 57 46 58 60 60 81 61 48 62 32 63 33 64 41 65 34 66
REMARK SMILES IDX 35 67 39 68 42 69 36 70 37 71 40 72 38 73 64 74 65 75 73 76
REMARK SMILES IDX 66 77 67 78 71 79 74 80 68 81 69 82 72 83 70 84 49 85 50 86
REMARK SMILES IDX 58 87 51 88 52 89 56 90 59 91 53 92 54 93 57 94 55 95
REMARK H PARENT 16 6 20 29 79 48 47 59
REMARK Flexibility Score: inf
ROOT
ATOM      1  C   UNL     1       3.639   4.940   9.620  1.00  0.00     0.042 C 
ENDROOT
BRANCH   1   2
ATOM      2  C   UNL     1       3.748   4.515   8.156  1.00  0.00     0.117 C 
BRANCH   2   3
ATOM      3  N   UNL     1       4.989   3.806   7.889  1.00  0.00    -0.356 N 
ATOM      4  C   UNL     1       5.259   2.508   7.607  1.00  0.00     0.223 C 
ATOM      5  O   UNL     1       6.447   2.188   7.505  1.00  0.00    -0.275 OA
ATOM      6  H   UNL     1       5.788   4.381   7.918  1.00  0.00     0.163 HD
BRANCH   4   7
ATOM      7  C   UNL     1       4.168   1.475   7.381  1.00  0.00     0.082 C 
ATOM      8  C   UNL     1       0.208   1.585   7.306  1.00  0.00     0.227 C 
ATOM      9  O   UNL     1      -0.029   2.148   8.382  1.00  0.00    -0.275 OA
ATOM     10  N   UNL     1       1.378   0.850   7.139  1.00  0.00    -0.342 N 
ATOM     11  C   UNL     1       2.085   0.372   8.320  1.00  0.00     0.120 C 
ATOM     12  C   UNL     1       2.196   0.839   5.932  1.00  0.00     0.120 C 
ATOM     13  C   UNL     1       3.306   1.229   8.626  1.00  0.00     0.035 C 
ATOM     14  C   UNL     1       3.377   1.789   6.105  1.00  0.00     0.035 C 
BRANCH   8  15
ATOM     15  C   UNL     1      -0.895   1.499   6.250  1.00  0.00     0.139 C 
BRANCH  15  16
ATOM     16  C   UNL     1      -0.590   2.055   4.907  1.00  0.00     0.008 A 
ATOM     17  C   UNL     1       0.906   0.054  -0.209  1.00  0.00     0.044 C 
ATOM     18  C   UNL     1       0.382   0.507   1.124  1.00  0.00    -0.047 A 
ATOM     19  C   UNL     1      -0.051  -0.439   2.065  1.00  0.00     0.004 A 
ATOM     20  C   UNL     1       0.400   1.874   1.450  1.00  0.00     0.051 A 
ATOM     21  C   UNL     1      -0.460  -0.055   3.349  1.00  0.00     0.012 A 
ATOM     22  C   UNL     1      -0.003   2.223   2.738  1.00  0.00     0.134 A 
ATOM     23  C   UNL     1      -0.410   1.307   3.698  1.00  0.00     0.024 A 
ATOM     24  O   UNL     1      -0.017   3.482   3.256  1.00  0.00    -0.464 OA
ATOM     25  C   UNL     1      -0.386   3.376   4.559  1.00  0.00     0.200 A 
ENDBRANCH  15  16
ENDBRANCH   8  15
ENDBRANCH   4   7
ENDBRANCH   2   3
ENDBRANCH   1   2
BRANCH   1  26
ATOM     26  C   UNL     1       4.810   5.796  10.108  1.00  0.00     0.118 C 
BRANCH  26  27
ATOM     27  N   UNL     1       5.013   7.017   9.353  1.00  0.00    -0.352 N 
ATOM     28  C   UNL     1       4.460   8.266   9.383  1.00  0.00     0.251 C 
ATOM     29  H   UNL     1       5.708   6.926   8.662  1.00  0.00     0.163 HD
ATOM     30  O   UNL     1       4.969   9.106   8.633  1.00  0.00    -0.269 OA
BRANCH  28  31
ATOM     31  C   UNL     1       3.263   8.652  10.179  1.00  0.00     0.039 A 
ATOM     32  C   UNL     1       2.607   7.836  11.101  1.00  0.00     0.014 A 
ATOM     33  C   UNL     1       2.718   9.918   9.899  1.00  0.00     0.014 A 
ATOM     34  C   UNL     1       1.362   8.193  11.602  1.00  0.00     0.010 A 
ATOM     35  C   UNL     1       1.493  10.302  10.431  1.00  0.00     0.010 A 
ATOM     36  C   UNL     1       0.781   9.399  11.218  1.00  0.00    -0.014 A 
BRANCH  36  37
ATOM     37  C   UNL     1      -0.600   9.639  11.619  1.00  0.00     0.031 A 
ATOM     38  C   UNL     1      -0.888   9.790  13.078  1.00  0.00     0.074 A 
ATOM     39  C   UNL     1      -1.567   9.813  10.697  1.00  0.00     0.049 A 
ATOM     40  N   UNL     1      -1.799   9.206  13.795  1.00  0.00    -0.248 NA
ATOM     41  C   UNL     1      -0.025  10.705  13.840  1.00  0.00     0.031 C 
ATOM     42  C   UNL     1      -1.425   9.967   9.246  1.00  0.00     0.029 A 
ATOM     43  N   UNL     1      -2.896  10.011  10.902  1.00  0.00    -0.354 N 
ATOM     44  C   UNL     1      -1.703   9.755  15.074  1.00  0.00     0.074 A 
ATOM     45  C   UNL     1      -0.556  10.630  15.060  1.00  0.00     0.031 C 
ATOM     46  C   UNL     1      -2.572  10.471   8.743  1.00  0.00     0.029 A 
ATOM     47  C   UNL     1      -3.554  10.549   9.811  1.00  0.00     0.049 A 
ATOM     48  H   UNL     1      -3.349   9.791  11.748  1.00  0.00     0.167 HD
ATOM     49  C   UNL     1      -2.628   9.554  16.055  1.00  0.00     0.037 A 
ATOM     50  C   UNL     1      -4.777  11.127   9.823  1.00  0.00     0.037 A 
ATOM     51  C   UNL     1      -3.441   8.397  15.818  1.00  0.00     0.049 A 
ATOM     52  C   UNL     1      -5.495  10.645  11.031  1.00  0.00     0.074 A 
ATOM     53  C   UNL     1      -3.181   7.042  15.747  1.00  0.00     0.029 A 
ATOM     54  N   UNL     1      -4.705   8.547  15.308  1.00  0.00    -0.354 N 
ATOM     55  N   UNL     1      -5.895   9.415  11.206  1.00  0.00    -0.248 NA
ATOM     56  C   UNL     1      -5.391  11.444  12.243  1.00  0.00     0.031 C 
ATOM     57  C   UNL     1      -4.062   6.548  14.740  1.00  0.00     0.029 A 
ATOM     58  C   UNL     1      -4.814   7.633  14.288  1.00  0.00     0.049 A 
ATOM     59  H   UNL     1      -5.395   9.180  15.611  1.00  0.00     0.167 HD
ATOM     60  C   UNL     1      -5.704   9.166  12.558  1.00  0.00     0.074 A 
ATOM     61  C   UNL     1      -5.480  10.477  13.158  1.00  0.00     0.031 C 
ATOM     62  C   UNL     1      -5.468   7.905  13.030  1.00  0.00     0.037 A 
BRANCH  49  63
ATOM     63  C   UNL     1      -2.896  10.526  17.168  1.00  0.00     0.064 A 
ATOM     64  C   UNL     1      -3.544  10.117  18.349  1.00  0.00     0.173 A 
ATOM     65  C   UNL     1      -2.731  11.918  17.008  1.00  0.00     0.173 A 
ATOM     66  F   UNL     1      -3.797   8.820  18.576  1.00  0.00    -0.203 F 
ATOM     67  C   UNL     1      -3.999  11.041  19.296  1.00  0.00     0.198 A 
ATOM     68  C   UNL     1      -3.141  12.833  17.975  1.00  0.00     0.198 A 
ATOM     69  F   UNL     1      -2.248  12.434  15.869  1.00  0.00    -0.203 F 
ATOM     70  F   UNL     1      -4.681  10.616  20.368  1.00  0.00    -0.200 F 
ATOM     71  C   UNL     1      -3.791  12.397  19.112  1.00  0.00     0.200 A 
ATOM     72  F   UNL     1      -2.952  14.144  17.768  1.00  0.00    -0.200 F 
ATOM     73  F   UNL     1      -4.253  13.284  20.003  1.00  0.00    -0.200 F 
ENDBRANCH  49  63
BRANCH  50  74
ATOM     74  C   UNL     1      -5.172  12.334   9.062  1.00  0.00     0.064 A 
ATOM     75  C   UNL     1      -6.519  12.670   8.876  1.00  0.00     0.173 A 
ATOM     76  C   UNL     1      -4.225  13.315   8.696  1.00  0.00     0.173 A 
ATOM     77  F   UNL     1      -7.484  11.820   9.257  1.00  0.00    -0.203 F 
ATOM     78  C   UNL     1      -6.896  13.911   8.351  1.00  0.00     0.198 A 
ATOM     79  C   UNL     1      -4.600  14.543   8.157  1.00  0.00     0.198 A 
ATOM     80  F   UNL     1      -2.917  13.139   8.937  1.00  0.00    -0.203 F 
ATOM     81  F   UNL     1      -8.195  14.220   8.235  1.00  0.00    -0.200 F 
ATOM     82  C   UNL     1      -5.937  14.846   7.992  1.00  0.00     0.200 A 
ATOM     83  F   UNL     1      -3.661  15.450   7.851  1.00  0.00    -0.200 F 
ATOM     84  F   UNL     1      -6.300  16.050   7.529  1.00  0.00    -0.200 F 
ENDBRANCH  50  74
BRANCH  62  85
ATOM     85  C   UNL     1      -5.610   6.750  12.074  1.00  0.00     0.064 A 
ATOM     86  C   UNL     1      -4.823   6.609  10.916  1.00  0.00     0.173 A 
ATOM     87  C   UNL     1      -6.435   5.671  12.419  1.00  0.00     0.173 A 
ATOM     88  F   UNL     1      -3.919   7.535  10.582  1.00  0.00    -0.203 F 
ATOM     89  C   UNL     1      -4.901   5.471  10.115  1.00  0.00     0.198 A 
ATOM     90  C   UNL     1      -6.482   4.517  11.638  1.00  0.00     0.198 A 
ATOM     91  F   UNL     1      -7.159   5.711  13.549  1.00  0.00    -0.203 F 
ATOM     92  F   UNL     1      -4.147   5.375   9.009  1.00  0.00    -0.200 F 
ATOM     93  C   UNL     1      -5.726   4.422  10.480  1.00  0.00     0.200 A 
ATOM     94  F   UNL     1      -7.239   3.480  12.025  1.00  0.00    -0.200 F 
ATOM     95  F   UNL     1      -5.768   3.308   9.736  1.00  0.00    -0.200 F 
ENDBRANCH  62  85
ENDBRANCH  36  37
ENDBRANCH  28  31
ENDBRANCH  26  27
ENDBRANCH   1  26
TORSDOF 12
