REMARK SMILES CC(C)(C)N(CC(=O)NCCCNC(=O)c1ccc(-c2c3nc(c(-c4c(F)c(F)c(F)c(F)c4F)c4ccc([nH]4)c(-c4c(F)c(F)c(F)c(F)c4F)c4nc(c(-c5c(F)c(F)c(F)c(F)c5F)c5ccc2[nH]5)C=C4)C=C3)cc1)C(=O)NC[C@H]1CCOC1
REMARK SMILES IDX 10 1 9 2 7 3 8 4 6 6 5 7 2 8 1 9 3 10 4 11 79 12 80 13 81 14
REMARK SMILES IDX 82 16 83 17 84 18 87 19 85 20 86 21 11 22 12 23 13 24 14 25
REMARK SMILES IDX 15 27 16 28 17 29 78 30 18 31 77 32 19 33 20 34 21 35 71 36
REMARK SMILES IDX 22 37 76 38 70 39 72 40 23 41 75 42 69 43 68 44 24 46 56 47
REMARK SMILES IDX 36 48 55 49 37 50 40 51 54 52 73 53 38 54 39 55 53 57 74 58
REMARK SMILES IDX 41 59 25 60 26 61 34 62 27 63 28 64 32 65 35 66 29 67 30 68
REMARK SMILES IDX 33 69 31 70 57 71 58 72 66 73 59 74 60 75 64 76 67 77 61 78
REMARK SMILES IDX 62 79 65 80 63 81 42 82 43 83 51 84 44 85 45 86 49 87 52 88
REMARK SMILES IDX 46 89 47 90 50 91 48 92
REMARK H PARENT 9 5 81 15 13 26 72 45 40 56
REMARK Flexibility Score: inf
ROOT
ATOM      1  C   UNL     1       3.038  -0.014  -5.740  1.00  0.00     0.117 C 
ENDROOT
BRANCH   1   2
ATOM      2  N   UNL     1       2.342   0.967  -4.943  1.00  0.00    -0.354 N 
ATOM      3  C   UNL     1       1.817   2.169  -5.302  1.00  0.00     0.239 C 
ATOM      4  O   UNL     1       1.048   2.689  -4.484  1.00  0.00    -0.273 OA
ATOM      5  H   UNL     1       2.231   0.730  -3.994  1.00  0.00     0.163 HD
BRANCH   3   6
ATOM      6  C   UNL     1       1.990   2.772  -6.711  1.00  0.00     0.221 C 
BRANCH   6   7
ATOM      7  N   UNL     1       3.334   2.851  -7.308  1.00  0.00    -0.311 N 
BRANCH   7   8
ATOM      8  C   UNL     1       3.564   2.267  -8.706  1.00  0.00     0.037 C 
ATOM      9  C   UNL     1       2.371   1.456  -9.285  1.00  0.00     0.034 C 
ATOM     10  C   UNL     1       4.778   1.305  -8.745  1.00  0.00     0.034 C 
ATOM     11  C   UNL     1       3.794   3.409  -9.729  1.00  0.00     0.034 C 
ENDBRANCH   7   8
BRANCH   7  12
ATOM     12  C   UNL     1       4.320   3.683  -6.818  1.00  0.00     0.318 C 
ATOM     13  O   UNL     1       5.450   3.735  -7.315  1.00  0.00    -0.249 OA
ATOM     14  N   UNL     1       4.185   4.534  -5.791  1.00  0.00    -0.338 N 
ATOM     15  H   UNL     1       5.036   5.007  -5.645  1.00  0.00     0.165 HD
BRANCH  14  16
ATOM     16  C   UNL     1       3.205   4.995  -4.819  1.00  0.00     0.123 C 
BRANCH  16  17
ATOM     17  C   UNL     1       3.558   4.620  -3.376  1.00  0.00     0.036 C 
ATOM     18  C   UNL     1       4.387   3.371  -3.149  1.00  0.00     0.036 C 
ATOM     19  C   UNL     1       4.409   5.667  -2.672  1.00  0.00     0.165 C 
ATOM     20  C   UNL     1       4.927   3.592  -1.752  1.00  0.00     0.160 C 
ATOM     21  O   UNL     1       5.059   5.007  -1.576  1.00  0.00    -0.381 OA
ENDBRANCH  16  17
ENDBRANCH  14  16
ENDBRANCH   7  12
ENDBRANCH   6   7
ENDBRANCH   3   6
ENDBRANCH   1   2
BRANCH   1  22
ATOM     22  C   UNL     1       4.533  -0.055  -5.465  1.00  0.00     0.042 C 
BRANCH  22  23
ATOM     23  C   UNL     1       4.887  -0.531  -4.061  1.00  0.00     0.118 C 
BRANCH  23  24
ATOM     24  N   UNL     1       4.468  -1.907  -3.815  1.00  0.00    -0.352 N 
ATOM     25  C   UNL     1       5.182  -3.078  -3.801  1.00  0.00     0.251 C 
ATOM     26  H   UNL     1       3.507  -2.013  -3.626  1.00  0.00     0.163 HD
ATOM     27  O   UNL     1       4.580  -4.151  -3.809  1.00  0.00    -0.269 OA
BRANCH  25  28
ATOM     28  C   UNL     1       6.660  -3.072  -3.790  1.00  0.00     0.039 A 
ATOM     29  C   UNL     1       7.352  -4.034  -4.535  1.00  0.00     0.014 A 
ATOM     30  C   UNL     1       7.371  -2.157  -3.012  1.00  0.00     0.014 A 
ATOM     31  C   UNL     1       8.749  -4.026  -4.560  1.00  0.00     0.010 A 
ATOM     32  C   UNL     1       8.757  -2.092  -3.109  1.00  0.00     0.010 A 
ATOM     33  C   UNL     1       9.463  -3.027  -3.881  1.00  0.00    -0.014 A 
BRANCH  33  34
ATOM     34  C   UNL     1      10.944  -2.929  -3.944  1.00  0.00     0.031 A 
ATOM     35  C   UNL     1      11.754  -3.040  -2.681  1.00  0.00     0.074 A 
ATOM     36  C   UNL     1      11.548  -2.632  -5.110  1.00  0.00     0.049 A 
ATOM     37  N   UNL     1      13.027  -2.802  -2.487  1.00  0.00    -0.248 NA
ATOM     38  C   UNL     1      11.027  -3.439  -1.466  1.00  0.00     0.031 C 
ATOM     39  C   UNL     1      10.871  -2.465  -6.397  1.00  0.00     0.029 A 
ATOM     40  N   UNL     1      12.869  -2.388  -5.397  1.00  0.00    -0.354 N 
ATOM     41  C   UNL     1      13.242  -2.989  -1.128  1.00  0.00     0.074 A 
ATOM     42  C   UNL     1      11.963  -3.318  -0.537  1.00  0.00     0.031 C 
ATOM     43  C   UNL     1      11.780  -2.153  -7.335  1.00  0.00     0.029 A 
ATOM     44  C   UNL     1      13.094  -2.048  -6.709  1.00  0.00     0.049 A 
ATOM     45  H   UNL     1      13.587  -2.451  -4.726  1.00  0.00     0.167 HD
ATOM     46  C   UNL     1      14.406  -2.910  -0.439  1.00  0.00     0.037 A 
ATOM     47  C   UNL     1      14.226  -1.667  -7.331  1.00  0.00     0.037 A 
ATOM     48  C   UNL     1      15.681  -2.619  -1.039  1.00  0.00     0.049 A 
ATOM     49  C   UNL     1      15.504  -1.579  -6.541  1.00  0.00     0.074 A 
ATOM     50  C   UNL     1      16.928  -2.584  -0.440  1.00  0.00     0.029 A 
ATOM     51  N   UNL     1      15.871  -2.314  -2.379  1.00  0.00    -0.354 N 
ATOM     52  N   UNL     1      15.707  -1.812  -5.267  1.00  0.00    -0.248 NA
ATOM     53  C   UNL     1      16.711  -1.173  -7.275  1.00  0.00     0.031 C 
ATOM     54  C   UNL     1      17.867  -2.212  -1.407  1.00  0.00     0.029 A 
ATOM     55  C   UNL     1      17.213  -2.068  -2.620  1.00  0.00     0.049 A 
ATOM     56  H   UNL     1      15.159  -2.278  -3.057  1.00  0.00     0.167 HD
ATOM     57  C   UNL     1      17.065  -1.615  -5.054  1.00  0.00     0.074 A 
ATOM     58  C   UNL     1      17.640  -1.251  -6.332  1.00  0.00     0.031 C 
ATOM     59  C   UNL     1      17.772  -1.726  -3.903  1.00  0.00     0.037 A 
BRANCH  46  60
ATOM     60  C   UNL     1      14.356  -3.143   1.044  1.00  0.00     0.064 A 
ATOM     61  C   UNL     1      14.095  -4.412   1.583  1.00  0.00     0.173 A 
ATOM     62  C   UNL     1      14.616  -2.093   1.938  1.00  0.00     0.173 A 
ATOM     63  F   UNL     1      13.830  -5.448   0.773  1.00  0.00    -0.203 F 
ATOM     64  C   UNL     1      14.064  -4.613   2.960  1.00  0.00     0.198 A 
ATOM     65  C   UNL     1      14.616  -2.305   3.314  1.00  0.00     0.198 A 
ATOM     66  F   UNL     1      14.879  -0.861   1.476  1.00  0.00    -0.203 F 
ATOM     67  F   UNL     1      13.762  -5.823   3.452  1.00  0.00    -0.200 F 
ATOM     68  C   UNL     1      14.333  -3.562   3.824  1.00  0.00     0.200 A 
ATOM     69  F   UNL     1      14.891  -1.292   4.147  1.00  0.00    -0.200 F 
ATOM     70  F   UNL     1      14.312  -3.760   5.149  1.00  0.00    -0.200 F 
ENDBRANCH  46  60
BRANCH  47  71
ATOM     71  C   UNL     1      14.206  -1.349  -8.783  1.00  0.00     0.064 A 
ATOM     72  C   UNL     1      14.844  -2.185  -9.709  1.00  0.00     0.173 A 
ATOM     73  C   UNL     1      13.557  -0.206  -9.274  1.00  0.00     0.173 A 
ATOM     74  F   UNL     1      15.495  -3.278  -9.286  1.00  0.00    -0.203 F 
ATOM     75  C   UNL     1      14.852  -1.880 -11.069  1.00  0.00     0.198 A 
ATOM     76  C   UNL     1      13.541   0.083 -10.637  1.00  0.00     0.198 A 
ATOM     77  F   UNL     1      12.928   0.625  -8.430  1.00  0.00    -0.203 F 
ATOM     78  F   UNL     1      15.511  -2.671 -11.926  1.00  0.00    -0.200 F 
ATOM     79  C   UNL     1      14.196  -0.750 -11.532  1.00  0.00     0.200 A 
ATOM     80  F   UNL     1      12.894   1.168 -11.083  1.00  0.00    -0.200 F 
ATOM     81  F   UNL     1      14.202  -0.459 -12.840  1.00  0.00    -0.200 F 
ENDBRANCH  47  71
BRANCH  59  82
ATOM     82  C   UNL     1      19.254  -1.502  -3.975  1.00  0.00     0.064 A 
ATOM     83  C   UNL     1      19.798  -0.221  -4.140  1.00  0.00     0.173 A 
ATOM     84  C   UNL     1      20.139  -2.578  -3.811  1.00  0.00     0.173 A 
ATOM     85  F   UNL     1      18.994   0.838  -4.316  1.00  0.00    -0.203 F 
ATOM     86  C   UNL     1      21.177  -0.028  -4.154  1.00  0.00     0.198 A 
ATOM     87  C   UNL     1      21.516  -2.377  -3.796  1.00  0.00     0.198 A 
ATOM     88  F   UNL     1      19.667  -3.823  -3.643  1.00  0.00    -0.203 F 
ATOM     89  F   UNL     1      21.678   1.200  -4.351  1.00  0.00    -0.200 F 
ATOM     90  C   UNL     1      22.034  -1.103  -3.972  1.00  0.00     0.200 A 
ATOM     91  F   UNL     1      22.341  -3.416  -3.605  1.00  0.00    -0.200 F 
ATOM     92  F   UNL     1      23.360  -0.912  -3.971  1.00  0.00    -0.200 F 
ENDBRANCH  59  82
ENDBRANCH  33  34
ENDBRANCH  25  28
ENDBRANCH  23  24
ENDBRANCH  22  23
ENDBRANCH   1  22
TORSDOF 15
