REMARK SMILES Cc1ccc(NC(=O)CN2C(=O)S/C(=C\c3cc(Cl)c(OCC(=O)NCCCNC(=O)c4ccc(-c5c6nc(c(-c7c(F)c(F)c(F)c(F)c7F)c7ccc([nH]7)c(-c7c(F)c(F)c(F)c(F)c7F)c7nc(c(-c8c(F)c(F)c(F)c(F)c8F)c8ccc5[nH]8)C=C7)C=C6)cc4)c(Cl)c3)C2=O)cc1
REMARK SMILES IDX 23 1 24 2 25 3 22 5 21 6 20 7 16 8 17 9 97 10 18 11 95 12
REMARK SMILES IDX 19 13 96 14 15 15 10 16 11 17 98 18 12 19 13 20 14 21 99 22
REMARK SMILES IDX 9 23 7 24 6 25 8 27 5 28 1 29 2 30 3 31 101 32 4 33 100 34
REMARK SMILES IDX 26 35 27 36 28 37 29 38 30 39 31 41 32 42 33 43 94 44 34 45
REMARK SMILES IDX 93 46 35 47 36 48 37 49 87 50 38 51 92 52 86 53 88 54 39 55
REMARK SMILES IDX 91 56 85 57 84 58 40 60 72 61 52 62 71 63 53 64 56 65 70 66
REMARK SMILES IDX 89 67 54 68 55 69 69 71 90 72 57 73 41 74 42 75 50 76 43 77
REMARK SMILES IDX 44 78 48 79 51 80 45 81 46 82 49 83 47 84 73 85 74 86 82 87
REMARK SMILES IDX 75 88 76 89 80 90 83 91 77 92 78 93 81 94 79 95 58 96 59 97
REMARK SMILES IDX 67 98 60 99 61 100 65 101 68 102 62 103 63 104 66 105 64 106
REMARK H PARENT 25 4 6 26 29 40 88 59 56 70
REMARK Flexibility Score: inf
ROOT
ATOM      1  C   UNL     1      -7.543  -3.213 -10.758  1.00  0.00     0.257 C 
ATOM      2  O   UNL     1      -8.308  -3.332  -9.800  1.00  0.00    -0.271 OA
ATOM      3  N   UNL     1      -7.551  -4.219 -11.681  1.00  0.00    -0.353 N 
ATOM      4  H   UNL     1      -8.113  -4.995 -11.454  1.00  0.00     0.163 HD
ENDROOT
BRANCH   1   5
ATOM      5  C   UNL     1      -6.630  -1.988 -10.949  1.00  0.00     0.329 C 
BRANCH   5   6
ATOM      6  O   UNL     1      -5.239  -2.168 -10.750  1.00  0.00    -0.481 OA
BRANCH   6   7
ATOM      7  C   UNL     1      -4.665  -2.317  -9.516  1.00  0.00     0.157 A 
ATOM      8  C   UNL     1      -3.130  -2.755  -7.133  1.00  0.00    -0.021 A 
ATOM      9  C   UNL     1      -2.523  -2.857  -8.378  1.00  0.00     0.032 A 
ATOM     10  C   UNL     1      -4.500  -2.469  -7.100  1.00  0.00     0.032 A 
ATOM     11  C   UNL     1      -3.285  -2.653  -9.547  1.00  0.00     0.085 A 
ATOM     12  C   UNL     1      -5.245  -2.177  -8.254  1.00  0.00     0.085 A 
ATOM     13  Cl  UNL     1      -2.445  -2.821 -11.059  1.00  0.00    -0.080 Cl
ATOM     14  Cl  UNL     1      -6.812  -1.550  -7.900  1.00  0.00    -0.080 Cl
BRANCH   8  15
ATOM     15  C   UNL     1      -2.420  -3.004  -5.861  1.00  0.00     0.029 C 
ATOM     16  N   UNL     1      -3.103  -2.064  -2.498  1.00  0.00    -0.259 N 
ATOM     17  C   UNL     1      -3.911  -1.105  -3.054  1.00  0.00     0.294 C 
ATOM     18  C   UNL     1      -2.302  -2.757  -3.386  1.00  0.00     0.268 C 
ATOM     19  O   UNL     1      -4.937  -0.633  -2.600  1.00  0.00    -0.261 OA
ATOM     20  S   UNL     1      -3.320  -0.699  -4.646  1.00  0.00    -0.022 SA
ATOM     21  C   UNL     1      -2.533  -2.228  -4.767  1.00  0.00     0.083 C 
ATOM     22  O   UNL     1      -1.638  -3.754  -3.139  1.00  0.00    -0.268 OA
BRANCH  16  23
ATOM     23  C   UNL     1      -3.439  -2.617  -1.195  1.00  0.00     0.230 C 
BRANCH  23  24
ATOM     24  C   UNL     1      -3.793  -1.548  -0.158  1.00  0.00     0.244 C 
ATOM     25  N   UNL     1      -2.978  -0.475   0.059  1.00  0.00    -0.325 N 
ATOM     26  H   UNL     1      -3.447   0.342   0.346  1.00  0.00     0.169 HD
ATOM     27  O   UNL     1      -4.845  -1.628   0.484  1.00  0.00    -0.273 OA
BRANCH  25  28
ATOM     28  C   UNL     1      -1.589  -0.334  -0.056  1.00  0.00     0.041 A 
ATOM     29  C   UNL     1       2.678   0.315  -0.037  1.00  0.00     0.044 C 
ATOM     30  C   UNL     1       1.193   0.105  -0.054  1.00  0.00    -0.051 A 
ATOM     31  C   UNL     1       0.675  -1.192   0.007  1.00  0.00     0.005 A 
ATOM     32  C   UNL     1       0.307   1.184  -0.114  1.00  0.00     0.005 A 
ATOM     33  C   UNL     1      -0.706  -1.410   0.007  1.00  0.00     0.026 A 
ATOM     34  C   UNL     1      -1.074   0.966  -0.100  1.00  0.00     0.026 A 
ENDBRANCH  25  28
ENDBRANCH  23  24
ENDBRANCH  16  23
ENDBRANCH   8  15
ENDBRANCH   6   7
ENDBRANCH   5   6
ENDBRANCH   1   5
BRANCH   3  35
ATOM     35  C   UNL     1      -6.852  -4.309 -12.948  1.00  0.00     0.117 C 
BRANCH  35  36
ATOM     36  C   UNL     1      -5.504  -4.993 -12.820  1.00  0.00     0.042 C 
BRANCH  36  37
ATOM     37  C   UNL     1      -5.598  -6.489 -12.550  1.00  0.00     0.118 C 
BRANCH  37  38
ATOM     38  N   UNL     1      -5.761  -7.309 -13.751  1.00  0.00    -0.352 N 
ATOM     39  C   UNL     1      -5.719  -8.686 -13.910  1.00  0.00     0.251 C 
ATOM     40  H   UNL     1      -5.928  -6.803 -14.578  1.00  0.00     0.163 HD
ATOM     41  O   UNL     1      -5.878  -9.180 -15.022  1.00  0.00    -0.269 OA
BRANCH  39  42
ATOM     42  C   UNL     1      -5.660  -9.564 -12.718  1.00  0.00     0.039 A 
ATOM     43  C   UNL     1      -6.598 -10.602 -12.632  1.00  0.00     0.014 A 
ATOM     44  C   UNL     1      -4.954  -9.164 -11.594  1.00  0.00     0.014 A 
ATOM     45  C   UNL     1      -7.062 -10.987 -11.381  1.00  0.00     0.010 A 
ATOM     46  C   UNL     1      -5.521  -9.411 -10.370  1.00  0.00     0.010 A 
ATOM     47  C   UNL     1      -6.627 -10.263 -10.280  1.00  0.00    -0.014 A 
BRANCH  47  48
ATOM     48  C   UNL     1      -7.272 -10.274  -8.981  1.00  0.00     0.031 A 
ATOM     49  C   UNL     1      -6.588 -10.956  -7.870  1.00  0.00     0.074 A 
ATOM     50  C   UNL     1      -8.349  -9.480  -8.787  1.00  0.00     0.049 A 
ATOM     51  N   UNL     1      -7.112 -11.160  -6.715  1.00  0.00    -0.248 NA
ATOM     52  C   UNL     1      -5.250 -11.531  -7.997  1.00  0.00     0.031 C 
ATOM     53  C   UNL     1      -8.894  -9.008  -7.516  1.00  0.00     0.029 A 
ATOM     54  N   UNL     1      -9.300  -9.070  -9.740  1.00  0.00    -0.354 N 
ATOM     55  C   UNL     1      -6.119 -11.607  -5.876  1.00  0.00     0.074 A 
ATOM     56  C   UNL     1      -5.023 -11.940  -6.746  1.00  0.00     0.031 C 
ATOM     57  C   UNL     1     -10.178  -8.656  -7.695  1.00  0.00     0.029 A 
ATOM     58  C   UNL     1     -10.535  -9.055  -9.044  1.00  0.00     0.049 A 
ATOM     59  H   UNL     1      -9.142  -8.843 -10.685  1.00  0.00     0.167 HD
ATOM     60  C   UNL     1      -6.330 -11.501  -4.535  1.00  0.00     0.037 A 
ATOM     61  C   UNL     1     -11.526  -9.946  -9.345  1.00  0.00     0.037 A 
ATOM     62  C   UNL     1      -7.745 -11.219  -4.280  1.00  0.00     0.049 A 
ATOM     63  C   UNL     1     -11.892 -10.839  -8.182  1.00  0.00     0.074 A 
ATOM     64  C   UNL     1      -8.441 -10.070  -3.949  1.00  0.00     0.029 A 
ATOM     65  N   UNL     1      -8.695 -12.151  -4.695  1.00  0.00    -0.354 N 
ATOM     66  N   UNL     1     -11.081 -11.122  -7.199  1.00  0.00    -0.248 NA
ATOM     67  C   UNL     1     -13.202 -11.461  -8.026  1.00  0.00     0.031 C 
ATOM     68  C   UNL     1      -9.812 -10.290  -4.260  1.00  0.00     0.029 A 
ATOM     69  C   UNL     1      -9.953 -11.585  -4.734  1.00  0.00     0.049 A 
ATOM     70  H   UNL     1      -8.496 -13.087  -4.929  1.00  0.00     0.167 HD
ATOM     71  C   UNL     1     -11.726 -11.921  -6.290  1.00  0.00     0.074 A 
ATOM     72  C   UNL     1     -13.052 -12.101  -6.854  1.00  0.00     0.031 C 
ATOM     73  C   UNL     1     -11.115 -12.363  -5.149  1.00  0.00     0.037 A 
BRANCH  60  74
ATOM     74  C   UNL     1      -5.260 -11.435  -3.459  1.00  0.00     0.064 A 
ATOM     75  C   UNL     1      -5.627 -11.150  -2.122  1.00  0.00     0.173 A 
ATOM     76  C   UNL     1      -3.866 -11.511  -3.668  1.00  0.00     0.173 A 
ATOM     77  F   UNL     1      -6.914 -11.059  -1.758  1.00  0.00    -0.203 F 
ATOM     78  C   UNL     1      -4.687 -10.923  -1.109  1.00  0.00     0.198 A 
ATOM     79  C   UNL     1      -2.929 -11.315  -2.649  1.00  0.00     0.198 A 
ATOM     80  F   UNL     1      -3.329 -11.742  -4.866  1.00  0.00    -0.203 F 
ATOM     81  F   UNL     1      -5.102 -10.604   0.125  1.00  0.00    -0.200 F 
ATOM     82  C   UNL     1      -3.337 -11.006  -1.373  1.00  0.00     0.200 A 
ATOM     83  F   UNL     1      -1.620 -11.404  -2.931  1.00  0.00    -0.200 F 
ATOM     84  F   UNL     1      -2.434 -10.780  -0.409  1.00  0.00    -0.200 F 
ENDBRANCH  60  74
BRANCH  61  85
ATOM     85  C   UNL     1     -11.521 -10.335 -10.783  1.00  0.00     0.064 A 
ATOM     86  C   UNL     1     -11.759  -9.317 -11.729  1.00  0.00     0.173 A 
ATOM     87  C   UNL     1     -10.863 -11.488 -11.225  1.00  0.00     0.173 A 
ATOM     88  F   UNL     1     -12.402  -8.198 -11.360  1.00  0.00    -0.203 F 
ATOM     89  C   UNL     1     -11.211  -9.376 -13.008  1.00  0.00     0.198 A 
ATOM     90  C   UNL     1     -10.341 -11.555 -12.520  1.00  0.00     0.198 A 
ATOM     91  F   UNL     1     -10.603 -12.492 -10.375  1.00  0.00    -0.203 F 
ATOM     92  F   UNL     1     -11.322  -8.324 -13.833  1.00  0.00    -0.200 F 
ATOM     93  C   UNL     1     -10.470 -10.480 -13.390  1.00  0.00     0.200 A 
ATOM     94  F   UNL     1      -9.609 -12.617 -12.890  1.00  0.00    -0.200 F 
ATOM     95  F   UNL     1      -9.841 -10.491 -14.574  1.00  0.00    -0.200 F 
ENDBRANCH  61  85
BRANCH  73  96
ATOM     96  C   UNL     1     -11.593 -13.493  -4.258  1.00  0.00     0.064 A 
ATOM     97  C   UNL     1     -12.474 -14.508  -4.670  1.00  0.00     0.173 A 
ATOM     98  C   UNL     1     -11.035 -13.676  -2.966  1.00  0.00     0.173 A 
ATOM     99  F   UNL     1     -12.968 -14.547  -5.914  1.00  0.00    -0.203 F 
ATOM    100  C   UNL     1     -12.832 -15.570  -3.834  1.00  0.00     0.198 A 
ATOM    101  C   UNL     1     -11.338 -14.775  -2.162  1.00  0.00     0.198 A 
ATOM    102  F   UNL     1     -10.148 -12.814  -2.450  1.00  0.00    -0.203 F 
ATOM    103  F   UNL     1     -13.718 -16.479  -4.262  1.00  0.00    -0.200 F 
ATOM    104  C   UNL     1     -12.255 -15.711  -2.587  1.00  0.00     0.200 A 
ATOM    105  F   UNL     1     -10.716 -14.931  -0.985  1.00  0.00    -0.200 F 
ATOM    106  F   UNL     1     -12.560 -16.760  -1.811  1.00  0.00    -0.200 F 
ENDBRANCH  73  96
ENDBRANCH  47  48
ENDBRANCH  39  42
ENDBRANCH  37  38
ENDBRANCH  36  37
ENDBRANCH  35  36
ENDBRANCH   3  35
TORSDOF 16
