REMARK SMILES CCc1ccc2c(CC(=O)NCCCNC(=O)c3ccc(-c4c5nc(c(-c6c(F)c(F)c(F)c(F)c6F)c6ccc([nH]6)c(-c6c(F)c(F)c(F)c(F)c6F)c6nc(c(-c7c(F)c(F)c(F)c(F)c7F)c7ccc4[nH]7)C=C6)C=C5)cc3)c(C(=O)c3cc(C)ccn3)[nH]c2c1
REMARK SMILES IDX 12 1 11 2 9 3 10 4 8 6 7 7 3 8 4 9 93 10 5 11 92 12 6 13
REMARK SMILES IDX 91 14 81 15 2 17 1 18 82 19 83 20 84 21 85 22 90 23 86 24
REMARK SMILES IDX 89 25 87 26 88 27 13 28 14 29 15 30 16 31 17 33 18 34 19 35
REMARK SMILES IDX 80 36 20 37 79 38 21 39 22 40 23 41 73 42 24 43 78 44 72 45
REMARK SMILES IDX 74 46 25 47 77 48 71 49 70 50 26 52 58 53 38 54 57 55 39 56
REMARK SMILES IDX 42 57 56 58 75 59 40 60 41 61 55 63 76 64 43 65 27 66 28 67
REMARK SMILES IDX 36 68 29 69 30 70 34 71 37 72 31 73 32 74 35 75 33 76 59 77
REMARK SMILES IDX 60 78 68 79 61 80 62 81 66 82 69 83 63 84 64 85 67 86 65 87
REMARK SMILES IDX 44 88 45 89 53 90 46 91 47 92 51 93 54 94 48 95 49 96 52 97
REMARK SMILES IDX 50 98
REMARK H PARENT 11 5 91 16 15 32 74 51 42 62
REMARK Flexibility Score: inf
ROOT
ATOM      1  C   UNL     1       1.675  -5.543   3.894  1.00  0.00     0.117 C 
ENDROOT
BRANCH   1   2
ATOM      2  N   UNL     1       2.016  -6.947   3.795  1.00  0.00    -0.356 N 
ATOM      3  C   UNL     1       2.729  -7.609   2.837  1.00  0.00     0.224 C 
ATOM      4  O   UNL     1       3.061  -8.768   3.100  1.00  0.00    -0.275 OA
ATOM      5  H   UNL     1       1.682  -7.510   4.530  1.00  0.00     0.163 HD
BRANCH   3   6
ATOM      6  C   UNL     1       3.205  -6.909   1.569  1.00  0.00     0.138 C 
BRANCH   6   7
ATOM      7  C   UNL     1       2.115  -6.324   0.709  1.00  0.00    -0.002 A 
ATOM      8  C   UNL     1       1.017  -2.385  -0.410  1.00  0.00    -0.046 A 
ATOM      9  C   UNL     1       2.203  -2.509   0.320  1.00  0.00     0.004 A 
ATOM     10  C   UNL     1       0.307  -3.546  -0.768  1.00  0.00     0.030 A 
ATOM     11  C   UNL     1       2.673  -3.761   0.738  1.00  0.00     0.011 A 
ATOM     12  C   UNL     1       0.795  -4.790  -0.343  1.00  0.00     0.046 A 
ATOM     13  C   UNL     1       1.952  -4.927   0.414  1.00  0.00     0.004 A 
ATOM     14  N   UNL     1       0.298  -6.053  -0.547  1.00  0.00    -0.352 N 
ATOM     15  C   UNL     1       1.122  -7.011   0.008  1.00  0.00     0.093 A 
ATOM     16  H   UNL     1      -0.538  -6.250  -1.028  1.00  0.00     0.167 HD
BRANCH   8  17
ATOM     17  C   UNL     1       0.499  -1.046  -0.893  1.00  0.00     0.032 C 
ATOM     18  C   UNL     1       0.872   0.161  -0.040  1.00  0.00     0.009 C 
ENDBRANCH   8  17
BRANCH  15  19
ATOM     19  C   UNL     1       0.938  -8.452  -0.129  1.00  0.00     0.227 C 
ATOM     20  O   UNL     1       1.697  -9.282   0.372  1.00  0.00    -0.285 OA
BRANCH  19  21
ATOM     21  C   UNL     1      -0.181  -8.964  -0.962  1.00  0.00     0.113 A 
ATOM     22  C   UNL     1      -0.172  -8.747  -2.338  1.00  0.00     0.036 A 
ATOM     23  N   UNL     1      -1.162  -9.634  -0.307  1.00  0.00    -0.253 NA
ATOM     24  C   UNL     1      -1.232  -9.249  -3.094  1.00  0.00    -0.047 A 
ATOM     25  C   UNL     1      -2.153 -10.142  -1.067  1.00  0.00     0.112 A 
ATOM     26  C   UNL     1      -1.295  -9.049  -4.578  1.00  0.00     0.044 C 
ATOM     27  C   UNL     1      -2.234  -9.973  -2.441  1.00  0.00     0.023 A 
ENDBRANCH  19  21
ENDBRANCH  15  19
ENDBRANCH   6   7
ENDBRANCH   3   6
ENDBRANCH   1   2
BRANCH   1  28
ATOM     28  C   UNL     1       0.211  -5.260   3.574  1.00  0.00     0.042 C 
BRANCH  28  29
ATOM     29  C   UNL     1      -0.782  -5.874   4.556  1.00  0.00     0.118 C 
BRANCH  29  30
ATOM     30  N   UNL     1      -0.656  -5.335   5.903  1.00  0.00    -0.352 N 
ATOM     31  C   UNL     1      -1.576  -4.723   6.715  1.00  0.00     0.251 C 
ATOM     32  H   UNL     1       0.242  -5.426   6.298  1.00  0.00     0.163 HD
ATOM     33  O   UNL     1      -1.202  -4.198   7.761  1.00  0.00    -0.269 OA
BRANCH  31  34
ATOM     34  C   UNL     1      -3.010  -4.665   6.349  1.00  0.00     0.039 A 
ATOM     35  C   UNL     1      -3.721  -3.491   6.626  1.00  0.00     0.014 A 
ATOM     36  C   UNL     1      -3.674  -5.763   5.797  1.00  0.00     0.014 A 
ATOM     37  C   UNL     1      -5.075  -3.398   6.297  1.00  0.00     0.010 A 
ATOM     38  C   UNL     1      -5.009  -5.648   5.409  1.00  0.00     0.010 A 
ATOM     39  C   UNL     1      -5.723  -4.466   5.658  1.00  0.00    -0.014 A 
BRANCH  39  40
ATOM     40  C   UNL     1      -7.143  -4.361   5.236  1.00  0.00     0.031 A 
ATOM     41  C   UNL     1      -8.190  -5.233   5.867  1.00  0.00     0.074 A 
ATOM     42  C   UNL     1      -7.475  -3.535   4.227  1.00  0.00     0.049 A 
ATOM     43  N   UNL     1      -9.462  -5.345   5.574  1.00  0.00    -0.248 NA
ATOM     44  C   UNL     1      -7.743  -6.120   6.951  1.00  0.00     0.031 C 
ATOM     45  C   UNL     1      -6.542  -2.679   3.496  1.00  0.00     0.029 A 
ATOM     46  N   UNL     1      -8.687  -3.296   3.629  1.00  0.00    -0.354 N 
ATOM     47  C   UNL     1      -9.960  -6.327   6.419  1.00  0.00     0.074 A 
ATOM     48  C   UNL     1      -8.845  -6.809   7.208  1.00  0.00     0.031 C 
ATOM     49  C   UNL     1      -7.214  -2.006   2.549  1.00  0.00     0.029 A 
ATOM     50  C   UNL     1      -8.618  -2.403   2.588  1.00  0.00     0.049 A 
ATOM     51  H   UNL     1      -9.525  -3.724   3.918  1.00  0.00     0.167 HD
ATOM     52  C   UNL     1     -11.233  -6.774   6.539  1.00  0.00     0.037 A 
ATOM     53  C   UNL     1      -9.576  -1.962   1.752  1.00  0.00     0.037 A 
ATOM     54  C   UNL     1     -12.346  -6.272   5.775  1.00  0.00     0.049 A 
ATOM     55  C   UNL     1     -10.988  -2.447   1.923  1.00  0.00     0.074 A 
ATOM     56  C   UNL     1     -13.686  -6.601   5.883  1.00  0.00     0.029 A 
ATOM     57  N   UNL     1     -12.245  -5.335   4.757  1.00  0.00    -0.354 N 
ATOM     58  N   UNL     1     -11.462  -3.322   2.775  1.00  0.00    -0.248 NA
ATOM     59  C   UNL     1     -11.999  -1.877   1.022  1.00  0.00     0.031 C 
ATOM     60  C   UNL     1     -14.391  -5.891   4.903  1.00  0.00     0.029 A 
ATOM     61  C   UNL     1     -13.496  -5.090   4.212  1.00  0.00     0.049 A 
ATOM     62  H   UNL     1     -11.408  -4.907   4.465  1.00  0.00     0.167 HD
ATOM     63  C   UNL     1     -12.825  -3.398   2.526  1.00  0.00     0.074 A 
ATOM     64  C   UNL     1     -13.105  -2.468   1.451  1.00  0.00     0.031 C 
ATOM     65  C   UNL     1     -13.758  -4.169   3.135  1.00  0.00     0.037 A 
BRANCH  52  66
ATOM     66  C   UNL     1     -11.486  -7.869   7.533  1.00  0.00     0.064 A 
ATOM     67  C   UNL     1     -11.420  -7.638   8.916  1.00  0.00     0.173 A 
ATOM     68  C   UNL     1     -11.807  -9.164   7.099  1.00  0.00     0.173 A 
ATOM     69  F   UNL     1     -11.106  -6.420   9.382  1.00  0.00    -0.203 F 
ATOM     70  C   UNL     1     -11.627  -8.672   9.826  1.00  0.00     0.198 A 
ATOM     71  C   UNL     1     -12.042 -10.188   8.012  1.00  0.00     0.198 A 
ATOM     72  F   UNL     1     -11.891  -9.437   5.788  1.00  0.00    -0.203 F 
ATOM     73  F   UNL     1     -11.502  -8.440  11.140  1.00  0.00    -0.200 F 
ATOM     74  C   UNL     1     -11.942  -9.944   9.374  1.00  0.00     0.200 A 
ATOM     75  F   UNL     1     -12.357 -11.415   7.575  1.00  0.00    -0.200 F 
ATOM     76  F   UNL     1     -12.139 -10.938  10.251  1.00  0.00    -0.200 F 
ENDBRANCH  52  66
BRANCH  53  77
ATOM     77  C   UNL     1      -9.220  -0.987   0.692  1.00  0.00     0.064 A 
ATOM     78  C   UNL     1      -9.583   0.361   0.804  1.00  0.00     0.173 A 
ATOM     79  C   UNL     1      -8.474  -1.375  -0.430  1.00  0.00     0.173 A 
ATOM     80  F   UNL     1     -10.313   0.773   1.851  1.00  0.00    -0.203 F 
ATOM     81  C   UNL     1      -9.216   1.287  -0.170  1.00  0.00     0.198 A 
ATOM     82  C   UNL     1      -8.088  -0.444  -1.392  1.00  0.00     0.198 A 
ATOM     83  F   UNL     1      -8.097  -2.653  -0.577  1.00  0.00    -0.203 F 
ATOM     84  F   UNL     1      -9.594   2.567  -0.051  1.00  0.00    -0.200 F 
ATOM     85  C   UNL     1      -8.461   0.885  -1.262  1.00  0.00     0.200 A 
ATOM     86  F   UNL     1      -7.347  -0.833  -2.438  1.00  0.00    -0.200 F 
ATOM     87  F   UNL     1      -8.095   1.779  -2.191  1.00  0.00    -0.200 F 
ENDBRANCH  53  77
BRANCH  65  88
ATOM     88  C   UNL     1     -15.174  -4.035   2.659  1.00  0.00     0.064 A 
ATOM     89  C   UNL     1     -15.589  -4.579   1.435  1.00  0.00     0.173 A 
ATOM     90  C   UNL     1     -16.135  -3.390   3.453  1.00  0.00     0.173 A 
ATOM     91  F   UNL     1     -14.703  -5.189   0.633  1.00  0.00    -0.203 F 
ATOM     92  C   UNL     1     -16.911  -4.465   1.014  1.00  0.00     0.198 A 
ATOM     93  C   UNL     1     -17.461  -3.300   3.040  1.00  0.00     0.198 A 
ATOM     94  F   UNL     1     -15.788  -2.857   4.634  1.00  0.00    -0.203 F 
ATOM     95  F   UNL     1     -17.277  -4.958  -0.178  1.00  0.00    -0.200 F 
ATOM     96  C   UNL     1     -17.847  -3.832   1.819  1.00  0.00     0.200 A 
ATOM     97  F   UNL     1     -18.366  -2.696   3.822  1.00  0.00    -0.200 F 
ATOM     98  F   UNL     1     -19.120  -3.729   1.414  1.00  0.00    -0.200 F 
ENDBRANCH  65  88
ENDBRANCH  39  40
ENDBRANCH  31  34
ENDBRANCH  29  30
ENDBRANCH  28  29
ENDBRANCH   1  28
TORSDOF 14
