REMARK SMILES COc1ccc2c(c1)c(Cc1nc(-c3ccc(C(=O)NCCCNC(=O)c4ccc(-c5c6nc(c(-c7c(F)c(F)c(F)c(F)c7F)c7ccc([nH]7)c(-c7c(F)c(F)c(F)c(F)c7F)c7nc(c(-c8c(F)c(F)c(F)c(F)c8F)c8ccc5[nH]8)C=C7)C=C6)cc4)cc3)cs1)c(C)n2C(=O)c1ccc(Cl)cc1
REMARK SMILES IDX 18 1 19 2 20 3 17 5 14 6 15 7 91 8 16 9 90 10 13 11 11 12
REMARK SMILES IDX 12 13 93 14 92 15 10 16 9 17 3 18 4 19 8 20 5 21 7 22 6 23
REMARK SMILES IDX 96 24 94 25 95 26 2 27 1 28 97 29 98 30 99 31 100 32 105 33
REMARK SMILES IDX 101 34 104 35 102 36 103 37 21 38 22 39 23 40 24 41 25 42
REMARK SMILES IDX 26 44 27 45 28 46 89 47 29 48 88 49 30 50 31 51 32 52 82 53
REMARK SMILES IDX 33 54 87 55 81 56 83 57 34 58 86 59 80 60 79 61 35 63 67 64
REMARK SMILES IDX 47 65 66 66 48 67 51 68 65 69 84 70 49 71 50 72 64 74 85 75
REMARK SMILES IDX 52 76 36 77 37 78 45 79 38 80 39 81 43 82 46 83 40 84 41 85
REMARK SMILES IDX 44 86 42 87 68 88 69 89 77 90 70 91 71 92 75 93 78 94 72 95
REMARK SMILES IDX 73 96 76 97 74 98 53 99 54 100 62 101 55 102 56 103 60 104
REMARK SMILES IDX 63 105 57 106 58 107 61 108 59 109
REMARK H PARENT 20 4 24 43 83 62 51 73
REMARK Flexibility Score: inf
ROOT
ATOM      1  C   UNL     1      -2.085   5.596  -4.476  1.00  0.00     0.251 C 
ATOM      2  O   UNL     1      -1.316   6.291  -5.142  1.00  0.00    -0.269 OA
ATOM      3  N   UNL     1      -3.059   4.901  -5.151  1.00  0.00    -0.352 N 
ATOM      4  H   UNL     1      -3.043   5.046  -6.125  1.00  0.00     0.163 HD
ENDROOT
BRANCH   1   5
ATOM      5  C   UNL     1      -1.965   5.612  -2.993  1.00  0.00     0.039 A 
ATOM      6  C   UNL     1      -1.885   5.897  -0.182  1.00  0.00     0.001 A 
ATOM      7  C   UNL     1      -1.466   6.942  -1.012  1.00  0.00     0.011 A 
ATOM      8  C   UNL     1      -2.229   4.674  -0.774  1.00  0.00     0.011 A 
ATOM      9  C   UNL     1      -1.513   6.802  -2.403  1.00  0.00     0.014 A 
ATOM     10  C   UNL     1      -2.236   4.522  -2.166  1.00  0.00     0.014 A 
BRANCH   6  11
ATOM     11  C   UNL     1      -1.942   6.037   1.267  1.00  0.00     0.081 A 
ATOM     12  C   UNL     1      -1.854   5.278   3.348  1.00  0.00     0.098 A 
ATOM     13  N   UNL     1      -1.907   4.923   2.081  1.00  0.00    -0.241 NA
ATOM     14  S   UNL     1      -2.033   6.961   3.640  1.00  0.00    -0.126 S 
ATOM     15  C   UNL     1      -2.071   7.234   1.945  1.00  0.00     0.095 A 
BRANCH  12  16
ATOM     16  C   UNL     1      -1.625   4.313   4.473  1.00  0.00     0.105 C 
BRANCH  16  17
ATOM     17  C   UNL     1      -0.179   3.887   4.550  1.00  0.00    -0.012 A 
ATOM     18  C   UNL     1       0.900   1.573   1.702  1.00  0.00     0.119 A 
ATOM     19  C   UNL     1       2.171   1.325   2.188  1.00  0.00     0.048 A 
ATOM     20  C   UNL     1       0.051   2.411   2.422  1.00  0.00     0.057 A 
ATOM     21  C   UNL     1       2.614   1.921   3.378  1.00  0.00     0.031 A 
ATOM     22  C   UNL     1       0.478   3.039   3.616  1.00  0.00     0.008 A 
ATOM     23  C   UNL     1       1.782   2.830   4.069  1.00  0.00     0.057 A 
ATOM     24  N   UNL     1       1.983   3.638   5.206  1.00  0.00    -0.280 N 
ATOM     25  C   UNL     1       0.749   4.234   5.524  1.00  0.00     0.028 A 
ATOM     26  C   UNL     1       0.479   5.123   6.698  1.00  0.00     0.065 C 
BRANCH  18  27
ATOM     27  O   UNL     1       0.369   1.074   0.544  1.00  0.00    -0.497 OA
ATOM     28  C   UNL     1       1.020  -0.059  -0.014  1.00  0.00     0.278 C 
ENDBRANCH  18  27
BRANCH  24  29
ATOM     29  C   UNL     1       3.216   3.811   5.907  1.00  0.00     0.262 C 
ATOM     30  O   UNL     1       3.230   4.415   6.969  1.00  0.00    -0.268 OA
BRANCH  29  31
ATOM     31  C   UNL     1       4.522   3.282   5.470  1.00  0.00     0.040 A 
ATOM     32  C   UNL     1       5.129   3.733   4.292  1.00  0.00     0.015 A 
ATOM     33  C   UNL     1       5.132   2.300   6.260  1.00  0.00     0.015 A 
ATOM     34  C   UNL     1       6.317   3.135   3.865  1.00  0.00     0.021 A 
ATOM     35  C   UNL     1       6.321   1.712   5.830  1.00  0.00     0.021 A 
ATOM     36  C   UNL     1       6.899   2.119   4.627  1.00  0.00     0.041 A 
ATOM     37  Cl  UNL     1       8.332   1.347   4.070  1.00  0.00    -0.084 Cl
ENDBRANCH  29  31
ENDBRANCH  24  29
ENDBRANCH  16  17
ENDBRANCH  12  16
ENDBRANCH   6  11
ENDBRANCH   1   5
BRANCH   3  38
ATOM     38  C   UNL     1      -4.107   3.995  -4.717  1.00  0.00     0.118 C 
BRANCH  38  39
ATOM     39  C   UNL     1      -5.519   4.438  -5.082  1.00  0.00     0.042 C 
BRANCH  39  40
ATOM     40  C   UNL     1      -5.846   4.521  -6.572  1.00  0.00     0.118 C 
BRANCH  40  41
ATOM     41  N   UNL     1      -5.423   3.390  -7.375  1.00  0.00    -0.352 N 
ATOM     42  C   UNL     1      -5.953   2.177  -7.716  1.00  0.00     0.251 C 
ATOM     43  H   UNL     1      -4.535   3.532  -7.774  1.00  0.00     0.163 HD
ATOM     44  O   UNL     1      -5.349   1.559  -8.597  1.00  0.00    -0.269 OA
BRANCH  42  45
ATOM     45  C   UNL     1      -7.138   1.530  -7.085  1.00  0.00     0.039 A 
ATOM     46  C   UNL     1      -7.914   2.068  -6.061  1.00  0.00     0.014 A 
ATOM     47  C   UNL     1      -7.447   0.231  -7.536  1.00  0.00     0.014 A 
ATOM     48  C   UNL     1      -8.894   1.298  -5.431  1.00  0.00     0.010 A 
ATOM     49  C   UNL     1      -8.450  -0.529  -6.935  1.00  0.00     0.010 A 
ATOM     50  C   UNL     1      -9.145  -0.014  -5.845  1.00  0.00    -0.014 A 
BRANCH  50  51
ATOM     51  C   UNL     1     -10.180  -0.778  -5.141  1.00  0.00     0.031 A 
ATOM     52  C   UNL     1     -11.568  -0.223  -5.166  1.00  0.00     0.074 A 
ATOM     53  C   UNL     1      -9.981  -1.993  -4.591  1.00  0.00     0.049 A 
ATOM     54  N   UNL     1     -12.347   0.051  -4.167  1.00  0.00    -0.248 NA
ATOM     55  C   UNL     1     -12.155   0.077  -6.480  1.00  0.00     0.031 C 
ATOM     56  C   UNL     1      -8.804  -2.857  -4.700  1.00  0.00     0.029 A 
ATOM     57  N   UNL     1     -10.864  -2.758  -3.881  1.00  0.00    -0.354 N 
ATOM     58  C   UNL     1     -13.569   0.437  -4.716  1.00  0.00     0.074 A 
ATOM     59  C   UNL     1     -13.374   0.500  -6.143  1.00  0.00     0.031 C 
ATOM     60  C   UNL     1      -9.120  -4.095  -4.260  1.00  0.00     0.029 A 
ATOM     61  C   UNL     1     -10.469  -4.076  -3.720  1.00  0.00     0.049 A 
ATOM     62  H   UNL     1     -11.707  -2.403  -3.515  1.00  0.00     0.167 HD
ATOM     63  C   UNL     1     -14.709   0.546  -3.976  1.00  0.00     0.037 A 
ATOM     64  C   UNL     1     -11.213  -5.096  -3.230  1.00  0.00     0.037 A 
ATOM     65  C   UNL     1     -14.437   0.658  -2.571  1.00  0.00     0.049 A 
ATOM     66  C   UNL     1     -12.330  -4.521  -2.445  1.00  0.00     0.074 A 
ATOM     67  C   UNL     1     -13.752   1.563  -1.784  1.00  0.00     0.029 A 
ATOM     68  N   UNL     1     -14.681  -0.417  -1.756  1.00  0.00    -0.354 N 
ATOM     69  N   UNL     1     -12.197  -3.937  -1.288  1.00  0.00    -0.248 NA
ATOM     70  C   UNL     1     -13.594  -4.283  -3.124  1.00  0.00     0.031 C 
ATOM     71  C   UNL     1     -13.193   0.788  -0.726  1.00  0.00     0.029 A 
ATOM     72  C   UNL     1     -13.590  -0.532  -0.935  1.00  0.00     0.049 A 
ATOM     73  H   UNL     1     -15.481  -0.992  -1.760  1.00  0.00     0.167 HD
ATOM     74  C   UNL     1     -13.163  -2.945  -1.283  1.00  0.00     0.074 A 
ATOM     75  C   UNL     1     -14.065  -3.283  -2.377  1.00  0.00     0.031 C 
ATOM     76  C   UNL     1     -12.987  -1.792  -0.575  1.00  0.00     0.037 A 
BRANCH  63  77
ATOM     77  C   UNL     1     -16.100   0.302  -4.500  1.00  0.00     0.064 A 
ATOM     78  C   UNL     1     -17.220   0.699  -3.740  1.00  0.00     0.173 A 
ATOM     79  C   UNL     1     -16.370  -0.558  -5.584  1.00  0.00     0.173 A 
ATOM     80  F   UNL     1     -17.073   1.490  -2.666  1.00  0.00    -0.203 F 
ATOM     81  C   UNL     1     -18.505   0.225  -4.016  1.00  0.00     0.198 A 
ATOM     82  C   UNL     1     -17.662  -0.989  -5.888  1.00  0.00     0.198 A 
ATOM     83  F   UNL     1     -15.385  -1.094  -6.316  1.00  0.00    -0.203 F 
ATOM     84  F   UNL     1     -19.521   0.540  -3.201  1.00  0.00    -0.200 F 
ATOM     85  C   UNL     1     -18.725  -0.620  -5.089  1.00  0.00     0.200 A 
ATOM     86  F   UNL     1     -17.853  -1.824  -6.918  1.00  0.00    -0.200 F 
ATOM     87  F   UNL     1     -19.946  -1.117  -5.324  1.00  0.00    -0.200 F 
ENDBRANCH  63  77
BRANCH  64  88
ATOM     88  C   UNL     1     -11.141  -6.534  -3.573  1.00  0.00     0.064 A 
ATOM     89  C   UNL     1     -11.691  -7.515  -2.734  1.00  0.00     0.173 A 
ATOM     90  C   UNL     1     -10.751  -6.956  -4.859  1.00  0.00     0.173 A 
ATOM     91  F   UNL     1     -12.137  -7.188  -1.512  1.00  0.00    -0.203 F 
ATOM     92  C   UNL     1     -11.850  -8.838  -3.160  1.00  0.00     0.198 A 
ATOM     93  C   UNL     1     -10.897  -8.278  -5.279  1.00  0.00     0.198 A 
ATOM     94  F   UNL     1     -10.303  -6.075  -5.765  1.00  0.00    -0.203 F 
ATOM     95  F   UNL     1     -12.431  -9.735  -2.352  1.00  0.00    -0.200 F 
ATOM     96  C   UNL     1     -11.458  -9.216  -4.434  1.00  0.00     0.200 A 
ATOM     97  F   UNL     1     -10.546  -8.621  -6.526  1.00  0.00    -0.200 F 
ATOM     98  F   UNL     1     -11.657 -10.471  -4.860  1.00  0.00    -0.200 F 
ENDBRANCH  64  88
BRANCH  76  99
ATOM     99  C   UNL     1     -11.873  -1.740   0.429  1.00  0.00     0.064 A 
ATOM    100  C   UNL     1     -10.515  -1.856   0.084  1.00  0.00     0.173 A 
ATOM    101  C   UNL     1     -12.179  -1.393   1.752  1.00  0.00     0.173 A 
ATOM    102  F   UNL     1     -10.142  -2.077  -1.183  1.00  0.00    -0.203 F 
ATOM    103  C   UNL     1      -9.513  -1.675   1.035  1.00  0.00     0.198 A 
ATOM    104  C   UNL     1     -11.174  -1.176   2.690  1.00  0.00     0.198 A 
ATOM    105  F   UNL     1     -13.456  -1.207   2.121  1.00  0.00    -0.203 F 
ATOM    106  F   UNL     1      -8.225  -1.796   0.684  1.00  0.00    -0.200 F 
ATOM    107  C   UNL     1      -9.843  -1.326   2.334  1.00  0.00     0.200 A 
ATOM    108  F   UNL     1     -11.494  -0.786   3.932  1.00  0.00    -0.200 F 
ATOM    109  F   UNL     1      -8.877  -1.102   3.236  1.00  0.00    -0.200 F 
ENDBRANCH  76  99
ENDBRANCH  50  51
ENDBRANCH  42  45
ENDBRANCH  40  41
ENDBRANCH  39  40
ENDBRANCH  38  39
ENDBRANCH   3  38
TORSDOF 16
