REMARK SMILES [NH3+][C@H]1C=C[C@@H](C(=O)NC2(CC(=O)NCCCNC(=O)c3ccc(-c4c5nc(c(-c6c(F)c(F)c(F)c(F)c6F)c6ccc([nH]6)c(-c6c(F)c(F)c(F)c(F)c6F)c6nc(c(-c7c(F)c(F)c(F)c(F)c7F)c7ccc4[nH]7)C=C6)C=C5)cc3)CCC2)C1
REMARK SMILES IDX 14 1 13 2 11 3 12 4 10 6 9 7 83 8 85 9 84 10 8 11 6 12 7 13
REMARK SMILES IDX 5 15 2 16 3 17 86 18 4 19 1 20 15 24 16 25 17 26 18 27 19 29
REMARK SMILES IDX 20 30 21 31 82 32 22 33 81 34 23 35 24 36 25 37 75 38 26 39
REMARK SMILES IDX 80 40 74 41 76 42 27 43 79 44 73 45 72 46 28 48 60 49 40 50
REMARK SMILES IDX 59 51 41 52 44 53 58 54 77 55 42 56 43 57 57 59 78 60 45 61
REMARK SMILES IDX 29 62 30 63 38 64 31 65 32 66 36 67 39 68 33 69 34 70 37 71
REMARK SMILES IDX 35 72 61 73 62 74 70 75 63 76 64 77 68 78 71 79 65 80 66 81
REMARK SMILES IDX 69 82 67 83 46 84 47 85 55 86 48 87 49 88 53 89 56 90 50 91
REMARK SMILES IDX 51 92 54 93 52 94
REMARK H PARENT 13 5 8 14 1 21 1 22 1 23 17 28 76 47 44 58
REMARK Flexibility Score: inf
ROOT
ATOM      1  C   UNL     1       4.895   5.089   0.904  1.00  0.00     0.117 C 
ENDROOT
BRANCH   1   2
ATOM      2  N   UNL     1       3.923   5.253  -0.159  1.00  0.00    -0.356 N 
ATOM      3  C   UNL     1       3.210   4.332  -0.859  1.00  0.00     0.222 C 
ATOM      4  O   UNL     1       2.613   4.739  -1.856  1.00  0.00    -0.275 OA
ATOM      5  H   UNL     1       3.751   6.188  -0.416  1.00  0.00     0.163 HD
BRANCH   3   6
ATOM      6  C   UNL     1       3.126   2.889  -0.402  1.00  0.00     0.128 C 
BRANCH   6   7
ATOM      7  C   UNL     1       3.902   1.858  -1.230  1.00  0.00     0.049 C 
ATOM      8  C   UNL     1       3.841   0.363  -0.763  1.00  0.00     0.029 C 
ATOM      9  C   UNL     1       5.424   1.761  -0.822  1.00  0.00     0.029 C 
ATOM     10  C   UNL     1       5.059   0.618   0.130  1.00  0.00     0.005 C 
BRANCH   7  11
ATOM     11  N   UNL     1       3.780   2.041  -2.692  1.00  0.00    -0.350 N 
ATOM     12  C   UNL     1       2.785   1.952  -3.616  1.00  0.00     0.227 C 
ATOM     13  O   UNL     1       3.137   2.200  -4.780  1.00  0.00    -0.274 OA
ATOM     14  H   UNL     1       4.639   2.291  -3.103  1.00  0.00     0.164 HD
BRANCH  12  15
ATOM     15  C   UNL     1       1.320   1.576  -3.361  1.00  0.00     0.107 C 
ATOM     16  C   UNL     1      -0.106   0.477  -1.683  1.00  0.00     0.205 C 
ATOM     17  C   UNL     1      -0.259   1.958  -1.666  1.00  0.00     0.033 C 
ATOM     18  C   UNL     1       1.038   0.235  -2.685  1.00  0.00     0.087 C 
ATOM     19  C   UNL     1       0.519   2.558  -2.572  1.00  0.00    -0.012 C 
BRANCH  16  20
ATOM     20  N   UNL     1       0.175  -0.021  -0.348  1.00  0.00    -0.352 N 
ATOM     21  H   UNL     1      -0.620   0.171   0.261  1.00  0.00     0.345 HD
ATOM     22  H   UNL     1       1.006   0.442   0.020  1.00  0.00     0.345 HD
ATOM     23  H   UNL     1       0.337  -1.028  -0.388  1.00  0.00     0.345 HD
ENDBRANCH  16  20
ENDBRANCH  12  15
ENDBRANCH   7  11
ENDBRANCH   6   7
ENDBRANCH   3   6
ENDBRANCH   1   2
BRANCH   1  24
ATOM     24  C   UNL     1       6.315   5.176   0.351  1.00  0.00     0.042 C 
BRANCH  24  25
ATOM     25  C   UNL     1       6.718   6.582  -0.069  1.00  0.00     0.118 C 
BRANCH  25  26
ATOM     26  N   UNL     1       6.982   7.439   1.073  1.00  0.00    -0.352 N 
ATOM     27  C   UNL     1       8.159   7.742   1.712  1.00  0.00     0.251 C 
ATOM     28  H   UNL     1       6.185   7.874   1.453  1.00  0.00     0.163 HD
ATOM     29  O   UNL     1       8.116   8.275   2.817  1.00  0.00    -0.269 OA
BRANCH  27  30
ATOM     30  C   UNL     1       9.475   7.429   1.105  1.00  0.00     0.039 A 
ATOM     31  C   UNL     1      10.527   7.050   1.946  1.00  0.00     0.014 A 
ATOM     32  C   UNL     1       9.713   7.587  -0.261  1.00  0.00     0.014 A 
ATOM     33  C   UNL     1      11.795   6.792   1.414  1.00  0.00     0.010 A 
ATOM     34  C   UNL     1      10.947   7.237  -0.804  1.00  0.00     0.010 A 
ATOM     35  C   UNL     1      12.010   6.860   0.029  1.00  0.00    -0.014 A 
BRANCH  35  36
ATOM     36  C   UNL     1      13.347   6.596  -0.565  1.00  0.00     0.031 A 
ATOM     37  C   UNL     1      14.068   7.690  -1.309  1.00  0.00     0.074 A 
ATOM     38  C   UNL     1      13.884   5.364  -0.494  1.00  0.00     0.049 A 
ATOM     39  N   UNL     1      15.190   7.636  -1.982  1.00  0.00    -0.248 NA
ATOM     40  C   UNL     1      13.425   9.014  -1.326  1.00  0.00     0.031 C 
ATOM     41  C   UNL     1      13.268   4.208   0.159  1.00  0.00     0.029 A 
ATOM     42  N   UNL     1      15.068   4.874  -0.987  1.00  0.00    -0.354 N 
ATOM     43  C   UNL     1      15.366   8.902  -2.527  1.00  0.00     0.074 A 
ATOM     44  C   UNL     1      14.215   9.691  -2.145  1.00  0.00     0.031 C 
ATOM     45  C   UNL     1      14.088   3.151   0.047  1.00  0.00     0.029 A 
ATOM     46  C   UNL     1      15.268   3.542  -0.717  1.00  0.00     0.049 A 
ATOM     47  H   UNL     1      15.712   5.425  -1.488  1.00  0.00     0.167 HD
ATOM     48  C   UNL     1      16.403   9.372  -3.260  1.00  0.00     0.037 A 
ATOM     49  C   UNL     1      16.288   2.729  -1.053  1.00  0.00     0.037 A 
ATOM     50  C   UNL     1      17.573   8.603  -3.592  1.00  0.00     0.049 A 
ATOM     51  C   UNL     1      17.441   3.283  -1.844  1.00  0.00     0.074 A 
ATOM     52  C   UNL     1      18.713   9.011  -4.260  1.00  0.00     0.029 A 
ATOM     53  N   UNL     1      17.752   7.266  -3.271  1.00  0.00    -0.354 N 
ATOM     54  N   UNL     1      17.623   4.498  -2.302  1.00  0.00    -0.248 NA
ATOM     55  C   UNL     1      18.533   2.353  -2.162  1.00  0.00     0.031 C 
ATOM     56  C   UNL     1      19.570   7.911  -4.374  1.00  0.00     0.029 A 
ATOM     57  C   UNL     1      18.980   6.829  -3.741  1.00  0.00     0.049 A 
ATOM     58  H   UNL     1      17.104   6.710  -2.781  1.00  0.00     0.167 HD
ATOM     59  C   UNL     1      18.857   4.486  -2.936  1.00  0.00     0.074 A 
ATOM     60  C   UNL     1      19.387   3.146  -2.794  1.00  0.00     0.031 C 
ATOM     61  C   UNL     1      19.494   5.494  -3.579  1.00  0.00     0.037 A 
BRANCH  48  62
ATOM     62  C   UNL     1      16.325  10.790  -3.747  1.00  0.00     0.064 A 
ATOM     63  C   UNL     1      16.445  11.878  -2.869  1.00  0.00     0.173 A 
ATOM     64  C   UNL     1      16.163  11.065  -5.113  1.00  0.00     0.173 A 
ATOM     65  F   UNL     1      16.589  11.670  -1.552  1.00  0.00    -0.203 F 
ATOM     66  C   UNL     1      16.375  13.188  -3.337  1.00  0.00     0.198 A 
ATOM     67  C   UNL     1      16.123  12.376  -5.582  1.00  0.00     0.198 A 
ATOM     68  F   UNL     1      16.050  10.061  -5.996  1.00  0.00    -0.203 F 
ATOM     69  F   UNL     1      16.442  14.210  -2.474  1.00  0.00    -0.200 F 
ATOM     70  C   UNL     1      16.221  13.436  -4.693  1.00  0.00     0.200 A 
ATOM     71  F   UNL     1      15.986  12.614  -6.893  1.00  0.00    -0.200 F 
ATOM     72  F   UNL     1      16.160  14.697  -5.142  1.00  0.00    -0.200 F 
ENDBRANCH  48  62
BRANCH  49  73
ATOM     73  C   UNL     1      16.279   1.310  -0.613  1.00  0.00     0.064 A 
ATOM     74  C   UNL     1      17.162   0.863   0.379  1.00  0.00     0.173 A 
ATOM     75  C   UNL     1      15.393   0.377  -1.168  1.00  0.00     0.173 A 
ATOM     76  F   UNL     1      18.042   1.716   0.925  1.00  0.00    -0.203 F 
ATOM     77  C   UNL     1      17.172  -0.468   0.788  1.00  0.00     0.198 A 
ATOM     78  C   UNL     1      15.386  -0.950  -0.741  1.00  0.00     0.198 A 
ATOM     79  F   UNL     1      14.524   0.756  -2.117  1.00  0.00    -0.203 F 
ATOM     80  F   UNL     1      18.053  -0.878   1.710  1.00  0.00    -0.200 F 
ATOM     81  C   UNL     1      16.279  -1.373   0.232  1.00  0.00     0.200 A 
ATOM     82  F   UNL     1      14.513  -1.817  -1.270  1.00  0.00    -0.200 F 
ATOM     83  F   UNL     1      16.285  -2.652   0.629  1.00  0.00    -0.200 F 
ENDBRANCH  49  73
BRANCH  61  84
ATOM     84  C   UNL     1      20.850   5.197  -4.148  1.00  0.00     0.064 A 
ATOM     85  C   UNL     1      21.005   4.418  -5.304  1.00  0.00     0.173 A 
ATOM     86  C   UNL     1      22.001   5.734  -3.554  1.00  0.00     0.173 A 
ATOM     87  F   UNL     1      19.934   3.870  -5.898  1.00  0.00    -0.203 F 
ATOM     88  C   UNL     1      22.269   4.170  -5.832  1.00  0.00     0.198 A 
ATOM     89  C   UNL     1      23.261   5.505  -4.100  1.00  0.00     0.198 A 
ATOM     90  F   UNL     1      21.903   6.490  -2.450  1.00  0.00    -0.203 F 
ATOM     91  F   UNL     1      22.399   3.389  -6.913  1.00  0.00    -0.200 F 
ATOM     92  C   UNL     1      23.394   4.719  -5.234  1.00  0.00     0.200 A 
ATOM     93  F   UNL     1      24.346   6.045  -3.528  1.00  0.00    -0.200 F 
ATOM     94  F   UNL     1      24.609   4.484  -5.749  1.00  0.00    -0.200 F 
ENDBRANCH  61  84
ENDBRANCH  35  36
ENDBRANCH  27  30
ENDBRANCH  25  26
ENDBRANCH  24  25
ENDBRANCH   1  24
TORSDOF 14
