REMARK SMILES Cc1c(CCC(=O)N2CCC(C(=O)NCCCNC(=O)c3ccc(-c4c5nc(c(-c6c(F)c(F)c(F)c(F)c6F)c6ccc([nH]6)c(-c6c(F)c(F)c(F)c(F)c6F)c6nc(c(-c7c(F)c(F)c(F)c(F)c7F)c7ccc4[nH]7)C=C6)C=C5)cc3)CC2)c(=O)oc2cc3oc4c(c3cc12)CCCC4
REMARK SMILES IDX 15 1 14 2 12 3 13 4 11 6 6 7 7 8 8 9 9 10 85 11 10 12 84 13
REMARK SMILES IDX 5 14 4 15 3 16 1 17 2 18 97 19 86 20 89 21 96 22 87 23 88 24
REMARK SMILES IDX 90 25 95 26 91 27 94 28 92 29 93 30 98 31 101 32 99 33
REMARK SMILES IDX 100 34 16 35 17 36 18 37 19 38 20 40 21 41 22 42 83 43 23 44
REMARK SMILES IDX 82 45 24 46 25 47 26 48 76 49 27 50 81 51 75 52 77 53 28 54
REMARK SMILES IDX 80 55 74 56 73 57 29 59 61 60 41 61 60 62 42 63 45 64 59 65
REMARK SMILES IDX 78 66 43 67 44 68 58 70 79 71 46 72 30 73 31 74 39 75 32 76
REMARK SMILES IDX 33 77 37 78 40 79 34 80 35 81 38 82 36 83 62 84 63 85 71 86
REMARK SMILES IDX 64 87 65 88 69 89 72 90 66 91 67 92 70 93 68 94 47 95 48 96
REMARK SMILES IDX 56 97 49 98 50 99 54 100 57 101 51 102 52 103 55 104 53 105
REMARK H PARENT 14 5 18 39 77 58 45 69
REMARK Flexibility Score: inf
ROOT
ATOM      1  C   UNL     1       1.977  -3.123   1.095  1.00  0.00     0.117 C 
ENDROOT
BRANCH   1   2
ATOM      2  N   UNL     1       0.811  -3.616   0.389  1.00  0.00    -0.356 N 
ATOM      3  C   UNL     1      -0.502  -3.394   0.669  1.00  0.00     0.223 C 
ATOM      4  O   UNL     1      -1.294  -4.307   0.424  1.00  0.00    -0.275 OA
ATOM      5  H   UNL     1       0.992  -4.186  -0.393  1.00  0.00     0.163 HD
BRANCH   3   6
ATOM      6  C   UNL     1      -1.002  -2.017   1.083  1.00  0.00     0.082 C 
ATOM      7  C   UNL     1       0.044   1.799   1.692  1.00  0.00     0.222 C 
ATOM      8  O   UNL     1       0.806   1.780   2.659  1.00  0.00    -0.275 OA
ATOM      9  N   UNL     1      -0.971   0.845   1.551  1.00  0.00    -0.343 N 
ATOM     10  C   UNL     1      -1.410  -0.043   2.658  1.00  0.00     0.120 C 
ATOM     11  C   UNL     1      -1.194   0.272   0.248  1.00  0.00     0.120 C 
ATOM     12  C   UNL     1      -0.961  -1.540   2.533  1.00  0.00     0.035 C 
ATOM     13  C   UNL     1      -0.303  -0.958   0.260  1.00  0.00     0.035 C 
BRANCH   7  14
ATOM     14  C   UNL     1       0.130   2.939   0.633  1.00  0.00     0.105 C 
BRANCH  14  15
ATOM     15  C   UNL     1       1.235   2.911  -0.463  1.00  0.00     0.053 C 
BRANCH  15  16
ATOM     16  C   UNL     1       0.788   2.346  -1.804  1.00  0.00     0.042 A 
ATOM     17  C   UNL     1       2.079   0.192  -1.629  1.00  0.00     0.046 C 
ATOM     18  C   UNL     1       0.980   1.069  -2.151  1.00  0.00    -0.030 A 
ATOM     19  C   UNL     1       0.090   0.560  -3.179  1.00  0.00     0.022 A 
ATOM     20  C   UNL     1       0.246   3.228  -2.900  1.00  0.00     0.339 A 
ATOM     21  C   UNL     1      -0.036   1.278  -4.341  1.00  0.00     0.142 A 
ATOM     22  C   UNL     1      -0.698  -0.562  -3.024  1.00  0.00     0.024 A 
ATOM     23  O   UNL     1      -0.007   4.410  -2.698  1.00  0.00    -0.246 OA
ATOM     24  O   UNL     1       0.200   2.666  -4.214  1.00  0.00    -0.422 OA
ATOM     25  C   UNL     1      -0.447   0.653  -5.537  1.00  0.00     0.095 A 
ATOM     26  C   UNL     1      -1.095  -1.252  -4.151  1.00  0.00     0.025 A 
ATOM     27  C   UNL     1      -0.822  -0.697  -5.391  1.00  0.00     0.138 A 
ATOM     28  C   UNL     1      -1.516  -2.582  -4.317  1.00  0.00     0.001 A 
ATOM     29  O   UNL     1      -0.876  -1.711  -6.324  1.00  0.00    -0.461 OA
ATOM     30  C   UNL     1      -1.130  -2.854  -5.609  1.00  0.00     0.108 A 
ATOM     31  C   UNL     1      -1.672  -3.662  -3.301  1.00  0.00     0.040 C 
ATOM     32  C   UNL     1      -0.511  -4.163  -5.959  1.00  0.00     0.076 C 
ATOM     33  C   UNL     1      -0.481  -4.639  -3.378  1.00  0.00     0.005 C 
ATOM     34  C   UNL     1       0.323  -4.588  -4.708  1.00  0.00     0.008 C 
ENDBRANCH  15  16
ENDBRANCH  14  15
ENDBRANCH   7  14
ENDBRANCH   3   6
ENDBRANCH   1   2
BRANCH   1  35
ATOM     35  C   UNL     1       2.251  -4.033   2.279  1.00  0.00     0.042 C 
BRANCH  35  36
ATOM     36  C   UNL     1       2.659  -5.441   1.829  1.00  0.00     0.118 C 
BRANCH  36  37
ATOM     37  N   UNL     1       4.090  -5.681   1.909  1.00  0.00    -0.352 N 
ATOM     38  C   UNL     1       4.880  -5.719   3.033  1.00  0.00     0.251 C 
ATOM     39  H   UNL     1       4.550  -5.834   1.052  1.00  0.00     0.163 HD
ATOM     40  O   UNL     1       6.095  -5.860   2.953  1.00  0.00    -0.269 OA
BRANCH  38  41
ATOM     41  C   UNL     1       4.233  -5.512   4.340  1.00  0.00     0.039 A 
ATOM     42  C   UNL     1       3.170  -6.332   4.727  1.00  0.00     0.014 A 
ATOM     43  C   UNL     1       4.620  -4.415   5.115  1.00  0.00     0.014 A 
ATOM     44  C   UNL     1       2.416  -5.989   5.835  1.00  0.00     0.010 A 
ATOM     45  C   UNL     1       3.891  -4.098   6.257  1.00  0.00     0.010 A 
ATOM     46  C   UNL     1       2.777  -4.875   6.601  1.00  0.00    -0.014 A 
BRANCH  46  47
ATOM     47  C   UNL     1       2.054  -4.709   7.862  1.00  0.00     0.031 A 
ATOM     48  C   UNL     1       2.888  -5.035   9.052  1.00  0.00     0.074 A 
ATOM     49  C   UNL     1       1.005  -3.881   8.015  1.00  0.00     0.049 A 
ATOM     50  N   UNL     1       3.698  -4.173   9.591  1.00  0.00    -0.248 NA
ATOM     51  C   UNL     1       3.088  -6.410   9.505  1.00  0.00     0.031 C 
ATOM     52  C   UNL     1       0.832  -2.610   7.308  1.00  0.00     0.029 A 
ATOM     53  N   UNL     1       0.033  -3.875   8.986  1.00  0.00    -0.354 N 
ATOM     54  C   UNL     1       4.569  -4.886  10.389  1.00  0.00     0.074 A 
ATOM     55  C   UNL     1       4.140  -6.266  10.325  1.00  0.00     0.031 C 
ATOM     56  C   UNL     1      -0.050  -1.857   7.999  1.00  0.00     0.029 A 
ATOM     57  C   UNL     1      -0.622  -2.653   9.082  1.00  0.00     0.049 A 
ATOM     58  H   UNL     1      -0.177  -4.652   9.553  1.00  0.00     0.167 HD
ATOM     59  C   UNL     1       5.611  -4.309  11.041  1.00  0.00     0.037 A 
ATOM     60  C   UNL     1      -1.148  -2.158  10.234  1.00  0.00     0.037 A 
ATOM     61  C   UNL     1       5.747  -2.894  10.884  1.00  0.00     0.049 A 
ATOM     62  C   UNL     1       0.112  -1.823  10.997  1.00  0.00     0.074 A 
ATOM     63  C   UNL     1       6.473  -2.028  10.095  1.00  0.00     0.029 A 
ATOM     64  N   UNL     1       4.932  -2.083  11.639  1.00  0.00    -0.354 N 
ATOM     65  N   UNL     1       0.849  -0.755  10.830  1.00  0.00    -0.248 NA
ATOM     66  C   UNL     1       0.769  -2.901  11.742  1.00  0.00     0.031 C 
ATOM     67  C   UNL     1       5.739  -0.800  10.099  1.00  0.00     0.029 A 
ATOM     68  C   UNL     1       4.583  -1.018  10.847  1.00  0.00     0.049 A 
ATOM     69  H   UNL     1       4.653  -2.236  12.570  1.00  0.00     0.167 HD
ATOM     70  C   UNL     1       2.140  -1.133  11.210  1.00  0.00     0.074 A 
ATOM     71  C   UNL     1       2.014  -2.449  11.796  1.00  0.00     0.031 C 
ATOM     72  C   UNL     1       3.260  -0.440  10.858  1.00  0.00     0.037 A 
BRANCH  59  73
ATOM     73  C   UNL     1       6.475  -5.020  11.995  1.00  0.00     0.064 A 
ATOM     74  C   UNL     1       6.232  -4.833  13.362  1.00  0.00     0.173 A 
ATOM     75  C   UNL     1       7.622  -5.716  11.609  1.00  0.00     0.173 A 
ATOM     76  F   UNL     1       5.136  -4.165  13.762  1.00  0.00    -0.203 F 
ATOM     77  C   UNL     1       7.129  -5.290  14.317  1.00  0.00     0.198 A 
ATOM     78  C   UNL     1       8.518  -6.182  12.570  1.00  0.00     0.198 A 
ATOM     79  F   UNL     1       7.893  -5.912  10.310  1.00  0.00    -0.203 F 
ATOM     80  F   UNL     1       6.893  -5.060  15.615  1.00  0.00    -0.200 F 
ATOM     81  C   UNL     1       8.278  -5.956  13.920  1.00  0.00     0.200 A 
ATOM     82  F   UNL     1       9.630  -6.827  12.192  1.00  0.00    -0.200 F 
ATOM     83  F   UNL     1       9.159  -6.372  14.840  1.00  0.00    -0.200 F 
ENDBRANCH  59  73
BRANCH  60  84
ATOM     84  C   UNL     1      -2.279  -2.977  10.785  1.00  0.00     0.064 A 
ATOM     85  C   UNL     1      -3.344  -3.312   9.917  1.00  0.00     0.173 A 
ATOM     86  C   UNL     1      -2.380  -3.471  12.093  1.00  0.00     0.173 A 
ATOM     87  F   UNL     1      -3.396  -2.791   8.681  1.00  0.00    -0.203 F 
ATOM     88  C   UNL     1      -4.359  -4.194  10.291  1.00  0.00     0.198 A 
ATOM     89  C   UNL     1      -3.381  -4.375  12.460  1.00  0.00     0.198 A 
ATOM     90  F   UNL     1      -1.507  -3.107  13.040  1.00  0.00    -0.203 F 
ATOM     91  F   UNL     1      -5.320  -4.519   9.415  1.00  0.00    -0.200 F 
ATOM     92  C   UNL     1      -4.357  -4.753  11.554  1.00  0.00     0.200 A 
ATOM     93  F   UNL     1      -3.378  -4.902  13.693  1.00  0.00    -0.200 F 
ATOM     94  F   UNL     1      -5.292  -5.648  11.900  1.00  0.00    -0.200 F 
ENDBRANCH  60  84
BRANCH  72  95
ATOM     95  C   UNL     1       3.021   0.885  10.227  1.00  0.00     0.064 A 
ATOM     96  C   UNL     1       2.559   1.955  11.005  1.00  0.00     0.173 A 
ATOM     97  C   UNL     1       3.282   1.119   8.869  1.00  0.00     0.173 A 
ATOM     98  F   UNL     1       2.305   1.781  12.312  1.00  0.00    -0.203 F 
ATOM     99  C   UNL     1       2.385   3.218  10.449  1.00  0.00     0.198 A 
ATOM    100  C   UNL     1       3.135   2.390   8.324  1.00  0.00     0.198 A 
ATOM    101  F   UNL     1       3.705   0.126   8.071  1.00  0.00    -0.203 F 
ATOM    102  F   UNL     1       1.950   4.230  11.213  1.00  0.00    -0.200 F 
ATOM    103  C   UNL     1       2.687   3.438   9.114  1.00  0.00     0.200 A 
ATOM    104  F   UNL     1       3.450   2.607   7.039  1.00  0.00    -0.200 F 
ATOM    105  F   UNL     1       2.560   4.666   8.591  1.00  0.00    -0.200 F 
ENDBRANCH  72  95
ENDBRANCH  46  47
ENDBRANCH  38  41
ENDBRANCH  36  37
ENDBRANCH  35  36
ENDBRANCH   1  35
TORSDOF 13
