REMARK SMILES C[C@@H](O)C[C@H](C(=O)NCCCNC(=O)c1ccc(-c2c3nc(c(-c4c(F)c(F)c(F)c(F)c4F)c4ccc([nH]4)c(-c4c(F)c(F)c(F)c(F)c4F)c4nc(c(-c5c(F)c(F)c(F)c(F)c5F)c5ccc2[nH]5)C=C4)C=C3)cc1)c1ccc(Br)cc1
REMARK SMILES IDX 9 1 8 2 6 3 7 4 5 6 4 7 2 8 1 9 3 10 78 12 79 13 84 14 80 15
REMARK SMILES IDX 83 16 81 17 82 18 10 19 11 20 12 21 13 22 14 24 15 25 16 26
REMARK SMILES IDX 77 27 17 28 76 29 18 30 19 31 20 32 70 33 21 34 75 35 69 36
REMARK SMILES IDX 71 37 22 38 74 39 68 40 67 41 23 43 55 44 35 45 54 46 36 47
REMARK SMILES IDX 39 48 53 49 72 50 37 51 38 52 52 54 73 55 40 56 24 57 25 58
REMARK SMILES IDX 33 59 26 60 27 61 31 62 34 63 28 64 29 65 32 66 30 67 56 68
REMARK SMILES IDX 57 69 65 70 58 71 59 72 63 73 66 74 60 75 61 76 64 77 62 78
REMARK SMILES IDX 41 79 42 80 50 81 43 82 44 83 48 84 51 85 45 86 46 87 49 88
REMARK SMILES IDX 47 89
REMARK H PARENT 8 5 3 11 12 23 71 42 39 53
REMARK Flexibility Score: inf
ROOT
ATOM      1  C   UNL     1      -2.363   0.070   1.723  1.00  0.00     0.117 C 
ENDROOT
BRANCH   1   2
ATOM      2  N   UNL     1      -1.448  -0.997   1.366  1.00  0.00    -0.356 N 
ATOM      3  C   UNL     1      -1.166  -1.588   0.169  1.00  0.00     0.227 C 
ATOM      4  O   UNL     1      -0.336  -2.500   0.217  1.00  0.00    -0.274 OA
ATOM      5  H   UNL     1      -0.938  -1.361   2.125  1.00  0.00     0.163 HD
BRANCH   3   6
ATOM      6  C   UNL     1      -1.800  -1.109  -1.166  1.00  0.00     0.111 C 
BRANCH   6   7
ATOM      7  C   UNL     1      -1.173  -1.894  -2.358  1.00  0.00     0.049 C 
BRANCH   7   8
ATOM      8  C   UNL     1      -2.008  -2.176  -3.614  1.00  0.00     0.112 C 
ATOM      9  C   UNL     1      -2.420  -0.949  -4.410  1.00  0.00     0.038 C 
BRANCH   8  10
ATOM     10  O   UNL     1      -1.204  -2.995  -4.473  1.00  0.00    -0.393 OA
ATOM     11  H   UNL     1      -0.403  -2.510  -4.726  1.00  0.00     0.210 HD
ENDBRANCH   8  10
ENDBRANCH   7   8
ENDBRANCH   6   7
BRANCH   6  12
ATOM     12  C   UNL     1      -3.320  -1.151  -1.137  1.00  0.00    -0.035 A 
ATOM     13  C   UNL     1      -4.051   0.041  -1.311  1.00  0.00     0.006 A 
ATOM     14  C   UNL     1      -4.021  -2.349  -0.936  1.00  0.00     0.006 A 
ATOM     15  C   UNL     1      -5.444   0.040  -1.260  1.00  0.00     0.016 A 
ATOM     16  C   UNL     1      -5.418  -2.352  -0.896  1.00  0.00     0.016 A 
ATOM     17  C   UNL     1      -6.121  -1.158  -1.049  1.00  0.00     0.017 A 
ATOM     18  Br  UNL     1      -8.008  -1.158  -0.954  1.00  0.00    -0.051 Br
ENDBRANCH   6  12
ENDBRANCH   3   6
ENDBRANCH   1   2
BRANCH   1  19
ATOM     19  C   UNL     1      -3.708  -0.452   2.230  1.00  0.00     0.042 C 
BRANCH  19  20
ATOM     20  C   UNL     1      -3.652  -1.194   3.563  1.00  0.00     0.118 C 
BRANCH  20  21
ATOM     21  N   UNL     1      -3.459  -0.296   4.689  1.00  0.00    -0.352 N 
ATOM     22  C   UNL     1      -4.240  -0.064   5.790  1.00  0.00     0.251 C 
ATOM     23  H   UNL     1      -2.630   0.233   4.654  1.00  0.00     0.163 HD
ATOM     24  O   UNL     1      -3.966   0.899   6.514  1.00  0.00    -0.269 OA
BRANCH  22  25
ATOM     25  C   UNL     1      -5.404  -0.915   6.137  1.00  0.00     0.039 A 
ATOM     26  C   UNL     1      -6.517  -0.301   6.724  1.00  0.00     0.014 A 
ATOM     27  C   UNL     1      -5.393  -2.305   5.983  1.00  0.00     0.014 A 
ATOM     28  C   UNL     1      -7.619  -1.064   7.121  1.00  0.00     0.010 A 
ATOM     29  C   UNL     1      -6.521  -3.062   6.322  1.00  0.00     0.010 A 
ATOM     30  C   UNL     1      -7.641  -2.451   6.906  1.00  0.00    -0.014 A 
BRANCH  30  31
ATOM     31  C   UNL     1      -8.829  -3.254   7.300  1.00  0.00     0.031 A 
ATOM     32  C   UNL     1      -8.746  -4.257   8.418  1.00  0.00     0.074 A 
ATOM     33  C   UNL     1      -9.990  -3.090   6.636  1.00  0.00     0.049 A 
ATOM     34  N   UNL     1      -9.684  -5.030   8.909  1.00  0.00    -0.248 NA
ATOM     35  C   UNL     1      -7.433  -4.430   9.058  1.00  0.00     0.031 C 
ATOM     36  C   UNL     1     -10.191  -2.192   5.500  1.00  0.00     0.029 A 
ATOM     37  N   UNL     1     -11.219  -3.673   6.823  1.00  0.00    -0.354 N 
ATOM     38  C   UNL     1      -9.075  -5.782   9.906  1.00  0.00     0.074 A 
ATOM     39  C   UNL     1      -7.677  -5.408   9.919  1.00  0.00     0.031 C 
ATOM     40  C   UNL     1     -11.473  -2.263   5.106  1.00  0.00     0.029 A 
ATOM     41  C   UNL     1     -12.178  -3.226   5.947  1.00  0.00     0.049 A 
ATOM     42  H   UNL     1     -11.397  -4.347   7.518  1.00  0.00     0.167 HD
ATOM     43  C   UNL     1      -9.634  -6.684  10.748  1.00  0.00     0.037 A 
ATOM     44  C   UNL     1     -13.480  -3.549   5.838  1.00  0.00     0.037 A 
ATOM     45  C   UNL     1     -11.029  -7.043  10.754  1.00  0.00     0.049 A 
ATOM     46  C   UNL     1     -14.082  -4.532   6.803  1.00  0.00     0.074 A 
ATOM     47  C   UNL     1     -11.696  -7.910  11.602  1.00  0.00     0.029 A 
ATOM     48  N   UNL     1     -11.973  -6.552   9.865  1.00  0.00    -0.354 N 
ATOM     49  N   UNL     1     -13.508  -5.187   7.782  1.00  0.00    -0.248 NA
ATOM     50  C   UNL     1     -15.518  -4.810   6.655  1.00  0.00     0.031 C 
ATOM     51  C   UNL     1     -13.038  -7.968  11.207  1.00  0.00     0.029 A 
ATOM     52  C   UNL     1     -13.214  -7.108  10.136  1.00  0.00     0.049 A 
ATOM     53  H   UNL     1     -11.789  -5.904   9.147  1.00  0.00     0.167 HD
ATOM     54  C   UNL     1     -14.510  -5.943   8.374  1.00  0.00     0.074 A 
ATOM     55  C   UNL     1     -15.735  -5.646   7.660  1.00  0.00     0.031 C 
ATOM     56  C   UNL     1     -14.422  -6.809   9.412  1.00  0.00     0.037 A 
BRANCH  43  57
ATOM     57  C   UNL     1      -8.733  -7.345  11.751  1.00  0.00     0.064 A 
ATOM     58  C   UNL     1      -8.229  -6.642  12.856  1.00  0.00     0.173 A 
ATOM     59  C   UNL     1      -8.402  -8.703  11.630  1.00  0.00     0.173 A 
ATOM     60  F   UNL     1      -8.508  -5.339  13.011  1.00  0.00    -0.203 F 
ATOM     61  C   UNL     1      -7.407  -7.269  13.789  1.00  0.00     0.198 A 
ATOM     62  C   UNL     1      -7.601  -9.332  12.579  1.00  0.00     0.198 A 
ATOM     63  F   UNL     1      -8.864  -9.422  10.595  1.00  0.00    -0.203 F 
ATOM     64  F   UNL     1      -6.904  -6.567  14.814  1.00  0.00    -0.200 F 
ATOM     65  C   UNL     1      -7.099  -8.614  13.654  1.00  0.00     0.200 A 
ATOM     66  F   UNL     1      -7.313 -10.635  12.453  1.00  0.00    -0.200 F 
ATOM     67  F   UNL     1      -6.313  -9.216  14.556  1.00  0.00    -0.200 F 
ENDBRANCH  43  57
BRANCH  44  68
ATOM     68  C   UNL     1     -14.313  -2.906   4.790  1.00  0.00     0.064 A 
ATOM     69  C   UNL     1     -15.276  -1.945   5.127  1.00  0.00     0.173 A 
ATOM     70  C   UNL     1     -14.159  -3.234   3.436  1.00  0.00     0.173 A 
ATOM     71  F   UNL     1     -15.473  -1.617   6.412  1.00  0.00    -0.203 F 
ATOM     72  C   UNL     1     -16.066  -1.346   4.148  1.00  0.00     0.198 A 
ATOM     73  C   UNL     1     -14.932  -2.616   2.456  1.00  0.00     0.198 A 
ATOM     74  F   UNL     1     -13.248  -4.145   3.065  1.00  0.00    -0.203 F 
ATOM     75  F   UNL     1     -17.006  -0.459   4.499  1.00  0.00    -0.200 F 
ATOM     76  C   UNL     1     -15.889  -1.678   2.813  1.00  0.00     0.200 A 
ATOM     77  F   UNL     1     -14.752  -2.931   1.166  1.00  0.00    -0.200 F 
ATOM     78  F   UNL     1     -16.646  -1.098   1.871  1.00  0.00    -0.200 F 
ENDBRANCH  44  68
BRANCH  56  79
ATOM     79  C   UNL     1     -15.688  -7.491   9.840  1.00  0.00     0.064 A 
ATOM     80  C   UNL     1     -16.267  -8.509   9.068  1.00  0.00     0.173 A 
ATOM     81  C   UNL     1     -16.321  -7.134  11.040  1.00  0.00     0.173 A 
ATOM     82  F   UNL     1     -15.707  -8.874   7.905  1.00  0.00    -0.203 F 
ATOM     83  C   UNL     1     -17.448  -9.127   9.469  1.00  0.00     0.198 A 
ATOM     84  C   UNL     1     -17.489  -7.771  11.450  1.00  0.00     0.198 A 
ATOM     85  F   UNL     1     -15.805  -6.168  11.816  1.00  0.00    -0.203 F 
ATOM     86  F   UNL     1     -18.009 -10.063   8.691  1.00  0.00    -0.200 F 
ATOM     87  C   UNL     1     -18.056  -8.760  10.660  1.00  0.00     0.200 A 
ATOM     88  F   UNL     1     -18.071  -7.421  12.605  1.00  0.00    -0.200 F 
ATOM     89  F   UNL     1     -19.195  -9.354  11.043  1.00  0.00    -0.200 F 
ENDBRANCH  56  79
ENDBRANCH  30  31
ENDBRANCH  22  25
ENDBRANCH  20  21
ENDBRANCH  19  20
ENDBRANCH   1  19
TORSDOF 14
