REMARK SMILES CCN1C(=O)/C(=C2/SC(=S)N([C@@H](C)C(=O)NCCCNC(=O)c3ccc(-c4c5nc(c(-c6c(F)c(F)c(F)c(F)c6F)c6ccc([nH]6)c(-c6c(F)c(F)c(F)c(F)c6F)c6nc(c(-c7c(F)c(F)c(F)c(F)c7F)c7ccc4[nH]7)C=C6)C=C5)cc3)C2=O)c2cc(Br)ccc21
REMARK SMILES IDX 18 1 17 2 16 3 14 4 15 5 12 7 13 8 11 9 3 10 4 11 94 12 5 13
REMARK SMILES IDX 6 14 88 15 93 16 7 17 89 18 92 19 8 20 86 21 90 22 9 23
REMARK SMILES IDX 87 24 91 25 10 26 2 27 1 28 19 29 20 30 21 31 22 33 23 34
REMARK SMILES IDX 24 35 85 36 25 37 84 38 26 39 27 40 28 41 78 42 29 43 83 44
REMARK SMILES IDX 77 45 79 46 30 47 82 48 76 49 75 50 31 52 63 53 43 54 62 55
REMARK SMILES IDX 44 56 47 57 61 58 80 59 45 60 46 61 60 63 81 64 48 65 32 66
REMARK SMILES IDX 33 67 41 68 34 69 35 70 39 71 42 72 36 73 37 74 40 75 38 76
REMARK SMILES IDX 64 77 65 78 73 79 66 80 67 81 71 82 74 83 68 84 69 85 72 86
REMARK SMILES IDX 70 87 49 88 50 89 58 90 51 91 52 92 56 93 59 94 53 95 54 96
REMARK SMILES IDX 57 97 55 98
REMARK H PARENT 16 6 20 32 79 51 47 62
REMARK Flexibility Score: inf
ROOT
ATOM      1  C   UNL     1       4.282  -1.090  10.576  1.00  0.00     0.042 C 
ENDROOT
BRANCH   1   2
ATOM      2  C   UNL     1       4.912  -2.480  10.500  1.00  0.00     0.117 C 
BRANCH   2   3
ATOM      3  N   UNL     1       3.910  -3.513  10.288  1.00  0.00    -0.354 N 
ATOM      4  C   UNL     1       3.537  -4.278   9.224  1.00  0.00     0.242 C 
ATOM      5  O   UNL     1       2.568  -5.018   9.435  1.00  0.00    -0.273 OA
ATOM      6  H   UNL     1       3.381  -3.703  11.096  1.00  0.00     0.163 HD
BRANCH   4   7
ATOM      7  C   UNL     1       4.201  -4.260   7.818  1.00  0.00     0.178 C 
ATOM      8  C   UNL     1       5.674  -4.648   7.845  1.00  0.00     0.042 C 
BRANCH   7   9
ATOM      9  N   UNL     1       3.824  -3.050   7.062  1.00  0.00    -0.280 N 
ATOM     10  N   UNL     1       0.813  -0.850   2.706  1.00  0.00    -0.308 N 
ATOM     11  C   UNL     1       1.262  -1.842   3.600  1.00  0.00     0.260 C 
ATOM     12  C   UNL     1       0.906   0.432   3.277  1.00  0.00     0.052 A 
ATOM     13  O   UNL     1       1.375  -3.030   3.392  1.00  0.00    -0.269 OA
ATOM     14  C   UNL     1       1.689  -1.093   4.841  1.00  0.00     0.069 C 
ATOM     15  C   UNL     1       1.449   0.340   4.560  1.00  0.00     0.014 A 
ATOM     16  C   UNL     1       0.580   1.664   2.724  1.00  0.00     0.028 A 
ATOM     17  C   UNL     1       2.315  -1.621   5.908  1.00  0.00     0.093 C 
ATOM     18  C   UNL     1       1.693   1.494   5.287  1.00  0.00     0.026 A 
ATOM     19  C   UNL     1       0.896   2.829   3.434  1.00  0.00     0.018 A 
ATOM     20  S   UNL     1       3.149  -0.644   7.076  1.00  0.00    -0.053 SA
ATOM     21  C   UNL     1       2.650  -3.041   6.290  1.00  0.00     0.267 C 
ATOM     22  C   UNL     1       1.474   2.731   4.698  1.00  0.00     0.018 A 
ATOM     23  C   UNL     1       4.417  -1.825   7.163  1.00  0.00     0.149 C 
ATOM     24  O   UNL     1       1.954  -4.007   6.027  1.00  0.00    -0.268 OA
ATOM     25  Br  UNL     1       2.071   4.250   5.636  1.00  0.00    -0.051 Br
ATOM     26  S   UNL     1       6.018  -1.378   7.178  1.00  0.00    -0.052 S 
BRANCH  10  27
ATOM     27  C   UNL     1       0.357  -1.132   1.356  1.00  0.00     0.122 C 
ATOM     28  C   UNL     1       1.154  -0.446   0.249  1.00  0.00     0.028 C 
ENDBRANCH  10  27
ENDBRANCH   7   9
ENDBRANCH   4   7
ENDBRANCH   2   3
ENDBRANCH   1   2
BRANCH   1  29
ATOM     29  C   UNL     1       3.761  -0.720  11.960  1.00  0.00     0.118 C 
BRANCH  29  30
ATOM     30  N   UNL     1       4.813  -0.240  12.847  1.00  0.00    -0.352 N 
ATOM     31  C   UNL     1       5.076   1.017  13.345  1.00  0.00     0.251 C 
ATOM     32  H   UNL     1       5.446  -0.935  13.142  1.00  0.00     0.163 HD
ATOM     33  O   UNL     1       6.133   1.214  13.941  1.00  0.00    -0.269 OA
BRANCH  31  34
ATOM     34  C   UNL     1       4.129   2.143  13.154  1.00  0.00     0.039 A 
ATOM     35  C   UNL     1       2.750   1.962  13.233  1.00  0.00     0.014 A 
ATOM     36  C   UNL     1       4.636   3.431  12.936  1.00  0.00     0.014 A 
ATOM     37  C   UNL     1       1.887   3.007  12.910  1.00  0.00     0.010 A 
ATOM     38  C   UNL     1       3.766   4.508  12.717  1.00  0.00     0.010 A 
ATOM     39  C   UNL     1       2.381   4.298  12.656  1.00  0.00    -0.014 A 
BRANCH  39  40
ATOM     40  C   UNL     1       1.427   5.403  12.358  1.00  0.00     0.031 A 
ATOM     41  C   UNL     1       1.460   6.128  11.037  1.00  0.00     0.074 A 
ATOM     42  C   UNL     1       0.482   5.721  13.267  1.00  0.00     0.049 A 
ATOM     43  N   UNL     1       0.698   7.108  10.615  1.00  0.00    -0.248 NA
ATOM     44  C   UNL     1       2.478   5.706  10.061  1.00  0.00     0.031 C 
ATOM     45  C   UNL     1       0.337   5.097  14.584  1.00  0.00     0.029 A 
ATOM     46  N   UNL     1      -0.553   6.622  13.214  1.00  0.00    -0.354 N 
ATOM     47  C   UNL     1       1.157   7.433   9.345  1.00  0.00     0.074 A 
ATOM     48  C   UNL     1       2.276   6.560   9.065  1.00  0.00     0.031 C 
ATOM     49  C   UNL     1      -0.760   5.581  15.183  1.00  0.00     0.029 A 
ATOM     50  C   UNL     1      -1.357   6.602  14.329  1.00  0.00     0.049 A 
ATOM     51  H   UNL     1      -0.706   7.225  12.451  1.00  0.00     0.167 HD
ATOM     52  C   UNL     1       0.678   8.363   8.485  1.00  0.00     0.037 A 
ATOM     53  C   UNL     1      -2.447   7.330  14.640  1.00  0.00     0.037 A 
ATOM     54  C   UNL     1      -0.465   9.197   8.734  1.00  0.00     0.049 A 
ATOM     55  C   UNL     1      -2.944   8.362  13.668  1.00  0.00     0.074 A 
ATOM     56  C   UNL     1      -1.030  10.147   7.901  1.00  0.00     0.029 A 
ATOM     57  N   UNL     1      -1.226   9.170   9.891  1.00  0.00    -0.354 N 
ATOM     58  N   UNL     1      -2.494   8.655  12.474  1.00  0.00    -0.248 NA
ATOM     59  C   UNL     1      -4.094   9.173  14.093  1.00  0.00     0.031 C 
ATOM     60  C   UNL     1      -2.120  10.715   8.566  1.00  0.00     0.029 A 
ATOM     61  C   UNL     1      -2.252  10.095   9.798  1.00  0.00     0.049 A 
ATOM     62  H   UNL     1      -1.062   8.582  10.663  1.00  0.00     0.167 HD
ATOM     63  C   UNL     1      -3.309   9.671  11.998  1.00  0.00     0.074 A 
ATOM     64  C   UNL     1      -4.297   9.932  13.024  1.00  0.00     0.031 C 
ATOM     65  C   UNL     1      -3.238  10.334  10.819  1.00  0.00     0.037 A 
BRANCH  52  66
ATOM     66  C   UNL     1       1.368   8.527   7.167  1.00  0.00     0.064 A 
ATOM     67  C   UNL     1       1.089   7.663   6.102  1.00  0.00     0.173 A 
ATOM     68  C   UNL     1       2.232   9.605   6.932  1.00  0.00     0.173 A 
ATOM     69  F   UNL     1       0.218   6.657   6.270  1.00  0.00    -0.203 F 
ATOM     70  C   UNL     1       1.695   7.837   4.860  1.00  0.00     0.198 A 
ATOM     71  C   UNL     1       2.814   9.794   5.681  1.00  0.00     0.198 A 
ATOM     72  F   UNL     1       2.485  10.492   7.906  1.00  0.00    -0.203 F 
ATOM     73  F   UNL     1       1.441   6.980   3.861  1.00  0.00    -0.200 F 
ATOM     74  C   UNL     1       2.559   8.901   4.651  1.00  0.00     0.200 A 
ATOM     75  F   UNL     1       3.612  10.850   5.466  1.00  0.00    -0.200 F 
ATOM     76  F   UNL     1       3.135   9.072   3.453  1.00  0.00    -0.200 F 
ENDBRANCH  52  66
BRANCH  53  77
ATOM     77  C   UNL     1      -3.143   7.092  15.931  1.00  0.00     0.064 A 
ATOM     78  C   UNL     1      -4.416   6.507  15.966  1.00  0.00     0.173 A 
ATOM     79  C   UNL     1      -2.538   7.412  17.156  1.00  0.00     0.173 A 
ATOM     80  F   UNL     1      -5.044   6.203  14.820  1.00  0.00    -0.203 F 
ATOM     81  C   UNL     1      -5.057   6.250  17.176  1.00  0.00     0.198 A 
ATOM     82  C   UNL     1      -3.167   7.128  18.366  1.00  0.00     0.198 A 
ATOM     83  F   UNL     1      -1.320   7.972  17.177  1.00  0.00    -0.203 F 
ATOM     84  F   UNL     1      -6.285   5.715  17.180  1.00  0.00    -0.200 F 
ATOM     85  C   UNL     1      -4.428   6.551  18.375  1.00  0.00     0.200 A 
ATOM     86  F   UNL     1      -2.548   7.404  19.522  1.00  0.00    -0.200 F 
ATOM     87  F   UNL     1      -5.038   6.287  19.538  1.00  0.00    -0.200 F 
ENDBRANCH  53  77
BRANCH  65  88
ATOM     88  C   UNL     1      -4.264  11.393  10.552  1.00  0.00     0.064 A 
ATOM     89  C   UNL     1      -4.211  12.637  11.195  1.00  0.00     0.173 A 
ATOM     90  C   UNL     1      -5.258  11.193   9.582  1.00  0.00     0.173 A 
ATOM     91  F   UNL     1      -3.284  12.872  12.136  1.00  0.00    -0.203 F 
ATOM     92  C   UNL     1      -5.126  13.640  10.886  1.00  0.00     0.198 A 
ATOM     93  C   UNL     1      -6.154  12.206   9.257  1.00  0.00     0.198 A 
ATOM     94  F   UNL     1      -5.341  10.022   8.931  1.00  0.00    -0.203 F 
ATOM     95  F   UNL     1      -5.076  14.812  11.534  1.00  0.00    -0.200 F 
ATOM     96  C   UNL     1      -6.089  13.427   9.911  1.00  0.00     0.200 A 
ATOM     97  F   UNL     1      -7.073  12.005   8.303  1.00  0.00    -0.200 F 
ATOM     98  F   UNL     1      -6.957  14.400   9.602  1.00  0.00    -0.200 F 
ENDBRANCH  65  88
ENDBRANCH  39  40
ENDBRANCH  31  34
ENDBRANCH  29  30
ENDBRANCH   1  29
TORSDOF 12
