REMARK SMILES C[C@@H]1C(=O)NC(=O)CN1C(=O)NC1(CC(=O)NCCCNC(=O)c2ccc(-c3c4nc(c(-c5c(F)c(F)c(F)c(F)c5F)c5ccc([nH]5)c(-c5c(F)c(F)c(F)c(F)c5F)c5nc(c(-c6c(F)c(F)c(F)c(F)c6F)c6ccc3[nH]6)C=C5)C=C4)cc2)CCC1
REMARK SMILES IDX 18 1 17 2 15 3 16 4 14 6 13 7 87 8 89 9 88 10 12 11 10 12
REMARK SMILES IDX 11 13 9 15 1 16 2 17 3 18 4 19 5 20 8 21 6 22 7 24 19 25
REMARK SMILES IDX 20 26 21 27 22 28 23 30 24 31 25 32 86 33 26 34 85 35 27 36
REMARK SMILES IDX 28 37 29 38 79 39 30 40 84 41 78 42 80 43 31 44 83 45 77 46
REMARK SMILES IDX 76 47 32 49 64 50 44 51 63 52 45 53 48 54 62 55 81 56 46 57
REMARK SMILES IDX 47 58 61 60 82 61 49 62 33 63 34 64 42 65 35 66 36 67 40 68
REMARK SMILES IDX 43 69 37 70 38 71 41 72 39 73 65 74 66 75 74 76 67 77 68 78
REMARK SMILES IDX 72 79 75 80 69 81 70 82 73 83 71 84 50 85 51 86 59 87 52 88
REMARK SMILES IDX 53 89 57 90 60 91 54 92 55 93 58 94 56 95
REMARK H PARENT 17 5 12 14 5 23 21 29 80 48 48 59
REMARK Flexibility Score: inf
ROOT
ATOM      1  C   UNL     1      -0.873  -0.141   1.743  1.00  0.00     0.117 C 
ENDROOT
BRANCH   1   2
ATOM      2  N   UNL     1       0.337   0.987   0.586  1.00  0.00    -0.356 N 
ATOM      3  C   UNL     1       1.790   1.615   0.658  1.00  0.00     0.222 C 
ATOM      4  O   UNL     1       2.042   2.414  -0.255  1.00  0.00    -0.275 OA
ATOM      5  H   UNL     1      -0.100   1.210  -0.267  1.00  0.00     0.163 HD
BRANCH   3   6
ATOM      6  C   UNL     1       3.113   1.147   1.750  1.00  0.00     0.128 C 
BRANCH   6   7
ATOM      7  C   UNL     1       3.051   0.388   3.199  1.00  0.00     0.051 C 
ATOM      8  C   UNL     1       4.379  -0.033   3.940  1.00  0.00     0.029 C 
ATOM      9  C   UNL     1       2.462  -0.992   3.866  1.00  0.00     0.029 C 
ATOM     10  C   UNL     1       3.869  -1.479   4.093  1.00  0.00     0.005 C 
BRANCH   7  11
ATOM     11  N   UNL     1       2.361   1.373   3.977  1.00  0.00    -0.332 N 
ATOM     12  C   UNL     1       1.106   1.594   3.609  1.00  0.00     0.318 C 
ATOM     13  O   UNL     1       0.473   2.471   4.180  1.00  0.00    -0.249 OA
ATOM     14  H   UNL     1       2.785   1.849   4.726  1.00  0.00     0.165 HD
BRANCH  12  15
ATOM     15  N   UNL     1       0.676   0.901   2.459  1.00  0.00    -0.304 N 
ATOM     16  C   UNL     1       2.320  -0.905   0.223  1.00  0.00     0.042 C 
ATOM     17  C   UNL     1       1.103  -0.627   1.243  1.00  0.00     0.174 C 
ATOM     18  C   UNL     1      -0.154  -0.866  -0.255  1.00  0.00     0.249 C 
ATOM     19  O   UNL     1      -0.164  -1.827  -1.024  1.00  0.00    -0.272 OA
ATOM     20  N   UNL     1      -1.372   0.286  -0.384  1.00  0.00    -0.293 N 
ATOM     21  C   UNL     1      -0.659   2.099   1.880  1.00  0.00     0.222 C 
ATOM     22  C   UNL     1      -1.811   1.589   0.487  1.00  0.00     0.246 C 
ATOM     23  H   UNL     1      -1.953   0.139  -1.165  1.00  0.00     0.173 HD
ATOM     24  O   UNL     1      -2.844   2.194   0.206  1.00  0.00    -0.273 OA
ENDBRANCH  12  15
ENDBRANCH   7  11
ENDBRANCH   6   7
ENDBRANCH   3   6
ENDBRANCH   1   2
BRANCH   1  25
ATOM     25  C   UNL     1      -1.868   0.122   2.969  1.00  0.00     0.042 C 
BRANCH  25  26
ATOM     26  C   UNL     1      -3.318  -0.126   2.654  1.00  0.00     0.118 C 
BRANCH  26  27
ATOM     27  N   UNL     1      -3.600  -1.193   1.687  1.00  0.00    -0.352 N 
ATOM     28  C   UNL     1      -4.691  -2.022   1.625  1.00  0.00     0.251 C 
ATOM     29  H   UNL     1      -2.917  -1.331   0.991  1.00  0.00     0.163 HD
ATOM     30  O   UNL     1      -4.755  -2.923   0.801  1.00  0.00    -0.269 OA
BRANCH  28  31
ATOM     31  C   UNL     1      -5.744  -1.808   2.619  1.00  0.00     0.039 A 
ATOM     32  C   UNL     1      -6.196  -2.884   3.375  1.00  0.00     0.014 A 
ATOM     33  C   UNL     1      -6.099  -0.496   2.926  1.00  0.00     0.014 A 
ATOM     34  C   UNL     1      -6.946  -2.618   4.512  1.00  0.00     0.010 A 
ATOM     35  C   UNL     1      -6.633  -0.233   4.164  1.00  0.00     0.010 A 
ATOM     36  C   UNL     1      -7.114  -1.290   4.942  1.00  0.00    -0.014 A 
BRANCH  36  37
ATOM     37  C   UNL     1      -7.871  -0.962   6.164  1.00  0.00     0.031 A 
ATOM     38  C   UNL     1      -9.071  -0.064   6.045  1.00  0.00     0.074 A 
ATOM     39  C   UNL     1      -7.452  -1.434   7.352  1.00  0.00     0.049 A 
ATOM     40  N   UNL     1      -9.852   0.397   6.986  1.00  0.00    -0.248 NA
ATOM     41  C   UNL     1      -9.416   0.427   4.696  1.00  0.00     0.031 C 
ATOM     42  C   UNL     1      -6.256  -2.254   7.572  1.00  0.00     0.029 A 
ATOM     43  N   UNL     1      -7.995  -1.302   8.601  1.00  0.00    -0.354 N 
ATOM     44  C   UNL     1     -10.756   1.229   6.340  1.00  0.00     0.074 A 
ATOM     45  C   UNL     1     -10.365   1.308   4.955  1.00  0.00     0.031 C 
ATOM     46  C   UNL     1      -6.195  -2.604   8.867  1.00  0.00     0.029 A 
ATOM     47  C   UNL     1      -7.315  -1.993   9.573  1.00  0.00     0.049 A 
ATOM     48  H   UNL     1      -8.798  -0.762   8.785  1.00  0.00     0.167 HD
ATOM     49  C   UNL     1     -11.858   1.824   6.845  1.00  0.00     0.037 A 
ATOM     50  C   UNL     1      -7.583  -2.114  10.885  1.00  0.00     0.037 A 
ATOM     51  C   UNL     1     -12.256   1.699   8.217  1.00  0.00     0.049 A 
ATOM     52  C   UNL     1      -8.806  -1.420  11.426  1.00  0.00     0.074 A 
ATOM     53  C   UNL     1     -13.367   2.226   8.844  1.00  0.00     0.029 A 
ATOM     54  N   UNL     1     -11.548   0.984   9.173  1.00  0.00    -0.354 N 
ATOM     55  N   UNL     1      -9.698  -0.696  10.793  1.00  0.00    -0.248 NA
ATOM     56  C   UNL     1      -9.064  -1.569  12.863  1.00  0.00     0.031 C 
ATOM     57  C   UNL     1     -13.305   1.872  10.195  1.00  0.00     0.029 A 
ATOM     58  C   UNL     1     -12.191   1.071  10.394  1.00  0.00     0.049 A 
ATOM     59  H   UNL     1     -10.713   0.490   9.007  1.00  0.00     0.167 HD
ATOM     60  C   UNL     1     -10.642  -0.334  11.744  1.00  0.00     0.074 A 
ATOM     61  C   UNL     1     -10.223  -0.941  12.991  1.00  0.00     0.031 C 
ATOM     62  C   UNL     1     -11.752   0.432  11.608  1.00  0.00     0.037 A 
BRANCH  49  63
ATOM     63  C   UNL     1     -12.707   2.626   5.904  1.00  0.00     0.064 A 
ATOM     64  C   UNL     1     -13.423   2.019   4.859  1.00  0.00     0.173 A 
ATOM     65  C   UNL     1     -12.819   4.015   6.053  1.00  0.00     0.173 A 
ATOM     66  F   UNL     1     -13.330   0.696   4.655  1.00  0.00    -0.203 F 
ATOM     67  C   UNL     1     -14.199   2.775   3.985  1.00  0.00     0.198 A 
ATOM     68  C   UNL     1     -13.626   4.764   5.200  1.00  0.00     0.198 A 
ATOM     69  F   UNL     1     -12.150   4.648   7.029  1.00  0.00    -0.203 F 
ATOM     70  F   UNL     1     -14.826   2.179   2.962  1.00  0.00    -0.200 F 
ATOM     71  C   UNL     1     -14.309   4.145   4.163  1.00  0.00     0.200 A 
ATOM     72  F   UNL     1     -13.740   6.087   5.379  1.00  0.00    -0.200 F 
ATOM     73  F   UNL     1     -15.067   4.871   3.330  1.00  0.00    -0.200 F 
ENDBRANCH  49  63
BRANCH  50  74
ATOM     74  C   UNL     1      -6.712  -2.937  11.767  1.00  0.00     0.064 A 
ATOM     75  C   UNL     1      -7.204  -4.095  12.390  1.00  0.00     0.173 A 
ATOM     76  C   UNL     1      -5.387  -2.569  12.040  1.00  0.00     0.173 A 
ATOM     77  F   UNL     1      -8.467  -4.488  12.170  1.00  0.00    -0.203 F 
ATOM     78  C   UNL     1      -6.422  -4.821  13.286  1.00  0.00     0.198 A 
ATOM     79  C   UNL     1      -4.593  -3.317  12.908  1.00  0.00     0.198 A 
ATOM     80  F   UNL     1      -4.859  -1.480  11.462  1.00  0.00    -0.203 F 
ATOM     81  F   UNL     1      -6.944  -5.880  13.920  1.00  0.00    -0.200 F 
ATOM     82  C   UNL     1      -5.117  -4.433  13.543  1.00  0.00     0.200 A 
ATOM     83  F   UNL     1      -3.325  -2.950  13.137  1.00  0.00    -0.200 F 
ATOM     84  F   UNL     1      -4.368  -5.126  14.411  1.00  0.00    -0.200 F 
ENDBRANCH  50  74
BRANCH  62  85
ATOM     85  C   UNL     1     -12.613   0.608  12.824  1.00  0.00     0.064 A 
ATOM     86  C   UNL     1     -12.191   1.366  13.925  1.00  0.00     0.173 A 
ATOM     87  C   UNL     1     -13.896   0.041  12.866  1.00  0.00     0.173 A 
ATOM     88  F   UNL     1     -10.968   1.919  13.936  1.00  0.00    -0.203 F 
ATOM     89  C   UNL     1     -13.007   1.517  15.041  1.00  0.00     0.198 A 
ATOM     90  C   UNL     1     -14.725   0.229  13.966  1.00  0.00     0.198 A 
ATOM     91  F   UNL     1     -14.352  -0.682  11.831  1.00  0.00    -0.203 F 
ATOM     92  F   UNL     1     -12.558   2.191  16.109  1.00  0.00    -0.200 F 
ATOM     93  C   UNL     1     -14.276   0.956  15.057  1.00  0.00     0.200 A 
ATOM     94  F   UNL     1     -15.959  -0.294  13.970  1.00  0.00    -0.200 F 
ATOM     95  F   UNL     1     -15.063   1.111  16.130  1.00  0.00    -0.200 F 
ENDBRANCH  62  85
ENDBRANCH  36  37
ENDBRANCH  28  31
ENDBRANCH  26  27
ENDBRANCH  25  26
ENDBRANCH   1  25
TORSDOF 13
