REMARK SMILES C=CCN(CC(=O)NCCCNC(=O)c1ccc(-c2c3nc(c(-c4c(F)c(F)c(F)c(F)c4F)c4ccc([nH]4)c(-c4c(F)c(F)c(F)c(F)c4F)c4nc(c(-c5c(F)c(F)c(F)c(F)c5F)c5ccc2[nH]5)C=C4)C=C3)cc1)C(=O)c1cc(OC)ccc1Br
REMARK SMILES IDX 9 1 8 2 6 3 7 4 5 6 4 7 3 8 2 9 1 10 78 11 79 12 80 13 81 14
REMARK SMILES IDX 87 15 82 16 86 17 88 18 85 19 83 20 84 21 10 22 11 23 12 24
REMARK SMILES IDX 13 25 14 27 15 28 16 29 77 30 17 31 76 32 18 33 19 34 20 35
REMARK SMILES IDX 70 36 21 37 75 38 69 39 71 40 22 41 74 42 68 43 67 44 23 46
REMARK SMILES IDX 55 47 35 48 54 49 36 50 39 51 53 52 72 53 37 54 38 55 52 57
REMARK SMILES IDX 73 58 40 59 24 60 25 61 33 62 26 63 27 64 31 65 34 66 28 67
REMARK SMILES IDX 29 68 32 69 30 70 56 71 57 72 65 73 58 74 59 75 63 76 66 77
REMARK SMILES IDX 60 78 61 79 64 80 62 81 41 82 42 83 50 84 43 85 44 86 48 87
REMARK SMILES IDX 51 88 45 89 46 90 49 91 47 92
REMARK H PARENT 8 5 12 26 71 45 39 56
REMARK Flexibility Score: inf
ROOT
ATOM      1  C   UNL     1      -4.366   0.388  -1.112  1.00  0.00     0.117 C 
ENDROOT
BRANCH   1   2
ATOM      2  N   UNL     1      -4.646   1.792  -1.336  1.00  0.00    -0.354 N 
ATOM      3  C   UNL     1      -3.833   2.844  -1.638  1.00  0.00     0.239 C 
ATOM      4  O   UNL     1      -4.390   3.872  -2.040  1.00  0.00    -0.273 OA
ATOM      5  H   UNL     1      -5.598   2.030  -1.256  1.00  0.00     0.163 HD
BRANCH   3   6
ATOM      6  C   UNL     1      -2.295   2.767  -1.619  1.00  0.00     0.220 C 
BRANCH   6   7
ATOM      7  N   UNL     1      -1.668   2.247  -0.397  1.00  0.00    -0.326 N 
BRANCH   7   8
ATOM      8  C   UNL     1      -1.037   0.932  -0.470  1.00  0.00     0.147 C 
BRANCH   8   9
ATOM      9  C   UNL     1       0.438   1.049  -0.705  1.00  0.00    -0.014 C 
ATOM     10  C   UNL     1       1.345   0.373   0.016  1.00  0.00     0.006 C 
ENDBRANCH   8   9
ENDBRANCH   7   8
BRANCH   7  11
ATOM     11  C   UNL     1      -1.542   2.972   0.798  1.00  0.00     0.255 C 
ATOM     12  O   UNL     1      -1.026   2.511   1.814  1.00  0.00    -0.269 OA
BRANCH  11  13
ATOM     13  C   UNL     1      -1.998   4.382   0.863  1.00  0.00     0.057 A 
ATOM     14  C   UNL     1      -1.020   5.387   0.874  1.00  0.00     0.061 A 
ATOM     15  C   UNL     1      -3.333   4.743   1.065  1.00  0.00     0.031 A 
ATOM     16  C   UNL     1      -1.398   6.726   1.013  1.00  0.00     0.119 A 
ATOM     17  C   UNL     1      -3.716   6.085   1.028  1.00  0.00     0.020 A 
ATOM     18  Br  UNL     1      -4.660   3.526   1.631  1.00  0.00    -0.050 Br
ATOM     19  C   UNL     1      -2.746   7.079   0.983  1.00  0.00     0.047 A 
BRANCH  16  20
ATOM     20  O   UNL     1      -0.398   7.642   1.204  1.00  0.00    -0.497 OA
ATOM     21  C   UNL     1      -0.740   8.653   2.161  1.00  0.00     0.278 C 
ENDBRANCH  16  20
ENDBRANCH  11  13
ENDBRANCH   7  11
ENDBRANCH   6   7
ENDBRANCH   3   6
ENDBRANCH   1   2
BRANCH   1  22
ATOM     22  C   UNL     1      -4.237  -0.010   0.356  1.00  0.00     0.042 C 
BRANCH  22  23
ATOM     23  C   UNL     1      -5.511   0.095   1.191  1.00  0.00     0.118 C 
BRANCH  23  24
ATOM     24  N   UNL     1      -6.562  -0.820   0.793  1.00  0.00    -0.352 N 
ATOM     25  C   UNL     1      -7.316  -1.694   1.530  1.00  0.00     0.251 C 
ATOM     26  H   UNL     1      -6.770  -0.811  -0.170  1.00  0.00     0.163 HD
ATOM     27  O   UNL     1      -8.151  -2.390   0.943  1.00  0.00    -0.269 OA
BRANCH  25  28
ATOM     28  C   UNL     1      -7.137  -1.868   2.991  1.00  0.00     0.039 A 
ATOM     29  C   UNL     1      -7.218  -3.169   3.500  1.00  0.00     0.014 A 
ATOM     30  C   UNL     1      -6.950  -0.800   3.874  1.00  0.00     0.014 A 
ATOM     31  C   UNL     1      -7.061  -3.406   4.867  1.00  0.00     0.010 A 
ATOM     32  C   UNL     1      -6.725  -1.043   5.234  1.00  0.00     0.010 A 
ATOM     33  C   UNL     1      -6.781  -2.349   5.746  1.00  0.00    -0.014 A 
BRANCH  33  34
ATOM     34  C   UNL     1      -6.544  -2.615   7.191  1.00  0.00     0.031 A 
ATOM     35  C   UNL     1      -7.502  -2.113   8.236  1.00  0.00     0.074 A 
ATOM     36  C   UNL     1      -5.448  -3.304   7.567  1.00  0.00     0.049 A 
ATOM     37  N   UNL     1      -7.458  -2.256   9.538  1.00  0.00    -0.248 NA
ATOM     38  C   UNL     1      -8.652  -1.332   7.758  1.00  0.00     0.031 C 
ATOM     39  C   UNL     1      -4.419  -3.812   6.659  1.00  0.00     0.029 A 
ATOM     40  N   UNL     1      -5.015  -3.694   8.810  1.00  0.00    -0.354 N 
ATOM     41  C   UNL     1      -8.565  -1.580  10.033  1.00  0.00     0.074 A 
ATOM     42  C   UNL     1      -9.236  -0.985   8.897  1.00  0.00     0.031 C 
ATOM     43  C   UNL     1      -3.491  -4.471   7.370  1.00  0.00     0.029 A 
ATOM     44  C   UNL     1      -3.839  -4.403   8.787  1.00  0.00     0.049 A 
ATOM     45  H   UNL     1      -5.502  -3.486   9.640  1.00  0.00     0.167 HD
ATOM     46  C   UNL     1      -8.996  -1.482  11.315  1.00  0.00     0.037 A 
ATOM     47  C   UNL     1      -3.120  -4.939   9.792  1.00  0.00     0.037 A 
ATOM     48  C   UNL     1      -8.338  -2.087  12.445  1.00  0.00     0.049 A 
ATOM     49  C   UNL     1      -3.618  -4.810  11.206  1.00  0.00     0.074 A 
ATOM     50  C   UNL     1      -8.726  -2.082  13.774  1.00  0.00     0.029 A 
ATOM     51  N   UNL     1      -7.152  -2.803  12.379  1.00  0.00    -0.354 N 
ATOM     52  N   UNL     1      -4.702  -4.225  11.652  1.00  0.00    -0.248 NA
ATOM     53  C   UNL     1      -2.795  -5.428  12.255  1.00  0.00     0.031 C 
ATOM     54  C   UNL     1      -7.752  -2.757  14.519  1.00  0.00     0.029 A 
ATOM     55  C   UNL     1      -6.784  -3.228  13.647  1.00  0.00     0.049 A 
ATOM     56  H   UNL     1      -6.646  -2.983  11.554  1.00  0.00     0.167 HD
ATOM     57  C   UNL     1      -4.707  -4.428  13.026  1.00  0.00     0.074 A 
ATOM     58  C   UNL     1      -3.526  -5.205  13.337  1.00  0.00     0.031 C 
ATOM     59  C   UNL     1      -5.610  -4.008  13.945  1.00  0.00     0.037 A 
BRANCH  46  60
ATOM     60  C   UNL     1     -10.245  -0.686  11.567  1.00  0.00     0.064 A 
ATOM     61  C   UNL     1     -11.506  -1.151  11.161  1.00  0.00     0.173 A 
ATOM     62  C   UNL     1     -10.188   0.534  12.256  1.00  0.00     0.173 A 
ATOM     63  F   UNL     1     -11.616  -2.308  10.491  1.00  0.00    -0.203 F 
ATOM     64  C   UNL     1     -12.658  -0.409  11.410  1.00  0.00     0.198 A 
ATOM     65  C   UNL     1     -11.345   1.259  12.529  1.00  0.00     0.198 A 
ATOM     66  F   UNL     1      -9.010   1.021  12.674  1.00  0.00    -0.203 F 
ATOM     67  F   UNL     1     -13.845  -0.850  10.971  1.00  0.00    -0.200 F 
ATOM     68  C   UNL     1     -12.578   0.791  12.099  1.00  0.00     0.200 A 
ATOM     69  F   UNL     1     -11.268   2.413  13.207  1.00  0.00    -0.200 F 
ATOM     70  F   UNL     1     -13.688   1.501  12.343  1.00  0.00    -0.200 F 
ENDBRANCH  46  60
BRANCH  47  71
ATOM     71  C   UNL     1      -1.864  -5.675   9.494  1.00  0.00     0.064 A 
ATOM     72  C   UNL     1      -1.788  -7.065   9.661  1.00  0.00     0.173 A 
ATOM     73  C   UNL     1      -0.715  -5.007   9.045  1.00  0.00     0.173 A 
ATOM     74  F   UNL     1      -2.853  -7.744  10.110  1.00  0.00    -0.203 F 
ATOM     75  C   UNL     1      -0.605  -7.756   9.409  1.00  0.00     0.198 A 
ATOM     76  C   UNL     1       0.459  -5.704   8.767  1.00  0.00     0.198 A 
ATOM     77  F   UNL     1      -0.738  -3.678   8.867  1.00  0.00    -0.203 F 
ATOM     78  F   UNL     1      -0.546  -9.078   9.622  1.00  0.00    -0.200 F 
ATOM     79  C   UNL     1       0.516  -7.076   8.957  1.00  0.00     0.200 A 
ATOM     80  F   UNL     1       1.536  -5.045   8.318  1.00  0.00    -0.200 F 
ATOM     81  F   UNL     1       1.652  -7.742   8.712  1.00  0.00    -0.200 F 
ENDBRANCH  47  71
BRANCH  59  82
ATOM     82  C   UNL     1      -5.377  -4.414  15.372  1.00  0.00     0.064 A 
ATOM     83  C   UNL     1      -4.340  -3.860  16.137  1.00  0.00     0.173 A 
ATOM     84  C   UNL     1      -6.216  -5.355  15.988  1.00  0.00     0.173 A 
ATOM     85  F   UNL     1      -3.499  -2.968  15.591  1.00  0.00    -0.203 F 
ATOM     86  C   UNL     1      -4.133  -4.257  17.456  1.00  0.00     0.198 A 
ATOM     87  C   UNL     1      -6.025  -5.726  17.316  1.00  0.00     0.198 A 
ATOM     88  F   UNL     1      -7.227  -5.910  15.303  1.00  0.00    -0.203 F 
ATOM     89  F   UNL     1      -3.102  -3.755  18.151  1.00  0.00    -0.200 F 
ATOM     90  C   UNL     1      -4.979  -5.184  18.046  1.00  0.00     0.200 A 
ATOM     91  F   UNL     1      -6.852  -6.613  17.888  1.00  0.00    -0.200 F 
ATOM     92  F   UNL     1      -4.779  -5.563  19.316  1.00  0.00    -0.200 F 
ENDBRANCH  59  82
ENDBRANCH  33  34
ENDBRANCH  25  28
ENDBRANCH  23  24
ENDBRANCH  22  23
ENDBRANCH   1  22
TORSDOF 16
