REMARK SMILES [NH3+][C@H](C(=O)NCCCNC(=O)c1ccc(-c2c3nc(c(-c4c(F)c(F)c(F)c(F)c4F)c4ccc([nH]4)c(-c4c(F)c(F)c(F)c(F)c4F)c4nc(c(-c5c(F)c(F)c(F)c(F)c5F)c5ccc2[nH]5)C=C4)C=C3)cc1)c1ccc(OCC(=O)N2CCCC2)cc1
REMARK SMILES IDX 6 1 5 2 3 3 4 4 2 6 1 7 75 11 76 12 89 13 77 14 88 15 78 16
REMARK SMILES IDX 79 17 80 18 81 19 82 20 83 21 84 22 87 23 85 24 86 25 7 26
REMARK SMILES IDX 8 27 9 28 10 29 11 31 12 32 13 33 74 34 14 35 73 36 15 37
REMARK SMILES IDX 16 38 17 39 67 40 18 41 72 42 66 43 68 44 19 45 71 46 65 47
REMARK SMILES IDX 64 48 20 50 52 51 32 52 51 53 33 54 36 55 50 56 69 57 34 58
REMARK SMILES IDX 35 59 49 61 70 62 37 63 21 64 22 65 30 66 23 67 24 68 28 69
REMARK SMILES IDX 31 70 25 71 26 72 29 73 27 74 53 75 54 76 62 77 55 78 56 79
REMARK SMILES IDX 60 80 63 81 57 82 58 83 61 84 59 85 38 86 39 87 47 88 40 89
REMARK SMILES IDX 41 90 45 91 48 92 42 93 43 94 46 95 44 96
REMARK H PARENT 5 5 1 8 1 9 1 10 9 30 68 49 36 60
REMARK Flexibility Score: inf
ROOT
ATOM      1  C   UNL     1      -0.698  -1.008   1.072  1.00  0.00     0.118 C 
ENDROOT
BRANCH   1   2
ATOM      2  N   UNL     1       0.696  -0.752   0.750  1.00  0.00    -0.351 N 
ATOM      3  C   UNL     1       1.325   0.058  -0.139  1.00  0.00     0.283 C 
ATOM      4  O   UNL     1       2.566  -0.021  -0.120  1.00  0.00    -0.268 OA
ATOM      5  H   UNL     1       1.321  -1.282   1.297  1.00  0.00     0.163 HD
BRANCH   3   6
ATOM      6  C   UNL     1       0.666   1.025  -1.171  1.00  0.00     0.302 C 
BRANCH   6   7
ATOM      7  N   UNL     1       1.290   0.782  -2.496  1.00  0.00    -0.343 N 
ATOM      8  H   UNL     1       0.874   1.405  -3.188  1.00  0.00     0.345 HD
ATOM      9  H   UNL     1       1.133  -0.187  -2.773  1.00  0.00     0.345 HD
ATOM     10  H   UNL     1       2.293   0.961  -2.438  1.00  0.00     0.345 HD
ENDBRANCH   6   7
BRANCH   6  11
ATOM     11  C   UNL     1      -0.839   1.073  -1.278  1.00  0.00     0.019 A 
ATOM     12  C   UNL     1      -1.549   2.129  -0.681  1.00  0.00     0.014 A 
ATOM     13  C   UNL     1      -1.570   0.069  -1.925  1.00  0.00     0.014 A 
ATOM     14  C   UNL     1      -2.944   2.119  -0.649  1.00  0.00     0.047 A 
ATOM     15  C   UNL     1      -2.964   0.038  -1.854  1.00  0.00     0.047 A 
ATOM     16  C   UNL     1      -3.654   1.048  -1.189  1.00  0.00     0.120 A 
BRANCH  16  17
ATOM     17  O   UNL     1      -5.010   1.126  -1.057  1.00  0.00    -0.484 OA
BRANCH  17  18
ATOM     18  C   UNL     1      -5.725  -0.095  -1.010  1.00  0.00     0.329 C 
BRANCH  18  19
ATOM     19  C   UNL     1      -5.973  -0.916  -2.288  1.00  0.00     0.260 C 
ATOM     20  O   UNL     1      -6.073  -2.145  -2.217  1.00  0.00    -0.271 OA
ATOM     21  N   UNL     1      -6.111  -0.256  -3.487  1.00  0.00    -0.340 N 
ATOM     22  C   UNL     1      -6.003   1.171  -3.737  1.00  0.00     0.119 C 
ATOM     23  C   UNL     1      -6.381  -0.985  -4.712  1.00  0.00     0.119 C 
ATOM     24  C   UNL     1      -6.728   1.365  -5.056  1.00  0.00     0.023 C 
ATOM     25  C   UNL     1      -6.433   0.073  -5.807  1.00  0.00     0.023 C 
ENDBRANCH  18  19
ENDBRANCH  17  18
ENDBRANCH  16  17
ENDBRANCH   6  11
ENDBRANCH   3   6
ENDBRANCH   1   2
BRANCH   1  26
ATOM     26  C   UNL     1      -1.253  -2.221   0.323  1.00  0.00     0.042 C 
BRANCH  26  27
ATOM     27  C   UNL     1      -0.920  -3.563   0.967  1.00  0.00     0.118 C 
BRANCH  27  28
ATOM     28  N   UNL     1      -1.670  -3.789   2.192  1.00  0.00    -0.352 N 
ATOM     29  C   UNL     1      -2.519  -4.807   2.552  1.00  0.00     0.251 C 
ATOM     30  H   UNL     1      -1.548  -3.096   2.880  1.00  0.00     0.163 HD
ATOM     31  O   UNL     1      -3.188  -4.685   3.575  1.00  0.00    -0.269 OA
BRANCH  29  32
ATOM     32  C   UNL     1      -2.656  -6.039   1.738  1.00  0.00     0.039 A 
ATOM     33  C   UNL     1      -3.916  -6.644   1.659  1.00  0.00     0.014 A 
ATOM     34  C   UNL     1      -1.563  -6.650   1.118  1.00  0.00     0.014 A 
ATOM     35  C   UNL     1      -4.088  -7.824   0.928  1.00  0.00     0.010 A 
ATOM     36  C   UNL     1      -1.747  -7.790   0.331  1.00  0.00     0.010 A 
ATOM     37  C   UNL     1      -3.010  -8.393   0.234  1.00  0.00    -0.014 A 
BRANCH  37  38
ATOM     38  C   UNL     1      -3.190  -9.617  -0.592  1.00  0.00     0.031 A 
ATOM     39  C   UNL     1      -2.498 -10.900  -0.218  1.00  0.00     0.074 A 
ATOM     40  C   UNL     1      -3.940  -9.561  -1.710  1.00  0.00     0.049 A 
ATOM     41  N   UNL     1      -2.482 -12.048  -0.849  1.00  0.00    -0.248 NA
ATOM     42  C   UNL     1      -1.698 -10.885   1.017  1.00  0.00     0.031 C 
ATOM     43  C   UNL     1      -4.630  -8.369  -2.204  1.00  0.00     0.029 A 
ATOM     44  N   UNL     1      -4.239 -10.527  -2.638  1.00  0.00    -0.354 N 
ATOM     45  C   UNL     1      -1.666 -12.884  -0.098  1.00  0.00     0.074 A 
ATOM     46  C   UNL     1      -1.167 -12.100   1.011  1.00  0.00     0.031 C 
ATOM     47  C   UNL     1      -5.285  -8.678  -3.335  1.00  0.00     0.029 A 
ATOM     48  C   UNL     1      -5.034 -10.077  -3.664  1.00  0.00     0.049 A 
ATOM     49  H   UNL     1      -3.915 -11.455  -2.575  1.00  0.00     0.167 HD
ATOM     50  C   UNL     1      -1.375 -14.191  -0.303  1.00  0.00     0.037 A 
ATOM     51  C   UNL     1      -5.501 -10.718  -4.753  1.00  0.00     0.037 A 
ATOM     52  C   UNL     1      -1.894 -14.980  -1.390  1.00  0.00     0.049 A 
ATOM     53  C   UNL     1      -5.166 -12.171  -4.953  1.00  0.00     0.074 A 
ATOM     54  C   UNL     1      -1.698 -16.325  -1.652  1.00  0.00     0.029 A 
ATOM     55  N   UNL     1      -2.715 -14.493  -2.396  1.00  0.00    -0.354 N 
ATOM     56  N   UNL     1      -4.438 -12.963  -4.205  1.00  0.00    -0.248 NA
ATOM     57  C   UNL     1      -5.725 -12.821  -6.147  1.00  0.00     0.031 C 
ATOM     58  C   UNL     1      -2.370 -16.645  -2.837  1.00  0.00     0.029 A 
ATOM     59  C   UNL     1      -3.021 -15.509  -3.289  1.00  0.00     0.049 A 
ATOM     60  H   UNL     1      -3.034 -13.565  -2.466  1.00  0.00     0.167 HD
ATOM     61  C   UNL     1      -4.471 -14.207  -4.821  1.00  0.00     0.074 A 
ATOM     62  C   UNL     1      -5.306 -14.069  -5.996  1.00  0.00     0.031 C 
ATOM     63  C   UNL     1      -3.860 -15.358  -4.450  1.00  0.00     0.037 A 
BRANCH  50  64
ATOM     64  C   UNL     1      -0.457 -14.863   0.677  1.00  0.00     0.064 A 
ATOM     65  C   UNL     1      -0.874 -15.167   1.982  1.00  0.00     0.173 A 
ATOM     66  C   UNL     1       0.833 -15.257   0.292  1.00  0.00     0.173 A 
ATOM     67  F   UNL     1      -2.095 -14.803   2.402  1.00  0.00    -0.203 F 
ATOM     68  C   UNL     1      -0.025 -15.820   2.872  1.00  0.00     0.198 A 
ATOM     69  C   UNL     1       1.669 -15.935   1.176  1.00  0.00     0.198 A 
ATOM     70  F   UNL     1       1.279 -14.998  -0.946  1.00  0.00    -0.203 F 
ATOM     71  F   UNL     1      -0.431 -16.064   4.126  1.00  0.00    -0.200 F 
ATOM     72  C   UNL     1       1.242 -16.210   2.466  1.00  0.00     0.200 A 
ATOM     73  F   UNL     1       2.889 -16.323   0.779  1.00  0.00    -0.200 F 
ATOM     74  F   UNL     1       2.054 -16.848   3.321  1.00  0.00    -0.200 F 
ENDBRANCH  50  64
BRANCH  51  75
ATOM     75  C   UNL     1      -6.352  -9.994  -5.732  1.00  0.00     0.064 A 
ATOM     76  C   UNL     1      -7.715 -10.296  -5.863  1.00  0.00     0.173 A 
ATOM     77  C   UNL     1      -5.821  -8.999  -6.565  1.00  0.00     0.173 A 
ATOM     78  F   UNL     1      -8.263 -11.258  -5.105  1.00  0.00    -0.203 F 
ATOM     79  C   UNL     1      -8.509  -9.646  -6.805  1.00  0.00     0.198 A 
ATOM     80  C   UNL     1      -6.623  -8.329  -7.487  1.00  0.00     0.198 A 
ATOM     81  F   UNL     1      -4.523  -8.672  -6.479  1.00  0.00    -0.203 F 
ATOM     82  F   UNL     1      -9.797  -9.989  -6.944  1.00  0.00    -0.200 F 
ATOM     83  C   UNL     1      -7.964  -8.659  -7.613  1.00  0.00     0.200 A 
ATOM     84  F   UNL     1      -6.095  -7.369  -8.258  1.00  0.00    -0.200 F 
ATOM     85  F   UNL     1      -8.728  -8.035  -8.519  1.00  0.00    -0.200 F 
ENDBRANCH  51  75
BRANCH  63  86
ATOM     86  C   UNL     1      -4.097 -16.567  -5.306  1.00  0.00     0.064 A 
ATOM     87  C   UNL     1      -3.517 -16.691  -6.577  1.00  0.00     0.173 A 
ATOM     88  C   UNL     1      -4.890 -17.625  -4.838  1.00  0.00     0.173 A 
ATOM     89  F   UNL     1      -2.763 -15.699  -7.075  1.00  0.00    -0.203 F 
ATOM     90  C   UNL     1      -3.744 -17.820  -7.359  1.00  0.00     0.198 A 
ATOM     91  C   UNL     1      -5.093 -18.765  -5.612  1.00  0.00     0.198 A 
ATOM     92  F   UNL     1      -5.463 -17.557  -3.627  1.00  0.00    -0.203 F 
ATOM     93  F   UNL     1      -3.219 -17.897  -8.590  1.00  0.00    -0.200 F 
ATOM     94  C   UNL     1      -4.526 -18.858  -6.874  1.00  0.00     0.200 A 
ATOM     95  F   UNL     1      -5.839 -19.772  -5.137  1.00  0.00    -0.200 F 
ATOM     96  F   UNL     1      -4.740 -19.946  -7.627  1.00  0.00    -0.200 F 
ENDBRANCH  63  86
ENDBRANCH  37  38
ENDBRANCH  29  32
ENDBRANCH  27  28
ENDBRANCH  26  27
ENDBRANCH   1  26
TORSDOF 15
