REMARK SMILES NC(=O)[C@@H]1CCC[N@@H+]1[C@@H](C(=O)NCCCNC(=O)c1ccc(-c2c3nc(c(-c4c(F)c(F)c(F)c(F)c4F)c4ccc([nH]4)c(-c4c(F)c(F)c(F)c(F)c4F)c4nc(c(-c5c(F)c(F)c(F)c(F)c5F)c5ccc2[nH]5)C=C4)C=C3)cc1)c1c[nH]c2cc(OCc3ccccc3)ccc12
REMARK SMILES IDX 13 1 12 2 10 3 11 4 9 6 8 7 4 8 5 9 6 10 7 11 2 13 1 14 3 17
REMARK SMILES IDX 82 18 83 19 98 20 84 21 85 22 97 23 86 25 96 26 87 27 88 28
REMARK SMILES IDX 89 29 90 30 91 31 95 32 92 33 94 34 93 35 14 36 15 37 16 38
REMARK SMILES IDX 17 39 18 41 19 42 20 43 81 44 21 45 80 46 22 47 23 48 24 49
REMARK SMILES IDX 74 50 25 51 79 52 73 53 75 54 26 55 78 56 72 57 71 58 27 60
REMARK SMILES IDX 59 61 39 62 58 63 40 64 43 65 57 66 76 67 41 68 42 69 56 71
REMARK SMILES IDX 77 72 44 73 28 74 29 75 37 76 30 77 31 78 35 79 38 80 32 81
REMARK SMILES IDX 33 82 36 83 34 84 60 85 61 86 69 87 62 88 63 89 67 90 70 91
REMARK SMILES IDX 64 92 65 93 68 94 66 95 45 96 46 97 54 98 47 99 48 100
REMARK SMILES IDX 52 101 55 102 49 103 50 104 53 105 51 106
REMARK H PARENT 12 5 8 12 1 15 1 16 84 24 16 40 75 59 43 70
REMARK Flexibility Score: inf
ROOT
ATOM      1  C   UNL     1      -1.591   1.207   2.353  1.00  0.00     0.118 C 
ENDROOT
BRANCH   1   2
ATOM      2  N   UNL     1      -1.376   2.408   3.140  1.00  0.00    -0.351 N 
ATOM      3  C   UNL     1      -0.916   3.671   2.919  1.00  0.00     0.283 C 
ATOM      4  O   UNL     1      -0.682   4.252   3.986  1.00  0.00    -0.268 OA
ATOM      5  H   UNL     1      -1.629   2.273   4.082  1.00  0.00     0.163 HD
BRANCH   3   6
ATOM      6  C   UNL     1      -0.674   4.305   1.512  1.00  0.00     0.308 C 
BRANCH   6   7
ATOM      7  N   UNL     1       0.757   4.231   1.035  1.00  0.00    -0.311 N 
ATOM      8  C   UNL     1       1.415   2.947   0.770  1.00  0.00     0.275 C 
ATOM      9  C   UNL     1       2.000   2.541   2.118  1.00  0.00     0.081 C 
ATOM     10  C   UNL     1       2.335   3.859   2.799  1.00  0.00     0.068 C 
ATOM     11  C   UNL     1       1.745   4.917   1.887  1.00  0.00     0.264 C 
ATOM     12  H   UNL     1       0.543   4.681   0.145  1.00  0.00     0.349 HD
BRANCH   8  13
ATOM     13  C   UNL     1       0.656   1.924  -0.068  1.00  0.00     0.275 C 
ATOM     14  N   UNL     1       1.304   0.736  -0.258  1.00  0.00    -0.365 N 
ATOM     15  H   UNL     1       0.880   0.023  -0.789  1.00  0.00     0.159 HD
ATOM     16  H   UNL     1       2.195   0.592   0.136  1.00  0.00     0.159 HD
ATOM     17  O   UNL     1      -0.425   2.111  -0.634  1.00  0.00    -0.268 OA
ENDBRANCH   8  13
ENDBRANCH   6   7
BRANCH   6  18
ATOM     18  C   UNL     1      -0.992   5.843   1.405  1.00  0.00     0.044 A 
ATOM     19  C   UNL     1      -0.896   6.542   0.201  1.00  0.00     0.094 A 
ATOM     20  C   UNL     1      -0.903   6.872   2.421  1.00  0.00     0.009 A 
ATOM     21  N   UNL     1      -0.214   7.706   0.486  1.00  0.00    -0.361 N 
ATOM     22  C   UNL     1      -0.064   7.830   1.847  1.00  0.00     0.050 A 
ATOM     23  C   UNL     1      -1.114   6.949   3.812  1.00  0.00     0.015 A 
ATOM     24  H   UNL     1       0.115   8.350  -0.182  1.00  0.00     0.166 HD
ATOM     25  C   UNL     1       0.821   8.598   2.616  1.00  0.00     0.073 A 
ATOM     26  C   UNL     1      -0.269   7.742   4.602  1.00  0.00     0.047 A 
ATOM     27  C   UNL     1       0.758   8.465   4.010  1.00  0.00     0.121 A 
BRANCH  27  28
ATOM     28  O   UNL     1       1.855   8.930   4.679  1.00  0.00    -0.489 OA
BRANCH  28  29
ATOM     29  C   UNL     1       1.670   9.519   5.963  1.00  0.00     0.265 C 
BRANCH  29  30
ATOM     30  C   UNL     1       1.893  10.996   5.777  1.00  0.00    -0.011 A 
ATOM     31  C   UNL     1       3.162  11.473   5.415  1.00  0.00     0.007 A 
ATOM     32  C   UNL     1       0.819  11.889   5.849  1.00  0.00     0.007 A 
ATOM     33  C   UNL     1       3.348  12.820   5.115  1.00  0.00     0.000 A 
ATOM     34  C   UNL     1       1.008  13.237   5.553  1.00  0.00     0.000 A 
ATOM     35  C   UNL     1       2.270  13.701   5.180  1.00  0.00     0.000 A 
ENDBRANCH  29  30
ENDBRANCH  28  29
ENDBRANCH  27  28
ENDBRANCH   6  18
ENDBRANCH   3   6
ENDBRANCH   1   2
BRANCH   1  36
ATOM     36  C   UNL     1      -0.538   0.104   2.600  1.00  0.00     0.042 C 
BRANCH  36  37
ATOM     37  C   UNL     1      -0.118  -0.136   4.060  1.00  0.00     0.118 C 
BRANCH  37  38
ATOM     38  N   UNL     1      -0.529  -1.450   4.520  1.00  0.00    -0.352 N 
ATOM     39  C   UNL     1       0.186  -2.427   5.157  1.00  0.00     0.251 C 
ATOM     40  H   UNL     1      -1.472  -1.673   4.347  1.00  0.00     0.163 HD
ATOM     41  O   UNL     1      -0.301  -3.564   5.228  1.00  0.00    -0.269 OA
BRANCH  39  42
ATOM     42  C   UNL     1       1.513  -2.181   5.773  1.00  0.00     0.039 A 
ATOM     43  C   UNL     1       2.459  -3.215   5.739  1.00  0.00     0.014 A 
ATOM     44  C   UNL     1       1.797  -1.020   6.500  1.00  0.00     0.014 A 
ATOM     45  C   UNL     1       3.671  -3.094   6.428  1.00  0.00     0.010 A 
ATOM     46  C   UNL     1       3.028  -0.883   7.157  1.00  0.00     0.010 A 
ATOM     47  C   UNL     1       3.967  -1.928   7.149  1.00  0.00    -0.014 A 
BRANCH  47  48
ATOM     48  C   UNL     1       5.229  -1.820   7.933  1.00  0.00     0.031 A 
ATOM     49  C   UNL     1       5.193  -1.810   9.439  1.00  0.00     0.074 A 
ATOM     50  C   UNL     1       6.412  -1.714   7.298  1.00  0.00     0.049 A 
ATOM     51  N   UNL     1       6.179  -1.689  10.294  1.00  0.00    -0.248 NA
ATOM     52  C   UNL     1       3.869  -1.938  10.068  1.00  0.00     0.031 C 
ATOM     53  C   UNL     1       6.589  -1.694   5.847  1.00  0.00     0.029 A 
ATOM     54  N   UNL     1       7.689  -1.595   7.792  1.00  0.00    -0.354 N 
ATOM     55  C   UNL     1       5.596  -1.711  11.555  1.00  0.00     0.074 A 
ATOM     56  C   UNL     1       4.166  -1.818  11.354  1.00  0.00     0.031 C 
ATOM     57  C   UNL     1       7.898  -1.581   5.566  1.00  0.00     0.029 A 
ATOM     58  C   UNL     1       8.649  -1.490   6.816  1.00  0.00     0.049 A 
ATOM     59  H   UNL     1       7.895  -1.587   8.754  1.00  0.00     0.167 HD
ATOM     60  C   UNL     1       6.196  -1.664  12.770  1.00  0.00     0.037 A 
ATOM     61  C   UNL     1       9.983  -1.330   6.915  1.00  0.00     0.037 A 
ATOM     62  C   UNL     1       7.620  -1.585  12.975  1.00  0.00     0.049 A 
ATOM     63  C   UNL     1      10.625  -1.271   8.276  1.00  0.00     0.074 A 
ATOM     64  C   UNL     1       8.323  -1.587  14.168  1.00  0.00     0.029 A 
ATOM     65  N   UNL     1       8.559  -1.486  11.960  1.00  0.00    -0.354 N 
ATOM     66  N   UNL     1      10.067  -1.349   9.458  1.00  0.00    -0.248 NA
ATOM     67  C   UNL     1      12.086  -1.109   8.313  1.00  0.00     0.031 C 
ATOM     68  C   UNL     1       9.684  -1.448  13.876  1.00  0.00     0.029 A 
ATOM     69  C   UNL     1       9.833  -1.405  12.500  1.00  0.00     0.049 A 
ATOM     70  H   UNL     1       8.352  -1.474  10.997  1.00  0.00     0.167 HD
ATOM     71  C   UNL     1      11.105  -1.272  10.377  1.00  0.00     0.074 A 
ATOM     72  C   UNL     1      12.330  -1.156   9.615  1.00  0.00     0.031 C 
ATOM     73  C   UNL     1      11.047  -1.297  11.731  1.00  0.00     0.037 A 
BRANCH  60  74
ATOM     74  C   UNL     1       5.312  -1.697  13.985  1.00  0.00     0.064 A 
ATOM     75  C   UNL     1       4.633  -2.862  14.369  1.00  0.00     0.173 A 
ATOM     76  C   UNL     1       5.179  -0.562  14.799  1.00  0.00     0.173 A 
ATOM     77  F   UNL     1       4.721  -3.972  13.621  1.00  0.00    -0.203 F 
ATOM     78  C   UNL     1       3.830  -2.882  15.507  1.00  0.00     0.198 A 
ATOM     79  C   UNL     1       4.399  -0.593  15.952  1.00  0.00     0.198 A 
ATOM     80  F   UNL     1       5.816   0.576  14.483  1.00  0.00    -0.203 F 
ATOM     81  F   UNL     1       3.155  -3.994  15.829  1.00  0.00    -0.200 F 
ATOM     82  C   UNL     1       3.719  -1.750  16.301  1.00  0.00     0.200 A 
ATOM     83  F   UNL     1       4.303   0.497  16.726  1.00  0.00    -0.200 F 
ATOM     84  F   UNL     1       2.951  -1.773  17.399  1.00  0.00    -0.200 F 
ENDBRANCH  60  74
BRANCH  61  85
ATOM     85  C   UNL     1      10.810  -1.234   5.684  1.00  0.00     0.064 A 
ATOM     86  C   UNL     1      11.678  -2.271   5.316  1.00  0.00     0.173 A 
ATOM     87  C   UNL     1      10.750  -0.106   4.853  1.00  0.00     0.173 A 
ATOM     88  F   UNL     1      11.786  -3.360   6.092  1.00  0.00    -0.203 F 
ATOM     89  C   UNL     1      12.467  -2.178   4.172  1.00  0.00     0.198 A 
ATOM     90  C   UNL     1      11.520  -0.025   3.694  1.00  0.00     0.198 A 
ATOM     91  F   UNL     1       9.933   0.912   5.159  1.00  0.00    -0.203 F 
ATOM     92  F   UNL     1      13.318  -3.166   3.865  1.00  0.00    -0.200 F 
ATOM     93  C   UNL     1      12.383  -1.058   3.359  1.00  0.00     0.200 A 
ATOM     94  F   UNL     1      11.426   1.052   2.904  1.00  0.00    -0.200 F 
ATOM     95  F   UNL     1      13.137  -0.971   2.255  1.00  0.00    -0.200 F 
ENDBRANCH  61  85
BRANCH  73  96
ATOM     96  C   UNL     1      12.347  -1.229  12.479  1.00  0.00     0.064 A 
ATOM     97  C   UNL     1      13.086  -0.040  12.560  1.00  0.00     0.173 A 
ATOM     98  C   UNL     1      12.838  -2.357  13.152  1.00  0.00     0.173 A 
ATOM     99  F   UNL     1      12.666   1.062  11.920  1.00  0.00    -0.203 F 
ATOM    100  C   UNL     1      14.283   0.010  13.270  1.00  0.00     0.198 A 
ATOM    101  C   UNL     1      14.021  -2.296  13.884  1.00  0.00     0.198 A 
ATOM    102  F   UNL     1      12.166  -3.517  13.110  1.00  0.00    -0.203 F 
ATOM    103  F   UNL     1      14.996   1.145  13.298  1.00  0.00    -0.200 F 
ATOM    104  C   UNL     1      14.746  -1.115  13.937  1.00  0.00     0.200 A 
ATOM    105  F   UNL     1      14.461  -3.381  14.537  1.00  0.00    -0.200 F 
ATOM    106  F   UNL     1      15.895  -1.062  14.624  1.00  0.00    -0.200 F 
ENDBRANCH  73  96
ENDBRANCH  47  48
ENDBRANCH  39  42
ENDBRANCH  37  38
ENDBRANCH  36  37
ENDBRANCH   1  36
TORSDOF 16
