REMARK SMILES [NH3+][C@H](CCc1c[nH]nc1C(F)(F)F)C(=O)NCCCNC(=O)c1ccc(-c2c3nc(c(-c4c(F)c(F)c(F)c(F)c4F)c4ccc([nH]4)c(-c4c(F)c(F)c(F)c(F)c4F)c4nc(c(-c5c(F)c(F)c(F)c(F)c5F)c5ccc2[nH]5)C=C4)C=C3)cc1
REMARK SMILES IDX 17 1 16 2 14 3 15 4 2 6 1 7 3 11 4 12 5 13 6 14 9 15 7 16
REMARK SMILES IDX 8 17 10 19 11 20 12 21 13 22 18 23 19 24 20 25 21 26 22 28
REMARK SMILES IDX 23 29 24 30 85 31 25 32 84 33 26 34 27 35 28 36 78 37 29 38
REMARK SMILES IDX 83 39 77 40 79 41 30 42 82 43 76 44 75 45 31 47 63 48 43 49
REMARK SMILES IDX 62 50 44 51 47 52 61 53 80 54 45 55 46 56 60 58 81 59 48 60
REMARK SMILES IDX 32 61 33 62 41 63 34 64 35 65 39 66 42 67 36 68 37 69 40 70
REMARK SMILES IDX 38 71 64 72 65 73 73 74 66 75 67 76 71 77 74 78 68 79 69 80
REMARK SMILES IDX 72 81 70 82 49 83 50 84 58 85 51 86 52 87 56 88 59 89 53 90
REMARK SMILES IDX 54 91 57 92 55 93
REMARK H PARENT 16 5 1 8 1 9 1 10 7 18 20 27 79 46 47 57
REMARK Flexibility Score: inf
ROOT
ATOM      1  C   UNL     1      -1.575   2.016  -1.044  1.00  0.00     0.118 C 
ENDROOT
BRANCH   1   2
ATOM      2  N   UNL     1      -1.868   1.220   0.127  1.00  0.00    -0.351 N 
ATOM      3  C   UNL     1      -1.060   0.610   1.037  1.00  0.00     0.278 C 
ATOM      4  O   UNL     1      -1.623  -0.151   1.833  1.00  0.00    -0.268 OA
ATOM      5  H   UNL     1      -2.830   1.097   0.298  1.00  0.00     0.163 HD
BRANCH   3   6
ATOM      6  C   UNL     1       0.467   0.861   1.135  1.00  0.00     0.271 C 
BRANCH   6   7
ATOM      7  N   UNL     1       0.760   2.259   1.464  1.00  0.00    -0.347 N 
ATOM      8  H   UNL     1       0.073   2.601   2.136  1.00  0.00     0.345 HD
ATOM      9  H   UNL     1       0.718   2.824   0.616  1.00  0.00     0.345 HD
ATOM     10  H   UNL     1       1.694   2.324   1.870  1.00  0.00     0.345 HD
ENDBRANCH   6   7
BRANCH   6  11
ATOM     11  C   UNL     1       1.402   0.165   0.129  1.00  0.00     0.080 C 
BRANCH  11  12
ATOM     12  C   UNL     1       1.526   0.537  -1.349  1.00  0.00     0.046 C 
BRANCH  12  13
ATOM     13  C   UNL     1       2.208   1.804  -1.784  1.00  0.00     0.003 A 
ATOM     14  C   UNL     1       2.006   3.106  -1.374  1.00  0.00     0.109 A 
ATOM     15  C   UNL     1       3.148   1.946  -2.877  1.00  0.00     0.169 A 
ATOM     16  N   UNL     1       2.820   3.904  -2.119  1.00  0.00    -0.285 N 
ATOM     17  N   UNL     1       3.523   3.233  -3.030  1.00  0.00    -0.171 NA
ATOM     18  H   UNL     1       2.883   4.879  -1.996  1.00  0.00     0.189 HD
BRANCH  15  19
ATOM     19  C   UNL     1       3.683   0.881  -3.812  1.00  0.00     0.435 C 
ATOM     20  F   UNL     1       3.759   1.308  -5.102  1.00  0.00    -0.164 F 
ATOM     21  F   UNL     1       4.928   0.469  -3.457  1.00  0.00    -0.164 F 
ATOM     22  F   UNL     1       2.901  -0.234  -3.840  1.00  0.00    -0.164 F 
ENDBRANCH  15  19
ENDBRANCH  12  13
ENDBRANCH  11  12
ENDBRANCH   6  11
ENDBRANCH   3   6
ENDBRANCH   1   2
BRANCH   1  23
ATOM     23  C   UNL     1      -1.778   1.205  -2.319  1.00  0.00     0.042 C 
BRANCH  23  24
ATOM     24  C   UNL     1      -3.224   1.123  -2.771  1.00  0.00     0.118 C 
BRANCH  24  25
ATOM     25  N   UNL     1      -3.678   2.349  -3.407  1.00  0.00    -0.352 N 
ATOM     26  C   UNL     1      -4.133   2.558  -4.690  1.00  0.00     0.251 C 
ATOM     27  H   UNL     1      -3.657   3.150  -2.835  1.00  0.00     0.163 HD
ATOM     28  O   UNL     1      -4.295   3.699  -5.100  1.00  0.00    -0.269 OA
BRANCH  26  29
ATOM     29  C   UNL     1      -4.400   1.405  -5.582  1.00  0.00     0.039 A 
ATOM     30  C   UNL     1      -4.020   1.480  -6.925  1.00  0.00     0.014 A 
ATOM     31  C   UNL     1      -5.023   0.253  -5.098  1.00  0.00     0.014 A 
ATOM     32  C   UNL     1      -4.195   0.372  -7.761  1.00  0.00     0.010 A 
ATOM     33  C   UNL     1      -5.103  -0.879  -5.900  1.00  0.00     0.010 A 
ATOM     34  C   UNL     1      -4.699  -0.832  -7.243  1.00  0.00    -0.014 A 
BRANCH  34  35
ATOM     35  C   UNL     1      -4.846  -2.054  -8.075  1.00  0.00     0.031 A 
ATOM     36  C   UNL     1      -6.209  -2.666  -8.258  1.00  0.00     0.074 A 
ATOM     37  C   UNL     1      -3.756  -2.670  -8.573  1.00  0.00     0.049 A 
ATOM     38  N   UNL     1      -6.541  -3.815  -8.787  1.00  0.00    -0.248 NA
ATOM     39  C   UNL     1      -7.350  -1.894  -7.738  1.00  0.00     0.031 C 
ATOM     40  C   UNL     1      -2.378  -2.197  -8.437  1.00  0.00     0.029 A 
ATOM     41  N   UNL     1      -3.635  -3.844  -9.276  1.00  0.00    -0.354 N 
ATOM     42  C   UNL     1      -7.918  -3.916  -8.635  1.00  0.00     0.074 A 
ATOM     43  C   UNL     1      -8.353  -2.739  -7.917  1.00  0.00     0.031 C 
ATOM     44  C   UNL     1      -1.553  -3.064  -9.046  1.00  0.00     0.029 A 
ATOM     45  C   UNL     1      -2.336  -4.178  -9.571  1.00  0.00     0.049 A 
ATOM     46  H   UNL     1      -4.407  -4.394  -9.542  1.00  0.00     0.167 HD
ATOM     47  C   UNL     1      -8.747  -4.893  -9.075  1.00  0.00     0.037 A 
ATOM     48  C   UNL     1      -1.832  -5.271 -10.177  1.00  0.00     0.037 A 
ATOM     49  C   UNL     1      -8.310  -6.043  -9.820  1.00  0.00     0.049 A 
ATOM     50  C   UNL     1      -2.773  -6.348 -10.649  1.00  0.00     0.074 A 
ATOM     51  C   UNL     1      -9.075  -7.061 -10.361  1.00  0.00     0.029 A 
ATOM     52  N   UNL     1      -6.988  -6.325 -10.131  1.00  0.00    -0.354 N 
ATOM     53  N   UNL     1      -4.078  -6.410 -10.545  1.00  0.00    -0.248 NA
ATOM     54  C   UNL     1      -2.172  -7.506 -11.326  1.00  0.00     0.031 C 
ATOM     55  C   UNL     1      -8.212  -7.985 -10.957  1.00  0.00     0.029 A 
ATOM     56  C   UNL     1      -6.915  -7.512 -10.842  1.00  0.00     0.049 A 
ATOM     57  H   UNL     1      -6.217  -5.766  -9.884  1.00  0.00     0.167 HD
ATOM     58  C   UNL     1      -4.458  -7.586 -11.177  1.00  0.00     0.074 A 
ATOM     59  C   UNL     1      -3.244  -8.209 -11.664  1.00  0.00     0.031 C 
ATOM     60  C   UNL     1      -5.700  -8.101 -11.344  1.00  0.00     0.037 A 
BRANCH  47  61
ATOM     61  C   UNL     1     -10.210  -4.759  -8.761  1.00  0.00     0.064 A 
ATOM     62  C   UNL     1     -11.002  -3.760  -9.348  1.00  0.00     0.173 A 
ATOM     63  C   UNL     1     -10.836  -5.662  -7.888  1.00  0.00     0.173 A 
ATOM     64  F   UNL     1     -10.453  -2.864 -10.181  1.00  0.00    -0.203 F 
ATOM     65  C   UNL     1     -12.357  -3.649  -9.046  1.00  0.00     0.198 A 
ATOM     66  C   UNL     1     -12.198  -5.570  -7.615  1.00  0.00     0.198 A 
ATOM     67  F   UNL     1     -10.128  -6.640  -7.304  1.00  0.00    -0.203 F 
ATOM     68  F   UNL     1     -13.080  -2.652  -9.574  1.00  0.00    -0.200 F 
ATOM     69  C   UNL     1     -12.956  -4.558  -8.187  1.00  0.00     0.200 A 
ATOM     70  F   UNL     1     -12.778  -6.459  -6.797  1.00  0.00    -0.200 F 
ATOM     71  F   UNL     1     -14.261  -4.455  -7.903  1.00  0.00    -0.200 F 
ENDBRANCH  47  61
BRANCH  48  72
ATOM     72  C   UNL     1      -0.365  -5.394 -10.391  1.00  0.00     0.064 A 
ATOM     73  C   UNL     1       0.181  -5.333 -11.681  1.00  0.00     0.173 A 
ATOM     74  C   UNL     1       0.519  -5.582  -9.318  1.00  0.00     0.173 A 
ATOM     75  F   UNL     1      -0.625  -5.176 -12.741  1.00  0.00    -0.203 F 
ATOM     76  C   UNL     1       1.551  -5.476 -11.892  1.00  0.00     0.198 A 
ATOM     77  C   UNL     1       1.893  -5.694  -9.528  1.00  0.00     0.198 A 
ATOM     78  F   UNL     1       0.050  -5.643  -8.063  1.00  0.00    -0.203 F 
ATOM     79  F   UNL     1       2.039  -5.463 -13.140  1.00  0.00    -0.200 F 
ATOM     80  C   UNL     1       2.406  -5.651 -10.815  1.00  0.00     0.200 A 
ATOM     81  F   UNL     1       2.717  -5.849  -8.483  1.00  0.00    -0.200 F 
ATOM     82  F   UNL     1       3.724  -5.787 -11.018  1.00  0.00    -0.200 F 
ENDBRANCH  48  72
BRANCH  60  83
ATOM     83  C   UNL     1      -5.829  -9.366 -12.142  1.00  0.00     0.064 A 
ATOM     84  C   UNL     1      -5.427 -10.608 -11.633  1.00  0.00     0.173 A 
ATOM     85  C   UNL     1      -6.434  -9.338 -13.409  1.00  0.00     0.173 A 
ATOM     86  F   UNL     1      -4.831 -10.687 -10.434  1.00  0.00    -0.203 F 
ATOM     87  C   UNL     1      -5.613 -11.776 -12.370  1.00  0.00     0.198 A 
ATOM     88  C   UNL     1      -6.647 -10.509 -14.128  1.00  0.00     0.198 A 
ATOM     89  F   UNL     1      -6.844  -8.174 -13.937  1.00  0.00    -0.203 F 
ATOM     90  F   UNL     1      -5.189 -12.949 -11.880  1.00  0.00    -0.200 F 
ATOM     91  C   UNL     1      -6.232 -11.726 -13.610  1.00  0.00     0.200 A 
ATOM     92  F   UNL     1      -7.261 -10.461 -15.318  1.00  0.00    -0.200 F 
ATOM     93  F   UNL     1      -6.427 -12.854 -14.309  1.00  0.00    -0.200 F 
ENDBRANCH  60  83
ENDBRANCH  34  35
ENDBRANCH  26  29
ENDBRANCH  24  25
ENDBRANCH  23  24
ENDBRANCH   1  23
TORSDOF 15
