REMARK SMILES Nc1nc(CC(=O)N(CC(=O)NCCCNC(=O)c2ccc(-c3c4nc(c(-c5c(F)c(F)c(F)c(F)c5F)c5ccc([nH]5)c(-c5c(F)c(F)c(F)c(F)c5F)c5nc(c(-c6c(F)c(F)c(F)c(F)c6F)c6ccc3[nH]6)C=C5)C=C4)cc2)CC(F)(F)F)cs1
REMARK SMILES IDX 10 1 11 2 12 3 9 5 8 6 6 7 7 8 5 9 4 10 2 11 3 12 88 13
REMARK SMILES IDX 87 14 1 15 82 18 83 19 84 20 85 21 86 22 13 23 14 24 15 25
REMARK SMILES IDX 16 26 17 27 18 29 19 30 20 31 81 32 21 33 80 34 22 35 23 36
REMARK SMILES IDX 24 37 74 38 25 39 79 40 73 41 75 42 26 43 78 44 72 45 71 46
REMARK SMILES IDX 27 48 59 49 39 50 58 51 40 52 43 53 57 54 76 55 41 56 42 57
REMARK SMILES IDX 56 59 77 60 44 61 28 62 29 63 37 64 30 65 31 66 35 67 38 68
REMARK SMILES IDX 32 69 33 70 36 71 34 72 60 73 61 74 69 75 62 76 63 77 67 78
REMARK SMILES IDX 70 79 64 80 65 81 68 82 66 83 45 84 46 85 54 86 47 87 48 88
REMARK SMILES IDX 52 89 55 90 49 91 50 92 53 93 51 94
REMARK H PARENT 12 4 1 16 1 17 16 28 75 47 43 58
REMARK Flexibility Score: inf
ROOT
ATOM      1  C   UNL     1      -0.450  -1.465   3.804  1.00  0.00     0.239 C 
ATOM      2  O   UNL     1       0.122  -1.717   4.866  1.00  0.00    -0.273 OA
ATOM      3  N   UNL     1      -0.686  -0.155   3.487  1.00  0.00    -0.354 N 
ATOM      4  H   UNL     1      -0.593   0.498   4.218  1.00  0.00     0.163 HD
ENDROOT
BRANCH   1   5
ATOM      5  C   UNL     1      -0.823  -2.592   2.819  1.00  0.00     0.219 C 
BRANCH   5   6
ATOM      6  N   UNL     1      -2.246  -2.640   2.437  1.00  0.00    -0.324 N 
BRANCH   6   7
ATOM      7  C   UNL     1      -2.735  -2.611   1.133  1.00  0.00     0.229 C 
ATOM      8  O   UNL     1      -3.946  -2.475   0.930  1.00  0.00    -0.274 OA
BRANCH   7   9
ATOM      9  C   UNL     1      -1.806  -2.866  -0.054  1.00  0.00     0.157 C 
BRANCH   9  10
ATOM     10  C   UNL     1      -1.067  -1.664  -0.544  1.00  0.00     0.063 A 
ATOM     11  C   UNL     1       0.782  -0.430  -0.668  1.00  0.00     0.180 A 
ATOM     12  N   UNL     1       0.288  -1.568  -0.247  1.00  0.00    -0.225 NA
ATOM     13  S   UNL     1      -0.322   0.568  -1.521  1.00  0.00    -0.106 S 
ATOM     14  C   UNL     1      -1.566  -0.587  -1.254  1.00  0.00     0.093 A 
BRANCH  11  15
ATOM     15  N   UNL     1       2.035  -0.046  -0.408  1.00  0.00    -0.375 N 
ATOM     16  H   UNL     1       2.641  -0.645   0.084  1.00  0.00     0.159 HD
ATOM     17  H   UNL     1       2.351   0.837  -0.709  1.00  0.00     0.159 HD
ENDBRANCH  11  15
ENDBRANCH   9  10
ENDBRANCH   7   9
ENDBRANCH   6   7
BRANCH   6  18
ATOM     18  C   UNL     1      -3.224  -2.842   3.536  1.00  0.00     0.235 C 
BRANCH  18  19
ATOM     19  C   UNL     1      -4.054  -1.648   4.028  1.00  0.00     0.406 C 
ATOM     20  F   UNL     1      -4.752  -1.034   3.054  1.00  0.00    -0.169 F 
ATOM     21  F   UNL     1      -4.949  -2.064   4.960  1.00  0.00    -0.169 F 
ATOM     22  F   UNL     1      -3.279  -0.718   4.630  1.00  0.00    -0.169 F 
ENDBRANCH  18  19
ENDBRANCH   6  18
ENDBRANCH   5   6
ENDBRANCH   1   5
BRANCH   3  23
ATOM     23  C   UNL     1      -1.056   0.370   2.196  1.00  0.00     0.117 C 
BRANCH  23  24
ATOM     24  C   UNL     1      -2.354   1.153   2.164  1.00  0.00     0.042 C 
BRANCH  24  25
ATOM     25  C   UNL     1      -2.207   2.558   2.708  1.00  0.00     0.118 C 
BRANCH  25  26
ATOM     26  N   UNL     1      -1.456   3.418   1.801  1.00  0.00    -0.352 N 
ATOM     27  C   UNL     1      -1.836   4.574   1.163  1.00  0.00     0.251 C 
ATOM     28  H   UNL     1      -0.533   3.126   1.618  1.00  0.00     0.163 HD
ATOM     29  O   UNL     1      -1.130   5.043   0.278  1.00  0.00    -0.269 OA
BRANCH  27  30
ATOM     30  C   UNL     1      -3.108   5.238   1.526  1.00  0.00     0.039 A 
ATOM     31  C   UNL     1      -3.888   5.811   0.518  1.00  0.00     0.014 A 
ATOM     32  C   UNL     1      -3.535   5.295   2.854  1.00  0.00     0.014 A 
ATOM     33  C   UNL     1      -5.124   6.376   0.837  1.00  0.00     0.010 A 
ATOM     34  C   UNL     1      -4.814   5.747   3.152  1.00  0.00     0.010 A 
ATOM     35  C   UNL     1      -5.616   6.310   2.151  1.00  0.00    -0.014 A 
BRANCH  35  36
ATOM     36  C   UNL     1      -6.958   6.836   2.504  1.00  0.00     0.031 A 
ATOM     37  C   UNL     1      -7.095   7.932   3.525  1.00  0.00     0.074 A 
ATOM     38  C   UNL     1      -8.058   6.271   1.970  1.00  0.00     0.049 A 
ATOM     39  N   UNL     1      -8.179   8.477   4.018  1.00  0.00    -0.248 NA
ATOM     40  C   UNL     1      -5.848   8.459   4.100  1.00  0.00     0.031 C 
ATOM     41  C   UNL     1      -8.059   5.150   1.030  1.00  0.00     0.029 A 
ATOM     42  N   UNL     1      -9.388   6.551   2.155  1.00  0.00    -0.354 N 
ATOM     43  C   UNL     1      -7.743   9.384   4.975  1.00  0.00     0.074 A 
ATOM     44  C   UNL     1      -6.303   9.270   5.041  1.00  0.00     0.031 C 
ATOM     45  C   UNL     1      -9.325   4.853   0.702  1.00  0.00     0.029 A 
ATOM     46  C   UNL     1     -10.226   5.733   1.440  1.00  0.00     0.049 A 
ATOM     47  H   UNL     1      -9.711   7.271   2.744  1.00  0.00     0.167 HD
ATOM     48  C   UNL     1      -8.475  10.252   5.714  1.00  0.00     0.037 A 
ATOM     49  C   UNL     1     -11.571   5.688   1.392  1.00  0.00     0.037 A 
ATOM     50  C   UNL     1      -9.906  10.377   5.620  1.00  0.00     0.049 A 
ATOM     51  C   UNL     1     -12.366   6.677   2.199  1.00  0.00     0.074 A 
ATOM     52  C   UNL     1     -10.736  11.288   6.250  1.00  0.00     0.029 A 
ATOM     53  N   UNL     1     -10.722   9.555   4.855  1.00  0.00    -0.354 N 
ATOM     54  N   UNL     1     -11.940   7.602   3.025  1.00  0.00    -0.248 NA
ATOM     55  C   UNL     1     -13.827   6.624   2.059  1.00  0.00     0.031 C 
ATOM     56  C   UNL     1     -12.058  10.975   5.917  1.00  0.00     0.029 A 
ATOM     57  C   UNL     1     -12.050   9.913   5.026  1.00  0.00     0.049 A 
ATOM     58  H   UNL     1     -10.404   8.825   4.275  1.00  0.00     0.167 HD
ATOM     59  C   UNL     1     -13.074   8.252   3.490  1.00  0.00     0.074 A 
ATOM     60  C   UNL     1     -14.207   7.628   2.837  1.00  0.00     0.031 C 
ATOM     61  C   UNL     1     -13.169   9.274   4.377  1.00  0.00     0.037 A 
BRANCH  48  62
ATOM     62  C   UNL     1      -7.737  11.120   6.694  1.00  0.00     0.064 A 
ATOM     63  C   UNL     1      -6.832  12.111   6.278  1.00  0.00     0.173 A 
ATOM     64  C   UNL     1      -7.937  10.960   8.074  1.00  0.00     0.173 A 
ATOM     65  F   UNL     1      -6.594  12.303   4.972  1.00  0.00    -0.203 F 
ATOM     66  C   UNL     1      -6.119  12.868   7.204  1.00  0.00     0.198 A 
ATOM     67  C   UNL     1      -7.252  11.746   8.997  1.00  0.00     0.198 A 
ATOM     68  F   UNL     1      -8.795  10.035   8.531  1.00  0.00    -0.203 F 
ATOM     69  F   UNL     1      -5.206  13.754   6.782  1.00  0.00    -0.200 F 
ATOM     70  C   UNL     1      -6.333  12.689   8.562  1.00  0.00     0.200 A 
ATOM     71  F   UNL     1      -7.472  11.583  10.309  1.00  0.00    -0.200 F 
ATOM     72  F   UNL     1      -5.646  13.418   9.452  1.00  0.00    -0.200 F 
ENDBRANCH  48  62
BRANCH  49  73
ATOM     73  C   UNL     1     -12.237   4.681   0.526  1.00  0.00     0.064 A 
ATOM     74  C   UNL     1     -12.894   5.060  -0.652  1.00  0.00     0.173 A 
ATOM     75  C   UNL     1     -12.191   3.313   0.837  1.00  0.00     0.173 A 
ATOM     76  F   UNL     1     -12.980   6.357  -0.982  1.00  0.00    -0.203 F 
ATOM     77  C   UNL     1     -13.488   4.112  -1.482  1.00  0.00     0.198 A 
ATOM     78  C   UNL     1     -12.760   2.363  -0.009  1.00  0.00     0.198 A 
ATOM     79  F   UNL     1     -11.568   2.898   1.949  1.00  0.00    -0.203 F 
ATOM     80  F   UNL     1     -14.137   4.504  -2.587  1.00  0.00    -0.200 F 
ATOM     81  C   UNL     1     -13.412   2.764  -1.166  1.00  0.00     0.200 A 
ATOM     82  F   UNL     1     -12.669   1.061   0.292  1.00  0.00    -0.200 F 
ATOM     83  F   UNL     1     -13.967   1.851  -1.974  1.00  0.00    -0.200 F 
ENDBRANCH  49  73
BRANCH  61  84
ATOM     84  C   UNL     1     -14.544   9.797   4.681  1.00  0.00     0.064 A 
ATOM     85  C   UNL     1     -15.472   9.049   5.421  1.00  0.00     0.173 A 
ATOM     86  C   UNL     1     -14.923  11.082   4.261  1.00  0.00     0.173 A 
ATOM     87  F   UNL     1     -15.164   7.810   5.834  1.00  0.00    -0.203 F 
ATOM     88  C   UNL     1     -16.737   9.556   5.704  1.00  0.00     0.198 A 
ATOM     89  C   UNL     1     -16.176  11.599   4.576  1.00  0.00     0.198 A 
ATOM     90  F   UNL     1     -14.072  11.843   3.557  1.00  0.00    -0.203 F 
ATOM     91  F   UNL     1     -17.625   8.803   6.367  1.00  0.00    -0.200 F 
ATOM     92  C   UNL     1     -17.085  10.833   5.290  1.00  0.00     0.200 A 
ATOM     93  F   UNL     1     -16.504  12.840   4.190  1.00  0.00    -0.200 F 
ATOM     94  F   UNL     1     -18.300  11.323   5.572  1.00  0.00    -0.200 F 
ENDBRANCH  61  84
ENDBRANCH  35  36
ENDBRANCH  27  30
ENDBRANCH  25  26
ENDBRANCH  24  25
ENDBRANCH  23  24
ENDBRANCH   3  23
TORSDOF 17
