REMARK SMILES CC[C@@H]1C=CC[C@@H]2C(=O)N(CCCC(=O)NCCCNC(=O)c3ccc(-c4c5nc(c(-c6c(F)c(F)c(F)c(F)c6F)c6ccc([nH]6)c(-c6c(F)c(F)c(F)c(F)c6F)c6nc(c(-c7c(F)c(F)c(F)c(F)c7F)c7ccc4[nH]7)C=C6)C=C5)cc3)C(=O)[C@@H]21
REMARK SMILES IDX 17 1 16 2 14 3 15 4 13 6 12 7 11 8 10 9 3 10 4 11 88 12 5 13
REMARK SMILES IDX 7 14 86 15 6 16 8 17 87 18 9 19 2 20 1 21 18 22 19 23 20 24
REMARK SMILES IDX 21 25 22 27 23 28 24 29 85 30 25 31 84 32 26 33 27 34 28 35
REMARK SMILES IDX 78 36 29 37 83 38 77 39 79 40 30 41 82 42 76 43 75 44 31 46
REMARK SMILES IDX 63 47 43 48 62 49 44 50 47 51 61 52 80 53 45 54 46 55 60 57
REMARK SMILES IDX 81 58 48 59 32 60 33 61 41 62 34 63 35 64 39 65 42 66 36 67
REMARK SMILES IDX 37 68 40 69 38 70 64 71 65 72 73 73 66 74 67 75 71 76 74 77
REMARK SMILES IDX 68 78 69 79 72 80 70 81 49 82 50 83 58 84 51 85 52 86 56 87
REMARK SMILES IDX 59 88 53 89 54 90 57 91 55 92
REMARK H PARENT 16 5 20 26 79 45 47 56
REMARK Flexibility Score: inf
ROOT
ATOM      1  C   UNL     1       0.656   5.616   4.806  1.00  0.00     0.117 C 
ENDROOT
BRANCH   1   2
ATOM      2  N   UNL     1       1.837   6.222   5.380  1.00  0.00    -0.356 N 
ATOM      3  C   UNL     1       3.125   5.797   5.449  1.00  0.00     0.220 C 
ATOM      4  O   UNL     1       3.922   6.544   6.026  1.00  0.00    -0.275 OA
ATOM      5  H   UNL     1       1.679   7.101   5.794  1.00  0.00     0.163 HD
BRANCH   3   6
ATOM      6  C   UNL     1       3.620   4.518   4.797  1.00  0.00     0.102 C 
BRANCH   6   7
ATOM      7  C   UNL     1       3.292   3.168   5.431  1.00  0.00     0.032 C 
BRANCH   7   8
ATOM      8  C   UNL     1       1.887   2.575   5.356  1.00  0.00     0.129 C 
BRANCH   8   9
ATOM      9  N   UNL     1       1.341   2.115   4.084  1.00  0.00    -0.282 N 
ATOM     10  C   UNL     1       1.106  -0.629   2.508  1.00  0.00     0.024 C 
ATOM     11  C   UNL     1       2.509  -0.300   2.042  1.00  0.00    -0.027 C 
ATOM     12  C   UNL     1       0.210   0.621   2.703  1.00  0.00     0.099 C 
ATOM     13  C   UNL     1       2.706   0.667   1.133  1.00  0.00    -0.030 C 
ATOM     14  C   UNL     1       0.640   1.826   1.858  1.00  0.00     0.096 C 
ATOM     15  C   UNL     1       0.314   1.216   4.075  1.00  0.00     0.233 C 
ATOM     16  C   UNL     1       1.554   1.516   0.674  1.00  0.00     0.041 C 
ATOM     17  C   UNL     1       1.430   2.660   2.841  1.00  0.00     0.233 C 
ATOM     18  O   UNL     1      -0.446   0.969   5.001  1.00  0.00    -0.274 OA
ATOM     19  O   UNL     1       1.965   3.704   2.498  1.00  0.00    -0.274 OA
BRANCH  10  20
ATOM     20  C   UNL     1       1.072  -1.692   3.628  1.00  0.00     0.005 C 
ATOM     21  C   UNL     1       1.690  -1.331   4.974  1.00  0.00     0.004 C 
ENDBRANCH  10  20
ENDBRANCH   8   9
ENDBRANCH   7   8
ENDBRANCH   6   7
ENDBRANCH   3   6
ENDBRANCH   1   2
BRANCH   1  22
ATOM     22  C   UNL     1      -0.297   5.126   5.889  1.00  0.00     0.042 C 
BRANCH  22  23
ATOM     23  C   UNL     1      -1.300   6.172   6.322  1.00  0.00     0.118 C 
BRANCH  23  24
ATOM     24  N   UNL     1      -2.361   6.352   5.342  1.00  0.00    -0.352 N 
ATOM     25  C   UNL     1      -3.721   6.218   5.483  1.00  0.00     0.251 C 
ATOM     26  H   UNL     1      -2.058   6.607   4.441  1.00  0.00     0.163 HD
ATOM     27  O   UNL     1      -4.438   6.227   4.486  1.00  0.00    -0.269 OA
BRANCH  25  28
ATOM     28  C   UNL     1      -4.324   6.036   6.824  1.00  0.00     0.039 A 
ATOM     29  C   UNL     1      -5.437   5.202   6.962  1.00  0.00     0.014 A 
ATOM     30  C   UNL     1      -3.805   6.686   7.945  1.00  0.00     0.014 A 
ATOM     31  C   UNL     1      -5.985   4.977   8.227  1.00  0.00     0.010 A 
ATOM     32  C   UNL     1      -4.266   6.361   9.214  1.00  0.00     0.010 A 
ATOM     33  C   UNL     1      -5.380   5.526   9.369  1.00  0.00    -0.014 A 
BRANCH  33  34
ATOM     34  C   UNL     1      -5.920   5.286  10.731  1.00  0.00     0.031 A 
ATOM     35  C   UNL     1      -6.371   6.451  11.572  1.00  0.00     0.074 A 
ATOM     36  C   UNL     1      -5.939   4.037  11.236  1.00  0.00     0.049 A 
ATOM     37  N   UNL     1      -6.791   6.468  12.812  1.00  0.00    -0.248 NA
ATOM     38  C   UNL     1      -6.304   7.784  10.950  1.00  0.00     0.031 C 
ATOM     39  C   UNL     1      -5.471   2.836  10.543  1.00  0.00     0.029 A 
ATOM     40  N   UNL     1      -6.364   3.571  12.455  1.00  0.00    -0.354 N 
ATOM     41  C   UNL     1      -7.009   7.805  13.119  1.00  0.00     0.074 A 
ATOM     42  C   UNL     1      -6.609   8.577  11.964  1.00  0.00     0.031 C 
ATOM     43  C   UNL     1      -5.664   1.768  11.333  1.00  0.00     0.029 A 
ATOM     44  C   UNL     1      -6.230   2.212  12.602  1.00  0.00     0.049 A 
ATOM     45  H   UNL     1      -6.729   4.156  13.157  1.00  0.00     0.167 HD
ATOM     46  C   UNL     1      -7.527   8.341  14.249  1.00  0.00     0.037 A 
ATOM     47  C   UNL     1      -6.529   1.417  13.647  1.00  0.00     0.037 A 
ATOM     48  C   UNL     1      -7.963   7.563  15.377  1.00  0.00     0.049 A 
ATOM     49  C   UNL     1      -7.122   2.034  14.886  1.00  0.00     0.074 A 
ATOM     50  C   UNL     1      -8.567   7.997  16.543  1.00  0.00     0.029 A 
ATOM     51  N   UNL     1      -7.843   6.184  15.476  1.00  0.00    -0.354 N 
ATOM     52  N   UNL     1      -7.391   3.293  15.136  1.00  0.00    -0.248 NA
ATOM     53  C   UNL     1      -7.460   1.118  15.983  1.00  0.00     0.031 C 
ATOM     54  C   UNL     1      -8.769   6.886  17.368  1.00  0.00     0.029 A 
ATOM     55  C   UNL     1      -8.344   5.753  16.693  1.00  0.00     0.049 A 
ATOM     56  H   UNL     1      -7.459   5.599  14.783  1.00  0.00     0.167 HD
ATOM     57  C   UNL     1      -7.956   3.317  16.404  1.00  0.00     0.074 A 
ATOM     58  C   UNL     1      -8.007   1.944  16.863  1.00  0.00     0.031 C 
ATOM     59  C   UNL     1      -8.393   4.379  17.125  1.00  0.00     0.037 A 
BRANCH  46  60
ATOM     60  C   UNL     1      -7.662   9.836  14.313  1.00  0.00     0.064 A 
ATOM     61  C   UNL     1      -8.575  10.531  13.503  1.00  0.00     0.173 A 
ATOM     62  C   UNL     1      -6.889  10.582  15.215  1.00  0.00     0.173 A 
ATOM     63  F   UNL     1      -9.329   9.868  12.614  1.00  0.00    -0.203 F 
ATOM     64  C   UNL     1      -8.683  11.917  13.570  1.00  0.00     0.198 A 
ATOM     65  C   UNL     1      -7.026  11.966  15.304  1.00  0.00     0.198 A 
ATOM     66  F   UNL     1      -6.004   9.971  16.017  1.00  0.00    -0.203 F 
ATOM     67  F   UNL     1      -9.520  12.562  12.745  1.00  0.00    -0.200 F 
ATOM     68  C   UNL     1      -7.915  12.633  14.475  1.00  0.00     0.200 A 
ATOM     69  F   UNL     1      -6.292  12.655  16.189  1.00  0.00    -0.200 F 
ATOM     70  F   UNL     1      -8.026  13.966  14.544  1.00  0.00    -0.200 F 
ENDBRANCH  46  60
BRANCH  47  71
ATOM     71  C   UNL     1      -6.305  -0.050  13.554  1.00  0.00     0.064 A 
ATOM     72  C   UNL     1      -7.386  -0.942  13.509  1.00  0.00     0.173 A 
ATOM     73  C   UNL     1      -5.013  -0.592  13.512  1.00  0.00     0.173 A 
ATOM     74  F   UNL     1      -8.642  -0.474  13.566  1.00  0.00    -0.203 F 
ATOM     75  C   UNL     1      -7.184  -2.319  13.449  1.00  0.00     0.198 A 
ATOM     76  C   UNL     1      -4.811  -1.968  13.421  1.00  0.00     0.198 A 
ATOM     77  F   UNL     1      -3.943   0.217  13.546  1.00  0.00    -0.203 F 
ATOM     78  F   UNL     1      -8.235  -3.150  13.456  1.00  0.00    -0.200 F 
ATOM     79  C   UNL     1      -5.896  -2.831  13.399  1.00  0.00     0.200 A 
ATOM     80  F   UNL     1      -3.565  -2.458  13.357  1.00  0.00    -0.200 F 
ATOM     81  F   UNL     1      -5.701  -4.155  13.337  1.00  0.00    -0.200 F 
ENDBRANCH  47  71
BRANCH  59  82
ATOM     82  C   UNL     1      -8.999   4.095  18.469  1.00  0.00     0.064 A 
ATOM     83  C   UNL     1      -8.220   3.675  19.556  1.00  0.00     0.173 A 
ATOM     84  C   UNL     1     -10.374   4.287  18.679  1.00  0.00     0.173 A 
ATOM     85  F   UNL     1      -6.904   3.465  19.402  1.00  0.00    -0.203 F 
ATOM     86  C   UNL     1      -8.799   3.429  20.798  1.00  0.00     0.198 A 
ATOM     87  C   UNL     1     -10.943   4.073  19.930  1.00  0.00     0.198 A 
ATOM     88  F   UNL     1     -11.162   4.697  17.674  1.00  0.00    -0.203 F 
ATOM     89  F   UNL     1      -8.044   2.978  21.809  1.00  0.00    -0.200 F 
ATOM     90  C   UNL     1     -10.158   3.636  20.986  1.00  0.00     0.200 A 
ATOM     91  F   UNL     1     -12.253   4.289  20.114  1.00  0.00    -0.200 F 
ATOM     92  F   UNL     1     -10.712   3.406  22.184  1.00  0.00    -0.200 F 
ENDBRANCH  59  82
ENDBRANCH  33  34
ENDBRANCH  25  28
ENDBRANCH  23  24
ENDBRANCH  22  23
ENDBRANCH   1  22
TORSDOF 14
