REMARK SMILES CC[C@@](C)(NC(=O)c1c(C)cc(C)[nH]c1=O)C(=O)NCCCNC(=O)c1ccc(-c2c3nc(c(-c4c(F)c(F)c(F)c(F)c4F)c4ccc([nH]4)c(-c4c(F)c(F)c(F)c(F)c4F)c4nc(c(-c5c(F)c(F)c(F)c(F)c5F)c5ccc2[nH]5)C=C4)C=C3)cc1
REMARK SMILES IDX 21 1 20 2 19 3 17 4 18 5 3 7 4 8 2 9 1 10 5 11 6 12 7 14
REMARK SMILES IDX 8 15 9 16 15 17 10 18 11 19 14 20 16 21 12 22 13 24 22 25
REMARK SMILES IDX 23 26 24 27 25 29 26 30 27 31 88 32 28 33 87 34 29 35 30 36
REMARK SMILES IDX 31 37 81 38 32 39 86 40 80 41 82 42 33 43 85 44 79 45 78 46
REMARK SMILES IDX 34 48 66 49 46 50 65 51 47 52 50 53 64 54 83 55 48 56 49 57
REMARK SMILES IDX 63 59 84 60 51 61 35 62 36 63 44 64 37 65 38 66 42 67 45 68
REMARK SMILES IDX 39 69 40 70 43 71 41 72 67 73 68 74 76 75 69 76 70 77 74 78
REMARK SMILES IDX 77 79 71 80 72 81 75 82 73 83 52 84 53 85 61 86 54 87 55 88
REMARK SMILES IDX 59 89 62 90 56 91 57 92 60 93 58 94
REMARK H PARENT 19 6 5 13 14 23 23 28 82 47 50 58
REMARK Flexibility Score: inf
ROOT
ATOM      1  C   UNL     1       2.357  -1.299   6.184  1.00  0.00     0.042 C 
ENDROOT
BRANCH   1   2
ATOM      2  C   UNL     1       2.023  -0.043   5.367  1.00  0.00     0.117 C 
BRANCH   2   3
ATOM      3  N   UNL     1       2.608   0.065   4.036  1.00  0.00    -0.354 N 
ATOM      4  C   UNL     1       2.340  -0.423   2.789  1.00  0.00     0.245 C 
ATOM      5  O   UNL     1       3.210  -0.156   1.944  1.00  0.00    -0.272 OA
ATOM      6  H   UNL     1       3.406   0.642   4.036  1.00  0.00     0.163 HD
BRANCH   4   7
ATOM      7  C   UNL     1       1.077  -1.274   2.376  1.00  0.00     0.116 C 
ATOM      8  C   UNL     1      -0.179  -0.512   2.869  1.00  0.00     0.045 C 
BRANCH   7   9
ATOM      9  C   UNL     1       0.987  -1.359   0.812  1.00  0.00     0.035 C 
ATOM     10  C   UNL     1       0.889  -0.037   0.047  1.00  0.00     0.007 C 
ENDBRANCH   7   9
BRANCH   7  11
ATOM     11  N   UNL     1       0.948  -2.691   2.888  1.00  0.00    -0.338 N 
ATOM     12  C   UNL     1       1.595  -3.884   2.677  1.00  0.00     0.258 C 
ATOM     13  H   UNL     1       0.214  -2.781   3.537  1.00  0.00     0.164 HD
ATOM     14  O   UNL     1       0.902  -4.892   2.846  1.00  0.00    -0.269 OA
BRANCH  12  15
ATOM     15  C   UNL     1       3.055  -4.014   2.346  1.00  0.00     0.107 A 
ATOM     16  C   UNL     1       3.686  -5.113   1.853  1.00  0.00    -0.031 A 
ATOM     17  C   UNL     1       3.978  -3.014   2.903  1.00  0.00     0.261 A 
ATOM     18  C   UNL     1       3.057  -6.435   1.508  1.00  0.00     0.045 C 
ATOM     19  C   UNL     1       5.150  -5.112   1.659  1.00  0.00     0.025 A 
ATOM     20  N   UNL     1       5.261  -2.948   2.469  1.00  0.00    -0.326 N 
ATOM     21  O   UNL     1       3.642  -2.351   3.865  1.00  0.00    -0.269 OA
ATOM     22  C   UNL     1       5.890  -4.021   1.915  1.00  0.00     0.015 A 
ATOM     23  H   UNL     1       5.752  -2.099   2.557  1.00  0.00     0.169 HD
ATOM     24  C   UNL     1       7.379  -3.931   1.803  1.00  0.00     0.064 C 
ENDBRANCH  12  15
ENDBRANCH   7  11
ENDBRANCH   4   7
ENDBRANCH   2   3
ENDBRANCH   1   2
BRANCH   1  25
ATOM     25  C   UNL     1       3.839  -1.635   6.418  1.00  0.00     0.118 C 
BRANCH  25  26
ATOM     26  N   UNL     1       4.511  -0.910   7.474  1.00  0.00    -0.352 N 
ATOM     27  C   UNL     1       5.420  -1.378   8.394  1.00  0.00     0.251 C 
ATOM     28  H   UNL     1       4.286   0.045   7.545  1.00  0.00     0.163 HD
ATOM     29  O   UNL     1       6.066  -0.573   9.063  1.00  0.00    -0.269 OA
BRANCH  27  30
ATOM     30  C   UNL     1       5.585  -2.828   8.673  1.00  0.00     0.039 A 
ATOM     31  C   UNL     1       5.436  -3.224  10.006  1.00  0.00     0.014 A 
ATOM     32  C   UNL     1       5.933  -3.781   7.709  1.00  0.00     0.014 A 
ATOM     33  C   UNL     1       5.584  -4.565  10.369  1.00  0.00     0.010 A 
ATOM     34  C   UNL     1       6.050  -5.136   8.069  1.00  0.00     0.010 A 
ATOM     35  C   UNL     1       5.873  -5.541   9.403  1.00  0.00    -0.014 A 
BRANCH  35  36
ATOM     36  C   UNL     1       5.959  -6.969   9.819  1.00  0.00     0.031 A 
ATOM     37  C   UNL     1       7.283  -7.672   9.924  1.00  0.00     0.074 A 
ATOM     38  C   UNL     1       4.834  -7.628  10.164  1.00  0.00     0.049 A 
ATOM     39  N   UNL     1       7.549  -8.869  10.388  1.00  0.00    -0.248 NA
ATOM     40  C   UNL     1       8.463  -6.939   9.444  1.00  0.00     0.031 C 
ATOM     41  C   UNL     1       3.483  -7.075  10.093  1.00  0.00     0.029 A 
ATOM     42  N   UNL     1       4.650  -8.897  10.662  1.00  0.00    -0.354 N 
ATOM     43  C   UNL     1       8.923  -9.027  10.272  1.00  0.00     0.074 A 
ATOM     44  C   UNL     1       9.431  -7.823   9.647  1.00  0.00     0.031 C 
ATOM     45  C   UNL     1       2.612  -7.982  10.566  1.00  0.00     0.029 A 
ATOM     46  C   UNL     1       3.340  -9.188  10.956  1.00  0.00     0.049 A 
ATOM     47  H   UNL     1       5.387  -9.536  10.795  1.00  0.00     0.167 HD
ATOM     48  C   UNL     1       9.693 -10.068  10.672  1.00  0.00     0.037 A 
ATOM     49  C   UNL     1       2.785 -10.292  11.493  1.00  0.00     0.037 A 
ATOM     50  C   UNL     1       9.197 -11.264  11.302  1.00  0.00     0.049 A 
ATOM     51  C   UNL     1       3.659 -11.450  11.893  1.00  0.00     0.074 A 
ATOM     52  C   UNL     1       9.916 -12.347  11.781  1.00  0.00     0.029 A 
ATOM     53  N   UNL     1       7.859 -11.539  11.537  1.00  0.00    -0.354 N 
ATOM     54  N   UNL     1       4.963 -11.557  11.839  1.00  0.00    -0.248 NA
ATOM     55  C   UNL     1       2.982 -12.640  12.432  1.00  0.00     0.031 C 
ATOM     56  C   UNL     1       9.011 -13.295  12.268  1.00  0.00     0.029 A 
ATOM     57  C   UNL     1       7.730 -12.786  12.129  1.00  0.00     0.049 A 
ATOM     58  H   UNL     1       7.111 -10.938  11.316  1.00  0.00     0.167 HD
ATOM     59  C   UNL     1       5.265 -12.811  12.353  1.00  0.00     0.074 A 
ATOM     60  C   UNL     1       4.009 -13.427  12.725  1.00  0.00     0.031 C 
ATOM     61  C   UNL     1       6.479 -13.394  12.500  1.00  0.00     0.037 A 
BRANCH  48  62
ATOM     62  C   UNL     1      11.174  -9.960  10.459  1.00  0.00     0.064 A 
ATOM     63  C   UNL     1      11.964  -9.124  11.261  1.00  0.00     0.173 A 
ATOM     64  C   UNL     1      11.819 -10.757   9.501  1.00  0.00     0.173 A 
ATOM     65  F   UNL     1      11.393  -8.342  12.188  1.00  0.00    -0.203 F 
ATOM     66  C   UNL     1      13.346  -9.076  11.100  1.00  0.00     0.198 A 
ATOM     67  C   UNL     1      13.204 -10.723   9.358  1.00  0.00     0.198 A 
ATOM     68  F   UNL     1      11.109 -11.582   8.718  1.00  0.00    -0.203 F 
ATOM     69  F   UNL     1      14.079  -8.250  11.858  1.00  0.00    -0.200 F 
ATOM     70  C   UNL     1      13.966  -9.881  10.155  1.00  0.00     0.200 A 
ATOM     71  F   UNL     1      13.803 -11.511   8.454  1.00  0.00    -0.200 F 
ATOM     72  F   UNL     1      15.297  -9.843  10.010  1.00  0.00    -0.200 F 
ENDBRANCH  48  62
BRANCH  49  73
ATOM     73  C   UNL     1       1.319 -10.337  11.726  1.00  0.00     0.064 A 
ATOM     74  C   UNL     1       0.795 -10.261  13.023  1.00  0.00     0.173 A 
ATOM     75  C   UNL     1       0.415 -10.442  10.659  1.00  0.00     0.173 A 
ATOM     76  F   UNL     1       1.623 -10.185  14.076  1.00  0.00    -0.203 F 
ATOM     77  C   UNL     1      -0.579 -10.292  13.246  1.00  0.00     0.198 A 
ATOM     78  C   UNL     1      -0.960 -10.452  10.882  1.00  0.00     0.198 A 
ATOM     79  F   UNL     1       0.869 -10.522   9.400  1.00  0.00    -0.203 F 
ATOM     80  F   UNL     1      -1.054 -10.247  14.498  1.00  0.00    -0.200 F 
ATOM     81  C   UNL     1      -1.456 -10.380  12.175  1.00  0.00     0.200 A 
ATOM     82  F   UNL     1      -1.805 -10.528   9.845  1.00  0.00    -0.200 F 
ATOM     83  F   UNL     1      -2.779 -10.401  12.390  1.00  0.00    -0.200 F 
ENDBRANCH  49  73
BRANCH  61  84
ATOM     84  C   UNL     1       6.526 -14.769  13.097  1.00  0.00     0.064 A 
ATOM     85  C   UNL     1       6.164 -15.900  12.352  1.00  0.00     0.173 A 
ATOM     86  C   UNL     1       7.021 -14.967  14.395  1.00  0.00     0.173 A 
ATOM     87  F   UNL     1       5.673 -15.761  11.111  1.00  0.00    -0.203 F 
ATOM     88  C   UNL     1       6.292 -17.180  12.886  1.00  0.00     0.198 A 
ATOM     89  C   UNL     1       7.168 -16.249  14.918  1.00  0.00     0.198 A 
ATOM     90  F   UNL     1       7.387 -13.918  15.146  1.00  0.00    -0.203 F 
ATOM     91  F   UNL     1       5.920 -18.246  12.163  1.00  0.00    -0.200 F 
ATOM     92  C   UNL     1       6.803 -17.354  14.163  1.00  0.00     0.200 A 
ATOM     93  F   UNL     1       7.673 -16.417  16.148  1.00  0.00    -0.200 F 
ATOM     94  F   UNL     1       6.943 -18.587  14.668  1.00  0.00    -0.200 F 
ENDBRANCH  61  84
ENDBRANCH  35  36
ENDBRANCH  27  30
ENDBRANCH  25  26
ENDBRANCH   1  25
TORSDOF 13
