REMARK SMILES Cc1cc(Cl)c(C)c2c1O[C@H](C(F)(F)F)C(C(=O)NCCCNC(=O)c1ccc(-c3c4nc(c(-c5c(F)c(F)c(F)c(F)c5F)c5ccc([nH]5)c(-c5c(F)c(F)c(F)c(F)c5F)c5nc(c(-c6c(F)c(F)c(F)c(F)c6F)c6ccc3[nH]6)C=C5)C=C4)cc1)=C2
REMARK SMILES IDX 21 1 20 2 19 3 17 4 18 5 16 7 1 8 2 9 3 10 9 11 4 12 8 13
REMARK SMILES IDX 10 14 5 15 6 16 89 17 11 18 7 19 12 20 13 21 14 22 15 23
REMARK SMILES IDX 22 24 23 25 24 26 25 28 26 29 27 30 88 31 28 32 87 33 29 34
REMARK SMILES IDX 30 35 31 36 81 37 32 38 86 39 80 40 82 41 33 42 85 43 79 44
REMARK SMILES IDX 78 45 34 47 66 48 46 49 65 50 47 51 50 52 64 53 83 54 48 55
REMARK SMILES IDX 49 56 63 58 84 59 51 60 35 61 36 62 44 63 37 64 38 65 42 66
REMARK SMILES IDX 45 67 39 68 40 69 43 70 41 71 67 72 68 73 76 74 69 75 70 76
REMARK SMILES IDX 74 77 77 78 71 79 72 80 75 81 73 82 52 83 53 84 61 85 54 86
REMARK SMILES IDX 55 87 59 88 62 89 56 90 57 91 60 92 58 93
REMARK H PARENT 19 6 23 27 82 46 50 57
REMARK Flexibility Score: inf
ROOT
ATOM      1  C   UNL     1       3.253  -5.384   4.378  1.00  0.00     0.042 C 
ENDROOT
BRANCH   1   2
ATOM      2  C   UNL     1       3.862  -5.320   2.986  1.00  0.00     0.118 C 
BRANCH   2   3
ATOM      3  N   UNL     1       3.162  -6.186   2.050  1.00  0.00    -0.352 N 
ATOM      4  C   UNL     1       2.321  -6.040   1.000  1.00  0.00     0.251 C 
ATOM      5  O   UNL     1       1.945  -7.094   0.478  1.00  0.00    -0.270 OA
ATOM      6  H   UNL     1       3.351  -7.136   2.229  1.00  0.00     0.163 HD
BRANCH   4   7
ATOM      7  C   UNL     1       1.845  -4.734   0.462  1.00  0.00     0.067 C 
ATOM      8  C   UNL     1       0.667   0.167  -0.265  1.00  0.00     0.048 C 
ATOM      9  C   UNL     1       0.310  -1.108  -0.974  1.00  0.00    -0.007 A 
ATOM     10  C   UNL     1      -0.450  -1.088  -2.142  1.00  0.00     0.028 A 
ATOM     11  C   UNL     1       0.748  -2.342  -0.485  1.00  0.00     0.131 A 
ATOM     12  C   UNL     1      -0.766  -2.278  -2.810  1.00  0.00     0.045 A 
ATOM     13  C   UNL     1       0.450  -3.549  -1.142  1.00  0.00     0.022 A 
ATOM     14  O   UNL     1       1.439  -2.303   0.695  1.00  0.00    -0.475 OA
ATOM     15  Cl  UNL     1      -1.727  -2.121  -4.240  1.00  0.00    -0.084 Cl
ATOM     16  C   UNL     1      -0.320  -3.526  -2.330  1.00  0.00    -0.021 A 
ATOM     17  C   UNL     1       0.940  -4.791  -0.533  1.00  0.00     0.026 C 
ATOM     18  C   UNL     1       2.334  -3.408   0.951  1.00  0.00     0.314 C 
ATOM     19  C   UNL     1      -0.641  -4.813  -3.049  1.00  0.00     0.047 C 
BRANCH  18  20
ATOM     20  C   UNL     1       3.746  -3.058   0.444  1.00  0.00     0.429 C 
ATOM     21  F   UNL     1       4.290  -2.078   1.209  1.00  0.00    -0.167 F 
ATOM     22  F   UNL     1       4.598  -4.109   0.508  1.00  0.00    -0.167 F 
ATOM     23  F   UNL     1       3.753  -2.626  -0.836  1.00  0.00    -0.167 F 
ENDBRANCH  18  20
ENDBRANCH   4   7
ENDBRANCH   2   3
ENDBRANCH   1   2
BRANCH   1  24
ATOM     24  C   UNL     1       3.677  -6.641   5.125  1.00  0.00     0.118 C 
BRANCH  24  25
ATOM     25  N   UNL     1       5.119  -6.664   5.366  1.00  0.00    -0.352 N 
ATOM     26  C   UNL     1       5.826  -6.440   6.517  1.00  0.00     0.251 C 
ATOM     27  H   UNL     1       5.668  -6.874   4.576  1.00  0.00     0.163 HD
ATOM     28  O   UNL     1       7.034  -6.212   6.463  1.00  0.00    -0.269 OA
BRANCH  26  29
ATOM     29  C   UNL     1       5.140  -6.471   7.820  1.00  0.00     0.039 A 
ATOM     30  C   UNL     1       5.494  -5.549   8.808  1.00  0.00     0.014 A 
ATOM     31  C   UNL     1       4.160  -7.435   8.073  1.00  0.00     0.014 A 
ATOM     32  C   UNL     1       4.817  -5.557  10.027  1.00  0.00     0.010 A 
ATOM     33  C   UNL     1       3.417  -7.373   9.241  1.00  0.00     0.010 A 
ATOM     34  C   UNL     1       3.751  -6.447  10.238  1.00  0.00    -0.014 A 
BRANCH  34  35
ATOM     35  C   UNL     1       2.992  -6.458  11.510  1.00  0.00     0.031 A 
ATOM     36  C   UNL     1       3.011  -7.686  12.376  1.00  0.00     0.074 A 
ATOM     37  C   UNL     1       2.245  -5.390  11.848  1.00  0.00     0.049 A 
ATOM     38  N   UNL     1       2.361  -7.924  13.486  1.00  0.00    -0.248 NA
ATOM     39  C   UNL     1       3.848  -8.810  11.920  1.00  0.00     0.031 C 
ATOM     40  C   UNL     1       2.116  -4.165  11.057  1.00  0.00     0.029 A 
ATOM     41  N   UNL     1       1.448  -5.166  12.941  1.00  0.00    -0.354 N 
ATOM     42  C   UNL     1       2.702  -9.220  13.849  1.00  0.00     0.074 A 
ATOM     43  C   UNL     1       3.559  -9.745  12.811  1.00  0.00     0.031 C 
ATOM     44  C   UNL     1       1.319  -3.304  11.709  1.00  0.00     0.029 A 
ATOM     45  C   UNL     1       0.847  -3.931  12.940  1.00  0.00     0.049 A 
ATOM     46  H   UNL     1       1.320  -5.827  13.659  1.00  0.00     0.167 HD
ATOM     47  C   UNL     1       2.358  -9.897  14.968  1.00  0.00     0.037 A 
ATOM     48  C   UNL     1       0.007  -3.373  13.832  1.00  0.00     0.037 A 
ATOM     49  C   UNL     1       1.533  -9.352  16.012  1.00  0.00     0.049 A 
ATOM     50  C   UNL     1      -0.372  -4.153  15.062  1.00  0.00     0.074 A 
ATOM     51  C   UNL     1       1.172  -9.932  17.214  1.00  0.00     0.029 A 
ATOM     52  N   UNL     1       0.944  -8.096  15.977  1.00  0.00    -0.354 N 
ATOM     53  N   UNL     1       0.008  -5.353  15.427  1.00  0.00    -0.248 NA
ATOM     54  C   UNL     1      -1.292  -3.502  16.004  1.00  0.00     0.031 C 
ATOM     55  C   UNL     1       0.322  -9.048  17.884  1.00  0.00     0.029 A 
ATOM     56  C   UNL     1       0.199  -7.894  17.126  1.00  0.00     0.049 A 
ATOM     57  H   UNL     1       1.041  -7.446  15.244  1.00  0.00     0.167 HD
ATOM     58  C   UNL     1      -0.606  -5.593  16.649  1.00  0.00     0.074 A 
ATOM     59  C   UNL     1      -1.369  -4.405  16.972  1.00  0.00     0.031 C 
ATOM     60  C   UNL     1      -0.548  -6.700  17.430  1.00  0.00     0.037 A 
BRANCH  47  61
ATOM     61  C   UNL     1       2.888 -11.290  15.138  1.00  0.00     0.064 A 
ATOM     62  C   UNL     1       4.248 -11.532  15.385  1.00  0.00     0.173 A 
ATOM     63  C   UNL     1       2.019 -12.391  15.121  1.00  0.00     0.173 A 
ATOM     64  F   UNL     1       5.124 -10.515  15.397  1.00  0.00    -0.203 F 
ATOM     65  C   UNL     1       4.721 -12.825  15.593  1.00  0.00     0.198 A 
ATOM     66  C   UNL     1       2.490 -13.679  15.361  1.00  0.00     0.198 A 
ATOM     67  F   UNL     1       0.709 -12.216  14.891  1.00  0.00    -0.203 F 
ATOM     68  F   UNL     1       6.030 -13.034  15.790  1.00  0.00    -0.200 F 
ATOM     69  C   UNL     1       3.840 -13.896  15.593  1.00  0.00     0.200 A 
ATOM     70  F   UNL     1       1.635 -14.712  15.374  1.00  0.00    -0.200 F 
ATOM     71  F   UNL     1       4.293 -15.137  15.814  1.00  0.00    -0.200 F 
ENDBRANCH  47  61
BRANCH  48  72
ATOM     72  C   UNL     1      -0.498  -1.992  13.607  1.00  0.00     0.064 A 
ATOM     73  C   UNL     1      -0.080  -0.934  14.425  1.00  0.00     0.173 A 
ATOM     74  C   UNL     1      -1.384  -1.696  12.561  1.00  0.00     0.173 A 
ATOM     75  F   UNL     1       0.753  -1.168  15.450  1.00  0.00    -0.203 F 
ATOM     76  C   UNL     1      -0.538   0.365  14.214  1.00  0.00     0.198 A 
ATOM     77  C   UNL     1      -1.819  -0.392  12.332  1.00  0.00     0.198 A 
ATOM     78  F   UNL     1      -1.810  -2.671  11.744  1.00  0.00    -0.203 F 
ATOM     79  F   UNL     1      -0.150   1.352  15.034  1.00  0.00    -0.200 F 
ATOM     80  C   UNL     1      -1.401   0.636  13.163  1.00  0.00     0.200 A 
ATOM     81  F   UNL     1      -2.638  -0.132  11.304  1.00  0.00    -0.200 F 
ATOM     82  F   UNL     1      -1.830   1.888  12.951  1.00  0.00    -0.200 F 
ENDBRANCH  48  72
BRANCH  60  83
ATOM     83  C   UNL     1      -1.315  -6.682  18.720  1.00  0.00     0.064 A 
ATOM     84  C   UNL     1      -2.714  -6.767  18.739  1.00  0.00     0.173 A 
ATOM     85  C   UNL     1      -0.638  -6.671  19.949  1.00  0.00     0.173 A 
ATOM     86  F   UNL     1      -3.406  -6.769  17.590  1.00  0.00    -0.203 F 
ATOM     87  C   UNL     1      -3.409  -6.829  19.943  1.00  0.00     0.198 A 
ATOM     88  C   UNL     1      -1.334  -6.766  21.150  1.00  0.00     0.198 A 
ATOM     89  F   UNL     1       0.702  -6.601  19.983  1.00  0.00    -0.203 F 
ATOM     90  F   UNL     1      -4.748  -6.877  19.939  1.00  0.00    -0.200 F 
ATOM     91  C   UNL     1      -2.718  -6.841  21.146  1.00  0.00     0.200 A 
ATOM     92  F   UNL     1      -0.664  -6.798  22.310  1.00  0.00    -0.200 F 
ATOM     93  F   UNL     1      -3.388  -6.925  22.304  1.00  0.00    -0.200 F 
ENDBRANCH  60  83
ENDBRANCH  34  35
ENDBRANCH  26  29
ENDBRANCH  24  25
ENDBRANCH   1  24
TORSDOF 11
