REMARK SMILES O=C(NCCCNC(=O)[C@]1(CCc2cccnc2)CCC[NH2+]C1)c1ccc(-c2c3nc(c(-c4c(F)c(F)c(F)c(F)c4F)c4ccc([nH]4)c(-c4c(F)c(F)c(F)c(F)c4F)c4nc(c(-c5c(F)c(F)c(F)c(F)c5F)c5ccc2[nH]5)C=C4)C=C3)cc1
REMARK SMILES IDX 5 1 4 2 3 3 1 4 2 5 24 7 25 8 86 9 26 10 85 11 27 12 28 13
REMARK SMILES IDX 29 14 79 15 30 16 84 17 78 18 80 19 31 20 83 21 77 22 76 23
REMARK SMILES IDX 32 25 64 26 44 27 63 28 45 29 48 30 62 31 81 32 46 33 47 34
REMARK SMILES IDX 61 36 82 37 49 38 33 39 34 40 42 41 35 42 36 43 40 44 43 45
REMARK SMILES IDX 37 46 38 47 41 48 39 49 65 50 66 51 74 52 67 53 68 54 72 55
REMARK SMILES IDX 75 56 69 57 70 58 73 59 71 60 50 61 51 62 59 63 52 64 53 65
REMARK SMILES IDX 57 66 60 67 54 68 55 69 58 70 56 71 6 72 7 73 8 74 9 76
REMARK SMILES IDX 10 77 19 78 23 79 20 80 22 81 21 82 11 85 12 86 13 87 14 88
REMARK SMILES IDX 18 89 15 90 17 91 16 92
REMARK H PARENT 3 6 80 24 48 35 7 75 22 83 22 84
REMARK Flexibility Score: inf
ROOT
ATOM      1  C   UNL     1       5.060  -2.079   0.651  1.00  0.00     0.042 C 
ENDROOT
BRANCH   1   2
ATOM      2  C   UNL     1       4.590  -1.334  -0.588  1.00  0.00     0.118 C 
BRANCH   2   3
ATOM      3  N   UNL     1       3.153  -1.085  -0.587  1.00  0.00    -0.352 N 
ATOM      4  O   UNL     1       1.210  -0.040  -0.144  1.00  0.00    -0.269 OA
ATOM      5  C   UNL     1       2.429   0.034  -0.247  1.00  0.00     0.251 C 
ATOM      6  H   UNL     1       2.607  -1.849  -0.881  1.00  0.00     0.163 HD
BRANCH   5   7
ATOM      7  C   UNL     1       3.107   1.320   0.031  1.00  0.00     0.039 A 
ATOM      8  C   UNL     1       4.190   1.745  -0.736  1.00  0.00     0.014 A 
ATOM      9  C   UNL     1       2.624   2.139   1.057  1.00  0.00     0.014 A 
ATOM     10  C   UNL     1       4.908   2.872  -0.360  1.00  0.00     0.010 A 
ATOM     11  C   UNL     1       3.272   3.343   1.356  1.00  0.00     0.010 A 
ATOM     12  C   UNL     1       4.445   3.699   0.675  1.00  0.00    -0.014 A 
BRANCH  12  13
ATOM     13  C   UNL     1       5.177   4.958   0.970  1.00  0.00     0.031 A 
ATOM     14  C   UNL     1       5.824   5.190   2.306  1.00  0.00     0.074 A 
ATOM     15  C   UNL     1       5.290   5.880  -0.006  1.00  0.00     0.049 A 
ATOM     16  N   UNL     1       6.525   6.219   2.715  1.00  0.00    -0.248 NA
ATOM     17  C   UNL     1       5.657   4.140   3.321  1.00  0.00     0.031 C 
ATOM     18  C   UNL     1       4.695   5.768  -1.339  1.00  0.00     0.029 A 
ATOM     19  N   UNL     1       5.963   7.074  -0.043  1.00  0.00    -0.354 N 
ATOM     20  C   UNL     1       6.858   5.954   4.036  1.00  0.00     0.074 A 
ATOM     21  C   UNL     1       6.263   4.677   4.371  1.00  0.00     0.031 C 
ATOM     22  C   UNL     1       5.085   6.810  -2.085  1.00  0.00     0.029 A 
ATOM     23  C   UNL     1       5.895   7.701  -1.263  1.00  0.00     0.049 A 
ATOM     24  H   UNL     1       6.449   7.444   0.728  1.00  0.00     0.167 HD
ATOM     25  C   UNL     1       7.598   6.705   4.887  1.00  0.00     0.037 A 
ATOM     26  C   UNL     1       6.414   8.872  -1.674  1.00  0.00     0.037 A 
ATOM     27  C   UNL     1       8.207   7.964   4.538  1.00  0.00     0.049 A 
ATOM     28  C   UNL     1       7.216   9.690  -0.706  1.00  0.00     0.074 A 
ATOM     29  C   UNL     1       9.008   8.782   5.316  1.00  0.00     0.029 A 
ATOM     30  N   UNL     1       8.078   8.589   3.305  1.00  0.00    -0.354 N 
ATOM     31  N   UNL     1       7.542   9.417   0.533  1.00  0.00    -0.248 NA
ATOM     32  C   UNL     1       7.713  10.983  -1.191  1.00  0.00     0.031 C 
ATOM     33  C   UNL     1       9.326   9.923   4.570  1.00  0.00     0.029 A 
ATOM     34  C   UNL     1       8.764   9.794   3.310  1.00  0.00     0.049 A 
ATOM     35  H   UNL     1       7.574   8.230   2.540  1.00  0.00     0.167 HD
ATOM     36  C   UNL     1       8.292  10.496   0.975  1.00  0.00     0.074 A 
ATOM     37  C   UNL     1       8.390  11.419  -0.138  1.00  0.00     0.031 C 
ATOM     38  C   UNL     1       8.846  10.704   2.195  1.00  0.00     0.037 A 
BRANCH  25  39
ATOM     39  C   UNL     1       7.769   6.199   6.291  1.00  0.00     0.064 A 
ATOM     40  C   UNL     1       8.570   5.086   6.586  1.00  0.00     0.173 A 
ATOM     41  C   UNL     1       7.142   6.856   7.362  1.00  0.00     0.173 A 
ATOM     42  F   UNL     1       9.182   4.414   5.599  1.00  0.00    -0.203 F 
ATOM     43  C   UNL     1       8.712   4.631   7.895  1.00  0.00     0.198 A 
ATOM     44  C   UNL     1       7.309   6.416   8.673  1.00  0.00     0.198 A 
ATOM     45  F   UNL     1       6.370   7.930   7.138  1.00  0.00    -0.203 F 
ATOM     46  F   UNL     1       9.442   3.535   8.147  1.00  0.00    -0.200 F 
ATOM     47  C   UNL     1       8.087   5.299   8.937  1.00  0.00     0.200 A 
ATOM     48  F   UNL     1       6.714   7.070   9.679  1.00  0.00    -0.200 F 
ATOM     49  F   UNL     1       8.227   4.861  10.196  1.00  0.00    -0.200 F 
ENDBRANCH  25  39
BRANCH  26  50
ATOM     50  C   UNL     1       6.187   9.322  -3.070  1.00  0.00     0.064 A 
ATOM     51  C   UNL     1       7.236   9.345  -3.998  1.00  0.00     0.173 A 
ATOM     52  C   UNL     1       4.910   9.697  -3.515  1.00  0.00     0.173 A 
ATOM     53  F   UNL     1       8.477   9.013  -3.615  1.00  0.00    -0.203 F 
ATOM     54  C   UNL     1       7.017   9.730  -5.319  1.00  0.00     0.198 A 
ATOM     55  C   UNL     1       4.687  10.053  -4.842  1.00  0.00     0.198 A 
ATOM     56  F   UNL     1       3.873   9.685  -2.665  1.00  0.00    -0.203 F 
ATOM     57  F   UNL     1       8.042   9.771  -6.181  1.00  0.00    -0.200 F 
ATOM     58  C   UNL     1       5.741  10.074  -5.742  1.00  0.00     0.200 A 
ATOM     59  F   UNL     1       3.450  10.366  -5.251  1.00  0.00    -0.200 F 
ATOM     60  F   UNL     1       5.529  10.427  -7.017  1.00  0.00    -0.200 F 
ENDBRANCH  26  50
BRANCH  38  61
ATOM     61  C   UNL     1       9.625  11.972   2.377  1.00  0.00     0.064 A 
ATOM     62  C   UNL     1       8.988  13.217   2.476  1.00  0.00     0.173 A 
ATOM     63  C   UNL     1      11.024  11.938   2.476  1.00  0.00     0.173 A 
ATOM     64  F   UNL     1       7.653  13.302   2.369  1.00  0.00    -0.203 F 
ATOM     65  C   UNL     1       9.725  14.386   2.641  1.00  0.00     0.198 A 
ATOM     66  C   UNL     1      11.756  13.106   2.668  1.00  0.00     0.198 A 
ATOM     67  F   UNL     1      11.680  10.771   2.391  1.00  0.00    -0.203 F 
ATOM     68  F   UNL     1       9.099  15.570   2.684  1.00  0.00    -0.200 F 
ATOM     69  C   UNL     1      11.107  14.329   2.743  1.00  0.00     0.200 A 
ATOM     70  F   UNL     1      13.091  13.048   2.777  1.00  0.00    -0.200 F 
ATOM     71  F   UNL     1      11.815  15.455   2.904  1.00  0.00    -0.200 F 
ENDBRANCH  38  61
ENDBRANCH  12  13
ENDBRANCH   5   7
ENDBRANCH   2   3
ENDBRANCH   1   2
BRANCH   1  72
ATOM     72  C   UNL     1       4.547  -3.506   0.757  1.00  0.00     0.117 C 
BRANCH  72  73
ATOM     73  N   UNL     1       4.833  -4.298  -0.422  1.00  0.00    -0.355 N 
ATOM     74  C   UNL     1       5.380  -5.523  -0.617  1.00  0.00     0.231 C 
ATOM     75  H   UNL     1       4.576  -3.851  -1.260  1.00  0.00     0.163 HD
ATOM     76  O   UNL     1       5.341  -5.925  -1.787  1.00  0.00    -0.274 OA
BRANCH  74  77
ATOM     77  C   UNL     1       6.073  -6.344   0.494  1.00  0.00     0.098 C 
ATOM     78  C   UNL     1       6.437  -7.754  -0.061  1.00  0.00     0.028 C 
ATOM     79  C   UNL     1       5.138  -6.615   1.702  1.00  0.00     0.277 C 
ATOM     80  C   UNL     1       5.197  -8.611  -0.355  1.00  0.00     0.063 C 
ATOM     81  N   UNL     1       3.908  -7.310   1.323  1.00  0.00    -0.345 N 
ATOM     82  C   UNL     1       4.205  -8.643   0.804  1.00  0.00     0.260 C 
ATOM     83  H   UNL     1       3.306  -7.396   2.142  1.00  0.00     0.346 HD
ATOM     84  H   UNL     1       3.440  -6.772   0.593  1.00  0.00     0.346 HD
BRANCH  77  85
ATOM     85  C   UNL     1       7.355  -5.595   0.982  1.00  0.00     0.028 C 
BRANCH  85  86
ATOM     86  C   UNL     1       8.570  -5.537   0.032  1.00  0.00     0.038 C 
BRANCH  86  87
ATOM     87  C   UNL     1       8.406  -4.683  -1.194  1.00  0.00    -0.030 A 
ATOM     88  C   UNL     1       8.262  -5.251  -2.462  1.00  0.00     0.007 A 
ATOM     89  C   UNL     1       8.383  -3.293  -1.119  1.00  0.00     0.114 A 
ATOM     90  C   UNL     1       8.068  -4.435  -3.572  1.00  0.00     0.020 A 
ATOM     91  N   UNL     1       8.195  -2.470  -2.177  1.00  0.00    -0.264 NA
ATOM     92  C   UNL     1       8.038  -3.065  -3.380  1.00  0.00     0.111 A 
ENDBRANCH  86  87
ENDBRANCH  85  86
ENDBRANCH  77  85
ENDBRANCH  74  77
ENDBRANCH  72  73
ENDBRANCH   1  72
TORSDOF 13
