REMARK SMILES COc1ncccc1NS(=O)(=O)c1ccc(C(=O)NCCCNC(=O)c2ccc(-c3c4nc(c(-c5c(F)c(F)c(F)c(F)c5F)c5ccc([nH]5)c(-c5c(F)c(F)c(F)c(F)c5F)c5nc(c(-c6c(F)c(F)c(F)c(F)c6F)c6ccc3[nH]6)C=C5)C=C4)cc2)cc1
REMARK SMILES IDX 20 1 19 2 17 3 18 4 16 6 13 7 14 8 90 9 15 10 89 11 10 12
REMARK SMILES IDX 11 13 12 14 9 15 8 17 3 18 4 19 5 20 7 21 6 22 2 23 1 24
REMARK SMILES IDX 21 25 22 26 23 27 24 28 25 30 26 31 27 32 88 33 28 34 87 35
REMARK SMILES IDX 29 36 30 37 31 38 81 39 32 40 86 41 80 42 82 43 33 44 85 45
REMARK SMILES IDX 79 46 78 47 34 49 66 50 46 51 65 52 47 53 50 54 64 55 83 56
REMARK SMILES IDX 48 57 49 58 63 60 84 61 51 62 35 63 36 64 44 65 37 66 38 67
REMARK SMILES IDX 42 68 45 69 39 70 40 71 43 72 41 73 67 74 68 75 76 76 69 77
REMARK SMILES IDX 70 78 74 79 77 80 71 81 72 82 75 83 73 84 52 85 53 86 61 87
REMARK SMILES IDX 54 88 55 89 59 90 62 91 56 92 57 93 60 94 58 95
REMARK H PARENT 19 5 9 16 23 29 82 48 50 59
REMARK Flexibility Score: inf
ROOT
ATOM      1  C   UNL     1      -3.214  -3.707   0.616  1.00  0.00     0.118 C 
ENDROOT
BRANCH   1   2
ATOM      2  N   UNL     1      -3.664  -2.475   1.236  1.00  0.00    -0.352 N 
ATOM      3  C   UNL     1      -2.990  -1.379   1.712  1.00  0.00     0.251 C 
ATOM      4  O   UNL     1      -3.664  -0.467   2.192  1.00  0.00    -0.269 OA
ATOM      5  H   UNL     1      -4.641  -2.413   1.334  1.00  0.00     0.163 HD
BRANCH   3   6
ATOM      6  C   UNL     1      -1.511  -1.215   1.615  1.00  0.00     0.039 A 
ATOM      7  C   UNL     1       1.207  -0.719   1.161  1.00  0.00     0.087 A 
ATOM      8  C   UNL     1       0.329   0.355   1.334  1.00  0.00     0.023 A 
ATOM      9  C   UNL     1       0.769  -2.026   1.362  1.00  0.00     0.023 A 
ATOM     10  C   UNL     1      -1.029   0.102   1.540  1.00  0.00     0.015 A 
ATOM     11  C   UNL     1      -0.586  -2.266   1.600  1.00  0.00     0.015 A 
BRANCH   7  12
ATOM     12  S   UNL     1       2.888  -0.440   0.695  1.00  0.00     0.262 S 
ATOM     13  O   UNL     1       3.708  -1.251   1.563  1.00  0.00    -0.201 OA
ATOM     14  O   UNL     1       3.094   0.998   0.620  1.00  0.00    -0.201 OA
BRANCH  12  15
ATOM     15  N   UNL     1       3.155  -0.965  -0.892  1.00  0.00    -0.274 N 
ATOM     16  H   UNL     1       4.025  -0.761  -1.304  1.00  0.00     0.180 HD
BRANCH  15  17
ATOM     17  C   UNL     1       2.195  -1.689  -1.676  1.00  0.00     0.111 A 
ATOM     18  C   UNL     1       0.940  -1.198  -2.055  1.00  0.00     0.238 A 
ATOM     19  N   UNL     1       0.117  -1.790  -2.950  1.00  0.00    -0.220 NA
ATOM     20  C   UNL     1       0.589  -2.896  -3.561  1.00  0.00     0.115 A 
ATOM     21  C   UNL     1       2.660  -2.805  -2.371  1.00  0.00     0.034 A 
ATOM     22  C   UNL     1       1.847  -3.426  -3.320  1.00  0.00     0.023 A 
BRANCH  18  23
ATOM     23  O   UNL     1       0.465  -0.049  -1.490  1.00  0.00    -0.480 OA
ATOM     24  C   UNL     1       0.670   1.066  -2.343  1.00  0.00     0.280 C 
ENDBRANCH  18  23
ENDBRANCH  15  17
ENDBRANCH  12  15
ENDBRANCH   7  12
ENDBRANCH   3   6
ENDBRANCH   1   2
BRANCH   1  25
ATOM     25  C   UNL     1      -3.034  -4.807   1.662  1.00  0.00     0.042 C 
BRANCH  25  26
ATOM     26  C   UNL     1      -4.352  -5.341   2.210  1.00  0.00     0.118 C 
BRANCH  26  27
ATOM     27  N   UNL     1      -5.018  -6.221   1.264  1.00  0.00    -0.352 N 
ATOM     28  C   UNL     1      -5.383  -7.537   1.399  1.00  0.00     0.251 C 
ATOM     29  H   UNL     1      -5.239  -5.812   0.397  1.00  0.00     0.163 HD
ATOM     30  O   UNL     1      -5.739  -8.170   0.409  1.00  0.00    -0.269 OA
BRANCH  28  31
ATOM     31  C   UNL     1      -5.342  -8.205   2.720  1.00  0.00     0.039 A 
ATOM     32  C   UNL     1      -4.907  -9.533   2.785  1.00  0.00     0.014 A 
ATOM     33  C   UNL     1      -5.777  -7.559   3.881  1.00  0.00     0.014 A 
ATOM     34  C   UNL     1      -4.867 -10.196   4.015  1.00  0.00     0.010 A 
ATOM     35  C   UNL     1      -5.670  -8.196   5.116  1.00  0.00     0.010 A 
ATOM     36  C   UNL     1      -5.226  -9.525   5.194  1.00  0.00    -0.014 A 
BRANCH  36  37
ATOM     37  C   UNL     1      -5.168 -10.204   6.513  1.00  0.00     0.031 A 
ATOM     38  C   UNL     1      -6.433 -10.458   7.287  1.00  0.00     0.074 A 
ATOM     39  C   UNL     1      -3.975 -10.538   7.041  1.00  0.00     0.049 A 
ATOM     40  N   UNL     1      -6.584 -10.967   8.484  1.00  0.00    -0.248 NA
ATOM     41  C   UNL     1      -7.693 -10.064   6.639  1.00  0.00     0.031 C 
ATOM     42  C   UNL     1      -2.677 -10.306   6.407  1.00  0.00     0.029 A 
ATOM     43  N   UNL     1      -3.661 -11.133   8.237  1.00  0.00    -0.354 N 
ATOM     44  C   UNL     1      -7.949 -10.934   8.738  1.00  0.00     0.074 A 
ATOM     45  C   UNL     1      -8.579 -10.316   7.592  1.00  0.00     0.031 C 
ATOM     46  C   UNL     1      -1.707 -10.768   7.213  1.00  0.00     0.029 A 
ATOM     47  C   UNL     1      -2.311 -11.297   8.432  1.00  0.00     0.049 A 
ATOM     48  H   UNL     1      -4.338 -11.416   8.893  1.00  0.00     0.167 HD
ATOM     49  C   UNL     1      -8.618 -11.397   9.821  1.00  0.00     0.037 A 
ATOM     50  C   UNL     1      -1.638 -11.810   9.479  1.00  0.00     0.037 A 
ATOM     51  C   UNL     1      -7.993 -12.042  10.946  1.00  0.00     0.049 A 
ATOM     52  C   UNL     1      -2.406 -12.326  10.665  1.00  0.00     0.074 A 
ATOM     53  C   UNL     1      -8.589 -12.601  12.063  1.00  0.00     0.029 A 
ATOM     54  N   UNL     1      -6.625 -12.214  11.094  1.00  0.00    -0.354 N 
ATOM     55  N   UNL     1      -3.701 -12.346  10.867  1.00  0.00    -0.248 NA
ATOM     56  C   UNL     1      -1.618 -12.898  11.766  1.00  0.00     0.031 C 
ATOM     57  C   UNL     1      -7.579 -13.079  12.905  1.00  0.00     0.029 A 
ATOM     58  C   UNL     1      -6.356 -12.856  12.293  1.00  0.00     0.049 A 
ATOM     59  H   UNL     1      -5.944 -11.923  10.444  1.00  0.00     0.167 HD
ATOM     60  C   UNL     1      -3.885 -12.954  12.101  1.00  0.00     0.074 A 
ATOM     61  C   UNL     1      -2.569 -13.300  12.597  1.00  0.00     0.031 C 
ATOM     62  C   UNL     1      -5.040 -13.202  12.765  1.00  0.00     0.037 A 
BRANCH  49  63
ATOM     63  C   UNL     1     -10.110 -11.226   9.840  1.00  0.00     0.064 A 
ATOM     64  C   UNL     1     -10.946 -11.972   8.996  1.00  0.00     0.173 A 
ATOM     65  C   UNL     1     -10.713 -10.333  10.738  1.00  0.00     0.173 A 
ATOM     66  F   UNL     1     -10.418 -12.832   8.111  1.00  0.00    -0.203 F 
ATOM     67  C   UNL     1     -12.328 -11.809   9.029  1.00  0.00     0.198 A 
ATOM     68  C   UNL     1     -12.098 -10.193  10.788  1.00  0.00     0.198 A 
ATOM     69  F   UNL     1      -9.960  -9.600  11.572  1.00  0.00    -0.203 F 
ATOM     70  F   UNL     1     -13.103 -12.498   8.179  1.00  0.00    -0.200 F 
ATOM     71  C   UNL     1     -12.903 -10.925   9.929  1.00  0.00     0.200 A 
ATOM     72  F   UNL     1     -12.653  -9.347  11.667  1.00  0.00    -0.200 F 
ATOM     73  F   UNL     1     -14.234 -10.773   9.964  1.00  0.00    -0.200 F 
ENDBRANCH  49  63
BRANCH  50  74
ATOM     74  C   UNL     1      -0.155 -11.885   9.440  1.00  0.00     0.064 A 
ATOM     75  C   UNL     1       0.497 -13.119   9.311  1.00  0.00     0.173 A 
ATOM     76  C   UNL     1       0.638 -10.732   9.527  1.00  0.00     0.173 A 
ATOM     77  F   UNL     1      -0.220 -14.251   9.245  1.00  0.00    -0.203 F 
ATOM     78  C   UNL     1       1.887 -13.199   9.287  1.00  0.00     0.198 A 
ATOM     79  C   UNL     1       2.028 -10.811   9.477  1.00  0.00     0.198 A 
ATOM     80  F   UNL     1       0.061  -9.528   9.646  1.00  0.00    -0.203 F 
ATOM     81  F   UNL     1       2.486 -14.395   9.203  1.00  0.00    -0.200 F 
ATOM     82  C   UNL     1       2.652 -12.045   9.364  1.00  0.00     0.200 A 
ATOM     83  F   UNL     1       2.763  -9.692   9.538  1.00  0.00    -0.200 F 
ATOM     84  F   UNL     1       3.989 -12.121   9.336  1.00  0.00    -0.200 F 
ENDBRANCH  50  74
BRANCH  62  85
ATOM     85  C   UNL     1      -4.937 -13.912  14.082  1.00  0.00     0.064 A 
ATOM     86  C   UNL     1      -4.458 -13.264  15.230  1.00  0.00     0.173 A 
ATOM     87  C   UNL     1      -5.360 -15.244  14.205  1.00  0.00     0.173 A 
ATOM     88  F   UNL     1      -4.027 -11.995  15.159  1.00  0.00    -0.203 F 
ATOM     89  C   UNL     1      -4.386 -13.931  16.450  1.00  0.00     0.198 A 
ATOM     90  C   UNL     1      -5.311 -15.899  15.432  1.00  0.00     0.198 A 
ATOM     91  F   UNL     1      -5.831 -15.905  13.137  1.00  0.00    -0.203 F 
ATOM     92  F   UNL     1      -3.885 -13.307  17.524  1.00  0.00    -0.200 F 
ATOM     93  C   UNL     1      -4.819 -15.245  16.551  1.00  0.00     0.200 A 
ATOM     94  F   UNL     1      -5.740 -17.165  15.531  1.00  0.00    -0.200 F 
ATOM     95  F   UNL     1      -4.754 -15.884  17.727  1.00  0.00    -0.200 F 
ENDBRANCH  62  85
ENDBRANCH  36  37
ENDBRANCH  28  31
ENDBRANCH  26  27
ENDBRANCH  25  26
ENDBRANCH   1  25
TORSDOF 14
