REMARK SMILES CC(C)c1ccc(NC(=O)C[C@H]2SC[C@@H](C(=O)NCCCNC(=O)c3ccc(-c4c5nc(c(-c6c(F)c(F)c(F)c(F)c6F)c6ccc([nH]6)c(-c6c(F)c(F)c(F)c(F)c6F)c6nc(c(-c7c(F)c(F)c(F)c(F)c7F)c7ccc4[nH]7)C=C6)C=C5)cc3)NC2=O)cc1
REMARK SMILES IDX 19 1 18 2 16 3 17 4 15 6 12 7 13 8 89 9 14 10 88 11 90 12
REMARK SMILES IDX 11 14 9 15 8 16 10 18 7 19 4 20 5 21 92 22 6 23 91 24 2 25
REMARK SMILES IDX 1 26 3 27 20 28 21 29 22 30 23 31 24 33 25 34 26 35 87 36
REMARK SMILES IDX 27 37 86 38 28 39 29 40 30 41 80 42 31 43 85 44 79 45 81 46
REMARK SMILES IDX 32 47 84 48 78 49 77 50 33 52 65 53 45 54 64 55 46 56 49 57
REMARK SMILES IDX 63 58 82 59 47 60 48 61 62 63 83 64 50 65 34 66 35 67 43 68
REMARK SMILES IDX 36 69 37 70 41 71 44 72 38 73 39 74 42 75 40 76 66 77 67 78
REMARK SMILES IDX 75 79 68 80 69 81 73 82 76 83 70 84 71 85 74 86 72 87 51 88
REMARK SMILES IDX 52 89 60 90 53 91 54 92 58 93 61 94 55 95 56 96 59 97 57 98
REMARK H PARENT 18 5 88 13 8 17 22 32 81 51 49 62
REMARK Flexibility Score: inf
ROOT
ATOM      1  C   UNL     1       1.078   2.050   0.831  1.00  0.00     0.117 C 
ENDROOT
BRANCH   1   2
ATOM      2  N   UNL     1       0.455   2.627   2.003  1.00  0.00    -0.354 N 
ATOM      3  C   UNL     1      -0.511   3.596   2.050  1.00  0.00     0.243 C 
ATOM      4  O   UNL     1      -0.550   4.307   3.052  1.00  0.00    -0.273 OA
ATOM      5  H   UNL     1       0.763   2.281   2.872  1.00  0.00     0.163 HD
BRANCH   3   6
ATOM      6  C   UNL     1      -1.621   3.567   0.979  1.00  0.00     0.181 C 
ATOM      7  C   UNL     1      -4.253   3.856   2.521  1.00  0.00     0.145 C 
ATOM      8  S   UNL     1      -3.404   5.444   2.117  1.00  0.00    -0.145 SA
ATOM      9  C   UNL     1      -3.300   2.653   2.522  1.00  0.00     0.234 C 
ATOM     10  C   UNL     1      -2.328   4.897   0.761  1.00  0.00     0.105 C 
ATOM     11  N   UNL     1      -2.488   2.486   1.425  1.00  0.00    -0.343 N 
ATOM     12  O   UNL     1      -3.284   1.749   3.352  1.00  0.00    -0.274 OA
ATOM     13  H   UNL     1      -2.492   1.630   0.940  1.00  0.00     0.164 HD
BRANCH   7  14
ATOM     14  C   UNL     1      -5.113   4.095   3.772  1.00  0.00     0.124 C 
BRANCH  14  15
ATOM     15  C   UNL     1      -5.334   2.974   4.765  1.00  0.00     0.226 C 
ATOM     16  N   UNL     1      -5.839   1.757   4.432  1.00  0.00    -0.326 N 
ATOM     17  H   UNL     1      -5.893   1.130   5.189  1.00  0.00     0.169 HD
ATOM     18  O   UNL     1      -5.053   3.158   5.957  1.00  0.00    -0.275 OA
BRANCH  16  19
ATOM     19  C   UNL     1      -6.298   1.222   3.225  1.00  0.00     0.041 A 
ATOM     20  C   UNL     1      -7.018  -0.016   0.777  1.00  0.00    -0.045 A 
ATOM     21  C   UNL     1      -7.268   1.346   1.014  1.00  0.00     0.006 A 
ATOM     22  C   UNL     1      -6.412  -0.746   1.810  1.00  0.00     0.006 A 
ATOM     23  C   UNL     1      -6.923   1.956   2.228  1.00  0.00     0.026 A 
ATOM     24  C   UNL     1      -6.084  -0.142   3.027  1.00  0.00     0.026 A 
BRANCH  20  25
ATOM     25  C   UNL     1      -7.325  -0.685  -0.561  1.00  0.00     0.013 C 
ATOM     26  C   UNL     1      -7.885  -2.107  -0.402  1.00  0.00     0.012 C 
ATOM     27  C   UNL     1      -8.283   0.109  -1.462  1.00  0.00     0.012 C 
ENDBRANCH  20  25
ENDBRANCH  16  19
ENDBRANCH  14  15
ENDBRANCH   7  14
ENDBRANCH   3   6
ENDBRANCH   1   2
BRANCH   1  28
ATOM     28  C   UNL     1       2.205   2.957   0.343  1.00  0.00     0.042 C 
BRANCH  28  29
ATOM     29  C   UNL     1       3.274   3.220   1.404  1.00  0.00     0.118 C 
BRANCH  29  30
ATOM     30  N   UNL     1       3.976   2.005   1.798  1.00  0.00    -0.352 N 
ATOM     31  C   UNL     1       5.313   1.716   1.747  1.00  0.00     0.251 C 
ATOM     32  H   UNL     1       3.404   1.286   2.152  1.00  0.00     0.163 HD
ATOM     33  O   UNL     1       5.699   0.563   1.937  1.00  0.00    -0.269 OA
BRANCH  31  34
ATOM     34  C   UNL     1       6.291   2.778   1.442  1.00  0.00     0.039 A 
ATOM     35  C   UNL     1       7.315   2.508   0.528  1.00  0.00     0.014 A 
ATOM     36  C   UNL     1       6.212   4.029   2.061  1.00  0.00     0.014 A 
ATOM     37  C   UNL     1       8.220   3.514   0.188  1.00  0.00     0.010 A 
ATOM     38  C   UNL     1       7.073   5.050   1.670  1.00  0.00     0.010 A 
ATOM     39  C   UNL     1       8.084   4.803   0.729  1.00  0.00    -0.014 A 
BRANCH  39  40
ATOM     40  C   UNL     1       8.987   5.907   0.320  1.00  0.00     0.031 A 
ATOM     41  C   UNL     1       9.918   6.533   1.321  1.00  0.00     0.074 A 
ATOM     42  C   UNL     1       8.921   6.389  -0.936  1.00  0.00     0.049 A 
ATOM     43  N   UNL     1      10.716   7.561   1.179  1.00  0.00    -0.248 NA
ATOM     44  C   UNL     1       9.936   5.939   2.667  1.00  0.00     0.031 C 
ATOM     45  C   UNL     1       8.031   5.892  -1.986  1.00  0.00     0.029 A 
ATOM     46  N   UNL     1       9.605   7.415  -1.539  1.00  0.00    -0.354 N 
ATOM     47  C   UNL     1      11.318   7.744   2.417  1.00  0.00     0.074 A 
ATOM     48  C   UNL     1      10.760   6.752   3.311  1.00  0.00     0.031 C 
ATOM     49  C   UNL     1       8.236   6.601  -3.108  1.00  0.00     0.029 A 
ATOM     50  C   UNL     1       9.241   7.626  -2.846  1.00  0.00     0.049 A 
ATOM     51  H   UNL     1      10.292   7.948  -1.078  1.00  0.00     0.167 HD
ATOM     52  C   UNL     1      12.266   8.645   2.769  1.00  0.00     0.037 A 
ATOM     53  C   UNL     1       9.662   8.551  -3.729  1.00  0.00     0.037 A 
ATOM     54  C   UNL     1      12.838   9.614   1.871  1.00  0.00     0.049 A 
ATOM     55  C   UNL     1      10.708   9.547  -3.307  1.00  0.00     0.074 A 
ATOM     56  C   UNL     1      13.841  10.534   2.119  1.00  0.00     0.029 A 
ATOM     57  N   UNL     1      12.454   9.787   0.549  1.00  0.00    -0.354 N 
ATOM     58  N   UNL     1      11.312   9.673  -2.151  1.00  0.00    -0.248 NA
ATOM     59  C   UNL     1      11.134  10.526  -4.316  1.00  0.00     0.031 C 
ATOM     60  C   UNL     1      14.038  11.291   0.959  1.00  0.00     0.029 A 
ATOM     61  C   UNL     1      13.189  10.812  -0.025  1.00  0.00     0.049 A 
ATOM     62  H   UNL     1      11.763   9.260   0.088  1.00  0.00     0.167 HD
ATOM     63  C   UNL     1      12.205  10.725  -2.300  1.00  0.00     0.074 A 
ATOM     64  C   UNL     1      12.076  11.192  -3.664  1.00  0.00     0.031 C 
ATOM     65  C   UNL     1      13.055  11.257  -1.388  1.00  0.00     0.037 A 
BRANCH  52  66
ATOM     66  C   UNL     1      12.755   8.620   4.188  1.00  0.00     0.064 A 
ATOM     67  C   UNL     1      13.563   7.578   4.667  1.00  0.00     0.173 A 
ATOM     68  C   UNL     1      12.450   9.671   5.065  1.00  0.00     0.173 A 
ATOM     69  F   UNL     1      13.872   6.543   3.870  1.00  0.00    -0.203 F 
ATOM     70  C   UNL     1      14.028   7.577   5.979  1.00  0.00     0.198 A 
ATOM     71  C   UNL     1      12.941   9.681   6.369  1.00  0.00     0.198 A 
ATOM     72  F   UNL     1      11.687  10.695   4.656  1.00  0.00    -0.203 F 
ATOM     73  F   UNL     1      14.764   6.550   6.426  1.00  0.00    -0.200 F 
ATOM     74  C   UNL     1      13.724   8.632   6.826  1.00  0.00     0.200 A 
ATOM     75  F   UNL     1      12.657  10.707   7.182  1.00  0.00    -0.200 F 
ATOM     76  F   UNL     1      14.181   8.634   8.085  1.00  0.00    -0.200 F 
ENDBRANCH  52  66
BRANCH  53  77
ATOM     77  C   UNL     1       9.109   8.570  -5.107  1.00  0.00     0.064 A 
ATOM     78  C   UNL     1       9.904   8.213  -6.205  1.00  0.00     0.173 A 
ATOM     79  C   UNL     1       7.784   8.957  -5.359  1.00  0.00     0.173 A 
ATOM     80  F   UNL     1      11.183   7.856  -6.017  1.00  0.00    -0.203 F 
ATOM     81  C   UNL     1       9.402   8.263  -7.504  1.00  0.00     0.198 A 
ATOM     82  C   UNL     1       7.275   8.980  -6.655  1.00  0.00     0.198 A 
ATOM     83  F   UNL     1       6.981   9.303  -4.342  1.00  0.00    -0.203 F 
ATOM     84  F   UNL     1      10.198   7.962  -8.539  1.00  0.00    -0.200 F 
ATOM     85  C   UNL     1       8.087   8.642  -7.728  1.00  0.00     0.200 A 
ATOM     86  F   UNL     1       6.000   9.332  -6.866  1.00  0.00    -0.200 F 
ATOM     87  F   UNL     1       7.604   8.688  -8.977  1.00  0.00    -0.200 F 
ENDBRANCH  53  77
BRANCH  65  88
ATOM     88  C   UNL     1      13.937  12.381  -1.847  1.00  0.00     0.064 A 
ATOM     89  C   UNL     1      13.426  13.665  -2.084  1.00  0.00     0.173 A 
ATOM     90  C   UNL     1      15.315  12.178  -2.015  1.00  0.00     0.173 A 
ATOM     91  F   UNL     1      12.112  13.904  -1.953  1.00  0.00    -0.203 F 
ATOM     92  C   UNL     1      14.259  14.700  -2.498  1.00  0.00     0.198 A 
ATOM     93  C   UNL     1      16.149  13.223  -2.402  1.00  0.00     0.198 A 
ATOM     94  F   UNL     1      15.852  10.969  -1.795  1.00  0.00    -0.203 F 
ATOM     95  F   UNL     1      13.743  15.908  -2.765  1.00  0.00    -0.200 F 
ATOM     96  C   UNL     1      15.621  14.480  -2.650  1.00  0.00     0.200 A 
ATOM     97  F   UNL     1      17.466  13.011  -2.537  1.00  0.00    -0.200 F 
ATOM     98  F   UNL     1      16.422  15.479  -3.043  1.00  0.00    -0.200 F 
ENDBRANCH  65  88
ENDBRANCH  39  40
ENDBRANCH  31  34
ENDBRANCH  29  30
ENDBRANCH  28  29
ENDBRANCH   1  28
TORSDOF 14
