REMARK SMILES C[NH2+][C@]1(C(=O)NCCCNC(=O)c2ccc(-c3c4nc(c(-c5c(F)c(F)c(F)c(F)c5F)c5ccc([nH]5)c(-c5c(F)c(F)c(F)c(F)c5F)c5nc(c(-c6c(F)c(F)c(F)c(F)c6F)c6ccc3[nH]6)C=C5)C=C4)cc2)CCC[C@@H](Sc2nccs2)C1
REMARK SMILES IDX 8 1 7 2 6 3 4 4 5 5 3 7 76 8 86 9 77 10 79 11 78 12 2 13
REMARK SMILES IDX 1 14 80 17 81 18 82 19 85 20 83 21 84 22 9 23 10 24 11 25
REMARK SMILES IDX 12 27 13 28 14 29 75 30 15 31 74 32 16 33 17 34 18 35 68 36
REMARK SMILES IDX 19 37 73 38 67 39 69 40 20 41 72 42 66 43 65 44 21 46 53 47
REMARK SMILES IDX 33 48 52 49 34 50 37 51 51 52 70 53 35 54 36 55 50 57 71 58
REMARK SMILES IDX 38 59 22 60 23 61 31 62 24 63 25 64 29 65 32 66 26 67 27 68
REMARK SMILES IDX 30 69 28 70 54 71 55 72 63 73 56 74 57 75 61 76 64 77 58 78
REMARK SMILES IDX 59 79 62 80 60 81 39 82 40 83 48 84 41 85 42 86 46 87 49 88
REMARK SMILES IDX 43 89 44 90 47 91 45 92
REMARK H PARENT 6 6 2 15 2 16 10 26 69 45 37 56
REMARK Flexibility Score: inf
ROOT
ATOM      1  C   UNL     1       0.878  -0.017   2.403  1.00  0.00     0.042 C 
ENDROOT
BRANCH   1   2
ATOM      2  C   UNL     1       0.462   1.180   1.562  1.00  0.00     0.118 C 
BRANCH   2   3
ATOM      3  N   UNL     1       0.976   1.098   0.206  1.00  0.00    -0.351 N 
ATOM      4  C   UNL     1       0.354   1.040  -1.006  1.00  0.00     0.281 C 
ATOM      5  O   UNL     1       1.112   0.874  -1.971  1.00  0.00    -0.268 OA
ATOM      6  H   UNL     1       1.958   1.080   0.152  1.00  0.00     0.163 HD
BRANCH   4   7
ATOM      7  C   UNL     1      -1.219   1.116  -1.168  1.00  0.00     0.176 C 
ATOM      8  C   UNL     1      -1.797  -0.183  -0.545  1.00  0.00     0.079 C 
ATOM      9  C   UNL     1      -1.744   2.428  -0.516  1.00  0.00     0.094 C 
ATOM     10  C   UNL     1      -3.276  -0.128  -0.191  1.00  0.00     0.008 C 
ATOM     11  C   UNL     1      -3.210   2.380  -0.061  1.00  0.00     0.061 C 
ATOM     12  C   UNL     1      -3.591   1.090   0.667  1.00  0.00     0.015 C 
BRANCH   7  13
ATOM     13  N   UNL     1      -1.460   1.092  -2.634  1.00  0.00    -0.336 N 
ATOM     14  C   UNL     1      -2.657   1.638  -3.217  1.00  0.00     0.331 C 
ATOM     15  H   UNL     1      -0.680   1.593  -3.060  1.00  0.00     0.346 HD
ATOM     16  H   UNL     1      -1.566   0.095  -2.818  1.00  0.00     0.346 HD
ENDBRANCH   7  13
BRANCH  11  17
ATOM     17  S   UNL     1      -3.706   3.879   0.868  1.00  0.00    -0.092 SA
BRANCH  17  18
ATOM     18  C   UNL     1      -3.013   3.637   2.454  1.00  0.00     0.150 A 
ATOM     19  N   UNL     1      -1.723   3.461   2.639  1.00  0.00    -0.238 NA
ATOM     20  S   UNL     1      -3.971   3.671   3.878  1.00  0.00    -0.116 S 
ATOM     21  C   UNL     1      -1.455   3.397   3.994  1.00  0.00     0.124 A 
ATOM     22  C   UNL     1      -2.554   3.475   4.822  1.00  0.00     0.087 A 
ENDBRANCH  17  18
ENDBRANCH  11  17
ENDBRANCH   4   7
ENDBRANCH   2   3
ENDBRANCH   1   2
BRANCH   1  23
ATOM     23  C   UNL     1       2.379  -0.119   2.626  1.00  0.00     0.118 C 
BRANCH  23  24
ATOM     24  N   UNL     1       2.905   0.989   3.412  1.00  0.00    -0.352 N 
ATOM     25  C   UNL     1       3.476   0.997   4.660  1.00  0.00     0.251 C 
ATOM     26  H   UNL     1       2.840   1.871   2.979  1.00  0.00     0.163 HD
ATOM     27  O   UNL     1       3.657   2.062   5.241  1.00  0.00    -0.269 OA
BRANCH  25  28
ATOM     28  C   UNL     1       3.846  -0.274   5.321  1.00  0.00     0.039 A 
ATOM     29  C   UNL     1       3.611  -0.415   6.691  1.00  0.00     0.014 A 
ATOM     30  C   UNL     1       4.429  -1.320   4.603  1.00  0.00     0.014 A 
ATOM     31  C   UNL     1       3.888  -1.631   7.321  1.00  0.00     0.010 A 
ATOM     32  C   UNL     1       4.611  -2.560   5.207  1.00  0.00     0.010 A 
ATOM     33  C   UNL     1       4.347  -2.728   6.574  1.00  0.00    -0.014 A 
BRANCH  33  34
ATOM     34  C   UNL     1       4.560  -4.057   7.203  1.00  0.00     0.031 A 
ATOM     35  C   UNL     1       5.930  -4.679   7.212  1.00  0.00     0.074 A 
ATOM     36  C   UNL     1       3.508  -4.734   7.704  1.00  0.00     0.049 A 
ATOM     37  N   UNL     1       6.302  -5.858   7.642  1.00  0.00    -0.248 NA
ATOM     38  C   UNL     1       7.024  -3.880   6.635  1.00  0.00     0.031 C 
ATOM     39  C   UNL     1       2.122  -4.261   7.709  1.00  0.00     0.029 A 
ATOM     40  N   UNL     1       3.437  -5.971   8.296  1.00  0.00    -0.354 N 
ATOM     41  C   UNL     1       7.662  -5.947   7.373  1.00  0.00     0.074 A 
ATOM     42  C   UNL     1       8.039  -4.729   6.691  1.00  0.00     0.031 C 
ATOM     43  C   UNL     1       1.344  -5.183   8.299  1.00  0.00     0.029 A 
ATOM     44  C   UNL     1       2.165  -6.330   8.672  1.00  0.00     0.049 A 
ATOM     45  H   UNL     1       4.223  -6.546   8.438  1.00  0.00     0.167 HD
ATOM     46  C   UNL     1       8.523  -6.942   7.691  1.00  0.00     0.037 A 
ATOM     47  C   UNL     1       1.711  -7.462   9.244  1.00  0.00     0.037 A 
ATOM     48  C   UNL     1       8.148  -8.142   8.392  1.00  0.00     0.049 A 
ATOM     49  C   UNL     1       2.688  -8.559   9.574  1.00  0.00     0.074 A 
ATOM     50  C   UNL     1       8.956  -9.183   8.813  1.00  0.00     0.029 A 
ATOM     51  N   UNL     1       6.852  -8.462   8.772  1.00  0.00    -0.354 N 
ATOM     52  N   UNL     1       3.984  -8.600   9.380  1.00  0.00    -0.248 NA
ATOM     53  C   UNL     1       2.139  -9.765  10.208  1.00  0.00     0.031 C 
ATOM     54  C   UNL     1       8.142 -10.159   9.398  1.00  0.00     0.029 A 
ATOM     55  C   UNL     1       6.836  -9.698   9.399  1.00  0.00     0.049 A 
ATOM     56  H   UNL     1       6.062  -7.896   8.618  1.00  0.00     0.167 HD
ATOM     57  C   UNL     1       4.410  -9.815   9.899  1.00  0.00     0.074 A 
ATOM     58  C   UNL     1       3.235 -10.476  10.428  1.00  0.00     0.031 C 
ATOM     59  C   UNL     1       5.660 -10.337   9.934  1.00  0.00     0.037 A 
BRANCH  46  60
ATOM     60  C   UNL     1       9.961  -6.777   7.287  1.00  0.00     0.064 A 
ATOM     61  C   UNL     1      10.789  -5.815   7.886  1.00  0.00     0.173 A 
ATOM     62  C   UNL     1      10.530  -7.619   6.320  1.00  0.00     0.173 A 
ATOM     63  F   UNL     1      10.293  -4.977   8.809  1.00  0.00    -0.203 F 
ATOM     64  C   UNL     1      12.124  -5.684   7.511  1.00  0.00     0.198 A 
ATOM     65  C   UNL     1      11.874  -7.508   5.972  1.00  0.00     0.198 A 
ATOM     66  F   UNL     1       9.786  -8.560   5.719  1.00  0.00    -0.203 F 
ATOM     67  F   UNL     1      12.881  -4.724   8.061  1.00  0.00    -0.200 F 
ATOM     68  C   UNL     1      12.667  -6.535   6.561  1.00  0.00     0.200 A 
ATOM     69  F   UNL     1      12.401  -8.342   5.065  1.00  0.00    -0.200 F 
ATOM     70  F   UNL     1      13.955  -6.415   6.210  1.00  0.00    -0.200 F 
ENDBRANCH  46  60
BRANCH  47  71
ATOM     71  C   UNL     1       0.265  -7.611   9.558  1.00  0.00     0.064 A 
ATOM     72  C   UNL     1      -0.182  -7.661  10.886  1.00  0.00     0.173 A 
ATOM     73  C   UNL     1      -0.697  -7.722   8.543  1.00  0.00     0.173 A 
ATOM     74  F   UNL     1       0.700  -7.578  11.893  1.00  0.00    -0.203 F 
ATOM     75  C   UNL     1      -1.531  -7.844  11.187  1.00  0.00     0.198 A 
ATOM     76  C   UNL     1      -2.049  -7.872   8.845  1.00  0.00     0.198 A 
ATOM     77  F   UNL     1      -0.325  -7.674   7.256  1.00  0.00    -0.203 F 
ATOM     78  F   UNL     1      -1.922  -7.942  12.464  1.00  0.00    -0.200 F 
ATOM     79  C   UNL     1      -2.464  -7.944  10.166  1.00  0.00     0.200 A 
ATOM     80  F   UNL     1      -2.949  -7.950   7.856  1.00  0.00    -0.200 F 
ATOM     81  F   UNL     1      -3.760  -8.117  10.455  1.00  0.00    -0.200 F 
ENDBRANCH  47  71
BRANCH  59  82
ATOM     82  C   UNL     1       5.835 -11.668  10.608  1.00  0.00     0.064 A 
ATOM     83  C   UNL     1       5.350 -12.855  10.040  1.00  0.00     0.173 A 
ATOM     84  C   UNL     1       6.538 -11.759  11.820  1.00  0.00     0.173 A 
ATOM     85  F   UNL     1       4.660 -12.821   8.891  1.00  0.00    -0.203 F 
ATOM     86  C   UNL     1       5.537 -14.080  10.675  1.00  0.00     0.198 A 
ATOM     87  C   UNL     1       6.753 -12.989  12.434  1.00  0.00     0.198 A 
ATOM     88  F   UNL     1       7.030 -10.654  12.401  1.00  0.00    -0.203 F 
ATOM     89  F   UNL     1       5.019 -15.195  10.142  1.00  0.00    -0.200 F 
ATOM     90  C   UNL     1       6.245 -14.147  11.866  1.00  0.00     0.200 A 
ATOM     91  F   UNL     1       7.452 -13.053  13.575  1.00  0.00    -0.200 F 
ATOM     92  F   UNL     1       6.433 -15.328  12.470  1.00  0.00    -0.200 F 
ENDBRANCH  59  82
ENDBRANCH  33  34
ENDBRANCH  25  28
ENDBRANCH  23  24
ENDBRANCH   1  23
TORSDOF 13
